data_PCOD8000641
_publ_section_title
;
Structure prediction by ZEFSAII (Michael W. Deem and Ramdas Pophale) SiO2 
 PCOD8000641
Probable space group: P -1
;
_chemical_formula_sum "Si O2"
_cell_formula_units_Z 16
_cell_length_a 11.548374
_cell_length_b 8.297125
_cell_length_c 10.806178
_cell_angle_alpha 134.508519
_cell_angle_beta 82.253255
_cell_angle_gamma 94.460340
_cell_volume 731.468708
_symmetry_space_group_name_H-M "P -1"
_symmetry_group_IT_number 2
_symmetry_cell_setting 'triclinic'
loop_
_space_group_symop_operation_xyz
x,y,z
-x,-y,-z
loop_
_atom_site_type_symbol
_atom_site_label
_atom_site_fract_x
_atom_site_fract_y
_atom_site_fract_z
Si Si1 0.200829 0.802152 0.041513
Si Si2 0.646029 0.879828 0.655947
Si Si3 0.419898 0.963675 0.606932
Si Si4 0.052869 0.176676 0.829768
Si Si5 0.747539 0.690760 0.283361
Si Si6 0.130383 0.217569 0.109095
Si Si7 0.717089 0.476725 0.583795
Si Si8 0.931938 0.297378 0.347979
O O1 0.079097 0.724164 0.081770
O O2 0.279986 0.912266 0.194792
O O3 0.182571 0.980974 0.028654
O O4 0.270714 0.578787 0.862272
O O5 0.710062 0.791297 0.474690
O O6 0.639259 0.679397 0.648759
O O7 0.509663 0.957453 0.705804
O O8 0.326235 0.172345 0.739439
O O9 0.500000 0.000000 0.500000
O O10 0.361518 0.722271 0.462169
O O11 0.115429 0.271677 0.749217
O O12 0.046054 0.907294 0.669631
O O13 0.134772 0.221719 0.962964
O O14 0.201576 0.428776 0.266573
O O15 0.990800 0.233745 0.173193
O O16 0.795916 0.370943 0.402357
O O17 0.000000 0.500000 0.500000
#
# Coordination Sequence:
#
# PCOD8000641 Si02
#       8
#     2   2   2   2   2   2   2   2
#     4  10  22  41  58  94 126 161 207 249 307 373
#     4  10  24  41  65  87 122 167 209 263 297 360
#     4  10  22  42  63  90 122 161 212 257 309 360
#     4  11  21  38  58  94 130 157 200 254 309 372
#     4  11  24  39  62  89 127 170 201 252 316 369
#     4   9  21  36  62  93 125 158 200 256 301 369
#     4  10  19  39  66  90 117 160 213 251 309 362
#     4   9  17  32  57  87 116 156 196 239 297 366
#
# _framework density 21.873798000000001
#
# number of rings (size 3 to 8) (size 9 to 14) (size 15 to 20)
#    0.000    2.000    1.250    3.000    3.500    3.000 
#    0.000    1.250    0.000    8.250    0.000    0.000 
#    0.000    0.000    0.000    0.000    0.000    0.000 
#
# Total GULP energy -198275.882304 kJ/mol
# GULP energy per Si atom -12392.242644 kJ/mol
# Density = 2.182401 g / cm^3
# Si number density = 21.873798 Si / 1000 Ang^3
#
#
#
# Elastic Constant Matrix: (Units=GPa)
#
#
# Indices 1 2 3 4 5 6 
#
# 1 95.3773 32.1195 34.7744 18.2270 15.9358 3.1270
# 2 32.1195 71.7621 38.2618 15.9950 8.2715 12.9265
# 3 34.7744 38.2618 120.3407 23.2582 12.1144 0.0266
# 4 18.2270 15.9950 23.2582 24.0463 -1.8963 -4.7401
# 5 15.9358 8.2715 12.1144 -1.8963 27.0923 2.7848
# 6 3.1270 12.9265 0.0266 -4.7401 2.7848 33.4427
#
#
#
# Elastic Compliance Matrix: (Units=1/GPa)
#
#
# Indices 1 2 3 4 5 6 
#
# 1 0.014976 -0.003157 -0.000694 -0.009385 -0.008106 -0.000835
# 2 -0.003157 0.021657 -0.003637 -0.010563 -0.002910 -0.009328
# 3 -0.000694 -0.003637 0.011792 -0.008691 -0.004424 0.000598
# 4 -0.009385 -0.010563 -0.008691 0.068012 0.016027 0.013273
# 5 -0.008106 -0.002910 -0.004424 0.016027 0.045630 0.000358
# 6 -0.000835 -0.009328 0.000598 0.013273 0.000358 0.035436
#
#
# Mechanical properties :
#
#
# Convention : Reuss Voigt Hill
#
# Bulk Modulus (GPa) = 29.89610 55.31014 42.60312
# Shear Modulus (GPa) = 22.35852 29.07120 25.71486
#
# Velocity S-wave (km/s) = 3.20059 3.64956 3.43242
# Velocity P-wave (km/s) = 5.23026 6.56506 5.93530
#
# Compressibility (1/GPa) = 0.03344918
#
# Stress axis : x y z
#
# Youngs Moduli (GPa) = 66.77425 46.17441 84.80671
#
# Poissons Ratio (x) = 0.14575 0.05885
# Poissons Ratio (y) = 0.21078 0.30845
# Poissons Ratio (z) = 0.04634 0.16794
#
# Static dielectric constant tensor:
#      x y z
#    x 4.697140 -0.323530 -0.254170 
#    y -0.323530 3.914530 0.275270 
#    z -0.254170 0.275270 4.141250 
# 
# 
# High freq. dielectric constant tensor:
#      x y z
#    x 1.854700 0.000440 -0.003990 
#    y 0.000440 1.854210 0.023170 
#    z -0.003990 0.023170 1.856960 
# 
# From -- ./inp_files/284874.got.cif
#   From: 2010.06.25/outbox.cif.g09.slc.cpg/sg2_143_cif.got.tgz:284874.got - 2010.06.27 13:26:56.
