data_PCOD8000781
_publ_section_title
;
Structure prediction by ZEFSAII (Michael W. Deem and Ramdas Pophale) SiO2 
 PCOD8000781
Probable space group: P -1
;
_chemical_formula_sum "Si O2"
_cell_formula_units_Z 14
_cell_length_a 10.784249
_cell_length_b 14.652060
_cell_length_c 9.364121
_cell_angle_alpha 143.648860
_cell_angle_beta 77.777643
_cell_angle_gamma 119.454824
_cell_volume 713.297651
_symmetry_space_group_name_H-M "P -1"
_symmetry_group_IT_number 2
_symmetry_cell_setting 'triclinic'
loop_
_space_group_symop_operation_xyz
x,y,z
-x,-y,-z
loop_
_atom_site_type_symbol
_atom_site_label
_atom_site_fract_x
_atom_site_fract_y
_atom_site_fract_z
Si Si1 0.289442 0.609147 0.897283
Si Si2 0.128306 0.984103 0.280259
Si Si3 0.853496 0.359218 0.767465
Si Si4 0.849092 0.012369 0.396549
Si Si5 0.662882 0.690051 0.543361
Si Si6 0.400490 0.302479 0.117886
Si Si7 0.973591 0.411542 0.241071
O O1 0.236866 0.394875 0.625479
O O2 0.467234 0.740922 0.971857
O O3 0.183221 0.636066 0.852343
O O4 0.283692 0.659902 0.129577
O O5 0.181780 0.976408 0.415873
O O6 0.016162 0.054148 0.389903
O O7 0.718563 0.868802 0.657931
O O8 0.041742 0.781430 0.976476
O O9 0.835892 0.164066 0.506286
O O10 0.878187 0.450447 0.719915
O O11 0.000000 0.500000 0.000000
O O12 0.722186 0.808287 0.114748
O O13 0.483369 0.525345 0.353785
O O14 0.687189 0.757214 0.785633
O O15 0.000000 0.500000 0.500000
#
# Coordination Sequence:
#
# PCOD8000781 Si02
#       7
#     2   2   2   2   2   2   2
#     4   9  19  42  62  79 123 161 191 238 294 356
#     4  11  23  37  61  92 122 144 201 257 283 340
#     4  10  19  40  60  85 121 160 191 240 295 352
#     4  11  23  38  63  91 115 157 204 236 294 355
#     4   9  21  41  61  86 119 160 196 243 290 349
#     4   9  22  40  65  82 117 165 200 231 294 363
#     4  11  24  37  61  94 120 149 195 251 301 339
#
# _framework density 19.627148999999999
#
# number of rings (size 3 to 8) (size 9 to 14) (size 15 to 20)
#    0.857    1.143    2.857    1.714    6.000    1.714 
#    0.000    2.143    0.000    0.000    0.000    0.000 
#    0.000    0.000    0.000    0.000    0.000    0.000 
#
# Total GULP energy -173501.886536 kJ/mol
# GULP energy per Si atom -12392.991895 kJ/mol
# Density = 1.958248 g / cm^3
# Si number density = 19.627149 Si / 1000 Ang^3
#
#
#
# Elastic Constant Matrix: (Units=GPa)
#
#
# Indices 1 2 3 4 5 6 
#
# 1 39.4272 19.5660 12.2547 -4.4720 -4.9625 4.6032
# 2 19.5660 141.5089 60.6545 1.8275 -10.8243 3.2286
# 3 12.2547 60.6545 123.9075 -10.8813 -3.0838 0.8781
# 4 -4.4720 1.8275 -10.8813 35.3510 0.7286 -5.5667
# 5 -4.9625 -10.8243 -3.0838 0.7286 33.7557 2.2538
# 6 4.6032 3.2286 0.8781 -5.5667 2.2538 13.9872
#
#
#
# Elastic Compliance Matrix: (Units=1/GPa)
#
#
# Indices 1 2 3 4 5 6 
#
# 1 0.028915 -0.003124 -0.000994 0.002101 0.003680 -0.008489
# 2 -0.003124 0.009765 -0.004635 -0.002761 0.002471 -0.002432
# 3 -0.000994 -0.004635 0.010733 0.003812 -0.000893 0.002384
# 4 0.002101 -0.002761 0.003812 0.031904 -0.001764 0.012688
# 5 0.003680 0.002471 -0.000893 -0.001764 0.031414 -0.007489
# 6 -0.008489 -0.002432 0.002384 0.012688 -0.007489 0.080956
#
#
# Mechanical properties :
#
#
# Convention : Reuss Voigt Hill
#
# Bulk Modulus (GPa) = 31.34066 54.42153 42.88110
# Shear Modulus (GPa) = 22.53976 30.77667 26.65821
#
# Velocity S-wave (km/s) = 3.39248 3.96418 3.68942
# Velocity P-wave (km/s) = 5.59892 6.98146 6.32806
#
# Compressibility (1/GPa) = 0.03190743
#
# Stress axis : x y z
#
# Youngs Moduli (GPa) = 34.58412 102.40178 93.16693
#
# Poissons Ratio (x) = 0.31987 0.09265
# Poissons Ratio (y) = 0.10803 0.43184
# Poissons Ratio (z) = 0.03439 0.47464
#
# Static dielectric constant tensor:
#      x y z
#    x 3.339800 0.245870 -0.324720 
#    y 0.245870 3.844110 -0.179930 
#    z -0.324720 -0.179930 3.665340 
# 
# 
# High freq. dielectric constant tensor:
#      x y z
#    x 1.731770 0.014720 -0.017330 
#    y 0.014720 1.763430 -0.004740 
#    z -0.017330 -0.004740 1.769290 
# 
# From -- ./inp_files/269246.got.cif
#   From: 2010.06.25/outbox.cif.g09.slc.cpg/sg2_135_cif.got.tgz:269246.got - 2010.06.27 13:26:56.
