data_PCOD8000074
_publ_section_title
;
Structure prediction by ZEFSAII (Michael W. Deem and Ramdas Pophale) SiO2 
 PCOD8000074
Probable space group: P 1
;
_chemical_formula_sum "Si O2"
_cell_formula_units_Z 8
_cell_length_a 12.082279
_cell_length_b 5.227767
_cell_length_c 7.679765
_cell_angle_alpha 95.143769
_cell_angle_beta 55.453815
_cell_angle_gamma 67.691471
_cell_volume 338.759236
_symmetry_space_group_name_H-M "P 1"
_symmetry_group_IT_number 1
_symmetry_cell_setting 'triclinic'
loop_
_space_group_symop_operation_xyz
x,y,z
loop_
_atom_site_type_symbol
_atom_site_label
_atom_site_fract_x
_atom_site_fract_y
_atom_site_fract_z
Si Si1 0.293990 0.913060 0.768440
Si Si2 0.126010 0.579021 0.812914
Si Si3 0.594784 0.895822 0.007056
Si Si4 0.641417 0.457770 0.343529
Si Si5 0.266038 0.098465 0.185777
Si Si6 0.102656 0.756283 0.456161
Si Si7 0.742094 0.243527 0.847942
Si Si8 0.761987 0.837434 0.220333
O O1 0.182519 0.772712 0.882250
O O2 0.453852 0.677732 0.511013
O O3 0.215366 0.225143 0.752552
O O4 0.336521 0.962905 0.926431
O O5 0.159492 0.624652 0.588936
O O6 0.943528 0.701987 0.011812
O O7 0.657978 0.864246 0.145005
O O8 0.407185 0.047691 0.182342
O O9 0.680218 0.560483 0.825374
O O10 0.638280 0.104357 0.869528
O O11 0.731796 0.615763 0.353193
O O12 0.685823 0.163436 0.402855
O O13 0.720886 0.300500 0.077902
O O14 0.142857 0.459416 0.290250
O O15 0.190708 0.922886 0.327035
O O16 0.919761 0.004137 0.623735
#
# Coordination Sequence:
#
# PCOD8000074 Si02
#       8
#     1   1   1   1   1   1   1   1
#     4  12  28  46  67 104 148 185 218 279 361 419
#     4  12  25  44  75 105 133 181 239 289 332 404
#     4  10  21  40  65  97 136 170 225 284 333 399
#     4  10  21  40  65  97 136 170 225 284 333 399
#     4  12  28  46  67 104 148 185 218 279 361 419
#     4  12  25  44  75 105 133 181 239 289 332 404
#     4  10  21  40  67 102 128 167 236 292 327 381
#     4  10  21  40  67 102 128 167 236 292 327 381
#
# _framework density 23.615593000000001
#
# number of rings (size 3 to 8) (size 9 to 14) (size 15 to 20)
#    0.000    1.000    2.500    4.500   14.000    0.000 
#    0.000    7.500    0.000    0.000    0.000    0.000 
#    0.000    0.000    0.000    0.000    0.000    0.000 
#
# Total GULP energy -99153.674968 kJ/mol
# GULP energy per Si atom -12394.209371 kJ/mol
# Density = 2.356184 g / cm^3
# Si number density = 23.615593 Si / 1000 Ang^3
#
#
#
# Elastic Constant Matrix: (Units=GPa)
#
#
# Indices 1 2 3 4 5 6 
#
# 1 73.3003 48.9930 46.6323 -3.5404 -22.5000 34.8118
# 2 48.9930 202.6979 56.9465 35.3027 -21.9028 57.7509
# 3 46.6323 56.9465 93.5594 25.1484 -31.5953 7.3370
# 4 -3.5404 35.3027 25.1484 40.8156 5.5052 -2.0420
# 5 -22.5000 -21.9028 -31.5953 5.5052 28.0447 -0.0378
# 6 34.8118 57.7509 7.3370 -2.0420 -0.0378 47.5273
#
#
#
# Elastic Compliance Matrix: (Units=1/GPa)
#
#
# Indices 1 2 3 4 5 6 
#
# 1 0.044947 0.005851 -0.018131 0.005590 0.019056 -0.036977
# 2 0.005851 0.015565 0.002419 -0.018797 0.023232 -0.024360
# 3 -0.018131 0.002419 0.040544 -0.033864 0.039671 0.002659
# 4 0.005590 -0.018797 -0.033864 0.071879 -0.062420 0.027013
# 5 0.019056 0.023232 0.039671 -0.062420 0.125967 -0.050893
# 6 -0.036977 -0.024360 0.002659 0.027013 -0.050893 0.078435
#
#
# Mechanical properties :
#
#
# Convention : Reuss Voigt Hill
#
# Bulk Modulus (GPa) = 12.29531 74.96678 43.63104
# Shear Modulus (GPa) = 11.78769 37.74325 24.76547
#
# Velocity S-wave (km/s) = 2.23659 4.00213 3.24186
# Velocity P-wave (km/s) = 3.44783 7.29175 5.70338
#
# Compressibility (1/GPa) = 0.08133185
#
# Stress axis : x y z
#
# Youngs Moduli (GPa) = 22.24840 64.24868 24.66454
#
# Poissons Ratio (x) = -0.37589 0.44720
# Poissons Ratio (y) = -0.13017 -0.05966
# Poissons Ratio (z) = 0.40339 -0.15541
#
# Static dielectric constant tensor:
#      x y z
#    x 4.309780 0.845940 -0.027030 
#    y 0.845940 5.826270 0.359060 
#    z -0.027030 0.359060 4.079730 
# 
# 
# High freq. dielectric constant tensor:
#      x y z
#    x 1.922070 0.029750 -0.019300 
#    y 0.029750 1.967890 0.020260 
#    z -0.019300 0.020260 1.923810 
# 
# From -- ./inp_files/5175.got.cif
#   From: 2010.03.12/outbox.cif.g09.slc.cpg/sg1_3_cif.got.tgz:5175.got - 2010.03.29 11:57:58.
