data_PCOD8000232
_publ_section_title
;
Structure prediction by ZEFSAII (Michael W. Deem and Ramdas Pophale) SiO2 
 PCOD8000232
Probable space group: P 1
;
_chemical_formula_sum "Si O2"
_cell_formula_units_Z 8
_cell_length_a 9.042328
_cell_length_b 14.578599
_cell_length_c 11.478287
_cell_angle_alpha 29.298513
_cell_angle_beta 138.354664
_cell_angle_gamma 149.736004
_cell_volume 373.071752
_symmetry_space_group_name_H-M "P 1"
_symmetry_group_IT_number 1
_symmetry_cell_setting 'triclinic'
loop_
_space_group_symop_operation_xyz
x,y,z
loop_
_atom_site_type_symbol
_atom_site_label
_atom_site_fract_x
_atom_site_fract_y
_atom_site_fract_z
Si Si1 0.269040 0.820710 0.664590
Si Si2 0.245646 0.447506 0.226208
Si Si3 0.628434 0.585183 0.749269
Si Si4 0.743692 0.194478 0.914454
Si Si5 0.317094 0.690514 0.606805
Si Si6 0.621530 0.167270 0.141921
Si Si7 0.301529 0.070856 0.608542
Si Si8 0.697080 0.744572 0.372958
O O1 0.457382 0.858307 0.621755
O O2 0.957437 0.734736 0.530703
O O3 0.439942 0.067025 0.572776
O O4 0.227659 0.613774 0.946965
O O5 0.332287 0.310833 0.355543
O O6 0.471309 0.596566 0.298546
O O7 0.906149 0.234545 0.301823
O O8 0.478862 0.592380 0.766871
O O9 0.514020 0.617682 0.525905
O O10 0.542903 0.320107 0.987374
O O11 0.974636 0.809330 0.709209
O O12 0.443376 0.061899 0.816431
O O13 0.984318 0.455790 0.702722
O O14 0.689162 0.228722 0.976647
O O15 0.837738 0.029314 0.142485
O O16 0.351118 0.873297 0.327089
#
# Coordination Sequence:
#
# PCOD8000232 Si02
#       8
#     1   1   1   1   1   1   1   1
#     4  11  24  43  66 105 133 178 228 276 342 401
#     4  12  21  43  74  97 134 183 229 275 339 407
#     4  11  23  44  70 102 135 180 229 279 345 401
#     4  12  23  46  73  99 142 180 229 280 345 408
#     4  12  26  42  67 105 135 182 225 285 339 400
#     4  12  23  46  70  96 143 178 225 284 338 408
#     4  11  22  44  74  99 133 192 222 275 351 408
#     4  11  22  44  76  97 137 187 223 280 347 407
#
# _framework density 21.443598000000001
#
# number of rings (size 3 to 8) (size 9 to 14) (size 15 to 20)
#    0.000    0.500    7.500    2.250    1.750    0.000 
#    2.250    2.500    0.000    0.000    0.000    0.000 
#    0.000    0.000    0.000    0.000    0.000    0.000 
#
# Total GULP energy -99133.443952 kJ/mol
# GULP energy per Si atom -12391.680494 kJ/mol
# Density = 2.139479 g / cm^3
# Si number density = 21.443598 Si / 1000 Ang^3
#
#
#
# Elastic Constant Matrix: (Units=GPa)
#
#
# Indices 1 2 3 4 5 6 
#
# 1 169.5771 48.9752 61.1123 -6.4604 17.9320 -31.0436
# 2 48.9752 84.1018 50.9313 4.6376 -3.7675 -25.0919
# 3 61.1123 50.9313 130.8700 -3.0484 21.8325 -8.9474
# 4 -6.4604 4.6376 -3.0484 41.5007 -6.2117 -0.6735
# 5 17.9320 -3.7675 21.8325 -6.2117 40.1964 -11.9962
# 6 -31.0436 -25.0919 -8.9474 -0.6735 -11.9962 29.5031
#
#
#
# Elastic Compliance Matrix: (Units=1/GPa)
#
#
# Indices 1 2 3 4 5 6 
#
# 1 0.008733 -0.000997 -0.003177 0.001387 0.000184 0.007484
# 2 -0.000997 0.028127 -0.011551 -0.001175 0.017010 0.026259
# 3 -0.003177 -0.011551 0.014641 -0.000091 -0.011650 -0.013465
# 4 0.001387 -0.001175 -0.000091 0.025074 0.003978 0.002622
# 5 0.000184 0.017010 -0.011650 0.003978 0.041746 0.028192
# 6 0.007484 0.026259 -0.013465 0.002622 0.028192 0.071542
#
#
# Mechanical properties :
#
#
# Convention : Reuss Voigt Hill
#
# Bulk Modulus (GPa) = 49.86992 78.50961 64.18977
# Shear Modulus (GPa) = 21.93015 37.14207 29.53611
#
# Velocity S-wave (km/s) = 3.20142 4.16634 3.71534
# Velocity P-wave (km/s) = 6.08048 7.73539 6.95731
#
# Compressibility (1/GPa) = 0.02005217
#
# Stress axis : x y z
#
# Youngs Moduli (GPa) = 114.50329 35.55293 68.30301
#
# Poissons Ratio (x) = 0.03545 0.21699
# Poissons Ratio (y) = 0.11417 0.78893
# Poissons Ratio (z) = 0.36376 0.41065
#
# Static dielectric constant tensor:
#      x y z
#    x 4.343450 -0.390700 0.169560 
#    y -0.390700 3.900030 -0.029840 
#    z 0.169560 -0.029840 4.035910 
# 
# 
# High freq. dielectric constant tensor:
#      x y z
#    x 1.843700 -0.033580 0.020830 
#    y -0.033580 1.826170 -0.008590 
#    z 0.020830 -0.008590 1.852780 
# 
# From -- ./inp_files/4896.got.cif
#   From: 2010.03.12/outbox.cif.g09.slc.cpg/sg1_3_cif.got.tgz:4896.got - 2010.03.29 11:57:58.
