data_PCOD8000098
_publ_section_title
;
Structure prediction by ZEFSAII (Michael W. Deem and Ramdas Pophale) SiO2 
 PCOD8000098
Probable space group: P 1
;
_chemical_formula_sum "Si O2"
_cell_formula_units_Z 8
_cell_length_a 8.114250
_cell_length_b 7.045373
_cell_length_c 11.884566
_cell_angle_alpha 89.521700
_cell_angle_beta 129.299686
_cell_angle_gamma 55.499216
_cell_volume 354.304742
_symmetry_space_group_name_H-M "P 1"
_symmetry_group_IT_number 1
_symmetry_cell_setting 'triclinic'
loop_
_space_group_symop_operation_xyz
x,y,z
loop_
_atom_site_type_symbol
_atom_site_label
_atom_site_fract_x
_atom_site_fract_y
_atom_site_fract_z
Si Si1 0.919540 0.704220 0.195910
Si Si2 0.181172 0.174740 0.897037
Si Si3 0.139107 0.504822 0.062355
Si Si4 0.872007 0.084758 0.900858
Si Si5 0.834623 0.203821 0.351182
Si Si6 0.088180 0.017947 0.229639
Si Si7 0.159816 0.605382 0.533161
Si Si8 0.810522 0.546436 0.520300
O O1 0.053708 0.484598 0.152698
O O2 0.090226 0.791834 0.250299
O O3 0.026651 0.574225 0.367799
O O4 0.542856 0.968119 0.021869
O O5 0.129479 0.996356 0.923786
O O6 0.958705 0.352423 0.693936
O O7 0.058052 0.396675 0.939376
O O8 0.502847 0.316580 0.209321
O O9 0.921669 0.828792 0.939503
O O10 0.532532 0.341661 0.700134
O O11 0.908057 0.175857 0.033707
O O12 0.839355 0.378196 0.433190
O O13 0.909417 0.233306 0.256993
O O14 0.087538 0.877480 0.498141
O O15 0.450526 0.846936 0.381802
O O16 0.001860 0.611837 0.573615
#
# Coordination Sequence:
#
# PCOD8000098 Si02
#       8
#     1   1   1   1   1   1   1   1
#     4  10  21  43  67  97 136 172 220 279 324 398
#     4  12  25  44  70 101 137 176 225 277 333 399
#     4  11  24  45  72  95 136 182 220 273 342 392
#     4  11  25  44  69 102 138 173 226 279 332 397
#     4  11  24  45  72  95 136 182 220 273 342 392
#     4  10  21  43  67  97 136 172 220 279 324 398
#     4  11  25  44  69 102 138 173 226 279 332 397
#     4  12  25  44  70 101 137 176 225 277 333 399
#
# _framework density 22.579432000000001
#
# number of rings (size 3 to 8) (size 9 to 14) (size 15 to 20)
#    0.000    1.000    5.000    3.750    0.000    6.000 
#    0.000    0.000    0.000    0.000    0.000    0.000 
#    0.000    0.000    0.000    0.000    0.000    0.000 
#
# Total GULP energy -99213.494435 kJ/mol
# GULP energy per Si atom -12401.686804 kJ/mol
# Density = 2.252804 g / cm^3
# Si number density = 22.579432 Si / 1000 Ang^3
#
#
#
# Elastic Constant Matrix: (Units=GPa)
#
#
# Indices 1 2 3 4 5 6 
#
# 1 91.4790 12.2662 7.7121 4.5845 -2.0303 -23.7605
# 2 12.2662 69.2876 26.9347 4.6214 -1.7213 -35.5622
# 3 7.7121 26.9347 117.2400 -3.6614 -3.8090 -15.6683
# 4 4.5845 4.6214 -3.6614 38.9004 -9.4432 -4.6206
# 5 -2.0303 -1.7213 -3.8090 -9.4432 37.5633 3.0179
# 6 -23.7605 -35.5622 -15.6683 -4.6206 3.0179 33.7307
#
#
#
# Elastic Compliance Matrix: (Units=1/GPa)
#
#
# Indices 1 2 3 4 5 6 
#
# 1 0.014384 0.005851 -0.000159 -0.000584 -0.000418 0.016184
# 2 0.005851 0.034935 -0.003219 -0.000890 -0.001806 0.039498
# 3 -0.000159 -0.003219 0.009509 0.001699 0.001152 0.001041
# 4 -0.000584 -0.000890 0.001699 0.028041 0.006936 0.002660
# 5 -0.000418 -0.001806 0.001152 0.006936 0.028640 -0.003276
# 6 0.016184 0.039498 0.001041 0.002660 -0.003276 0.083831
#
#
# Mechanical properties :
#
#
# Convention : Reuss Voigt Hill
#
# Bulk Modulus (GPa) = 15.68052 41.31474 28.49763
# Shear Modulus (GPa) = 23.18549 37.44509 30.31529
#
# Velocity S-wave (km/s) = 3.20791 4.07673 3.66813
# Velocity P-wave (km/s) = 4.54759 6.36371 5.53071
#
# Compressibility (1/GPa) = 0.06377341
#
# Stress axis : x y z
#
# Youngs Moduli (GPa) = 69.52161 28.62456 105.16254
#
# Poissons Ratio (x) = -0.16747 0.01675
# Poissons Ratio (y) = -0.40674 0.33849
# Poissons Ratio (z) = 0.01107 0.09213
#
# Static dielectric constant tensor:
#      x y z
#    x 4.512980 -0.206270 -0.222870 
#    y -0.206270 4.267270 0.232530 
#    z -0.222870 0.232530 4.051750 
# 
# 
# High freq. dielectric constant tensor:
#      x y z
#    x 1.911460 -0.012340 -0.002550 
#    y -0.012340 1.880460 0.005470 
#    z -0.002550 0.005470 1.891910 
# 
# From -- ./inp_files/4148.got.cif
#   From: 2010.03.12/outbox.cif.g09.slc.cpg/sg1_3_cif.got.tgz:4148.got - 2010.03.29 11:57:58.
