data_PCOD8000509
_publ_section_title
;
Structure prediction by ZEFSAII (Michael W. Deem and Ramdas Pophale) SiO2 
 PCOD8000509
Probable space group: P -1
;
_chemical_formula_sum "Si O2"
_cell_formula_units_Z 16
_cell_length_a 16.510568
_cell_length_b 13.315461
_cell_length_c 8.982449
_cell_angle_alpha 76.096362
_cell_angle_beta 56.229146
_cell_angle_gamma 30.878651
_cell_volume 700.795602
_symmetry_space_group_name_H-M "P -1"
_symmetry_group_IT_number 2
_symmetry_cell_setting 'triclinic'
loop_
_space_group_symop_operation_xyz
x,y,z
-x,-y,-z
loop_
_atom_site_type_symbol
_atom_site_label
_atom_site_fract_x
_atom_site_fract_y
_atom_site_fract_z
Si Si1 0.713587 0.204357 0.991466
Si Si2 0.944237 0.394132 0.036504
Si Si3 0.907148 0.845443 0.328968
Si Si4 0.758054 0.372593 0.743060
Si Si5 0.771102 0.778879 0.653392
Si Si6 0.293546 0.171322 0.959548
Si Si7 0.770082 0.191184 0.250407
Si Si8 0.164711 0.686764 0.660876
O O1 0.829714 0.194910 0.804704
O O2 0.504756 0.363878 0.053630
O O3 0.612928 0.321544 0.220353
O O4 0.905419 0.937190 0.885183
O O5 0.780491 0.482429 0.280244
O O6 0.167707 0.219257 0.953278
O O7 0.798684 0.625004 0.037024
O O8 0.019493 0.248942 0.878207
O O9 0.759469 0.895299 0.529382
O O10 0.122815 0.648693 0.284512
O O11 0.777356 0.078824 0.379366
O O12 0.820315 0.314976 0.528292
O O13 0.751632 0.825925 0.829353
O O14 0.000000 0.500000 0.500000
O O15 0.560949 0.913504 0.757555
O O16 0.695510 0.358281 0.374049
O O17 0.000000 0.000000 0.000000
#
# Coordination Sequence:
#
# PCOD8000509 Si02
#       8
#     2   2   2   2   2   2   2   2
#     4  10  21  39  58  88 126 174 209 260 314 375
#     4  11  22  44  70  95 132 172 214 274 326 382
#     4  12  22  41  66  95 128 174 213 265 325 383
#     4  11  23  37  60  92 126 166 224 255 315 382
#     4  11  24  46  71  96 130 171 214 274 332 384
#     4  10  25  47  66 100 131 163 224 273 324 393
#     4  10  19  39  63  89 133 166 211 259 315 383
#     4  11  21  40  67  90 129 173 208 266 321 382
#
# _framework density 22.831195000000001
#
# number of rings (size 3 to 8) (size 9 to 14) (size 15 to 20)
#    0.000    1.250    6.250    1.125    0.000    3.000 
#    2.250    0.000    0.000    0.000    0.000    0.000 
#    0.000    0.000    0.000    0.000    0.000    0.000 
#
# Total GULP energy -198355.156587 kJ/mol
# GULP energy per Si atom -12397.197287 kJ/mol
# Density = 2.277923 g / cm^3
# Si number density = 22.831195 Si / 1000 Ang^3
#
#
#
# Elastic Constant Matrix: (Units=GPa)
#
#
# Indices 1 2 3 4 5 6 
#
# 1 117.5258 28.4515 37.6743 -7.6392 0.7810 -15.7444
# 2 28.4515 83.7159 32.7686 -26.9189 -8.8980 1.2862
# 3 37.6743 32.7686 82.6793 -25.4975 1.9697 -3.5105
# 4 -7.6392 -26.9189 -25.4975 45.7014 -5.1745 -9.2479
# 5 0.7810 -8.8980 1.9697 -5.1745 30.2092 -7.1079
# 6 -15.7444 1.2862 -3.5105 -9.2479 -7.1079 42.8020
#
#
#
# Elastic Compliance Matrix: (Units=1/GPa)
#
#
# Indices 1 2 3 4 5 6 
#
# 1 0.010840 -0.002554 -0.004202 -0.001373 -0.000196 0.003391
# 2 -0.002554 0.017869 -0.003085 0.009552 0.007540 0.001587
# 3 -0.004202 -0.003085 0.017658 0.007625 -0.000269 0.001598
# 4 -0.001373 0.009552 0.007625 0.034534 0.010389 0.009020
# 5 -0.000196 0.007540 -0.000269 0.010389 0.039106 0.008418
# 6 0.003391 0.001587 0.001598 0.009020 0.008418 0.028041
#
#
# Mechanical properties :
#
#
# Convention : Reuss Voigt Hill
#
# Bulk Modulus (GPa) = 37.47306 53.52330 45.49818
# Shear Modulus (GPa) = 28.30854 36.07764 32.19309
#
# Velocity S-wave (km/s) = 3.52505 3.97947 3.75913
# Velocity P-wave (km/s) = 5.74602 6.67899 6.22999
#
# Compressibility (1/GPa) = 0.02668584
#
# Stress axis : x y z
#
# Youngs Moduli (GPa) = 92.24825 55.96279 56.63088
#
# Poissons Ratio (x) = 0.14291 0.23797
# Poissons Ratio (y) = 0.23557 0.17471
# Poissons Ratio (z) = 0.38764 0.17265
#
# Static dielectric constant tensor:
#      x y z
#    x 4.329780 -0.288190 -0.116950 
#    y -0.288190 4.287910 -0.311470 
#    z -0.116950 -0.311470 3.997720 
# 
# 
# High freq. dielectric constant tensor:
#      x y z
#    x 1.904260 -0.015930 -0.011860 
#    y -0.015930 1.910230 -0.022020 
#    z -0.011860 -0.022020 1.896080 
# 
# From -- ./inp_files/335697.got.cif
#   From: 2010.06.25/outbox.cif.g09.slc.cpg/sg2_168_cif.got.tgz:335697.got - 2010.06.27 13:26:56.
