data_PCOD8000282
_publ_section_title
;
Structure prediction by ZEFSAII (Michael W. Deem and Ramdas Pophale) SiO2 
 PCOD8000282
Probable space group: P 1
;
_chemical_formula_sum "Si O2"
_cell_formula_units_Z 8
_cell_length_a 9.601238
_cell_length_b 16.003731
_cell_length_c 21.469285
_cell_angle_alpha 159.894721
_cell_angle_beta 26.563674
_cell_angle_gamma 154.147865
_cell_volume 466.896745
_symmetry_space_group_name_H-M "P 1"
_symmetry_group_IT_number 1
_symmetry_cell_setting 'triclinic'
loop_
_space_group_symop_operation_xyz
x,y,z
loop_
_atom_site_type_symbol
_atom_site_label
_atom_site_fract_x
_atom_site_fract_y
_atom_site_fract_z
Si Si1 0.289640 0.392980 0.444480
Si Si2 0.039361 0.892449 0.694220
Si Si3 0.966789 0.392451 0.444437
Si Si4 0.322874 0.392950 0.766863
Si Si5 0.072616 0.892430 0.016612
Si Si6 0.645201 0.392411 0.766371
Si Si7 0.717090 0.892988 0.694696
Si Si8 0.395369 0.892931 0.016668
O O1 0.603086 0.643263 0.519857
O O2 0.217333 0.458028 0.448861
O O3 0.963011 0.327351 0.572705
O O4 0.393107 0.143319 0.230518
O O5 0.102548 0.642154 0.519286
O O6 0.902287 0.827522 0.633507
O O7 0.778178 0.957908 0.888007
O O8 0.392413 0.142188 0.730037
O O9 0.583913 0.327415 0.573053
O O10 0.969304 0.142163 0.230548
O O11 0.460183 0.457907 0.827487
O O12 0.259671 0.643266 0.941834
O O13 0.969754 0.143263 0.731119
O O14 0.399304 0.958002 0.888350
O O15 0.144701 0.827353 0.012312
O O16 0.759172 0.642177 0.941241
#
# Coordination Sequence:
#
# PCOD8000282 Si02
#       8
#     1   1   1   1   1   1   1   1
#     4   9  18  32  48  67  92 120 150 185 224 266
#     4   9  18  32  48  67  92 120 150 185 224 266
#     4   9  18  32  48  67  92 120 150 185 224 266
#     4   9  18  32  48  67  92 120 150 185 224 266
#     4   9  18  32  48  67  92 120 150 185 224 266
#     4   9  18  32  48  67  92 120 150 185 224 266
#     4   9  18  32  48  67  92 120 150 185 224 266
#     4   9  18  32  48  67  92 120 150 185 224 266
#
# _framework density 17.134409999999999
#
# number of rings (size 3 to 8) (size 9 to 14) (size 15 to 20)
#    0.000    3.000    0.000    0.000    0.000    4.000 
#    0.000    0.000    0.000    0.000    0.000    0.000 
#    0.000    0.000    0.000    0.000    0.000    0.000 
#
# Total GULP energy -99224.844384 kJ/mol
# GULP energy per Si atom -12403.105548 kJ/mol
# Density = 1.709541 g / cm^3
# Si number density = 17.134410 Si / 1000 Ang^3
#
#
#
# Elastic Constant Matrix: (Units=GPa)
#
#
# Indices 1 2 3 4 5 6 
#
# 1 67.3213 62.8396 65.6253 21.0797 4.6638 4.0262
# 2 62.8396 142.8021 67.5508 32.4494 0.6999 2.4798
# 3 65.6253 67.5508 151.1820 30.0278 2.3065 0.6686
# 4 21.0797 32.4494 30.0278 21.9004 -0.3356 -0.3696
# 5 4.6638 0.6999 2.3065 -0.3356 30.7688 9.3964
# 6 4.0262 2.4798 0.6686 -0.3696 9.3964 29.5401
#
#
#
# Elastic Compliance Matrix: (Units=1/GPa)
#
#
# Indices 1 2 3 4 5 6 
#
# 1 0.036025 -0.009470 -0.009917 -0.007151 -0.003726 -0.002795
# 2 -0.009470 0.013647 0.000277 -0.011475 0.001086 -0.000350
# 3 -0.009917 0.000277 0.012327 -0.007749 0.000219 0.000883
# 4 -0.007151 -0.011475 -0.007749 0.080243 0.002048 0.002466
# 5 -0.003726 0.001086 0.000219 0.002048 0.036454 -0.011158
# 6 -0.002795 -0.000350 0.000883 0.002466 -0.011158 0.037823
#
#
# Mechanical properties :
#
#
# Convention : Reuss Voigt Hill
#
# Bulk Modulus (GPa) = 42.05265 83.70410 62.87838
# Shear Modulus (GPa) = 19.03556 27.46119 23.24837
#
# Velocity S-wave (km/s) = 3.33672 4.00771 3.68750
# Velocity P-wave (km/s) = 6.28021 8.38887 7.40993
#
# Compressibility (1/GPa) = 0.02377971
#
# Stress axis : x y z
#
# Youngs Moduli (GPa) = 27.75835 73.27601 81.11986
#
# Poissons Ratio (x) = 0.69392 0.80447
# Poissons Ratio (y) = 0.26287 -0.02248
# Poissons Ratio (z) = 0.27528 -0.02030
#
# Static dielectric constant tensor:
#      x y z
#    x 3.182460 0.002460 0.002700 
#    y 0.002460 3.210220 0.030180 
#    z 0.002700 0.030180 3.213900 
# 
# 
# High freq. dielectric constant tensor:
#      x y z
#    x 1.658460 0.000180 0.000200 
#    y 0.000180 1.660440 0.002120 
#    z 0.000200 0.002120 1.660720 
# 
# From -- ./inp_files/3481.got.cif
#   From: 2010.03.12/outbox.cif.g09.slc.cpg/sg1_2_cif.got.tgz:3481.got - 2010.03.29 11:57:58.
