data_PCOD8000630
_publ_section_title
;
Structure prediction by ZEFSAII (Michael W. Deem and Ramdas Pophale) SiO2 
 PCOD8000630
Probable space group: P -1
;
_chemical_formula_sum "Si O2"
_cell_formula_units_Z 14
_cell_length_a 17.752440
_cell_length_b 7.780250
_cell_length_c 15.686171
_cell_angle_alpha 125.453919
_cell_angle_beta 22.557255
_cell_angle_gamma 133.615371
_cell_volume 588.901281
_symmetry_space_group_name_H-M "P -1"
_symmetry_group_IT_number 2
_symmetry_cell_setting 'triclinic'
loop_
_space_group_symop_operation_xyz
x,y,z
-x,-y,-z
loop_
_atom_site_type_symbol
_atom_site_label
_atom_site_fract_x
_atom_site_fract_y
_atom_site_fract_z
Si Si1 0.754649 0.654506 0.944287
Si Si2 0.653283 0.689631 0.628198
Si Si3 0.874744 0.911828 0.710377
Si Si4 0.669824 0.472864 0.379053
Si Si5 0.085736 0.504013 0.506520
Si Si6 0.814494 0.136080 0.060741
Si Si7 0.478441 0.027580 0.842394
O O1 0.791213 0.748697 0.836866
O O2 0.929994 0.553616 0.749993
O O3 0.504107 0.434799 0.161543
O O4 0.789404 0.873963 0.034235
O O5 0.601651 0.490178 0.551989
O O6 0.619357 0.902880 0.686909
O O7 0.913083 0.821767 0.421748
O O8 0.929130 0.760055 0.538721
O O9 0.655648 0.941537 0.926919
O O10 0.500000 0.500000 0.500000
O O11 0.671962 0.218246 0.294571
O O12 0.920663 0.683949 0.157417
O O13 0.000000 0.500000 0.500000
O O14 0.344269 0.712464 0.308655
O O15 0.715651 0.131391 0.068592
#
# Coordination Sequence:
#
# PCOD8000630 Si02
#       7
#     2   2   2   2   2   2   2
#     4  10  22  40  62  91 127 162 200 252 304 364
#     4  12  22  40  64  91 128 160 200 258 305 357
#     4  10  22  43  62  88 126 165 206 249 301 363
#     4  11  21  39  69  89 116 165 199 250 313 363
#     4  10  19  39  66  86 125 170 200 245 309 355
#     4  10  22  40  65  89 122 158 206 247 308 367
#     4  11  19  39  66  87 123 167 199 251 305 357
#
# _framework density 23.773084000000001
#
# number of rings (size 3 to 8) (size 9 to 14) (size 15 to 20)
#    0.000    1.429    7.143    0.429    0.000    1.143 
#    5.143    1.429    0.000    0.000    0.000    0.000 
#    0.000    0.000    0.000    0.000    0.000    0.000 
#
# Total GULP energy -173468.488043 kJ/mol
# GULP energy per Si atom -12390.606289 kJ/mol
# Density = 2.371897 g / cm^3
# Si number density = 23.773084 Si / 1000 Ang^3
#
#
#
# Elastic Constant Matrix: (Units=GPa)
#
#
# Indices 1 2 3 4 5 6 
#
# 1 55.9770 5.7642 20.6090 -1.9912 -4.4502 15.6378
# 2 5.7642 127.4850 45.0578 38.0696 -0.4773 24.2112
# 3 20.6090 45.0578 158.5774 11.5421 -3.5071 13.1518
# 4 -1.9912 38.0696 11.5421 58.1699 1.5686 -2.4572
# 5 -4.4502 -0.4773 -3.5071 1.5686 31.5820 1.8406
# 6 15.6378 24.2112 13.1518 -2.4572 1.8406 5.4464
#
#
#
# Elastic Compliance Matrix: (Units=1/GPa)
#
#
# Indices 1 2 3 4 5 6 
#
# 1 0.005624 -0.012690 -0.002335 0.011248 -0.003252 0.052076
# 2 -0.012690 -0.000581 -0.002446 0.002584 -0.004981 0.047775
# 3 -0.002335 -0.002446 0.007334 0.000042 0.000462 -0.000269
# 4 0.011248 0.002584 0.000042 0.014162 0.003173 -0.038566
# 5 -0.003252 -0.004981 0.000462 0.003173 0.029757 0.021741
# 6 0.052076 0.047775 -0.000269 -0.038566 0.021741 -0.202391
#
#
# Mechanical properties :
#
#
# Convention : Reuss Voigt Hill
#
# Bulk Modulus (GPa) = -44.31639 53.87794 4.78077
# Shear Modulus (GPa) = -42.13251 37.08019 -2.52616
#
# Velocity S-wave (km/s) = -4.21441 3.95366 -1.03195
# Velocity P-wave (km/s) = 6.50873 6.59958 0.77167
#
# Compressibility (1/GPa) = -0.02256502
#
# Stress axis : x y z
#
# Youngs Moduli (GPa) = 177.79638 -1721.34418 136.34996
#
# Poissons Ratio (x) = -21.84430 0.31835
# Poissons Ratio (y) = 2.25628 0.33354
# Poissons Ratio (z) = 0.41512 -4.21076
#
# Static dielectric constant tensor:
#      x y z
#    x 3.806520 0.033900 -0.217090 
#    y 0.033900 5.228470 0.910540 
#    z -0.217090 0.910540 4.999960 
# 
# 
# High freq. dielectric constant tensor:
#      x y z
#    x 1.898040 0.004210 -0.019580 
#    y 0.004210 1.958820 0.020450 
#    z -0.019580 0.020450 1.965520 
# 
# From -- ./inp_files/577414.got.cif
#   From: 2010.06.25/outbox.cif.g09.slc.cpg/sg2_289_cif.got.tgz:577414.got - 2010.06.27 13:26:56.
