data_PCOD8000995
_publ_section_title
;
Structure prediction by ZEFSAII (Michael W. Deem and Ramdas Pophale) SiO2 
 PCOD8000995
Probable space group: P -1
;
_chemical_formula_sum "Si O2"
_cell_formula_units_Z 16
_cell_length_a 8.661729
_cell_length_b 18.220186
_cell_length_c 8.417502
_cell_angle_alpha 83.372195
_cell_angle_beta 115.889005
_cell_angle_gamma 141.343001
_cell_volume 683.772875
_symmetry_space_group_name_H-M "P -1"
_symmetry_group_IT_number 2
_symmetry_cell_setting 'triclinic'
loop_
_space_group_symop_operation_xyz
x,y,z
-x,-y,-z
loop_
_atom_site_type_symbol
_atom_site_label
_atom_site_fract_x
_atom_site_fract_y
_atom_site_fract_z
Si Si1 0.542321 0.812529 0.773857
Si Si2 0.820629 0.691393 0.219061
Si Si3 0.714792 0.644798 0.553059
Si Si4 0.269986 0.118873 0.700632
Si Si5 0.038049 0.913844 0.139070
Si Si6 0.811012 0.268589 0.075408
Si Si7 0.157002 0.454432 0.904913
Si Si8 0.625073 0.332642 0.564680
O O1 0.300811 0.721218 0.828907
O O2 0.392502 0.734201 0.564252
O O3 0.830840 0.860057 0.907672
O O4 0.638731 0.933956 0.775585
O O5 0.829061 0.699317 0.411761
O O6 0.053753 0.832207 0.209864
O O7 0.899185 0.638031 0.205345
O O8 0.496316 0.599500 0.029048
O O9 0.500000 0.500000 0.500000
O O10 0.513011 0.637002 0.546278
O O11 0.007432 0.738104 0.773336
O O12 0.128891 0.102039 0.795248
O O13 0.448016 0.245120 0.661853
O O14 0.519110 0.145196 0.864481
O O15 0.000000 0.000000 0.500000
O O16 0.044957 0.399581 0.047124
O O17 0.974197 0.457217 0.740056
#
# Coordination Sequence:
#
# PCOD8000995 Si02
#       8
#     2   2   2   2   2   2   2   2
#     4  10  22  41  67  98 140 168 231 269 338 402
#     4  11  23  44  71  94 141 174 230 280 341 394
#     4  12  25  43  67 101 141 170 224 286 338 398
#     4  10  19  40  68  96 133 174 223 273 335 406
#     4  10  21  39  68 100 130 182 215 283 333 401
#     4  10  23  43  66 100 137 176 221 284 331 397
#     4  10  24  44  69 101 129 184 230 276 337 407
#     4  11  23  40  70  97 133 181 224 276 342 399
#
# _framework density 23.399581999999999
#
# number of rings (size 3 to 8) (size 9 to 14) (size 15 to 20)
#    0.000    1.500    3.750    0.750    1.750    2.500 
#    0.000    8.125    0.000    0.000    0.000    0.000 
#    0.000    0.000    0.000    0.000    0.000    0.000 
#
# Total GULP energy -198260.541937 kJ/mol
# GULP energy per Si atom -12391.283871 kJ/mol
# Density = 2.334632 g / cm^3
# Si number density = 23.399582 Si / 1000 Ang^3
#
#
#
# Elastic Constant Matrix: (Units=GPa)
#
#
# Indices 1 2 3 4 5 6 
#
# 1 82.5774 23.2619 38.3002 2.6717 20.4798 2.3803
# 2 23.2619 72.3537 24.2613 -2.2333 -6.0935 -8.6448
# 3 38.3002 24.2613 146.0959 4.4654 32.1150 -10.8989
# 4 2.6717 -2.2333 4.4654 23.8462 7.6881 -0.3559
# 5 20.4798 -6.0935 32.1150 7.6881 36.4150 -10.0165
# 6 2.3803 -8.6448 -10.8989 -0.3559 -10.0165 30.8566
#
#
#
# Elastic Compliance Matrix: (Units=1/GPa)
#
#
# Indices 1 2 3 4 5 6 
#
# 1 0.018187 -0.007382 -0.001380 0.001534 -0.012798 -0.008095
# 2 -0.007382 0.019539 -0.003505 -0.000800 0.013177 0.009074
# 3 -0.001380 -0.003505 0.009621 0.000769 -0.008522 -0.000235
# 4 0.001534 -0.000800 0.000769 0.045437 -0.012236 -0.003519
# 5 -0.012798 0.013177 -0.008522 -0.012236 0.052029 0.018417
# 6 -0.008095 0.009074 -0.000235 -0.003519 0.018417 0.041429
#
#
# Mechanical properties :
#
#
# Convention : Reuss Voigt Hill
#
# Bulk Modulus (GPa) = 43.83302 52.51931 48.17617
# Shear Modulus (GPa) = 22.89608 32.57047 27.73327
#
# Velocity S-wave (km/s) = 3.13146 3.73490 3.44641
# Velocity P-wave (km/s) = 5.64339 6.41035 6.03906
#
# Compressibility (1/GPa) = 0.02281385
#
# Stress axis : x y z
#
# Youngs Moduli (GPa) = 54.98498 51.18066 103.94130
#
# Poissons Ratio (x) = 0.37782 0.14339
# Poissons Ratio (y) = 0.40591 0.36427
# Poissons Ratio (z) = 0.07585 0.17936
#
# Static dielectric constant tensor:
#      x y z
#    x 4.146280 0.281160 0.314750 
#    y 0.281160 4.116340 -0.178420 
#    z 0.314750 -0.178420 4.529710 
# 
# 
# High freq. dielectric constant tensor:
#      x y z
#    x 1.910460 0.021640 0.002390 
#    y 0.021640 1.908560 -0.008850 
#    z 0.002390 -0.008850 1.944340 
# 
# From -- ./inp_files/217531.got.cif
#   From: 2010.06.25/outbox.cif.g09.slc.cpg/sg2_109_cif.got.tgz:217531.got - 2010.06.27 13:26:56.
