data_PCOD8000560
_publ_section_title
;
Structure prediction by ZEFSAII (Michael W. Deem and Ramdas Pophale) SiO2 
 PCOD8000560
Probable space group: P -1
;
_chemical_formula_sum "Si O2"
_cell_formula_units_Z 16
_cell_length_a 12.557879
_cell_length_b 15.109179
_cell_length_c 8.616473
_cell_angle_alpha 105.107522
_cell_angle_beta 68.605035
_cell_angle_gamma 46.388215
_cell_volume 716.469155
_symmetry_space_group_name_H-M "P -1"
_symmetry_group_IT_number 2
_symmetry_cell_setting 'triclinic'
loop_
_space_group_symop_operation_xyz
x,y,z
-x,-y,-z
loop_
_atom_site_type_symbol
_atom_site_label
_atom_site_fract_x
_atom_site_fract_y
_atom_site_fract_z
Si Si1 0.094655 0.108823 0.742235
Si Si2 0.829257 0.519086 0.750954
Si Si3 0.586095 0.270468 0.513535
Si Si4 0.326559 0.548659 0.047202
Si Si5 0.728947 0.826873 0.444992
Si Si6 0.200166 0.513612 0.584087
Si Si7 0.257007 0.242324 0.912972
Si Si8 0.775928 0.304992 0.299652
O O1 0.201190 0.135683 0.684820
O O2 0.305085 0.888510 0.517525
O O3 0.918096 0.225711 0.742943
O O4 0.952767 0.185743 0.008282
O O5 0.814038 0.543390 0.584227
O O6 0.097383 0.320457 0.575773
O O7 0.687586 0.525688 0.861804
O O8 0.707596 0.688384 0.980239
O O9 0.398818 0.457999 0.799980
O O10 0.445664 0.330574 0.464203
O O11 0.803361 0.188191 0.319362
O O12 0.500000 0.500000 0.000000
O O13 0.730529 0.745540 0.275115
O O14 0.474254 0.023509 0.745044
O O15 0.170184 0.641048 0.603437
O O16 0.987798 0.634388 0.862861
O O17 0.500000 0.500000 0.500000
#
# Coordination Sequence:
#
# PCOD8000560 Si02
#       8
#     2   2   2   2   2   2   2   2
#     4  11  21  41  65  95 122 161 215 252 313 372
#     4  11  24  40  63  95 128 163 208 259 319 370
#     4  11  23  40  68  92 124 171 211 253 311 380
#     4  11  23  42  65  91 130 165 205 264 310 369
#     4  10  23  42  67  91 124 167 209 263 312 369
#     4  11  22  42  65  93 130 167 205 262 316 368
#     4  11  22  43  64  91 126 166 217 256 307 376
#     4  10  19  39  64  91 123 164 205 255 310 366
#
# _framework density 22.331738000000001
#
# number of rings (size 3 to 8) (size 9 to 14) (size 15 to 20)
#    0.000    1.250    3.750    3.375    1.750    3.000 
#    2.250    0.000    0.000    0.000    0.000    0.000 
#    0.000    0.000    0.000    0.000    0.000    0.000 
#
# Total GULP energy -198282.025952 kJ/mol
# GULP energy per Si atom -12392.626622 kJ/mol
# Density = 2.228091 g / cm^3
# Si number density = 22.331738 Si / 1000 Ang^3
#
#
#
# Elastic Constant Matrix: (Units=GPa)
#
#
# Indices 1 2 3 4 5 6 
#
# 1 105.0154 35.6013 38.2291 16.0371 19.3671 -20.1861
# 2 35.6013 87.3752 33.5193 13.8471 17.0082 -6.0082
# 3 38.2291 33.5193 81.7953 10.6548 2.6483 -1.2834
# 4 16.0371 13.8471 10.6548 25.4396 3.2206 0.0764
# 5 19.3671 17.0082 2.6483 3.2206 35.1136 -4.8950
# 6 -20.1861 -6.0082 -1.2834 0.0764 -4.8950 29.1640
#
#
#
# Elastic Compliance Matrix: (Units=1/GPa)
#
#
# Indices 1 2 3 4 5 6 
#
# 1 0.015939 -0.001585 -0.005669 -0.006117 -0.005709 0.009514
# 2 -0.001585 0.015989 -0.004969 -0.004878 -0.005909 0.000999
# 3 -0.005669 -0.004969 0.016897 -0.001279 0.003882 -0.003549
# 4 -0.006117 -0.004878 -0.001279 0.046263 0.000855 -0.005273
# 5 -0.005709 -0.005909 0.003882 0.000855 0.034222 0.000744
# 6 0.009514 0.000999 -0.003549 -0.005273 0.000744 0.041063
#
#
# Mechanical properties :
#
#
# Convention : Reuss Voigt Hill
#
# Bulk Modulus (GPa) = 41.01935 54.32057 47.66996
# Shear Modulus (GPa) = 24.63714 29.06586 26.85150
#
# Velocity S-wave (km/s) = 3.32510 3.61161 3.47131
# Velocity P-wave (km/s) = 5.75759 6.46288 6.12040
#
# Compressibility (1/GPa) = 0.02437874
#
# Stress axis : x y z
#
# Youngs Moduli (GPa) = 62.73823 62.54375 59.18258
#
# Poissons Ratio (x) = 0.09911 0.33552
# Poissons Ratio (y) = 0.09942 0.29408
# Poissons Ratio (z) = 0.35568 0.31079
#
# Static dielectric constant tensor:
#      x y z
#    x 4.333550 0.315850 -0.184280 
#    y 0.315850 4.075040 0.013340 
#    z -0.184280 0.013340 4.045260 
# 
# 
# High freq. dielectric constant tensor:
#      x y z
#    x 1.890870 0.011600 -0.011810 
#    y 0.011600 1.861950 0.001380 
#    z -0.011810 0.001380 1.876430 
# 
# From -- ./inp_files/273658.got.cif
#   From: 2010.06.25/outbox.cif.g09.slc.cpg/sg2_137_cif.got.tgz:273658.got - 2010.06.27 13:26:56.
