data_PCOD8000938
_publ_section_title
;
Structure prediction by ZEFSAII (Michael W. Deem and Ramdas Pophale) SiO2 
 PCOD8000938
Probable space group: P -1
;
_chemical_formula_sum "Si O2"
_cell_formula_units_Z 16
_cell_length_a 11.289738
_cell_length_b 28.558288
_cell_length_c 8.911133
_cell_angle_alpha 31.460865
_cell_angle_beta 130.170341
_cell_angle_gamma 151.060674
_cell_volume 664.503922
_symmetry_space_group_name_H-M "P -1"
_symmetry_group_IT_number 2
_symmetry_cell_setting 'triclinic'
loop_
_space_group_symop_operation_xyz
x,y,z
-x,-y,-z
loop_
_atom_site_type_symbol
_atom_site_label
_atom_site_fract_x
_atom_site_fract_y
_atom_site_fract_z
Si Si1 0.455130 0.437670 0.914245
Si Si2 0.522087 0.898012 0.089430
Si Si3 0.996719 0.357733 0.799559
Si Si4 0.238277 0.642951 0.142531
Si Si5 0.381607 0.241133 0.603718
Si Si6 0.919045 0.791920 0.328065
Si Si7 0.840344 0.806191 0.893808
Si Si8 0.406798 0.127093 0.469246
O O1 0.745327 0.619552 0.655677
O O2 0.239428 0.404579 0.897283
O O3 0.492533 0.366362 0.236223
O O4 0.338875 0.358676 0.870071
O O5 0.264957 0.812248 0.023174
O O6 0.654632 0.868838 0.212525
O O7 0.445959 0.853573 0.325072
O O8 0.764790 0.084286 0.758911
O O9 0.929678 0.358274 0.911777
O O10 0.051613 0.468549 0.427005
O O11 0.422961 0.681266 0.310206
O O12 0.386114 0.756384 0.812832
O O13 0.119896 0.161627 0.685416
O O14 0.835788 0.804921 0.073336
O O15 0.705101 0.834542 0.654450
O O16 0.146649 0.946533 0.696497
#
# Coordination Sequence:
#
# PCOD8000938 Si02
#       8
#     2   2   2   2   2   2   2   2
#     4  12  23  40  66  97 132 162 211 272 323 366
#     4  10  23  41  66  94 126 170 217 256 316 392
#     4  10  23  42  62  91 136 167 211 255 328 381
#     4  10  21  41  67  89 129 176 210 259 314 386
#     4  11  21  38  66  95 124 166 220 260 308 373
#     4  11  22  39  64  96 128 164 213 269 312 372
#     4  10  21  37  65  98 126 159 216 272 315 365
#     4  10  19  40  66  96 123 165 219 263 307 385
#
# _framework density 24.078112000000001
#
# number of rings (size 3 to 8) (size 9 to 14) (size 15 to 20)
#    0.000    1.500    3.750    1.125    0.000    2.500 
#    0.000    6.250    0.000    0.000    0.000    0.000 
#    0.000    0.000    0.000    0.000    0.000    0.000 
#
# Total GULP energy -198273.447440 kJ/mol
# GULP energy per Si atom -12392.090465 kJ/mol
# Density = 2.402331 g / cm^3
# Si number density = 24.078112 Si / 1000 Ang^3
#
#
#
# Elastic Constant Matrix: (Units=GPa)
#
#
# Indices 1 2 3 4 5 6 
#
# 1 52.9833 12.1019 37.7158 -12.9872 -12.3849 -16.1585
# 2 12.1019 88.1486 33.3481 -26.3752 -6.4861 -4.6709
# 3 37.7158 33.3481 98.3822 -27.9474 -22.8450 -1.0884
# 4 -12.9872 -26.3752 -27.9474 31.2951 1.2676 -4.0942
# 5 -12.3849 -6.4861 -22.8450 1.2676 38.9530 1.5532
# 6 -16.1585 -4.6709 -1.0884 -4.0942 1.5532 22.1616
#
#
#
# Elastic Compliance Matrix: (Units=1/GPa)
#
#
# Indices 1 2 3 4 5 6 
#
# 1 0.040886 0.005488 -0.011582 0.015334 0.005312 0.032859
# 2 0.005488 0.016917 -0.002992 0.015104 0.001914 0.010077
# 3 -0.011582 -0.002992 0.019899 0.009236 0.007465 -0.006915
# 4 0.015334 0.015104 0.009236 0.062253 0.009759 0.025634
# 5 0.005312 0.001914 0.007465 0.009759 0.031571 0.004233
# 6 0.032859 0.010077 -0.006915 0.025634 0.004233 0.075305
#
#
# Mechanical properties :
#
#
# Convention : Reuss Voigt Hill
#
# Bulk Modulus (GPa) = 16.79766 45.09396 30.94581
# Shear Modulus (GPa) = 17.55342 28.90515 23.22929
#
# Velocity S-wave (km/s) = 2.70297 3.46854 3.10941
# Velocity P-wave (km/s) = 4.09058 5.89999 5.07655
#
# Compressibility (1/GPa) = 0.05953210
#
# Stress axis : x y z
#
# Youngs Moduli (GPa) = 24.45825 59.11242 50.25389
#
# Poissons Ratio (x) = -0.32443 0.58202
# Poissons Ratio (y) = -0.13424 0.15035
# Poissons Ratio (z) = 0.28326 0.17685
#
# Static dielectric constant tensor:
#      x y z
#    x 4.221670 -0.131750 -0.065290 
#    y -0.131750 4.290390 -0.312000 
#    z -0.065290 -0.312000 4.329020 
# 
# 
# High freq. dielectric constant tensor:
#      x y z
#    x 1.942300 -0.005650 -0.005570 
#    y -0.005650 1.954730 -0.011150 
#    z -0.005570 -0.011150 1.953040 
# 
# From -- ./inp_files/286098.got.cif
#   From: 2010.06.25/outbox.cif.g09.slc.cpg/sg2_144_cif.got.tgz:286098.got - 2010.06.27 13:26:56.
