data_PCOD8000478
_publ_section_title
;
Structure prediction by ZEFSAII (Michael W. Deem and Ramdas Pophale) SiO2 
 PCOD8000478
Probable space group: P -1
;
_chemical_formula_sum "Si O2"
_cell_formula_units_Z 14
_cell_length_a 8.698216
_cell_length_b 6.203506
_cell_length_c 15.247270
_cell_angle_alpha 99.518243
_cell_angle_beta 124.010691
_cell_angle_gamma 92.422606
_cell_volume 663.401050
_symmetry_space_group_name_H-M "P -1"
_symmetry_group_IT_number 2
_symmetry_cell_setting 'triclinic'
loop_
_space_group_symop_operation_xyz
x,y,z
-x,-y,-z
loop_
_atom_site_type_symbol
_atom_site_label
_atom_site_fract_x
_atom_site_fract_y
_atom_site_fract_z
Si Si1 0.584253 0.892123 0.257555
Si Si2 0.112253 0.474677 0.244417
Si Si3 0.811923 0.152870 0.215072
Si Si4 0.884564 0.775104 0.085040
Si Si5 0.502231 0.560574 0.903483
Si Si6 0.589310 0.118508 0.622062
Si Si7 0.766201 0.925469 0.816641
O O1 0.557005 0.652207 0.189835
O O2 0.577968 0.858494 0.359121
O O3 0.776873 0.044377 0.294635
O O4 0.413418 0.024741 0.182464
O O5 0.287955 0.645283 0.350138
O O6 0.197589 0.326502 0.188213
O O7 0.007638 0.324956 0.280557
O O8 0.954080 0.587461 0.153785
O O9 0.637057 0.269444 0.144821
O O10 0.806097 0.951242 0.133048
O O11 0.718469 0.671863 0.958423
O O12 0.050379 0.899823 0.084006
O O13 0.500000 0.500000 0.000000
O O14 0.500000 0.000000 0.500000
O O15 0.732377 0.978228 0.705174
#
# Coordination Sequence:
#
# PCOD8000478 Si02
#       7
#     2   2   2   2   2   2   2
#     4  10  23  36  58  94 116 150 202 247 281 344
#     4  10  19  39  63  81 119 162 189 238 299 348
#     4  11  21  36  59  87 124 154 201 238 284 342
#     4  10  20  37  56  84 120 165 194 231 284 347
#     4  12  22  35  59  87 123 165 195 233 292 337
#     4   9  21  42  63  86 116 150 193 245 302 354
#     4   8  21  37  58  87 117 150 194 245 290 342
#
# _framework density 21.103373999999999
#
# number of rings (size 3 to 8) (size 9 to 14) (size 15 to 20)
#    0.857    1.143    2.857    0.429    2.000    1.143 
#    0.000    2.143    0.000   12.000    0.000    0.000 
#    0.000    0.000    0.000    0.000    0.000    0.000 
#
# Total GULP energy -173445.197589 kJ/mol
# GULP energy per Si atom -12388.942685 kJ/mol
# Density = 2.105534 g / cm^3
# Si number density = 21.103374 Si / 1000 Ang^3
#
#
#
# Elastic Constant Matrix: (Units=GPa)
#
#
# Indices 1 2 3 4 5 6 
#
# 1 96.9799 42.5264 11.1258 8.2017 -7.3372 11.6955
# 2 42.5264 117.1514 25.5036 17.8284 0.4896 -9.7593
# 3 11.1258 25.5036 40.4263 8.7584 -13.2669 11.4049
# 4 8.2017 17.8284 8.7584 19.4362 0.6681 11.6120
# 5 -7.3372 0.4896 -13.2669 0.6681 29.2955 2.0330
# 6 11.6955 -9.7593 11.4049 11.6120 2.0330 49.4477
#
#
#
# Elastic Compliance Matrix: (Units=1/GPa)
#
#
# Indices 1 2 3 4 5 6 
#
# 1 0.013782 -0.006605 0.003426 0.002144 0.005487 -0.006082
# 2 -0.006605 0.016293 -0.011014 -0.013371 -0.007356 0.010761
# 3 0.003426 -0.011014 0.041956 -0.003362 0.021003 -0.012735
# 4 0.002144 -0.013371 -0.003362 0.076484 -0.001098 -0.020287
# 5 0.005487 -0.007356 0.021003 -0.001098 0.045808 -0.009219
# 6 -0.006082 0.010761 -0.012735 -0.020287 -0.009219 0.031866
#
#
# Mechanical properties :
#
#
# Convention : Reuss Voigt Hill
#
# Bulk Modulus (GPa) = 22.91225 45.87435 34.39330
# Shear Modulus (GPa) = 18.57881 31.32932 24.95406
#
# Velocity S-wave (km/s) = 2.97032 3.85718 3.44243
# Velocity P-wave (km/s) = 4.75862 6.45153 5.66863
#
# Compressibility (1/GPa) = 0.04364478
#
# Stress axis : x y z
#
# Youngs Moduli (GPa) = 72.55907 61.37501 23.83453
#
# Poissons Ratio (x) = 0.40536 -0.08165
# Poissons Ratio (y) = 0.47922 0.26252
# Poissons Ratio (z) = -0.24857 0.67600
#
# Static dielectric constant tensor:
#      x y z
#    x 4.211440 0.159520 0.218810 
#    y 0.159520 4.078390 0.094850 
#    z 0.218810 0.094850 3.248320 
# 
# 
# High freq. dielectric constant tensor:
#      x y z
#    x 1.845170 0.004870 0.011430 
#    y 0.004870 1.848190 0.007610 
#    z 0.011430 0.007610 1.763410 
# 
# From -- ./inp_files/106838.got.cif
#   From: 2010.06.25/outbox.cif.g09.slc.cpg/sg2_54_cif.got.tgz:106838.got - 2010.06.27 13:26:56.
