data_PCOD8000520
_publ_section_title
;
Structure prediction by ZEFSAII (Michael W. Deem and Ramdas Pophale) SiO2 
 PCOD8000520
Probable space group: P -1
;
_chemical_formula_sum "Si O2"
_cell_formula_units_Z 14
_cell_length_a 9.632618
_cell_length_b 20.168544
_cell_length_c 20.895209
_cell_angle_alpha 160.131479
_cell_angle_beta 30.111449
_cell_angle_gamma 150.410166
_cell_volume 653.718482
_symmetry_space_group_name_H-M "P -1"
_symmetry_group_IT_number 2
_symmetry_cell_setting 'triclinic'
loop_
_space_group_symop_operation_xyz
x,y,z
-x,-y,-z
loop_
_atom_site_type_symbol
_atom_site_label
_atom_site_fract_x
_atom_site_fract_y
_atom_site_fract_z
Si Si1 0.479630 0.748757 0.853703
Si Si2 0.393433 0.729853 0.414306
Si Si3 0.884183 0.387075 0.246347
Si Si4 0.213398 0.055105 0.648897
Si Si5 0.592092 0.855146 0.692767
Si Si6 0.653658 0.421590 0.568805
Si Si7 0.927815 0.967119 0.176719
O O1 0.213276 0.632356 0.806614
O O2 0.526210 0.585257 0.736198
O O3 0.759589 0.852585 0.791250
O O4 0.414005 0.921648 0.080507
O O5 0.682743 0.774981 0.295253
O O6 0.446902 0.608662 0.344646
O O7 0.105068 0.611033 0.379397
O O8 0.331777 0.940584 0.653124
O O9 0.595657 0.331583 0.355823
O O10 0.060926 0.225404 0.045848
O O11 0.110599 0.128599 0.822981
O O12 0.500000 0.000000 0.500000
O O13 0.932601 0.864997 0.564347
O O14 0.463721 0.797439 0.620233
O O15 0.000000 0.500000 0.500000
#
# Coordination Sequence:
#
# PCOD8000520 Si02
#       7
#     2   2   2   2   2   2   2
#     4  11  22  37  70  98 120 159 216 261 317 358
#     4  11  25  41  60  96 129 165 209 252 312 381
#     4  11  21  37  71  95 117 158 218 270 306 354
#     4  10  22  40  64  93 129 162 207 257 320 367
#     4  11  22  42  66  91 129 164 210 261 309 370
#     4  12  25  41  62  96 131 167 207 254 314 375
#     4  10  19  39  63  92 123 155 209 264 316 352
#
# _framework density 21.415946999999999
#
# number of rings (size 3 to 8) (size 9 to 14) (size 15 to 20)
#    0.000    1.143    5.714    0.857    4.000    4.000 
#    0.000    0.714    0.000    0.000    0.000    0.000 
#    0.000    0.000    0.000    0.000    0.000    0.000 
#
# Total GULP energy -173480.098364 kJ/mol
# GULP energy per Si atom -12391.435597 kJ/mol
# Density = 2.136720 g / cm^3
# Si number density = 21.415947 Si / 1000 Ang^3
#
#
#
# Elastic Constant Matrix: (Units=GPa)
#
#
# Indices 1 2 3 4 5 6 
#
# 1 129.3167 58.0774 33.5257 -2.5085 8.1234 -7.6992
# 2 58.0774 141.4549 29.0015 -16.5135 10.4117 -8.9845
# 3 33.5257 29.0015 57.4516 -3.2359 -3.0922 2.8263
# 4 -2.5085 -16.5135 -3.2359 17.9566 0.1586 4.0724
# 5 8.1234 10.4117 -3.0922 0.1586 31.2401 3.4347
# 6 -7.6992 -8.9845 2.8263 4.0724 3.4347 46.7352
#
#
#
# Elastic Compliance Matrix: (Units=1/GPa)
#
#
# Indices 1 2 3 4 5 6 
#
# 1 0.010762 -0.003472 -0.004909 -0.002969 -0.002313 0.001831
# 2 -0.003472 0.010358 -0.002952 0.008287 -0.003004 0.001096
# 3 -0.004909 -0.002952 0.022249 0.001290 0.004806 -0.003187
# 4 -0.002969 0.008287 0.001290 0.064150 -0.001700 -0.004439
# 5 -0.002313 -0.003004 0.004806 -0.001700 0.034497 -0.003636
# 6 0.001831 0.001096 -0.003187 -0.004439 -0.003636 0.022756
#
#
# Mechanical properties :
#
#
# Convention : Reuss Voigt Hill
#
# Bulk Modulus (GPa) = 48.30177 63.27025 55.78601
# Shear Modulus (GPa) = 25.72830 33.02763 29.37797
#
# Velocity S-wave (km/s) = 3.46983 3.93134 3.70777
# Velocity P-wave (km/s) = 6.21740 7.08625 6.66599
#
# Compressibility (1/GPa) = 0.02070318
#
# Stress axis : x y z
#
# Youngs Moduli (GPa) = 92.92195 96.54190 44.94633
#
# Poissons Ratio (x) = 0.33519 0.22065
# Poissons Ratio (y) = 0.32263 0.13266
# Poissons Ratio (z) = 0.45617 0.28495
#
# Static dielectric constant tensor:
#      x y z
#    x 3.994620 -0.239700 0.109970 
#    y -0.239700 4.487660 -0.247370 
#    z 0.109970 -0.247370 3.891030 
# 
# 
# High freq. dielectric constant tensor:
#      x y z
#    x 1.828820 -0.003710 0.004420 
#    y -0.003710 1.833440 -0.006750 
#    z 0.004420 -0.006750 1.833020 
# 
# From -- ./inp_files/257150.got.cif
#   From: 2010.06.25/outbox.cif.g09.slc.cpg/sg2_129_cif.got.tgz:257150.got - 2010.06.27 13:26:56.
