data_PCOD8000963
_publ_section_title
;
Structure prediction by ZEFSAII (Michael W. Deem and Ramdas Pophale) SiO2 
 PCOD8000963
Probable space group: P -1
;
_chemical_formula_sum "Si O2"
_cell_formula_units_Z 16
_cell_length_a 20.542838
_cell_length_b 11.968293
_cell_length_c 8.927618
_cell_angle_alpha 68.331509
_cell_angle_beta 43.189312
_cell_angle_gamma 35.527158
_cell_volume 721.116256
_symmetry_space_group_name_H-M "P -1"
_symmetry_group_IT_number 2
_symmetry_cell_setting 'triclinic'
loop_
_space_group_symop_operation_xyz
x,y,z
-x,-y,-z
loop_
_atom_site_type_symbol
_atom_site_label
_atom_site_fract_x
_atom_site_fract_y
_atom_site_fract_z
Si Si1 0.060279 0.308167 0.689209
Si Si2 0.692413 0.831820 0.088510
Si Si3 0.486889 0.422071 0.807391
Si Si4 0.089081 0.799772 0.349286
Si Si5 0.337287 0.081027 0.577992
Si Si6 0.087630 0.785717 0.010881
Si Si7 0.499910 0.655726 0.519292
Si Si8 0.222955 0.030811 0.270963
O O1 0.170339 0.263948 0.650888
O O2 0.173649 0.179404 0.409998
O O3 0.869288 0.580917 0.838473
O O4 0.029513 0.203491 0.844096
O O5 0.717475 0.785782 0.247987
O O6 0.513332 0.954612 0.268633
O O7 0.669545 0.999045 0.009432
O O8 0.446532 0.607133 0.750322
O O9 0.542642 0.315194 0.601161
O O10 0.654849 0.211414 0.744798
O O11 0.310980 0.551485 0.124718
O O12 0.961301 0.819692 0.578257
O O13 0.000000 0.000000 0.500000
O O14 0.086751 0.820872 0.167258
O O15 0.384630 0.895192 0.643863
O O16 0.284889 0.552385 0.721427
O O17 0.000000 0.000000 0.000000
#
# Coordination Sequence:
#
# PCOD8000963 Si02
#       8
#     2   2   2   2   2   2   2   2
#     4  11  22  42  67  91 125 167 219 257 311 378
#     4  11  26  44  61  95 130 165 215 269 311 370
#     4  10  22  40  66  96 125 165 211 255 319 380
#     4  10  24  40  59  94 133 160 201 253 321 379
#     4  11  24  43  66  92 126 170 215 261 318 367
#     4  10  21  38  65  95 123 161 214 257 306 378
#     4  10  19  40  67  92 128 164 208 264 307 375
#     4  11  24  43  66  94 128 168 212 258 317 379
#
# _framework density 22.187823000000002
#
# number of rings (size 3 to 8) (size 9 to 14) (size 15 to 20)
#    0.000    1.500    2.500    2.250    5.250    2.000 
#    2.250    0.000    0.000    0.000    0.000    0.000 
#    0.000    0.000    0.000    0.000    0.000    0.000 
#
# Total GULP energy -198229.528743 kJ/mol
# GULP energy per Si atom -12389.345546 kJ/mol
# Density = 2.213732 g / cm^3
# Si number density = 22.187823 Si / 1000 Ang^3
#
#
#
# Elastic Constant Matrix: (Units=GPa)
#
#
# Indices 1 2 3 4 5 6 
#
# 1 75.6471 4.7863 26.8836 2.6282 -15.9509 -4.5704
# 2 4.7863 80.0476 29.1503 -8.5567 -15.0233 7.6567
# 3 26.8836 29.1503 78.7292 0.5324 -26.1254 -9.7292
# 4 2.6282 -8.5567 0.5324 30.2234 6.7189 -4.5802
# 5 -15.9509 -15.0233 -26.1254 6.7189 33.9373 7.9221
# 6 -4.5704 7.6567 -9.7292 -4.5802 7.9221 20.1280
#
#
#
# Elastic Compliance Matrix: (Units=1/GPa)
#
#
# Indices 1 2 3 4 5 6 
#
# 1 0.015835 0.001637 -0.004321 -0.002414 0.005771 -0.001936
# 2 0.001637 0.017010 -0.006372 0.001888 0.005575 -0.010944
# 3 -0.004321 -0.006372 0.020763 -0.003018 0.010142 0.006801
# 4 -0.002414 0.001888 -0.003018 0.038407 -0.012806 0.011055
# 5 0.005771 0.005575 0.010142 -0.012806 0.049238 -0.018202
# 6 -0.001936 -0.010944 0.006801 0.011055 -0.018202 0.066372
#
#
# Mechanical properties :
#
#
# Convention : Reuss Voigt Hill
#
# Bulk Modulus (GPa) = 28.17321 39.56271 33.86796
# Shear Modulus (GPa) = 21.04647 28.43133 24.73890
#
# Velocity S-wave (km/s) = 3.08321 3.58354 3.34275
# Velocity P-wave (km/s) = 5.03985 5.91539 5.49509
#
# Compressibility (1/GPa) = 0.03549471
#
# Stress axis : x y z
#
# Youngs Moduli (GPa) = 63.15083 58.78864 48.16246
#
# Poissons Ratio (x) = -0.09624 0.20813
# Poissons Ratio (y) = -0.10338 0.30691
# Poissons Ratio (z) = 0.27290 0.37463
#
# Static dielectric constant tensor:
#      x y z
#    x 4.225910 0.007560 -0.501900 
#    y 0.007560 3.734660 0.133800 
#    z -0.501900 0.133800 4.428740 
# 
# 
# High freq. dielectric constant tensor:
#      x y z
#    x 1.868820 0.007410 -0.011870 
#    y 0.007410 1.856500 0.007730 
#    z -0.011870 0.007730 1.883400 
# 
# From -- ./inp_files/346078.got.cif
#   From: 2010.06.25/outbox.cif.g09.slc.cpg/sg2_174_cif.got.tgz:346078.got - 2010.06.27 13:26:56.
