data_PCOD8000713
_publ_section_title
;
Structure prediction by ZEFSAII (Michael W. Deem and Ramdas Pophale) SiO2 
 PCOD8000713
Probable space group: P -1
;
_chemical_formula_sum "Si O2"
_cell_formula_units_Z 12
_cell_length_a 8.905874
_cell_length_b 5.096889
_cell_length_c 13.633240
_cell_angle_alpha 66.467170
_cell_angle_beta 100.444641
_cell_angle_gamma 90.312859
_cell_volume 556.434961
_symmetry_space_group_name_H-M "P -1"
_symmetry_group_IT_number 2
_symmetry_cell_setting 'triclinic'
loop_
_space_group_symop_operation_xyz
x,y,z
-x,-y,-z
loop_
_atom_site_type_symbol
_atom_site_label
_atom_site_fract_x
_atom_site_fract_y
_atom_site_fract_z
Si Si1 0.717338 0.628318 0.318628
Si Si2 0.089285 0.946928 0.618471
Si Si3 0.382103 0.571267 0.307425
Si Si4 0.592442 0.092902 0.091018
Si Si5 0.200584 0.104844 0.284529
Si Si6 0.338709 0.472076 0.106725
O O1 0.793311 0.329705 0.332887
O O2 0.558332 0.567106 0.363595
O O3 0.697553 0.839272 0.190968
O O4 0.821982 0.771819 0.389794
O O5 0.971633 0.897612 0.699328
O O6 0.000000 0.000000 0.500000
O O7 0.309808 0.261789 0.351391
O O8 0.384730 0.666155 0.177547
O O9 0.273419 0.783346 0.328510
O O10 0.484912 0.247585 0.137638
O O11 0.500000 0.000000 0.000000
O O12 0.702156 0.330008 0.022426
O O13 0.200109 0.282758 0.154276
#
# Coordination Sequence:
#
# PCOD8000713 Si02
#       6
#     2   2   2   2   2   2
#     4  12  23  43  68 101 125 170 221 268 314 395
#     4  12  28  47  65  89 134 179 216 268 335 377
#     4  10  19  39  68  95 126 165 215 263 317 367
#     4  11  18  34  66 104 130 163 208 266 322 382
#     4  10  20  42  64  91 132 174 203 272 327 373
#     4   9  19  32  65  95 134 163 201 251 334 366
#
# _framework density 21.565863
#
# number of rings (size 3 to 8) (size 9 to 14) (size 15 to 20)
#    1.000    0.333    3.333    3.500    2.333    0.000 
#    0.000    6.667    0.000    0.000    0.000    0.000 
#    0.000    0.000    0.000    0.000    0.000    0.000 
#
# Total GULP energy -148715.123383 kJ/mol
# GULP energy per Si atom -12392.926949 kJ/mol
# Density = 2.151678 g / cm^3
# Si number density = 21.565863 Si / 1000 Ang^3
#
#
#
# Elastic Constant Matrix: (Units=GPa)
#
#
# Indices 1 2 3 4 5 6 
#
# 1 62.2246 35.3167 -13.1477 -0.1926 10.6905 -9.1341
# 2 35.3167 126.6919 -6.8574 3.2166 6.3870 -8.5698
# 3 -13.1477 -6.8574 39.8063 -3.4644 7.3354 -6.2172
# 4 -0.1926 3.2166 -3.4644 30.0096 4.2687 11.4149
# 5 10.6905 6.3870 7.3354 4.2687 22.7740 4.3253
# 6 -9.1341 -8.5698 -6.2172 11.4149 4.3253 35.8741
#
#
#
# Elastic Compliance Matrix: (Units=1/GPa)
#
#
# Indices 1 2 3 4 5 6 
#
# 1 0.025691 -0.005084 0.012152 0.000992 -0.016463 0.009102
# 2 -0.005084 0.009474 0.000110 -0.001573 -0.000301 0.001525
# 3 0.012152 0.000110 0.034628 0.002806 -0.019422 0.010570
# 4 0.000992 -0.001573 0.002806 0.038989 -0.006089 -0.011309
# 5 -0.016463 -0.000301 -0.019422 -0.006089 0.061611 -0.013121
# 6 0.009102 0.001525 0.010570 -0.011309 -0.013121 0.037569
#
#
# Mechanical properties :
#
#
# Convention : Reuss Voigt Hill
#
# Bulk Modulus (GPa) = 11.88355 28.81622 20.34989
# Shear Modulus (GPa) = 22.55730 31.95894 27.25812
#
# Velocity S-wave (km/s) = 3.23766 3.85375 3.55906
# Velocity P-wave (km/s) = 4.41576 5.76132 5.13282
#
# Compressibility (1/GPa) = 0.08414991
#
# Stress axis : x y z
#
# Youngs Moduli (GPa) = 38.92377 105.54722 28.87806
#
# Poissons Ratio (x) = 0.53655 -0.35091
# Poissons Ratio (y) = 0.19787 -0.00317
# Poissons Ratio (z) = -0.47299 -0.01159
#
# Static dielectric constant tensor:
#      x y z
#    x 3.834150 0.113060 -0.228790 
#    y 0.113060 4.116110 -0.028030 
#    z -0.228790 -0.028030 3.622280 
# 
# 
# High freq. dielectric constant tensor:
#      x y z
#    x 1.837800 0.005220 -0.024050 
#    y 0.005220 1.869750 0.000820 
#    z -0.024050 0.000820 1.812370 
# 
# From -- ./inp_files/122091.got.cif
#   From: 2010.06.25/outbox.cif.g09.slc.cpg/sg2_62_cif.got.tgz:122091.got - 2010.06.27 13:26:56.
