data_PCOD8000968
_publ_section_title
;
Structure prediction by ZEFSAII (Michael W. Deem and Ramdas Pophale) SiO2 
 PCOD8000968
Probable space group: P -1
;
_chemical_formula_sum "Si O2"
_cell_formula_units_Z 16
_cell_length_a 14.750674
_cell_length_b 11.617454
_cell_length_c 9.293193
_cell_angle_alpha 71.972978
_cell_angle_beta 114.177008
_cell_angle_gamma 53.120190
_cell_volume 754.060301
_symmetry_space_group_name_H-M "P -1"
_symmetry_group_IT_number 2
_symmetry_cell_setting 'triclinic'
loop_
_space_group_symop_operation_xyz
x,y,z
-x,-y,-z
loop_
_atom_site_type_symbol
_atom_site_label
_atom_site_fract_x
_atom_site_fract_y
_atom_site_fract_z
Si Si1 0.249529 0.030529 0.399664
Si Si2 0.681599 0.790449 0.522168
Si Si3 0.152918 0.502328 0.990168
Si Si4 0.363939 0.944077 0.192328
Si Si5 0.218520 0.707046 0.897322
Si Si6 0.188691 0.830049 0.515714
Si Si7 0.963024 0.566798 0.285788
Si Si8 0.494060 0.445062 0.670959
O O1 0.351596 0.030994 0.556910
O O2 0.041717 0.285152 0.140245
O O3 0.340220 0.916506 0.348236
O O4 0.258493 0.897671 0.547615
O O5 0.501937 0.915762 0.290302
O O6 0.848925 0.586677 0.606834
O O7 0.716255 0.706630 0.738923
O O8 0.244325 0.538112 0.005117
O O9 0.126371 0.458038 0.840798
O O10 0.443963 0.756767 0.217641
O O11 0.173349 0.180543 0.909608
O O12 0.234008 0.714777 0.735566
O O13 0.378885 0.612414 0.115791
O O14 0.026745 0.950845 0.741017
O O15 0.288200 0.659779 0.515281
O O16 0.000000 0.500000 0.500000
O O17 0.500000 0.500000 0.500000
#
# Coordination Sequence:
#
# PCOD8000968 Si02
#       8
#     2   2   2   2   2   2   2   2
#     4  10  19  40  67  94 123 165 218 268 315 381
#     4  11  22  40  69  95 122 169 220 265 314 390
#     4  10  20  41  69  93 121 171 224 260 318 385
#     4  12  24  39  65  98 130 169 214 262 327 385
#     4  10  24  43  68  92 127 177 221 269 317 382
#     4  10  23  44  66  95 127 172 225 264 320 383
#     4  11  25  43  64  97 136 163 205 276 332 377
#     4  12  25  40  62  98 136 172 214 266 324 384
#
# _framework density 21.218461999999999
#
# number of rings (size 3 to 8) (size 9 to 14) (size 15 to 20)
#    0.000    1.250    3.750    2.250    0.000    7.000 
#    0.000    0.000    0.000    0.000    0.000    0.000 
#    0.000    0.000    0.000    0.000    0.000    0.000 
#
# Total GULP energy -198493.216485 kJ/mol
# GULP energy per Si atom -12405.826030 kJ/mol
# Density = 2.117017 g / cm^3
# Si number density = 21.218462 Si / 1000 Ang^3
#
#
#
# Elastic Constant Matrix: (Units=GPa)
#
#
# Indices 1 2 3 4 5 6 
#
# 1 79.5190 20.3333 6.2343 -4.9831 -5.0945 -4.8587
# 2 20.3333 112.2384 19.7624 -16.7958 -5.4863 -11.5577
# 3 6.2343 19.7624 53.6610 2.0002 -6.3848 -15.1013
# 4 -4.9831 -16.7958 2.0002 29.7630 1.9195 -2.8193
# 5 -5.0945 -5.4863 -6.3848 1.9195 27.4454 1.8849
# 6 -4.8587 -11.5577 -15.1013 -2.8193 1.8849 35.3687
#
#
#
# Elastic Compliance Matrix: (Units=1/GPa)
#
#
# Indices 1 2 3 4 5 6 
#
# 1 0.013365 -0.001997 -0.000350 0.001112 0.001852 0.001024
# 2 -0.001997 0.011080 -0.003357 0.006341 0.000455 0.002394
# 3 -0.000350 -0.003357 0.022815 -0.002988 0.004222 0.008133
# 4 0.001112 0.006341 -0.002988 0.038092 -0.002167 0.004101
# 5 0.001852 0.000455 0.004222 -0.002167 0.038004 0.000008
# 6 0.001024 0.002394 0.008133 0.004101 0.000008 0.032996
#
#
# Mechanical properties :
#
#
# Convention : Reuss Voigt Hill
#
# Bulk Modulus (GPa) = 27.89310 37.56427 32.72869
# Shear Modulus (GPa) = 27.82240 31.78796 29.80518
#
# Velocity S-wave (km/s) = 3.62503 3.87476 3.75197
# Velocity P-wave (km/s) = 5.54033 6.14495 5.85046
#
# Compressibility (1/GPa) = 0.03585116
#
# Stress axis : x y z
#
# Youngs Moduli (GPa) = 74.82442 90.25030 43.83077
#
# Poissons Ratio (x) = 0.18025 0.01535
# Poissons Ratio (y) = 0.14944 0.14714
# Poissons Ratio (z) = 0.02620 0.30297
#
# Static dielectric constant tensor:
#      x y z
#    x 3.994280 -0.021900 0.063400 
#    y -0.021900 3.942030 -0.428520 
#    z 0.063400 -0.428520 3.081940 
# 
# 
# High freq. dielectric constant tensor:
#      x y z
#    x 1.839490 -0.003290 0.002360 
#    y -0.003290 1.834990 -0.019700 
#    z 0.002360 -0.019700 1.825390 
# 
# From -- ./inp_files/285769.got.cif
#   From: 2010.06.25/outbox.cif.g09.slc.cpg/sg2_143_cif.got.tgz:285769.got - 2010.06.27 13:26:56.
