data_PCOD8000496
_publ_section_title
;
Structure prediction by ZEFSAII (Michael W. Deem and Ramdas Pophale) SiO2 
 PCOD8000496
Probable space group: P -1
;
_chemical_formula_sum "Si O2"
_cell_formula_units_Z 16
_cell_length_a 8.936181
_cell_length_b 15.192001
_cell_length_c 13.702556
_cell_angle_alpha 47.912446
_cell_angle_beta 99.119038
_cell_angle_gamma 136.222462
_cell_volume 738.719491
_symmetry_space_group_name_H-M "P -1"
_symmetry_group_IT_number 2
_symmetry_cell_setting 'triclinic'
loop_
_space_group_symop_operation_xyz
x,y,z
-x,-y,-z
loop_
_atom_site_type_symbol
_atom_site_label
_atom_site_fract_x
_atom_site_fract_y
_atom_site_fract_z
Si Si1 0.175420 0.478473 0.214687
Si Si2 0.045106 0.016334 0.638430
Si Si3 0.940857 0.257647 0.836642
Si Si4 0.764963 0.012184 0.475476
Si Si5 0.562801 0.431941 0.487736
Si Si6 0.800476 0.439645 0.189439
Si Si7 0.560656 0.233696 0.792538
Si Si8 0.506369 0.628929 0.956659
O O1 0.323331 0.591727 0.249777
O O2 0.899876 0.215656 0.388038
O O3 0.076595 0.542873 0.119303
O O4 0.395549 0.559244 0.106666
O O5 0.320559 0.272634 0.499558
O O6 0.851698 0.951171 0.586548
O O7 0.131368 0.942166 0.659916
O O8 0.838478 0.876250 0.814564
O O9 0.770817 0.261889 0.781729
O O10 0.142426 0.356856 0.693480
O O11 0.116433 0.399403 0.847938
O O12 0.738754 0.013232 0.019037
O O13 0.428170 0.795788 0.605885
O O14 0.500000 0.500000 0.500000
O O15 0.541123 0.290929 0.645834
O O16 0.685226 0.407932 0.098147
O O17 0.500000 0.500000 0.000000
#
# Coordination Sequence:
#
# PCOD8000496 Si02
#       8
#     2   2   2   2   2   2   2   2
#     4  11  22  40  62  91 123 158 207 254 311 364
#     4  10  22  38  57  92 120 159 201 245 312 375
#     4  10  23  46  67  89 128 167 215 262 311 372
#     4  10  19  39  63  87 126 155 198 256 311 369
#     4  12  25  41  66  95 127 167 214 259 316 373
#     4  10  22  40  64  91 119 160 205 257 308 373
#     4  10  25  44  65  93 125 171 214 261 310 369
#     4  11  23  37  60  88 124 157 194 250 311 368
#
# _framework density 21.659099999999999
#
# number of rings (size 3 to 8) (size 9 to 14) (size 15 to 20)
#    0.000    1.500    2.500    1.875    3.500    1.500 
#    0.000    0.000    0.000    0.000    0.000    0.000 
#    0.000    0.000    0.000    0.000    0.000    0.000 
#
# Total GULP energy -198341.211743 kJ/mol
# GULP energy per Si atom -12396.325734 kJ/mol
# Density = 2.160980 g / cm^3
# Si number density = 21.659100 Si / 1000 Ang^3
#
#
#
# Elastic Constant Matrix: (Units=GPa)
#
#
# Indices 1 2 3 4 5 6 
#
# 1 62.4131 12.6546 24.9385 0.5274 -19.4527 -18.3147
# 2 12.6546 83.2498 23.3818 -24.2179 -11.6764 -18.1997
# 3 24.9385 23.3818 96.1549 -16.9585 -20.6525 -7.4246
# 4 0.5274 -24.2179 -16.9585 35.8870 -2.8005 2.8751
# 5 -19.4527 -11.6764 -20.6525 -2.8005 35.9138 0.5971
# 6 -18.3147 -18.1997 -7.4246 2.8751 0.5971 36.9415
#
#
#
# Elastic Compliance Matrix: (Units=1/GPa)
#
#
# Indices 1 2 3 4 5 6 
#
# 1 0.024092 0.001019 -0.003453 -0.001368 0.011094 0.011679
# 2 0.001019 0.018291 -0.000435 0.012001 0.007045 0.008381
# 3 -0.003453 -0.000435 0.014055 0.006894 0.006604 0.000255
# 4 -0.001368 0.012001 0.006894 0.039766 0.010170 0.003360
# 5 0.011094 0.007045 0.006604 0.010170 0.040588 0.008851
# 6 0.011679 0.008381 0.000255 0.003360 0.008851 0.036636
#
#
# Mechanical properties :
#
#
# Convention : Reuss Voigt Hill
#
# Bulk Modulus (GPa) = 19.72379 40.41863 30.07121
# Shear Modulus (GPa) = 25.50159 33.80464 29.65312
#
# Velocity S-wave (km/s) = 3.43506 3.95493 3.70413
# Velocity P-wave (km/s) = 4.98589 6.28944 5.67522
#
# Compressibility (1/GPa) = 0.05070021
#
# Stress axis : x y z
#
# Youngs Moduli (GPa) = 41.50769 54.67192 71.14782
#
# Poissons Ratio (x) = -0.05571 0.24566
# Poissons Ratio (y) = -0.04230 0.03096
# Poissons Ratio (z) = 0.14332 0.02379
#
# Static dielectric constant tensor:
#      x y z
#    x 3.923600 0.021040 -0.306330 
#    y 0.021040 3.799910 -0.112460 
#    z -0.306330 -0.112460 4.102620 
# 
# 
# High freq. dielectric constant tensor:
#      x y z
#    x 1.853530 -0.002850 -0.014930 
#    y -0.002850 1.844710 -0.012860 
#    z -0.014930 -0.012860 1.848400 
# 
# From -- ./inp_files/224362.got.cif
#   From: 2010.06.25/outbox.cif.g09.slc.cpg/sg2_113_cif.got.tgz:224362.got - 2010.06.27 13:26:56.
