data_PCOD8000174
_publ_section_title
;
Structure prediction by ZEFSAII (Michael W. Deem and Ramdas Pophale) SiO2 
 PCOD8000174
Probable space group: P 1
;
_chemical_formula_sum "Si O2"
_cell_formula_units_Z 6
_cell_length_a 5.948064
_cell_length_b 4.659529
_cell_length_c 8.427442
_cell_angle_alpha 90.000090
_cell_angle_beta 91.660820
_cell_angle_gamma 90.000090
_cell_volume 233.469925
_symmetry_space_group_name_H-M "P 1"
_symmetry_group_IT_number 1
_symmetry_cell_setting 'triclinic'
loop_
_space_group_symop_operation_xyz
x,y,z
loop_
_atom_site_type_symbol
_atom_site_label
_atom_site_fract_x
_atom_site_fract_y
_atom_site_fract_z
Si Si1 0.903410 0.208140 0.205900
Si Si2 0.824880 0.219037 0.551504
Si Si3 0.133180 0.708140 0.588290
Si Si4 0.556104 0.875865 0.999298
Si Si5 0.480486 0.375865 0.794892
Si Si6 0.211711 0.719037 0.242686
O O1 0.760603 0.159632 0.366204
O O2 0.991771 0.533460 0.179981
O O3 0.764793 0.071149 0.059326
O O4 0.140166 0.048710 0.230468
O O5 0.607114 0.195821 0.658946
O O6 0.896424 0.548710 0.563722
O O7 0.044820 0.033460 0.614209
O O8 0.271798 0.571149 0.734863
O O9 0.275987 0.659632 0.427986
O O10 0.398785 0.114846 0.907742
O O11 0.637805 0.614846 0.886448
O O12 0.429477 0.695821 0.135244
#
# Coordination Sequence:
#
# PCOD8000174 Si02
#       6
#     1   1   1   1   1   1
#     4  10  23  44  70  98 131 178 232 279 327 397
#     4  10  23  44  70  98 131 178 232 279 327 397
#     4  10  23  44  70  98 131 178 232 279 327 397
#     4  12  26  42  68 104 140 178 218 278 350 404
#     4  12  26  42  68 104 140 178 218 278 350 404
#     4  10  23  44  70  98 131 178 232 279 327 397
#
# _framework density 25.699238999999999
#
# number of rings (size 3 to 8) (size 9 to 14) (size 15 to 20)
#    0.000    1.333    0.000    4.000    0.000   16.000 
#    0.000    0.000    0.000    0.000    0.000    0.000 
#    0.000    0.000    0.000    0.000    0.000    0.000 
#
# Total GULP energy -74340.676460 kJ/mol
# GULP energy per Si atom -12390.112743 kJ/mol
# Density = 2.564075 g / cm^3
# Si number density = 25.699239 Si / 1000 Ang^3
#
#
#
# Elastic Constant Matrix: (Units=GPa)
#
#
# Indices 1 2 3 4 5 6 
#
# 1 37.8823 1.3249 7.0829 0.0002 -3.8759 -0.0001
# 2 1.3249 111.2236 27.8780 0.0002 1.5893 0.0004
# 3 7.0829 27.8780 71.8042 -0.0001 0.7052 0.0003
# 4 0.0002 0.0002 -0.0001 49.9039 0.0000 -1.2591
# 5 -3.8759 1.5893 0.7052 0.0000 25.6602 -0.0001
# 6 -0.0001 0.0004 0.0003 -1.2591 -0.0001 36.7817
#
#
#
# Elastic Compliance Matrix: (Units=1/GPa)
#
#
# Indices 1 2 3 4 5 6 
#
# 1 0.027351 0.000333 -0.002869 0.000000 0.004190 0.000000
# 2 0.000333 0.009971 -0.003900 0.000000 -0.000460 0.000000
# 3 -0.002869 -0.003900 0.015730 0.000000 -0.000624 0.000000
# 4 0.000000 0.000000 0.000000 0.020056 0.000000 0.000687
# 5 0.004190 -0.000460 -0.000624 0.000000 0.039649 0.000000
# 6 0.000000 0.000000 0.000000 0.000687 0.000000 0.027211
#
#
# Mechanical properties :
#
#
# Convention : Reuss Voigt Hill
#
# Bulk Modulus (GPa) = 24.88667 32.60906 28.74787
# Shear Modulus (GPa) = 30.07855 34.77744 32.42800
#
# Velocity S-wave (km/s) = 3.42483 3.68264 3.55607
# Velocity P-wave (km/s) = 5.03430 5.54966 5.29825
#
# Compressibility (1/GPa) = 0.04018216
#
# Stress axis : x y z
#
# Youngs Moduli (GPa) = 36.56186 100.29161 63.57333
#
# Poissons Ratio (x) = -0.03343 0.18236
# Poissons Ratio (y) = -0.01219 0.24791
# Poissons Ratio (z) = 0.10488 0.39109
#
# Static dielectric constant tensor:
#      x y z
#    x 3.759690 -0.000010 -0.046810 
#    y -0.000010 4.841490 -0.000010 
#    z -0.046810 -0.000010 4.872480 
# 
# 
# High freq. dielectric constant tensor:
#      x y z
#    x 1.978270 0.000000 0.001400 
#    y 0.000000 2.057070 0.000000 
#    z 0.001400 0.000000 2.032250 
# 
# From -- ./inp_files/86.got.cif
#   From: 2010.03.12/outbox.cif.g09.slc.cpg/sg1_1_cif.got.tgz:86.got - 2010.03.29 11:57:58.
