data_PCOD8000449
_publ_section_title
;
Structure prediction by ZEFSAII (Michael W. Deem and Ramdas Pophale) SiO2 
 PCOD8000449
Probable space group: P -1
;
_chemical_formula_sum "Si O2"
_cell_formula_units_Z 16
_cell_length_a 13.550984
_cell_length_b 7.832514
_cell_length_c 8.962232
_cell_angle_alpha 113.397504
_cell_angle_beta 128.402319
_cell_angle_gamma 83.478764
_cell_volume 672.338299
_symmetry_space_group_name_H-M "P -1"
_symmetry_group_IT_number 2
_symmetry_cell_setting 'triclinic'
loop_
_space_group_symop_operation_xyz
x,y,z
-x,-y,-z
loop_
_atom_site_type_symbol
_atom_site_label
_atom_site_fract_x
_atom_site_fract_y
_atom_site_fract_z
Si Si1 0.633950 0.274284 0.098176
Si Si2 0.778695 0.728146 0.990150
Si Si3 0.775320 0.023028 0.328377
Si Si4 0.312891 0.235795 0.388804
Si Si5 0.991379 0.660729 0.333847
Si Si6 0.490579 0.628054 0.692645
Si Si7 0.150458 0.397307 0.533091
Si Si8 0.567031 0.982355 0.357477
O O1 0.679954 0.096985 0.151269
O O2 0.549834 0.356890 0.170253
O O3 0.755187 0.436521 0.229576
O O4 0.550244 0.190027 0.848404
O O5 0.780954 0.826642 0.862452
O O6 0.637755 0.611181 0.844038
O O7 0.891295 0.605873 0.080971
O O8 0.825108 0.870452 0.219765
O O9 0.893708 0.174561 0.552137
O O10 0.688214 0.947509 0.361268
O O11 0.410183 0.427359 0.486214
O O12 0.229388 0.276211 0.464696
O O13 0.390746 0.067081 0.449554
O O14 0.928171 0.725135 0.451912
O O15 0.052336 0.476497 0.359710
O O16 0.466761 0.808135 0.629345
#
# Coordination Sequence:
#
# PCOD8000449 Si02
#       8
#     2   2   2   2   2   2   2   2
#     4   9  17  35  67  89 117 158 203 263 303 341
#     4  12  22  38  58  90 127 166 199 245 313 369
#     4  10  19  39  62  89 118 158 211 251 300 358
#     4  11  26  38  61  93 127 163 203 246 311 374
#     4  10  22  39  65  85 120 167 206 261 298 348
#     4  10  21  40  60  93 128 159 204 249 306 370
#     4   9  21  41  59  93 120 155 218 254 298 364
#     4  11  20  40  68  90 122 162 202 261 302 352
#
# _framework density 23.797545
#
# number of rings (size 3 to 8) (size 9 to 14) (size 15 to 20)
#    0.000    1.750    2.500    3.000    1.750    2.000 
#    0.000    5.000    0.000    0.000    0.000    0.000 
#    0.000    0.000    0.000    0.000    0.000    0.000 
#
# Total GULP energy -198237.209942 kJ/mol
# GULP energy per Si atom -12389.825621 kJ/mol
# Density = 2.374338 g / cm^3
# Si number density = 23.797545 Si / 1000 Ang^3
#
#
#
# Elastic Constant Matrix: (Units=GPa)
#
#
# Indices 1 2 3 4 5 6 
#
# 1 100.8383 37.0745 187.8861 -131.5574 -66.0651 125.2282
# 2 37.0745 85.6139 104.7507 -53.4509 -21.1197 18.7100
# 3 187.8861 104.7507 507.6715 -331.9847 -229.8539 280.0049
# 4 -131.5574 -53.4509 -331.9847 259.4727 179.4397 -223.3995
# 5 -66.0651 -21.1197 -229.8539 179.4397 183.7834 -193.7949
# 6 125.2282 18.7100 280.0049 -223.3995 -193.7949 250.1195
#
#
#
# Elastic Compliance Matrix: (Units=1/GPa)
#
#
# Indices 1 2 3 4 5 6 
#
# 1 -0.094934 0.016228 0.022436 -0.001142 0.099427 0.097217
# 2 0.016228 0.018084 -0.012318 0.001323 -0.016356 -0.007179
# 3 0.022436 -0.012318 0.010375 0.016352 -0.022189 -0.024514
# 4 -0.001142 0.001323 0.016352 0.039445 0.000141 0.017508
# 5 0.099427 -0.016356 -0.022189 0.000141 -0.073569 -0.080594
# 6 0.097217 -0.007179 -0.024514 0.017508 -0.080594 -0.063503
#
#
# Mechanical properties :
#
#
# Convention : Reuss Voigt Hill
#
# Bulk Modulus (GPa) = -72.55743 150.39404 38.91831
# Shear Modulus (GPa) = -22.58469 162.96928 70.19230
#
# Velocity S-wave (km/s) = -3.08398 8.28434 5.43688
# Velocity P-wave (km/s) = 6.57548 12.44353 7.47009
#
# Compressibility (1/GPa) = -0.01378219
#
# Stress axis : x y z
#
# Youngs Moduli (GPa) = -10.53362 55.29651 96.38439
#
# Poissons Ratio (x) = -0.89734 -2.16251
# Poissons Ratio (y) = 0.17094 1.18724
# Poissons Ratio (z) = 0.23634 0.68113
#
# Static dielectric constant tensor:
#      x y z
#    x 4.820060 -0.136080 -0.054570 
#    y -0.136080 4.259920 -0.176440 
#    z -0.054570 -0.176440 4.227650 
# 
# 
# High freq. dielectric constant tensor:
#      x y z
#    x 1.952910 -0.005840 0.010880 
#    y -0.005840 1.940090 -0.029680 
#    z 0.010880 -0.029680 1.929310 
# 
# From -- ./inp_files/296253.got.cif
#   From: 2010.06.25/outbox.cif.g09.slc.cpg/sg2_149_cif.got.tgz:296253.got - 2010.06.27 13:26:56.
