data_PCOD8001933
_publ_section_title
;
Structure prediction by ZEFSAII (Michael W. Deem and Ramdas Pophale) SiO2 
 PCOD8001933
Probable space group: P -1
;
_chemical_formula_sum "Si O2"
_cell_formula_units_Z 16
_cell_length_a 13.974917
_cell_length_b 8.796357
_cell_length_c 11.989446
_cell_angle_alpha 97.279800
_cell_angle_beta 146.423804
_cell_angle_gamma 95.435632
_cell_volume 752.711179
_symmetry_space_group_name_H-M "P -1"
_symmetry_group_IT_number 2
_symmetry_cell_setting 'triclinic'
loop_
_space_group_symop_operation_xyz
x,y,z
-x,-y,-z
loop_
_atom_site_type_symbol
_atom_site_label
_atom_site_fract_x
_atom_site_fract_y
_atom_site_fract_z
Si Si1 0.098686 0.033179 0.981979
Si Si2 0.595006 0.317210 0.036623
Si Si3 0.168968 0.887893 0.702227
Si Si4 0.300807 0.382465 0.260333
Si Si5 0.768802 0.648752 0.361384
Si Si6 0.032307 0.129117 0.702469
Si Si7 0.068232 0.324244 0.250342
Si Si8 0.190819 0.492582 0.938084
O O1 0.288747 0.196303 0.194907
O O2 0.976915 0.084668 0.774260
O O3 0.000000 0.000000 0.000000
O O4 0.104218 0.856073 0.933939
O O5 0.651276 0.160551 0.107025
O O6 0.694755 0.457301 0.237594
O O7 0.653316 0.374522 0.971888
O O8 0.371829 0.268100 0.818430
O O9 0.977473 0.736299 0.528082
O O10 0.152176 0.934810 0.560013
O O11 0.179146 0.042386 0.803354
O O12 0.500000 0.500000 0.500000
O O13 0.157332 0.365367 0.219032
O O14 0.257556 0.480213 0.125693
O O15 0.775953 0.668319 0.505230
O O16 0.137838 0.322305 0.804547
O O17 0.990374 0.461521 0.224727
#
# Coordination Sequence:
#
# PCOD8001933 Si02
#       8
#     2   2   2   2   2   2   2   2
#     4   9  19  36  61  84 113 158 202 238 303 364
#     4  11  22  36  59  92 116 163 202 247 300 366
#     4  11  20  38  60  81 124 158 198 242 304 356
#     4  10  22  38  58  89 122 154 198 261 304 353
#     4  11  21  35  62  85 121 155 206 244 296 361
#     4  10  20  34  60  85 113 160 196 249 299 349
#     4  11  20  38  64  86 115 165 207 243 303 369
#     4  11  20  36  62  84 119 154 205 246 301 361
#
# _framework density 21.256492999999999
#
# number of rings (size 3 to 8) (size 9 to 14) (size 15 to 20)
#    0.000    1.500    3.750    2.250    0.000    0.000 
#    0.000    3.125   11.000    0.000    0.000    0.000 
#    0.000    0.000    0.000    0.000    0.000    0.000 
#
# Total GULP energy -198238.307367 kJ/mol
# GULP energy per Si atom -12389.894210 kJ/mol
# Density = 2.120811 g / cm^3
# Si number density = 21.256493 Si / 1000 Ang^3
#
#
#
# Elastic Constant Matrix: (Units=GPa)
#
#
# Indices 1 2 3 4 5 6 
#
# 1 67.4049 29.2649 31.0637 -6.5132 -22.9096 1.3620
# 2 29.2649 118.8445 52.9716 -0.2223 -2.9720 -21.1599
# 3 31.0637 52.9716 101.7868 -2.0796 -13.9582 -11.4155
# 4 -6.5132 -0.2223 -2.0796 38.1448 0.4477 1.0726
# 5 -22.9096 -2.9720 -13.9582 0.4477 38.2419 -10.5973
# 6 1.3620 -21.1599 -11.4155 1.0726 -10.5973 43.3685
#
#
#
# Elastic Compliance Matrix: (Units=1/GPa)
#
#
# Indices 1 2 3 4 5 6 
#
# 1 0.022315 -0.003897 -0.003185 0.003496 0.011675 -0.000674
# 2 -0.003897 0.012344 -0.005040 -0.000967 -0.001997 0.004354
# 3 -0.003185 -0.005040 0.014146 0.000095 0.003475 0.002211
# 4 0.003496 -0.000967 0.000095 0.026819 0.001504 -0.000853
# 5 0.011675 -0.001997 0.003475 0.001504 0.036588 0.008477
# 6 -0.000674 0.004354 0.002211 -0.000853 0.008477 0.027879
#
#
# Mechanical properties :
#
#
# Convention : Reuss Voigt Hill
#
# Bulk Modulus (GPa) = 40.71547 57.18183 48.94865
# Shear Modulus (GPa) = 28.98191 35.60012 32.29102
#
# Velocity S-wave (km/s) = 3.69648 4.09686 3.90181
# Velocity P-wave (km/s) = 6.11675 7.02412 6.58608
#
# Compressibility (1/GPa) = 0.02456069
#
# Stress axis : x y z
#
# Youngs Moduli (GPa) = 44.81273 81.01183 70.69161
#
# Poissons Ratio (x) = 0.31568 0.22519
# Poissons Ratio (y) = 0.17462 0.35628
# Poissons Ratio (z) = 0.14275 0.40830
#
# Static dielectric constant tensor:
#      x y z
#    x 4.246410 0.343940 -0.703360 
#    y 0.343940 4.486080 -0.154170 
#    z -0.703360 -0.154170 4.011420 
# 
# 
# High freq. dielectric constant tensor:
#      x y z
#    x 1.825470 0.008140 -0.042230 
#    y 0.008140 1.848670 0.003230 
#    z -0.042230 0.003230 1.816250 
# 
# From -- ./inp_files/447576.got.cif
#   From: 2010.06.25/outbox.cif.g09.slc.cpg/sg2_224_cif.got.tgz:447576.got - 2010.06.27 13:26:56.
