data_PCOD8001010
_publ_section_title
;
Structure prediction by ZEFSAII (Michael W. Deem and Ramdas Pophale) SiO2 
 PCOD8001010
Probable space group: P -1
;
_chemical_formula_sum "Si O2"
_cell_formula_units_Z 16
_cell_length_a 8.782176
_cell_length_b 9.647705
_cell_length_c 15.429566
_cell_angle_alpha 134.506496
_cell_angle_beta 107.083943
_cell_angle_gamma 100.184270
_cell_volume 737.473129
_symmetry_space_group_name_H-M "P -1"
_symmetry_group_IT_number 2
_symmetry_cell_setting 'triclinic'
loop_
_space_group_symop_operation_xyz
x,y,z
-x,-y,-z
loop_
_atom_site_type_symbol
_atom_site_label
_atom_site_fract_x
_atom_site_fract_y
_atom_site_fract_z
Si Si1 0.972241 0.921528 0.216369
Si Si2 0.765490 0.483919 0.103161
Si Si3 0.055496 0.516194 0.285857
Si Si4 0.568008 0.431974 0.224607
Si Si5 0.582589 0.261039 0.656247
Si Si6 0.058328 0.378441 0.524994
Si Si7 0.209808 0.734394 0.141630
Si Si8 0.143695 0.011873 0.959150
O O1 0.172995 0.937428 0.243849
O O2 0.801785 0.696654 0.141927
O O3 0.885111 0.904399 0.100515
O O4 0.029095 0.150029 0.378679
O O5 0.976439 0.582013 0.219934
O O6 0.616700 0.416648 0.126100
O O7 0.694288 0.251339 0.930006
O O8 0.083883 0.684600 0.444576
O O9 0.257266 0.564032 0.310840
O O10 0.901192 0.247155 0.171002
O O11 0.569408 0.667612 0.337460
O O12 0.723026 0.452944 0.327796
O O13 0.362449 0.194562 0.107257
O O14 0.664146 0.291158 0.778677
O O15 0.500000 0.000000 0.500000
O O16 0.000000 0.500000 0.500000
O O17 0.000000 0.500000 0.000000
O O18 0.000000 0.000000 0.000000
#
# Coordination Sequence:
#
# PCOD8001010 Si02
#       8
#     2   2   2   2   2   2   2   2
#     4  11  22  42  74  98 140 188 229 284 358 414
#     4  10  23  41  72 103 133 181 239 289 346 406
#     4  11  23  45  68  95 143 187 225 286 356 405
#     4  11  26  43  73 103 140 184 243 284 353 421
#     4  12  24  41  67 107 142 177 233 290 349 417
#     4  11  25  47  67  99 142 185 233 287 352 420
#     4  10  19  40  69  98 138 176 228 281 346 413
#     4  12  24  44  71  99 142 189 229 282 348 416
#
# _framework density 21.695706999999999
#
# number of rings (size 3 to 8) (size 9 to 14) (size 15 to 20)
#    0.000    1.000    5.000    3.000    1.750    5.000 
#    0.000    3.750    0.000    0.000    0.000    0.000 
#    0.000    0.000    0.000    0.000    0.000    0.000 
#
# Total GULP energy -198342.445207 kJ/mol
# GULP energy per Si atom -12396.402825 kJ/mol
# Density = 2.164633 g / cm^3
# Si number density = 21.695707 Si / 1000 Ang^3
#
#
#
# Elastic Constant Matrix: (Units=GPa)
#
#
# Indices 1 2 3 4 5 6 
#
# 1 135.5198 43.5501 58.6988 -10.7318 -23.2194 2.8676
# 2 43.5501 111.4328 54.9323 -17.2560 -4.4148 -5.1347
# 3 58.6988 54.9323 111.7503 -11.3438 -24.6824 2.8293
# 4 -10.7318 -17.2560 -11.3438 44.8300 -4.4669 -1.2100
# 5 -23.2194 -4.4148 -24.6824 -4.4669 47.0834 0.7613
# 6 2.8676 -5.1347 2.8293 -1.2100 0.7613 37.4877
#
#
#
# Elastic Compliance Matrix: (Units=1/GPa)
#
#
# Indices 1 2 3 4 5 6 
#
# 1 0.010190 -0.001971 -0.003575 0.001061 0.003080 -0.000808
# 2 -0.001971 0.013013 -0.005679 0.002919 -0.002492 0.002507
# 3 -0.003575 -0.005679 0.015063 0.001297 0.005752 -0.001716
# 4 0.001061 0.002919 0.001297 0.024414 0.003778 0.000932
# 5 0.003080 -0.002492 0.005752 0.003778 0.025921 -0.001416
# 6 -0.000808 0.002507 -0.001716 0.000932 -0.001416 0.027269
#
#
# Mechanical properties :
#
#
# Convention : Reuss Voigt Hill
#
# Bulk Modulus (GPa) = 63.22697 74.78505 69.00601
# Shear Modulus (GPa) = 34.82117 39.31500 37.06808
#
# Velocity S-wave (km/s) = 4.01057 4.26151 4.13794
# Velocity P-wave (km/s) = 7.11703 7.66542 7.39631
#
# Compressibility (1/GPa) = 0.01581603
#
# Stress axis : x y z
#
# Youngs Moduli (GPa) = 98.13878 76.84865 66.38583
#
# Poissons Ratio (x) = 0.15145 0.23734
# Poissons Ratio (y) = 0.19341 0.37700
# Poissons Ratio (z) = 0.35086 0.43642
#
# Static dielectric constant tensor:
#      x y z
#    x 3.988940 0.053440 -0.196770 
#    y 0.053440 3.862150 -0.198050 
#    z -0.196770 -0.198050 3.873170 
# 
# 
# High freq. dielectric constant tensor:
#      x y z
#    x 1.862610 -0.007470 -0.027320 
#    y -0.007470 1.848860 -0.018120 
#    z -0.027320 -0.018120 1.851250 
# 
# From -- ./inp_files/243978.got.cif
#   From: 2010.06.25/outbox.cif.g09.slc.cpg/sg2_122_cif.got.tgz:243978.got - 2010.06.27 13:26:56.
