data_PCOD8001118
_publ_section_title
;
Structure prediction by ZEFSAII (Michael W. Deem and Ramdas Pophale) SiO2 
 PCOD8001118
Probable space group: P -1
;
_chemical_formula_sum "Si O2"
_cell_formula_units_Z 16
_cell_length_a 8.709671
_cell_length_b 9.132974
_cell_length_c 14.400820
_cell_angle_alpha 41.657366
_cell_angle_beta 73.173403
_cell_angle_gamma 88.312349
_cell_volume 696.665550
_symmetry_space_group_name_H-M "P -1"
_symmetry_group_IT_number 2
_symmetry_cell_setting 'triclinic'
loop_
_space_group_symop_operation_xyz
x,y,z
-x,-y,-z
loop_
_atom_site_type_symbol
_atom_site_label
_atom_site_fract_x
_atom_site_fract_y
_atom_site_fract_z
Si Si1 0.295964 0.638927 0.064871
Si Si2 0.178458 0.053554 0.897902
Si Si3 0.365369 0.627659 0.851929
Si Si4 0.674568 0.984486 0.432254
Si Si5 0.746412 0.841879 0.666913
Si Si6 0.201955 0.322660 0.576601
Si Si7 0.816599 0.180560 0.665921
Si Si8 0.638978 0.822748 0.010361
O O1 0.178766 0.376549 0.232894
O O2 0.438171 0.754390 0.062192
O O3 0.389366 0.631889 0.955557
O O4 0.178097 0.797619 0.991463
O O5 0.205883 0.223255 0.725695
O O6 0.327073 0.164151 0.892046
O O7 0.000000 0.000000 0.000000
O O8 0.552764 0.709518 0.740556
O O9 0.280037 0.367573 0.955995
O O10 0.258823 0.791482 0.752101
O O11 0.807335 0.988946 0.491502
O O12 0.670705 0.762694 0.472673
O O13 0.500000 0.000000 0.500000
O O14 0.760337 0.004703 0.674566
O O15 0.253191 0.600319 0.442652
O O16 0.016041 0.241737 0.605507
O O17 0.734062 0.065302 0.830510
#
# Coordination Sequence:
#
# PCOD8001118 Si02
#       8
#     2   2   2   2   2   2   2   2
#     4  11  21  42  69  95 131 172 225 275 322 387
#     4  12  26  44  65  97 138 176 219 271 332 391
#     4  10  19  41  67  95 128 162 223 278 318 382
#     4  10  23  43  65  94 133 173 217 275 327 386
#     4  10  21  40  68  96 126 168 219 272 329 388
#     4  11  26  45  64  94 141 174 217 274 328 403
#     4  11  23  43  69  96 133 176 220 268 340 396
#     4  11  22  42  68 100 130 174 220 272 329 393
#
# _framework density 22.966543000000001
#
# number of rings (size 3 to 8) (size 9 to 14) (size 15 to 20)
#    0.000    1.250    5.000    1.125    3.500    0.500 
#    4.500    5.000    0.000    0.000    0.000    0.000 
#    0.000    0.000    0.000    0.000    0.000    0.000 
#
# Total GULP energy -198263.797685 kJ/mol
# GULP energy per Si atom -12391.487355 kJ/mol
# Density = 2.291427 g / cm^3
# Si number density = 22.966543 Si / 1000 Ang^3
#
#
#
# Elastic Constant Matrix: (Units=GPa)
#
#
# Indices 1 2 3 4 5 6 
#
# 1 43.2949 42.3336 45.4807 -8.8934 19.5737 -11.5166
# 2 42.3336 122.7625 60.1197 -10.0535 18.7323 -12.3749
# 3 45.4807 60.1197 134.1454 -16.9026 39.8989 0.0851
# 4 -8.8934 -10.0535 -16.9026 49.7782 -1.4300 13.4221
# 5 19.5737 18.7323 39.8989 -1.4300 38.5608 1.3934
# 6 -11.5166 -12.3749 0.0851 13.4221 1.3934 31.3404
#
#
#
# Elastic Compliance Matrix: (Units=1/GPa)
#
#
# Indices 1 2 3 4 5 6 
#
# 1 0.053167 -0.009951 -0.009953 -0.000695 -0.012477 0.016487
# 2 -0.009951 0.012893 -0.003026 -0.000583 0.001839 0.001610
# 3 -0.009953 -0.003026 0.015421 0.004294 -0.009046 -0.006331
# 4 -0.000695 -0.000583 0.004294 0.024122 -0.002526 -0.010715
# 5 -0.012477 0.001839 -0.009046 -0.002526 0.040804 -0.004567
# 6 0.016487 0.001610 -0.006331 -0.010715 -0.004567 0.043411
#
#
# Mechanical properties :
#
#
# Convention : Reuss Voigt Hill
#
# Bulk Modulus (GPa) = 28.07333 66.23009 47.15171
# Shear Modulus (GPa) = 20.19783 34.08713 27.14248
#
# Velocity S-wave (km/s) = 2.96876 3.85672 3.44150
# Velocity P-wave (km/s) = 4.89913 6.98088 6.03051
#
# Compressibility (1/GPa) = 0.03562099
#
# Stress axis : x y z
#
# Youngs Moduli (GPa) = 18.80877 77.56029 64.84799
#
# Poissons Ratio (x) = 0.77180 0.64542
# Poissons Ratio (y) = 0.18717 0.19623
# Poissons Ratio (z) = 0.18720 0.23469
#
# Static dielectric constant tensor:
#      x y z
#    x 3.946640 -0.100580 0.674720 
#    y -0.100580 4.208200 -0.128720 
#    z 0.674720 -0.128720 4.935200 
# 
# 
# High freq. dielectric constant tensor:
#      x y z
#    x 1.878410 -0.006700 0.036380 
#    y -0.006700 1.919960 -0.003300 
#    z 0.036380 -0.003300 1.922220 
# 
# From -- ./inp_files/494258.got.cif
#   From: 2010.06.25/outbox.cif.g09.slc.cpg/sg2_248_cif.got.tgz:494258.got - 2010.06.27 13:26:56.
