data_PCOD8001863
_publ_section_title
;
Structure prediction by ZEFSAII (Michael W. Deem and Ramdas Pophale) SiO2 
 PCOD8001863
Probable space group: P -1
;
_chemical_formula_sum "Si O2"
_cell_formula_units_Z 16
_cell_length_a 6.999533
_cell_length_b 8.919991
_cell_length_c 29.102191
_cell_angle_alpha 137.616923
_cell_angle_beta 140.986850
_cell_angle_gamma 56.236361
_cell_volume 770.317572
_symmetry_space_group_name_H-M "P -1"
_symmetry_group_IT_number 2
_symmetry_cell_setting 'triclinic'
loop_
_space_group_symop_operation_xyz
x,y,z
-x,-y,-z
loop_
_atom_site_type_symbol
_atom_site_label
_atom_site_fract_x
_atom_site_fract_y
_atom_site_fract_z
Si Si1 0.205127 0.634237 0.032980
Si Si2 0.106881 0.187643 0.401622
Si Si3 0.632435 0.207201 0.689244
Si Si4 0.903011 0.076195 0.436273
Si Si5 0.273397 0.627308 0.708227
Si Si6 0.841740 0.902705 0.902800
Si Si7 0.854073 0.508159 0.115431
Si Si8 0.233358 0.686933 0.446852
O O1 0.548769 0.587586 0.099042
O O2 0.148883 0.897853 0.087439
O O3 0.154901 0.558167 0.954328
O O4 0.000000 0.500000 0.000000
O O5 0.406550 0.358971 0.496173
O O6 0.849528 0.250067 0.331675
O O7 0.234077 0.944839 0.360114
O O8 0.941079 0.189986 0.419928
O O9 0.411377 0.067484 0.650490
O O10 0.469954 0.415442 0.682871
O O11 0.904100 0.287958 0.791355
O O12 0.180716 0.912280 0.459308
O O13 0.900383 0.273221 0.517763
O O14 0.489115 0.801667 0.818164
O O15 0.973014 0.529470 0.658393
O O16 0.046557 0.697903 0.880511
O O17 0.000000 0.000000 0.000000
#
# Coordination Sequence:
#
# PCOD8001863 Si02
#       8
#     2   2   2   2   2   2   2   2
#     4  10  20  34  58  84 105 139 185 231 282 335
#     4  11  20  34  59  83 113 151 187 231 278 325
#     4   9  20  37  53  78 113 149 184 225 275 327
#     4   9  19  35  57  81 113 150 187 228 272 329
#     4  10  20  35  56  82 112 146 190 233 273 333
#     4   9  19  37  58  80 111 149 185 229 283 333
#     4   9  19  36  55  77 112 146 179 228 280 331
#     4   9  19  36  54  80 115 150 185 226 279 333
#
# _framework density 20.770655999999999
#
# number of rings (size 3 to 8) (size 9 to 14) (size 15 to 20)
#    0.000    2.500    0.000    2.250    0.000    3.000 
#    0.000    5.000    0.000   16.500    0.000    0.000 
#    0.000    0.000    0.000    0.000    0.000    0.000 
#
# Total GULP energy -198214.832049 kJ/mol
# GULP energy per Si atom -12388.427003 kJ/mol
# Density = 2.072338 g / cm^3
# Si number density = 20.770656 Si / 1000 Ang^3
#
#
#
# Elastic Constant Matrix: (Units=GPa)
#
#
# Indices 1 2 3 4 5 6 
#
# 1 91.5775 50.5840 39.8353 -7.2898 16.9347 11.1540
# 2 50.5840 109.7139 41.1989 -4.6954 18.3302 2.3832
# 3 39.8353 41.1989 123.7946 -3.6193 43.5314 0.2088
# 4 -7.2898 -4.6954 -3.6193 30.3754 -1.5903 7.4631
# 5 16.9347 18.3302 43.5314 -1.5903 28.0365 -3.2848
# 6 11.1540 2.3832 0.2088 7.4631 -3.2848 20.9579
#
#
#
# Elastic Compliance Matrix: (Units=1/GPa)
#
#
# Indices 1 2 3 4 5 6 
#
# 1 0.017958 -0.006285 -0.001682 0.005737 -0.005170 -0.011679
# 2 -0.006285 0.012893 -0.001569 -0.000214 -0.002016 0.001655
# 3 -0.001682 -0.001569 0.018940 0.001106 -0.027756 -0.003859
# 4 0.005737 -0.000214 0.001106 0.038439 -0.004912 -0.017498
# 5 -0.005170 -0.002016 -0.027756 -0.004912 0.085074 0.018340
# 6 -0.011679 0.001655 -0.003859 -0.017498 0.018340 0.062886
#
#
# Mechanical properties :
#
#
# Convention : Reuss Voigt Hill
#
# Bulk Modulus (GPa) = 32.55159 65.36918 48.96038
# Shear Modulus (GPa) = 18.83236 28.77183 23.80209
#
# Velocity S-wave (km/s) = 3.01438 3.72589 3.38886
# Velocity P-wave (km/s) = 5.27459 7.07459 6.23984
#
# Compressibility (1/GPa) = 0.03072046
#
# Stress axis : x y z
#
# Youngs Moduli (GPa) = 55.68517 77.56062 52.79872
#
# Poissons Ratio (x) = 0.48749 0.08878
# Poissons Ratio (y) = 0.35000 0.08282
# Poissons Ratio (z) = 0.09364 0.12165
#
# Static dielectric constant tensor:
#      x y z
#    x 3.359170 -0.242280 0.383030 
#    y -0.242280 4.143550 0.095880 
#    z 0.383030 0.095880 4.095260 
# 
# 
# High freq. dielectric constant tensor:
#      x y z
#    x 1.767290 -0.013990 0.034530 
#    y -0.013990 1.830240 0.001750 
#    z 0.034530 0.001750 1.821250 
# 
# From -- ./inp_files/217938.got.cif
#   From: 2010.06.25/outbox.cif.g09.slc.cpg/sg2_109_cif.got.tgz:217938.got - 2010.06.27 13:26:56.
