data_PCOD8001699
_publ_section_title
;
Structure prediction by ZEFSAII (Michael W. Deem and Ramdas Pophale) SiO2 
 PCOD8001699
Probable space group: P -1
;
_chemical_formula_sum "Si O2"
_cell_formula_units_Z 16
_cell_length_a 13.772176
_cell_length_b 11.474146
_cell_length_c 18.359789
_cell_angle_alpha 50.098779
_cell_angle_beta 30.632801
_cell_angle_gamma 31.489177
_cell_volume 724.280796
_symmetry_space_group_name_H-M "P -1"
_symmetry_group_IT_number 2
_symmetry_cell_setting 'triclinic'
loop_
_space_group_symop_operation_xyz
x,y,z
-x,-y,-z
loop_
_atom_site_type_symbol
_atom_site_label
_atom_site_fract_x
_atom_site_fract_y
_atom_site_fract_z
Si Si1 0.275533 0.165886 0.644733
Si Si2 0.817893 0.321094 0.094647
Si Si3 0.668509 0.273819 0.529735
Si Si4 0.858556 0.156395 0.884774
Si Si5 0.622914 0.851244 0.250196
Si Si6 0.911143 0.628722 0.615040
Si Si7 0.786678 0.256749 0.622757
Si Si8 0.432958 0.427120 0.180410
O O1 0.436467 0.098833 0.644439
O O2 0.072271 0.142426 0.794959
O O3 0.080524 0.434926 0.646854
O O4 0.500000 0.000000 0.500000
O O5 0.544644 0.582598 0.200918
O O6 0.695687 0.285932 0.124463
O O7 0.975176 0.105503 0.135318
O O8 0.044737 0.305658 0.923433
O O9 0.500000 0.500000 0.500000
O O10 0.429170 0.286141 0.690707
O O11 0.773336 0.283708 0.533557
O O12 0.969599 0.019256 0.400029
O O13 0.751552 0.301307 0.819988
O O14 0.576089 0.293924 0.063389
O O15 0.373594 0.110887 0.269764
O O16 0.790086 0.577752 0.654204
O O17 0.126909 0.630616 0.442977
#
# Coordination Sequence:
#
# PCOD8001699 Si02
#       8
#     2   2   2   2   2   2   2   2
#     4  11  22  35  56  88 123 160 203 235 277 351
#     4  12  22  37  60  91 126 154 197 244 293 358
#     4  10  23  47  66  82 113 151 201 257 308 354
#     4  10  20  34  53  85 127 164 191 233 282 343
#     4  11  23  38  64  86 114 162 192 240 312 347
#     4  10  21  38  58  84 119 159 199 237 285 348
#     4  10  24  41  63  91 113 151 205 254 298 351
#     4  10  20  34  55  86 126 166 196 227 283 352
#
# _framework density 22.090879999999999
#
# number of rings (size 3 to 8) (size 9 to 14) (size 15 to 20)
#    0.000    1.500    2.500    2.625    0.000    6.500 
#    0.000    0.625    0.000    0.000    0.000    0.000 
#    0.000    0.000    0.000    0.000    0.000    0.000 
#
# Total GULP energy -198320.126441 kJ/mol
# GULP energy per Si atom -12395.007903 kJ/mol
# Density = 2.204060 g / cm^3
# Si number density = 22.090880 Si / 1000 Ang^3
#
#
#
# Elastic Constant Matrix: (Units=GPa)
#
#
# Indices 1 2 3 4 5 6 
#
# 1 50.2642 32.8032 24.1099 1.8933 -15.2365 3.9303
# 2 32.8032 173.4545 59.1484 9.5479 -6.4105 -7.9657
# 3 24.1099 59.1484 119.7806 15.8976 -13.7092 2.1013
# 4 1.8933 9.5479 15.8976 30.3502 4.4316 -5.7295
# 5 -15.2365 -6.4105 -13.7092 4.4316 26.4764 1.0249
# 6 3.9303 -7.9657 2.1013 -5.7295 1.0249 24.6390
#
#
#
# Elastic Compliance Matrix: (Units=1/GPa)
#
#
# Indices 1 2 3 4 5 6 
#
# 1 0.029005 -0.004669 -0.001124 -0.003484 0.015853 -0.007510
# 2 -0.004669 0.007849 -0.003430 0.000765 -0.002841 0.003871
# 3 -0.001124 -0.003430 0.011898 -0.006657 0.005942 -0.003740
# 4 -0.003484 0.000765 -0.006657 0.040360 -0.012459 0.011274
# 5 0.015853 -0.002841 0.005942 -0.012459 0.051716 -0.009002
# 6 -0.007510 0.003871 -0.003740 0.011274 -0.009002 0.046351
#
#
# Mechanical properties :
#
#
# Convention : Reuss Voigt Hill
#
# Bulk Modulus (GPa) = 32.99809 63.95803 48.47806
# Shear Modulus (GPa) = 23.17746 31.45563 27.31655
#
# Velocity S-wave (km/s) = 3.24263 3.77758 3.52028
# Velocity P-wave (km/s) = 5.38418 6.93123 6.20610
#
# Compressibility (1/GPa) = 0.03030479
#
# Stress axis : x y z
#
# Youngs Moduli (GPa) = 34.47634 127.40939 84.04819
#
# Poissons Ratio (x) = 0.59492 0.09446
# Poissons Ratio (y) = 0.16098 0.28832
# Poissons Ratio (z) = 0.03875 0.43706
#
# Static dielectric constant tensor:
#      x y z
#    x 3.714360 -0.123800 -0.343490 
#    y -0.123800 4.166310 0.063750 
#    z -0.343490 0.063750 4.014970 
# 
# 
# High freq. dielectric constant tensor:
#      x y z
#    x 1.837780 -0.012990 -0.027500 
#    y -0.012990 1.880870 0.007840 
#    z -0.027500 0.007840 1.867460 
# 
# From -- ./inp_files/472000.got.cif
#   From: 2010.06.25/outbox.cif.g09.slc.cpg/sg2_236_cif.got.tgz:472000.got - 2010.06.27 13:26:56.
