data_PCOD8001516
_publ_section_title
;
Structure prediction by ZEFSAII (Michael W. Deem and Ramdas Pophale) SiO2 
 PCOD8001516
Probable space group: P -1
;
_chemical_formula_sum "Si O2"
_cell_formula_units_Z 14
_cell_length_a 10.983911
_cell_length_b 11.238025
_cell_length_c 8.989721
_cell_angle_alpha 103.158827
_cell_angle_beta 138.707049
_cell_angle_gamma 92.174214
_cell_volume 674.289171
_symmetry_space_group_name_H-M "P -1"
_symmetry_group_IT_number 2
_symmetry_cell_setting 'triclinic'
loop_
_space_group_symop_operation_xyz
x,y,z
-x,-y,-z
loop_
_atom_site_type_symbol
_atom_site_label
_atom_site_fract_x
_atom_site_fract_y
_atom_site_fract_z
Si Si1 0.573409 0.541591 0.242326
Si Si2 0.706549 0.843946 0.509278
Si Si3 0.753842 0.494114 0.846231
Si Si4 0.123577 0.850434 0.957477
Si Si5 0.493622 0.007219 0.821250
Si Si6 0.075193 0.436891 0.274052
Si Si7 0.375402 0.806953 0.419732
O O1 0.641669 0.694840 0.361632
O O2 0.412477 0.476564 0.202315
O O3 0.758513 0.493586 0.432687
O O4 0.500000 0.500000 0.000000
O O5 0.656423 0.918074 0.343277
O O6 0.580924 0.863651 0.538806
O O7 0.934850 0.898126 0.782117
O O8 0.811417 0.586079 0.780144
O O9 0.699420 0.347570 0.693988
O O10 0.942848 0.524901 0.136876
O O11 0.059310 0.697708 0.819866
O O12 0.285320 0.920395 0.005890
O O13 0.219039 0.866157 0.215135
O O14 0.413747 0.862495 0.637571
O O15 0.500000 0.000000 0.000000
#
# Coordination Sequence:
#
# PCOD8001516 Si02
#       7
#     2   2   2   2   2   2   2
#     4  10  20  33  53  81 112 141 170 212 266 317
#     4   9  19  37  56  75 104 142 178 214 257 308
#     4   9  18  35  55  79 108 138 178 217 252 306
#     4   9  18  36  57  77 102 138 182 216 255 313
#     4  11  23  36  53  80 109 136 173 221 269 314
#     4   9  18  34  56  78 104 140 178 216 256 308
#     4   9  19  35  57  79 102 140 180 212 254 311
#
# _framework density 20.762606000000002
#
# number of rings (size 3 to 8) (size 9 to 14) (size 15 to 20)
#    0.000    2.571    0.000    3.000    0.000    4.571 
#    0.000    8.571    0.000    0.000    0.000    0.000 
#    0.000    0.000    0.000    0.000    0.000    0.000 
#
# Total GULP energy -173506.174213 kJ/mol
# GULP energy per Si atom -12393.298158 kJ/mol
# Density = 2.071535 g / cm^3
# Si number density = 20.762606 Si / 1000 Ang^3
#
#
#
# Elastic Constant Matrix: (Units=GPa)
#
#
# Indices 1 2 3 4 5 6 
#
# 1 65.4521 16.3473 62.5399 3.7524 3.0866 5.4883
# 2 16.3473 41.8728 25.7114 -8.1703 1.1841 4.6110
# 3 62.5399 25.7114 161.1653 -21.4749 5.7141 -3.4518
# 4 3.7524 -8.1703 -21.4749 27.7267 -3.3272 7.4914
# 5 3.0866 1.1841 5.7141 -3.3272 43.5070 -5.1912
# 6 5.4883 4.6110 -3.4518 7.4914 -5.1912 25.3984
#
#
#
# Elastic Compliance Matrix: (Units=1/GPa)
#
#
# Indices 1 2 3 4 5 6 
#
# 1 0.030343 -0.006636 -0.012763 -0.015375 -0.001821 -0.002924
# 2 -0.006636 0.029998 -0.000891 0.011025 -0.000273 -0.007441
# 3 -0.012763 -0.000891 0.012788 0.011005 0.000267 0.001466
# 4 -0.015375 0.011025 0.011005 0.053552 0.001939 -0.012582
# 5 -0.001821 -0.000273 0.000267 0.001939 0.023804 0.004773
# 6 -0.002924 -0.007441 0.001466 -0.012582 0.004773 0.046241
#
#
# Mechanical properties :
#
#
# Convention : Reuss Voigt Hill
#
# Bulk Modulus (GPa) = 30.72273 53.07636 41.89955
# Shear Modulus (GPa) = 20.14863 30.25253 25.20058
#
# Velocity S-wave (km/s) = 3.11855 3.82130 3.48767
# Velocity P-wave (km/s) = 5.27223 6.71481 6.03677
#
# Compressibility (1/GPa) = 0.03254919
#
# Stress axis : x y z
#
# Youngs Moduli (GPa) = 32.95639 33.33543 78.19895
#
# Poissons Ratio (x) = 0.22121 0.99803
# Poissons Ratio (y) = 0.21870 0.06970
# Poissons Ratio (z) = 0.42061 0.02971
#
# Static dielectric constant tensor:
#      x y z
#    x 3.553120 0.082290 0.400950 
#    y 0.082290 3.668540 -0.136500 
#    z 0.400950 -0.136500 4.085990 
# 
# 
# High freq. dielectric constant tensor:
#      x y z
#    x 1.784540 0.010140 0.027230 
#    y 0.010140 1.798160 -0.010600 
#    z 0.027230 -0.010600 1.828580 
# 
# From -- ./inp_files/251333.got.cif
#   From: 2010.06.25/outbox.cif.g09.slc.cpg/sg2_126_cif.got.tgz:251333.got - 2010.06.27 13:26:56.
