data_PCOD8001481
_publ_section_title
;
Structure prediction by ZEFSAII (Michael W. Deem and Ramdas Pophale) SiO2 
 PCOD8001481
Probable space group: P -1
;
_chemical_formula_sum "Si O2"
_cell_formula_units_Z 14
_cell_length_a 12.876121
_cell_length_b 8.878230
_cell_length_c 15.017800
_cell_angle_alpha 109.280833
_cell_angle_beta 132.131490
_cell_angle_gamma 108.012874
_cell_volume 783.602508
_symmetry_space_group_name_H-M "P -1"
_symmetry_group_IT_number 2
_symmetry_cell_setting 'triclinic'
loop_
_space_group_symop_operation_xyz
x,y,z
-x,-y,-z
loop_
_atom_site_type_symbol
_atom_site_label
_atom_site_fract_x
_atom_site_fract_y
_atom_site_fract_z
Si Si1 0.162149 0.193538 0.779164
Si Si2 0.420417 0.398720 0.798388
Si Si3 0.576663 0.808562 0.503344
Si Si4 0.022121 0.656296 0.212278
Si Si5 0.242715 0.341510 0.505898
Si Si6 0.319068 0.694861 0.496453
Si Si7 0.590577 0.230711 0.783584
O O1 0.215028 0.229322 0.711928
O O2 0.062905 0.281018 0.758022
O O3 0.374657 0.344266 0.987835
O O4 0.999247 0.914581 0.658629
O O5 0.379968 0.465388 0.699441
O O6 0.459983 0.247988 0.768621
O O7 0.654979 0.696384 0.511317
O O8 0.449169 0.703449 0.501184
O O9 0.419099 0.731787 0.318829
O O10 0.780317 0.103756 0.684984
O O11 0.106090 0.584763 0.307783
O O12 0.838014 0.435378 0.996574
O O13 0.242220 0.514836 0.496319
O O14 0.473841 0.961968 0.680245
#
# Coordination Sequence:
#
# PCOD8001481 Si02
#       7
#     2   2   2   2   2   2   2
#     4   9  18  35  56  72  91 126 167 200 233 283
#     4   9  18  35  56  72  91 126 167 200 233 283
#     4   9  19  34  50  69  95 133 170 193 227 283
#     4   9  18  33  52  73  96 126 165 200 233 281
#     4  10  20  33  50  73 100 127 158 198 242 288
#     4  11  21  31  47  74 105 128 153 199 248 283
#     4   9  18  33  52  73  96 126 165 200 233 281
#
# _framework density 17.866201
#
# number of rings (size 3 to 8) (size 9 to 14) (size 15 to 20)
#    0.000    2.571    0.000    3.429    0.000    3.429 
#    0.000    2.857    0.000   13.714    0.000    0.000 
#    0.000    0.000    0.000    0.000    0.000    0.000 
#
# Total GULP energy -173619.544555 kJ/mol
# GULP energy per Si atom -12401.396040 kJ/mol
# Density = 1.782554 g / cm^3
# Si number density = 17.866201 Si / 1000 Ang^3
#
#
#
# Elastic Constant Matrix: (Units=GPa)
#
#
# Indices 1 2 3 4 5 6 
#
# 1 59.5354 20.2025 16.8265 -3.9117 12.2630 14.7233
# 2 20.2025 108.6470 35.4567 -5.5656 11.0096 -1.8878
# 3 16.8265 35.4567 116.1591 -8.1846 7.9217 -1.4002
# 4 -3.9117 -5.5656 -8.1846 11.7583 0.2036 -1.3463
# 5 12.2630 11.0096 7.9217 0.2036 18.7384 5.4792
# 6 14.7233 -1.8878 -1.4002 -1.3463 5.4792 18.6975
#
#
#
# Elastic Compliance Matrix: (Units=1/GPa)
#
#
# Indices 1 2 3 4 5 6 
#
# 1 0.024654 -0.003203 -0.001979 0.003489 -0.008435 -0.017162
# 2 -0.003203 0.011352 -0.002350 0.003362 -0.005150 0.005244
# 3 -0.001979 -0.002350 0.010243 0.005782 -0.002679 0.003290
# 4 0.003489 0.003362 0.005782 0.092868 -0.009941 0.007625
# 5 -0.008435 -0.005150 -0.002679 -0.009941 0.067406 -0.014547
# 6 -0.017162 0.005244 0.003290 0.007625 -0.014547 0.072586
#
#
# Mechanical properties :
#
#
# Convention : Reuss Voigt Hill
#
# Bulk Modulus (GPa) = 32.06781 47.70143 39.88462
# Shear Modulus (GPa) = 16.41674 23.96257 20.18965
#
# Velocity S-wave (km/s) = 3.03458 3.66624 3.36526
# Velocity P-wave (km/s) = 5.50146 6.68424 6.12148
#
# Compressibility (1/GPa) = 0.03118392
#
# Stress axis : x y z
#
# Youngs Moduli (GPa) = 40.56125 88.09242 97.63144
#
# Poissons Ratio (x) = 0.28216 0.19325
# Poissons Ratio (y) = 0.12992 0.22941
# Poissons Ratio (z) = 0.08029 0.20700
#
# Static dielectric constant tensor:
#      x y z
#    x 3.376060 -0.019770 -0.003740 
#    y -0.019770 2.985030 -0.044730 
#    z -0.003740 -0.044730 3.534970 
# 
# 
# High freq. dielectric constant tensor:
#      x y z
#    x 1.698550 -0.000500 0.000400 
#    y -0.000500 1.664270 -0.002970 
#    z 0.000400 -0.002970 1.701790 
# 
# From -- ./inp_files/212089.got.cif
#   From: 2010.06.25/outbox.cif.g09.slc.cpg/sg2_107_cif.got.tgz:212089.got - 2010.06.27 13:26:56.
