data_PCOD8001595
_publ_section_title
;
Structure prediction by ZEFSAII (Michael W. Deem and Ramdas Pophale) SiO2 
 PCOD8001595
Probable space group: P -1
;
_chemical_formula_sum "Si O2"
_cell_formula_units_Z 12
_cell_length_a 16.778693
_cell_length_b 25.509126
_cell_length_c 5.137220
_cell_angle_alpha 102.023932
_cell_angle_beta 72.201011
_cell_angle_gamma 162.162956
_cell_volume 614.974132
_symmetry_space_group_name_H-M "P -1"
_symmetry_group_IT_number 2
_symmetry_cell_setting 'triclinic'
loop_
_space_group_symop_operation_xyz
x,y,z
-x,-y,-z
loop_
_atom_site_type_symbol
_atom_site_label
_atom_site_fract_x
_atom_site_fract_y
_atom_site_fract_z
Si Si1 0.465529 0.601865 0.097569
Si Si2 0.038843 0.426757 0.396594
Si Si3 0.776697 0.967409 0.732208
Si Si4 0.388025 0.372768 0.523135
Si Si5 0.797530 0.325909 0.031450
Si Si6 0.357622 0.176977 0.782643
O O1 0.153768 0.435948 0.269651
O O2 0.517314 0.588521 0.246940
O O3 0.690740 0.788366 0.096867
O O4 0.487244 0.591084 0.777788
O O5 0.308497 0.631513 0.337379
O O6 0.837515 0.317424 0.246920
O O7 0.866329 0.327707 0.730097
O O8 0.522836 0.853359 0.851025
O O9 0.756267 0.909215 0.473432
O O10 0.795085 0.949726 0.973374
O O11 0.054780 0.171563 0.626234
O O12 0.500000 0.500000 0.500000
O O13 0.000000 0.500000 0.000000
#
# Coordination Sequence:
#
# PCOD8001595 Si02
#       6
#     2   2   2   2   2   2
#     4  10  22  42  62  85 115 151 196 242 289 354
#     4  10  20  33  57  88 117 154 171 229 298 347
#     4  12  23  34  59  92 122 154 188 232 289 350
#     4  12  26  43  60  79 115 162 202 242 277 332
#     4  12  17  33  55  86 130 145 179 224 291 368
#     4  10  20  36  56  97 115 147 182 232 310 339
#
# _framework density 19.513016
#
# number of rings (size 3 to 8) (size 9 to 14) (size 15 to 20)
#    1.000    0.000    3.333    5.000    0.000    4.000 
#    0.000    0.000    0.000    6.000    0.000    0.000 
#    0.000    0.000    0.000    0.000    0.000    0.000 
#
# Total GULP energy -148821.127242 kJ/mol
# GULP energy per Si atom -12401.760603 kJ/mol
# Density = 1.946860 g / cm^3
# Si number density = 19.513016 Si / 1000 Ang^3
#
#
#
# Elastic Constant Matrix: (Units=GPa)
#
#
# Indices 1 2 3 4 5 6 
#
# 1 81.3072 37.8684 14.9591 -18.6469 0.8361 7.1589
# 2 37.8684 45.9683 25.1590 -10.4404 -5.1807 0.7192
# 3 14.9591 25.1590 93.7984 8.9134 -6.8796 1.7645
# 4 -18.6469 -10.4404 8.9134 23.5287 6.7816 3.8520
# 5 0.8361 -5.1807 -6.8796 6.7816 35.3246 2.7323
# 6 7.1589 0.7192 1.7645 3.8520 2.7323 33.1366
#
#
#
# Elastic Compliance Matrix: (Units=1/GPa)
#
#
# Indices 1 2 3 4 5 6 
#
# 1 0.024181 -0.016429 -0.001165 0.014925 -0.005604 -0.006078
# 2 -0.016429 0.042632 -0.009410 0.008263 0.003075 0.001911
# 3 -0.001165 -0.009410 0.014762 -0.011893 0.003748 0.000743
# 4 0.014925 0.008263 -0.011893 0.068036 -0.013781 -0.009543
# 5 -0.005604 0.003075 0.003748 -0.013781 0.032277 -0.000115
# 6 -0.006078 0.001911 0.000743 -0.009543 -0.000115 0.032529
#
#
# Mechanical properties :
#
#
# Convention : Reuss Voigt Hill
#
# Bulk Modulus (GPa) = 36.27604 41.89411 39.08507
# Shear Modulus (GPa) = 18.01059 27.93713 22.97386
#
# Velocity S-wave (km/s) = 3.04139 3.78791 3.43499
# Velocity P-wave (km/s) = 5.56457 6.37554 5.98381
#
# Compressibility (1/GPa) = 0.02756641
#
# Stress axis : x y z
#
# Youngs Moduli (GPa) = 41.35502 23.45642 67.74115
#
# Poissons Ratio (x) = 0.38537 0.07889
# Poissons Ratio (y) = 0.67944 0.63748
# Poissons Ratio (z) = 0.04816 0.22074
#
# Static dielectric constant tensor:
#      x y z
#    x 3.377970 0.232870 -0.107370 
#    y 0.232870 3.335110 0.038680 
#    z -0.107370 0.038680 3.716290 
# 
# 
# High freq. dielectric constant tensor:
#      x y z
#    x 1.748180 0.031520 -0.006880 
#    y 0.031520 1.731770 0.011960 
#    z -0.006880 0.011960 1.780140 
# 
# From -- ./inp_files/35058.got.cif
#   From: 2010.06.25/outbox.cif.g09.slc.cpg/sg2_18_cif.got.tgz:35058.got - 2010.06.27 13:26:56.
