data_PCOD8001353
_publ_section_title
;
Structure prediction by ZEFSAII (Michael W. Deem and Ramdas Pophale) SiO2 
 PCOD8001353
Probable space group: P -1
;
_chemical_formula_sum "Si O2"
_cell_formula_units_Z 12
_cell_length_a 15.974857
_cell_length_b 13.532439
_cell_length_c 15.400465
_cell_angle_alpha 34.729768
_cell_angle_beta 18.223385
_cell_angle_gamma 33.566485
_cell_volume 566.682613
_symmetry_space_group_name_H-M "P -1"
_symmetry_group_IT_number 2
_symmetry_cell_setting 'triclinic'
loop_
_space_group_symop_operation_xyz
x,y,z
-x,-y,-z
loop_
_atom_site_type_symbol
_atom_site_label
_atom_site_fract_x
_atom_site_fract_y
_atom_site_fract_z
Si Si1 0.491128 0.160031 0.216430
Si Si2 0.009001 0.162922 0.812473
Si Si3 0.828187 0.529710 0.821504
Si Si4 0.332477 0.036290 0.980751
Si Si5 0.178371 0.843959 0.500556
Si Si6 0.313158 0.648877 0.345664
O O1 0.309185 0.337836 0.217353
O O2 0.302359 0.104232 0.515130
O O3 0.608141 0.982688 0.167162
O O4 0.751190 0.211414 0.964841
O O5 0.999768 0.336543 0.754376
O O6 0.000000 0.000000 0.000000
O O7 0.036221 0.615317 0.605734
O O8 0.593897 0.500889 0.140885
O O9 0.562973 0.103718 0.753368
O O10 0.027672 0.176604 0.203113
O O11 0.343952 0.837465 0.144643
O O12 0.290816 0.659305 0.465710
O O13 0.000000 0.000000 0.500000
#
# Coordination Sequence:
#
# PCOD8001353 Si02
#       6
#     2   2   2   2   2   2
#     4  11  21  38  58  82 110 143 183 228 271 324
#     4  12  25  40  57  80 108 145 186 230 279 326
#     4  11  21  36  57  83 111 145 183 225 271 322
#     4  10  18  29  49  79 112 144 174 215 269 320
#     4  10  16  27  46  78 117 144 167 214 270 320
#     4  10  18  30  51  82 115 145 175 218 271 322
#
# _framework density 21.175875000000001
#
# number of rings (size 3 to 8) (size 9 to 14) (size 15 to 20)
#    0.000    1.333    0.000   12.500    0.000    0.000 
#    0.000    0.000    0.000    0.000    0.000   23.333 
#    0.000    0.000    0.000    0.000    0.000    0.000 
#
# Total GULP energy -148776.991875 kJ/mol
# GULP energy per Si atom -12398.082656 kJ/mol
# Density = 2.112768 g / cm^3
# Si number density = 21.175875 Si / 1000 Ang^3
#
#
#
# Elastic Constant Matrix: (Units=GPa)
#
#
# Indices 1 2 3 4 5 6 
#
# 1 75.7763 53.1353 35.2347 1.2090 -5.5217 39.0675
# 2 53.1353 52.0156 27.3392 6.2709 13.6338 26.1170
# 3 35.2347 27.3392 111.5583 23.8053 -6.1857 20.6676
# 4 1.2090 6.2709 23.8053 28.9421 21.5030 7.9047
# 5 -5.5217 13.6338 -6.1857 21.5030 56.3319 5.1187
# 6 39.0675 26.1170 20.6676 7.9047 5.1187 31.7056
#
#
#
# Elastic Compliance Matrix: (Units=1/GPa)
#
#
# Indices 1 2 3 4 5 6 
#
# 1 0.147322 -0.115926 0.000302 0.009662 0.047596 -0.096327
# 2 -0.115926 0.131870 -0.009379 0.010330 -0.052452 0.046225
# 3 0.000302 -0.009379 0.016046 -0.019802 0.011625 -0.000046
# 4 0.009662 0.010330 -0.019802 0.077386 -0.031291 -0.021748
# 5 0.047596 -0.052452 0.011625 -0.031291 0.050456 -0.023362
# 6 -0.096327 0.046225 -0.000046 -0.021748 -0.023362 0.121380
#
#
# Mechanical properties :
#
#
# Convention : Reuss Voigt Hill
#
# Bulk Modulus (GPa) = 22.10858 52.30760 37.20809
# Shear Modulus (GPa) = 6.17633 31.63867 18.90750
#
# Velocity S-wave (km/s) = 1.70968 3.86954 2.99135
# Velocity P-wave (km/s) = 3.78952 6.68727 5.43507
#
# Compressibility (1/GPa) = 0.04523130
#
# Stress axis : x y z
#
# Youngs Moduli (GPa) = 6.78787 7.58323 62.32242
#
# Poissons Ratio (x) = 0.87910 -0.01885
# Poissons Ratio (y) = 0.78689 0.58452
# Poissons Ratio (z) = -0.00205 0.07112
#
# Static dielectric constant tensor:
#      x y z
#    x 4.724650 1.246100 1.002670 
#    y 1.246100 4.266990 1.116330 
#    z 1.002670 1.116330 5.103360 
# 
# 
# High freq. dielectric constant tensor:
#      x y z
#    x 1.822230 0.053320 -0.008130 
#    y 0.053320 1.796590 0.026680 
#    z -0.008130 0.026680 1.854210 
# 
# From -- ./inp_files/84820.got.cif
#   From: 2010.06.25/outbox.cif.g09.slc.cpg/sg2_43_cif.got.tgz:84820.got - 2010.06.27 13:26:56.
