data_PCOD8001523
_publ_section_title
;
Structure prediction by ZEFSAII (Michael W. Deem and Ramdas Pophale) SiO2 
 PCOD8001523
Probable space group: P -1
;
_chemical_formula_sum "Si O2"
_cell_formula_units_Z 14
_cell_length_a 8.026372
_cell_length_b 11.455592
_cell_length_c 10.282903
_cell_angle_alpha 86.525006
_cell_angle_beta 136.935925
_cell_angle_gamma 85.951029
_cell_volume 635.180142
_symmetry_space_group_name_H-M "P -1"
_symmetry_group_IT_number 2
_symmetry_cell_setting 'triclinic'
loop_
_space_group_symop_operation_xyz
x,y,z
-x,-y,-z
loop_
_atom_site_type_symbol
_atom_site_label
_atom_site_fract_x
_atom_site_fract_y
_atom_site_fract_z
Si Si1 0.997445 0.303333 0.662787
Si Si2 0.748966 0.279108 0.772321
Si Si3 0.404618 0.130819 0.483883
Si Si4 0.793456 0.666512 0.833519
Si Si5 0.546771 0.627061 0.969589
Si Si6 0.977298 0.245679 0.381753
Si Si7 0.738819 0.554822 0.553689
O O1 0.966006 0.217158 0.530485
O O2 0.932015 0.238176 0.759067
O O3 0.803056 0.426668 0.533601
O O4 0.275167 0.329728 0.825604
O O5 0.588254 0.172007 0.696278
O O6 0.558971 0.402944 0.629453
O O7 0.933732 0.295807 0.994670
O O8 0.385016 0.222239 0.344410
O O9 0.133985 0.137778 0.396481
O O10 0.500000 0.000000 0.500000
O O11 0.671020 0.624952 0.897154
O O12 0.829955 0.558390 0.757056
O O13 0.298540 0.722950 0.832080
O O14 0.500000 0.500000 0.000000
O O15 0.116725 0.358667 0.450112
#
# Coordination Sequence:
#
# PCOD8001523 Si02
#       7
#     2   2   2   2   2   2   2
#     4  11  21  36  53  85 126 161 192 223 285 344
#     4   9  20  36  58  84 116 152 198 244 277 348
#     4  10  23  45  65  82 106 150 204 260 303 327
#     4   9  21  39  56  88 123 151 203 230 279 352
#     4  11  22  36  56  86 129 164 182 226 281 349
#     4  10  21  37  55  86 117 150 203 239 279 351
#     4  10  20  33  53  85 121 169 190 222 275 343
#
# _framework density 22.040990000000001
#
# number of rings (size 3 to 8) (size 9 to 14) (size 15 to 20)
#    0.000    2.286    1.429    2.571    0.000    8.571 
#    2.571    2.857    0.000    3.429    0.000    0.000 
#    0.000    0.000    0.000    0.000    0.000    0.000 
#
# Total GULP energy -173485.889501 kJ/mol
# GULP energy per Si atom -12391.849250 kJ/mol
# Density = 2.199082 g / cm^3
# Si number density = 22.040990 Si / 1000 Ang^3
#
#
#
# Elastic Constant Matrix: (Units=GPa)
#
#
# Indices 1 2 3 4 5 6 
#
# 1 78.0097 20.3570 19.2910 -8.8546 8.4144 -15.6142
# 2 20.3570 78.8690 26.3630 -4.5607 4.3911 -26.4214
# 3 19.2910 26.3630 90.5174 1.3773 22.5145 -1.8503
# 4 -8.8546 -4.5607 1.3773 15.8536 1.8314 7.0729
# 5 8.4144 4.3911 22.5145 1.8314 41.9991 0.7337
# 6 -15.6142 -26.4214 -1.8503 7.0729 0.7337 29.8911
#
#
#
# Elastic Compliance Matrix: (Units=1/GPa)
#
#
# Indices 1 2 3 4 5 6 
#
# 1 0.015804 -0.000705 -0.002622 0.006413 -0.002071 0.006003
# 2 -0.000705 0.020604 -0.005649 -0.002084 0.000792 0.017968
# 3 -0.002622 -0.005649 0.014836 -0.001398 -0.006690 -0.004950
# 4 0.006413 -0.002084 -0.001398 0.073663 -0.003252 -0.015929
# 5 -0.002071 0.000792 -0.006690 -0.003252 0.027883 -0.000711
# 6 0.006003 0.017968 -0.004950 -0.015929 -0.000711 0.055953
#
#
# Mechanical properties :
#
#
# Convention : Reuss Voigt Hill
#
# Bulk Modulus (GPa) = 30.03795 42.15755 36.09775
# Shear Modulus (GPa) = 21.02671 29.64110 25.33390
#
# Velocity S-wave (km/s) = 3.09201 3.67115 3.39396
# Velocity P-wave (km/s) = 5.13860 6.09411 5.63664
#
# Compressibility (1/GPa) = 0.03329122
#
# Stress axis : x y z
#
# Youngs Moduli (GPa) = 63.27337 48.53387 67.40528
#
# Poissons Ratio (x) = 0.03424 0.17677
# Poissons Ratio (y) = 0.04464 0.38075
# Poissons Ratio (z) = 0.16593 0.27415
#
# Static dielectric constant tensor:
#      x y z
#    x 4.245130 -0.068770 0.234360 
#    y -0.068770 3.362520 0.174350 
#    z 0.234360 0.174350 4.283730 
# 
# 
# High freq. dielectric constant tensor:
#      x y z
#    x 1.883710 -0.008750 0.016210 
#    y -0.008750 1.803840 0.018800 
#    z 0.016210 0.018800 1.877230 
# 
# From -- ./inp_files/387669.got.cif
#   From: 2010.06.25/outbox.cif.g09.slc.cpg/sg2_194_cif.got.tgz:387669.got - 2010.06.27 13:26:56.
