data_PCOD8001415
_publ_section_title
;
Structure prediction by ZEFSAII (Michael W. Deem and Ramdas Pophale) SiO2 
 PCOD8001415
Probable space group: P -1
;
_chemical_formula_sum "Si O2"
_cell_formula_units_Z 16
_cell_length_a 15.381874
_cell_length_b 9.499776
_cell_length_c 9.400669
_cell_angle_alpha 44.710053
_cell_angle_beta 88.489336
_cell_angle_gamma 61.617973
_cell_volume 734.751737
_symmetry_space_group_name_H-M "P -1"
_symmetry_group_IT_number 2
_symmetry_cell_setting 'triclinic'
loop_
_space_group_symop_operation_xyz
x,y,z
-x,-y,-z
loop_
_atom_site_type_symbol
_atom_site_label
_atom_site_fract_x
_atom_site_fract_y
_atom_site_fract_z
Si Si1 0.245384 0.492037 0.438527
Si Si2 0.356921 0.319761 0.138800
Si Si3 0.586710 0.381518 0.209205
Si Si4 0.908054 0.183089 0.534885
Si Si5 0.524855 0.739127 0.529865
Si Si6 0.968268 0.705985 0.733818
Si Si7 0.782011 0.896602 0.399027
Si Si8 0.847726 0.212030 0.049227
O O1 0.200608 0.607504 0.514259
O O2 0.374003 0.389274 0.496892
O O3 0.245845 0.252251 0.590157
O O4 0.160515 0.722909 0.163322
O O5 0.427691 0.272679 0.309443
O O6 0.413027 0.035424 0.278046
O O7 0.363664 0.468283 0.900704
O O8 0.223405 0.512049 0.055984
O O9 0.523714 0.415730 0.336324
O O10 0.683770 0.068932 0.397901
O O11 0.500000 0.500000 0.000000
O O12 0.922503 0.343509 0.305850
O O13 0.885927 0.005984 0.582423
O O14 0.022012 0.985776 0.766166
O O15 0.902110 0.685816 0.627132
O O16 0.000000 0.500000 0.000000
O O17 0.787510 0.086047 0.163958
#
# Coordination Sequence:
#
# PCOD8001415 Si02
#       8
#     2   2   2   2   2   2   2   2
#     4  11  20  31  51  81 112 134 163 215 271 315
#     4   8  14  25  42  67 101 133 163 200 245 300
#     4   9  15  27  46  74 106 132 165 211 256 305
#     4  10  22  37  54  77 104 137 176 215 261 315
#     4   9  16  25  42  71 104 133 158 195 254 308
#     4  10  22  40  56  72 100 143 186 216 250 305
#     4  10  20  32  53  82 105 135 177 216 259 309
#     4   9  18  31  50  78 107 134 169 218 266 305
#
# _framework density 21.776062
#
# number of rings (size 3 to 8) (size 9 to 14) (size 15 to 20)
#    0.000    2.500    0.000    4.875    0.000    3.000 
#    0.000    0.000    0.000    0.750    0.000   26.250 
#    0.000    0.000    0.000    0.000    0.000    0.000 
#
# Total GULP energy -198261.530123 kJ/mol
# GULP energy per Si atom -12391.345633 kJ/mol
# Density = 2.172650 g / cm^3
# Si number density = 21.776062 Si / 1000 Ang^3
#
#
#
# Elastic Constant Matrix: (Units=GPa)
#
#
# Indices 1 2 3 4 5 6 
#
# 1 53.8806 44.4776 8.9601 -1.6960 -23.9750 -21.9167
# 2 44.4776 98.6078 28.1208 0.0955 -21.1160 -33.2178
# 3 8.9601 28.1208 86.6832 -6.4056 -22.5394 -17.0663
# 4 -1.6960 0.0955 -6.4056 18.7085 -4.6974 2.0515
# 5 -23.9750 -21.1160 -22.5394 -4.6974 24.8704 5.5145
# 6 -21.9167 -33.2178 -17.0663 2.0515 5.5145 28.6216
#
#
#
# Elastic Compliance Matrix: (Units=1/GPa)
#
#
# Indices 1 2 3 4 5 6 
#
# 1 0.098442 -0.009888 0.038680 0.044720 0.116404 0.061337
# 2 -0.009888 0.020734 -0.002495 -0.002993 0.001955 0.014843
# 3 0.038680 -0.002495 0.033156 0.027184 0.063174 0.032374
# 4 0.044720 -0.002993 0.027184 0.082723 0.074928 0.026613
# 5 0.116404 0.001955 0.063174 0.074928 0.206896 0.083840
# 6 0.061337 0.014843 0.032374 0.026613 0.083840 0.100375
#
#
# Mechanical properties :
#
#
# Convention : Reuss Voigt Hill
#
# Bulk Modulus (GPa) = 4.87977 44.69874 24.78925
# Shear Modulus (GPa) = 8.95989 24.94763 16.95376
#
# Velocity S-wave (km/s) = 2.03064 3.38841 2.79328
# Velocity P-wave (km/s) = 2.78276 5.98995 4.67029
#
# Compressibility (1/GPa) = 0.20492790
#
# Stress axis : x y z
#
# Youngs Moduli (GPa) = 10.15823 48.22975 30.16000
#
# Poissons Ratio (x) = 0.47688 -1.16659
# Poissons Ratio (y) = 0.10044 0.07525
# Poissons Ratio (z) = -0.39292 0.12033
#
# Static dielectric constant tensor:
#      x y z
#    x 4.184100 -0.301890 -0.343670 
#    y -0.301890 3.482200 -0.168170 
#    z -0.343670 -0.168170 4.146650 
# 
# 
# High freq. dielectric constant tensor:
#      x y z
#    x 1.854740 -0.027580 -0.018720 
#    y -0.027580 1.800130 -0.014280 
#    z -0.018720 -0.014280 1.862570 
# 
# From -- ./inp_files/327113.got.cif
#   From: 2010.06.25/outbox.cif.g09.slc.cpg/sg2_164_cif.got.tgz:327113.got - 2010.06.27 13:26:56.
