data_PCOD8001426
_publ_section_title
;
Structure prediction by ZEFSAII (Michael W. Deem and Ramdas Pophale) SiO2 
 PCOD8001426
Probable space group: P -1
;
_chemical_formula_sum "Si O2"
_cell_formula_units_Z 16
_cell_length_a 15.984508
_cell_length_b 15.343075
_cell_length_c 15.290839
_cell_angle_alpha 39.547879
_cell_angle_beta 137.108096
_cell_angle_gamma 161.509443
_cell_volume 757.261915
_symmetry_space_group_name_H-M "P -1"
_symmetry_group_IT_number 2
_symmetry_cell_setting 'triclinic'
loop_
_space_group_symop_operation_xyz
x,y,z
-x,-y,-z
loop_
_atom_site_type_symbol
_atom_site_label
_atom_site_fract_x
_atom_site_fract_y
_atom_site_fract_z
Si Si1 0.174991 0.587816 0.309700
Si Si2 0.755301 0.223023 0.967843
Si Si3 0.229893 0.293125 0.345144
Si Si4 0.235616 0.409474 0.879496
Si Si5 0.746241 0.635025 0.494778
Si Si6 0.351123 0.777334 0.772440
Si Si7 0.526543 0.748568 0.081186
Si Si8 0.739274 0.794483 0.063088
O O1 0.201632 0.452471 0.451429
O O2 0.878758 0.341712 0.292770
O O3 0.379543 0.873007 0.307139
O O4 0.249987 0.686615 0.190474
O O5 0.749290 0.057058 0.063274
O O6 0.000000 0.500000 0.000000
O O7 0.500000 0.000000 0.000000
O O8 0.448616 0.389248 0.440250
O O9 0.208129 0.345270 0.382125
O O10 0.302720 0.477587 0.186029
O O11 0.948581 0.949533 0.371196
O O12 0.280814 0.618646 0.754094
O O13 0.198190 0.305165 0.833993
O O14 0.487900 0.587487 0.975464
O O15 0.982464 0.128373 0.962554
O O16 0.380683 0.700375 0.935275
O O17 0.674111 0.762703 0.139150
#
# Coordination Sequence:
#
# PCOD8001426 Si02
#       8
#     2   2   2   2   2   2   2   2
#     4  11  21  35  52  74 102 134 175 209 246 311
#     4  11  22  32  48  72 103 135 159 204 259 305
#     4  10  22  37  55  71 100 135 177 226 251 292
#     4   9  16  31  47  76 107 136 161 191 257 316
#     4  10  22  38  52  72  96 139 183 215 255 289
#     4  10  20  32  54  80 107 131 159 209 260 315
#     4  10  21  36  53  81 106 134 174 212 263 306
#     4   9  18  29  50  72 107 137 161 203 246 315
#
# _framework density 21.128753
#
# number of rings (size 3 to 8) (size 9 to 14) (size 15 to 20)
#    0.000    2.000    0.000    5.250    0.000    9.000 
#    0.000    0.000    0.000    0.000    0.000    5.250 
#    0.000    0.000    0.000    0.000    0.000    0.000 
#
# Total GULP energy -198324.139131 kJ/mol
# GULP energy per Si atom -12395.258696 kJ/mol
# Density = 2.108066 g / cm^3
# Si number density = 21.128753 Si / 1000 Ang^3
#
#
#
# Elastic Constant Matrix: (Units=GPa)
#
#
# Indices 1 2 3 4 5 6 
#
# 1 118.5964 33.7023 22.2454 -11.0735 26.5362 -14.0282
# 2 33.7023 97.6336 6.3589 -28.1041 4.7910 2.5898
# 3 22.2454 6.3589 53.1358 -17.3729 12.8024 -7.9845
# 4 -11.0735 -28.1041 -17.3729 24.1742 1.6627 6.6766
# 5 26.5362 4.7910 12.8024 1.6627 32.7830 -10.2195
# 6 -14.0282 2.5898 -7.9845 6.6766 -10.2195 33.8988
#
#
#
# Elastic Compliance Matrix: (Units=1/GPa)
#
#
# Indices 1 2 3 4 5 6 
#
# 1 0.011878 -0.004199 -0.003028 -0.001933 -0.006834 0.002843
# 2 -0.004199 0.021736 0.011218 0.034910 -0.009170 -0.010396
# 3 -0.003028 0.011218 0.034770 0.039694 -0.016911 -0.006837
# 4 -0.001933 0.034910 0.039694 0.119612 -0.033791 -0.027863
# 5 -0.006834 -0.009170 -0.016911 -0.033791 0.050621 0.015805
# 6 0.002843 -0.010396 -0.006837 -0.027863 0.015805 0.040113
#
#
# Mechanical properties :
#
#
# Convention : Reuss Voigt Hill
#
# Bulk Modulus (GPa) = 13.09504 43.77544 28.43524
# Shear Modulus (GPa) = 16.88023 31.97516 24.42769
#
# Velocity S-wave (km/s) = 2.82959 3.89440 3.40389
# Velocity P-wave (km/s) = 4.10933 6.40197 5.37921
#
# Compressibility (1/GPa) = 0.07636478
#
# Stress axis : x y z
#
# Youngs Moduli (GPa) = 84.18616 46.00673 28.76024
#
# Poissons Ratio (x) = 0.19320 0.08710
# Poissons Ratio (y) = 0.35354 -0.32263
# Poissons Ratio (z) = 0.25494 -0.51610
#
# Static dielectric constant tensor:
#      x y z
#    x 4.620880 -0.385900 0.353780 
#    y -0.385900 4.347420 -0.527770 
#    z 0.353780 -0.527770 3.437480 
# 
# 
# High freq. dielectric constant tensor:
#      x y z
#    x 1.840530 0.005600 0.027010 
#    y 0.005600 1.838280 -0.032170 
#    z 0.027010 -0.032170 1.776310 
# 
# From -- ./inp_files/573953.got.cif
#   From: 2010.06.25/outbox.cif.g09.slc.cpg/sg2_287_cif.got.tgz:573953.got - 2010.06.27 13:26:56.
