data_PCOD8001605
_publ_section_title
;
Structure prediction by ZEFSAII (Michael W. Deem and Ramdas Pophale) SiO2 
 PCOD8001605
Probable space group: P -1
;
_chemical_formula_sum "Si O2"
_cell_formula_units_Z 16
_cell_length_a 14.419652
_cell_length_b 10.977985
_cell_length_c 15.586756
_cell_angle_alpha 107.872782
_cell_angle_beta 130.835020
_cell_angle_gamma 32.729185
_cell_volume 811.635297
_symmetry_space_group_name_H-M "P -1"
_symmetry_group_IT_number 2
_symmetry_cell_setting 'triclinic'
loop_
_space_group_symop_operation_xyz
x,y,z
-x,-y,-z
loop_
_atom_site_type_symbol
_atom_site_label
_atom_site_fract_x
_atom_site_fract_y
_atom_site_fract_z
Si Si1 0.287140 0.497618 0.929738
Si Si2 0.377651 0.112631 0.214870
Si Si3 0.674756 0.052978 0.466778
Si Si4 0.707346 0.287002 0.216476
Si Si5 0.275497 0.443447 0.723505
Si Si6 0.492404 0.396912 0.284056
Si Si7 0.822145 0.085690 0.704291
Si Si8 0.221574 0.424667 0.043117
O O1 0.324072 0.382963 0.841150
O O2 0.513016 0.395174 0.056611
O O3 0.315470 0.363104 0.990237
O O4 0.004613 0.837369 0.828542
O O5 0.406925 0.147730 0.144577
O O6 0.450163 0.152708 0.338383
O O7 0.566770 0.816512 0.282942
O O8 0.077479 0.346851 0.095435
O O9 0.966242 0.716410 0.568650
O O10 0.669298 0.163625 0.412214
O O11 0.625291 0.168852 0.553432
O O12 0.610234 0.523015 0.224866
O O13 0.696523 0.232984 0.292632
O O14 0.997245 0.018709 0.286070
O O15 0.357670 0.648575 0.295409
O O16 0.245149 0.536943 0.133529
#
# Coordination Sequence:
#
# PCOD8001605 Si02
#       8
#     2   2   2   2   2   2   2   2
#     4   9  19  35  52  83 115 131 182 226 274 326
#     4  10  20  36  57  76 109 146 183 221 271 317
#     4   9  20  39  52  79 112 144 185 223 257 330
#     4   9  20  34  53  89 112 137 179 233 264 336
#     4  10  20  33  59  76 107 150 176 221 275 320
#     4  10  20  35  61  81 112 143 178 226 282 315
#     4  10  20  33  58  83 111 147 174 223 282 319
#     4   9  21  35  55  83 107 139 181 231 264 331
#
# _framework density 19.713287999999999
#
# number of rings (size 3 to 8) (size 9 to 14) (size 15 to 20)
#    0.000    2.750    0.000    2.250    5.250    3.500 
#    0.000    2.500    5.500    0.000    0.000    0.000 
#    0.000    0.000    0.000    0.000    0.000    0.000 
#
# Total GULP energy -198247.762073 kJ/mol
# GULP energy per Si atom -12390.485130 kJ/mol
# Density = 1.966842 g / cm^3
# Si number density = 19.713288 Si / 1000 Ang^3
#
#
#
# Elastic Constant Matrix: (Units=GPa)
#
#
# Indices 1 2 3 4 5 6 
#
# 1 64.5695 -1.7865 21.1890 5.7364 7.2755 1.3776
# 2 -1.7865 48.3840 13.5149 3.5966 5.0421 2.9692
# 3 21.1890 13.5149 103.4528 15.2834 7.9358 2.3320
# 4 5.7364 3.5966 15.2834 15.6733 1.6397 -1.3007
# 5 7.2755 5.0421 7.9358 1.6397 25.4449 3.4990
# 6 1.3776 2.9692 2.3320 -1.3007 3.4990 18.6591
#
#
#
# Elastic Compliance Matrix: (Units=1/GPa)
#
#
# Indices 1 2 3 4 5 6 
#
# 1 0.017324 0.002212 -0.002976 -0.003575 -0.004133 -0.000733
# 2 0.002212 0.022261 -0.002526 -0.003318 -0.003638 -0.002939
# 3 -0.002976 -0.002526 0.012273 -0.010238 -0.001635 -0.001319
# 4 -0.003575 -0.003318 -0.010238 0.076604 -0.001111 0.007620
# 5 -0.004133 -0.003638 -0.001635 -0.001111 0.042748 -0.007005
# 6 -0.000733 -0.002939 -0.001319 0.007620 -0.007005 0.056125
#
#
# Mechanical properties :
#
#
# Convention : Reuss Voigt Hill
#
# Bulk Modulus (GPa) = 22.08469 31.36014 26.72241
# Shear Modulus (GPa) = 20.07975 24.18806 22.13390
#
# Velocity S-wave (km/s) = 3.19500 3.50665 3.35444
# Velocity P-wave (km/s) = 4.98377 5.68666 5.34678
#
# Compressibility (1/GPa) = 0.04528024
#
# Stress axis : x y z
#
# Youngs Moduli (GPa) = 57.72432 44.92100 81.47789
#
# Poissons Ratio (x) = -0.09937 0.24244
# Poissons Ratio (y) = -0.12770 0.20579
# Poissons Ratio (z) = 0.17176 0.11346
#
# Static dielectric constant tensor:
#      x y z
#    x 3.687640 0.224520 -0.075550 
#    y 0.224520 3.200020 0.173090 
#    z -0.075550 0.173090 3.820190 
# 
# 
# High freq. dielectric constant tensor:
#      x y z
#    x 1.765450 0.018430 -0.004880 
#    y 0.018430 1.733800 0.014290 
#    z -0.004880 0.014290 1.788840 
# 
# From -- ./inp_files/258219.got.cif
#   From: 2010.06.25/outbox.cif.g09.slc.cpg/sg2_130_cif.got.tgz:258219.got - 2010.06.27 13:26:56.
