data_PCOD8001380
_publ_section_title
;
Structure prediction by ZEFSAII (Michael W. Deem and Ramdas Pophale) SiO2 
 PCOD8001380
Probable space group: P -1
;
_chemical_formula_sum "Si O2"
_cell_formula_units_Z 16
_cell_length_a 13.865613
_cell_length_b 19.928862
_cell_length_c 11.748767
_cell_angle_alpha 29.794624
_cell_angle_beta 53.599510
_cell_angle_gamma 34.748402
_cell_volume 833.415137
_symmetry_space_group_name_H-M "P -1"
_symmetry_group_IT_number 2
_symmetry_cell_setting 'triclinic'
loop_
_space_group_symop_operation_xyz
x,y,z
-x,-y,-z
loop_
_atom_site_type_symbol
_atom_site_label
_atom_site_fract_x
_atom_site_fract_y
_atom_site_fract_z
Si Si1 0.511634 0.367079 0.556576
Si Si2 0.448608 0.371701 0.845678
Si Si3 0.086172 0.383087 0.798091
Si Si4 0.423737 0.929029 0.213051
Si Si5 0.110835 0.759774 0.168916
Si Si6 0.165902 0.017452 0.769637
Si Si7 0.069177 0.555324 0.787287
Si Si8 0.793617 0.547271 0.603763
O O1 0.551432 0.303681 0.753380
O O2 0.600179 0.435476 0.356654
O O3 0.605616 0.164614 0.719751
O O4 0.288136 0.563901 0.409382
O O5 0.266602 0.436492 0.872019
O O6 0.608971 0.161397 0.119263
O O7 0.085519 0.487582 0.747389
O O8 0.158727 0.389389 0.623189
O O9 0.878939 0.508954 0.724370
O O10 0.220977 0.141021 0.094666
O O11 0.567160 0.748917 0.474656
O O12 0.500000 0.000000 0.000000
O O13 0.123933 0.669420 0.172817
O O14 0.926950 0.878094 0.194696
O O15 0.109265 0.919257 0.907494
O O16 0.084360 0.193442 0.476225
O O17 0.000000 0.500000 0.000000
#
# Coordination Sequence:
#
# PCOD8001380 Si02
#       8
#     2   2   2   2   2   2   2   2
#     4   9  17  31  54  88 117 136 169 230 290 329
#     4  10  20  33  55  82 109 142 186 229 275 324
#     4  10  20  32  49  77 101 144 184 210 275 326
#     4   9  17  28  48  77 114 139 161 211 277 338
#     4   9  16  32  54  86 114 132 167 228 287 331
#     4  10  20  32  56  81 107 142 180 222 277 324
#     4  12  25  41  53  72 115 154 191 227 258 329
#     4   9  17  31  52  79 112 129 165 230 276 330
#
# _framework density 19.198115999999999
#
# number of rings (size 3 to 8) (size 9 to 14) (size 15 to 20)
#    0.000    2.250    2.500    1.500    3.500    2.500 
#    0.000    0.000    0.000    3.000    0.000    5.250 
#    0.000    0.000    0.000    0.000    0.000    0.000 
#
# Total GULP energy -198288.046938 kJ/mol
# GULP energy per Si atom -12393.002934 kJ/mol
# Density = 1.915442 g / cm^3
# Si number density = 19.198116 Si / 1000 Ang^3
#
#
#
# Elastic Constant Matrix: (Units=GPa)
#
#
# Indices 1 2 3 4 5 6 
#
# 1 120.3756 28.9930 46.0117 -13.8751 -7.8944 -12.2543
# 2 28.9930 31.7845 36.8031 -9.3196 -1.5648 -13.8877
# 3 46.0117 36.8031 120.4901 -21.2369 -8.7894 -11.5146
# 4 -13.8751 -9.3196 -21.2369 25.0919 1.2839 -4.4601
# 5 -7.8944 -1.5648 -8.7894 1.2839 29.7880 -9.9608
# 6 -12.2543 -13.8877 -11.5146 -4.4601 -9.9608 22.0407
#
#
#
# Elastic Compliance Matrix: (Units=1/GPa)
#
#
# Indices 1 2 3 4 5 6 
#
# 1 0.011254 -0.005612 -0.001236 0.003702 0.003661 0.004479
# 2 -0.005612 0.084349 -0.012117 0.027220 0.017257 0.057005
# 3 -0.001236 -0.012117 0.014179 0.007012 0.003635 0.002147
# 4 0.003702 0.027220 0.007012 0.064814 0.016163 0.043293
# 5 0.003661 0.017257 0.003635 0.016163 0.049323 0.040370
# 6 0.004479 0.057005 0.002147 0.043293 0.040370 0.111906
#
#
# Mechanical properties :
#
#
# Convention : Reuss Voigt Hill
#
# Bulk Modulus (GPa) = 13.91735 55.14063 34.52899
# Shear Modulus (GPa) = 12.57211 26.10694 19.33953
#
# Velocity S-wave (km/s) = 2.56180 3.69164 3.17735
# Velocity P-wave (km/s) = 4.00194 6.85239 5.61118
#
# Compressibility (1/GPa) = 0.07185275
#
# Stress axis : x y z
#
# Youngs Moduli (GPa) = 88.85590 11.85546 70.52793
#
# Poissons Ratio (x) = 0.06653 0.08717
# Poissons Ratio (y) = 0.49866 0.85458
# Poissons Ratio (z) = 0.10982 0.14365
#
# Static dielectric constant tensor:
#      x y z
#    x 3.930530 -0.167530 0.075950 
#    y -0.167530 3.070850 -0.556010 
#    z 0.075950 -0.556010 3.794760 
# 
# 
# High freq. dielectric constant tensor:
#      x y z
#    x 1.761220 -0.008860 -0.005800 
#    y -0.008860 1.678360 -0.047440 
#    z -0.005800 -0.047440 1.747560 
# 
# From -- ./inp_files/314465.got.cif
#   From: 2010.06.25/outbox.cif.g09.slc.cpg/sg2_158_cif.got.tgz:314465.got - 2010.06.27 13:26:56.
