data_PCOD8001785
_publ_section_title
;
Structure prediction by ZEFSAII (Michael W. Deem and Ramdas Pophale) SiO2 
 PCOD8001785
Probable space group: P -1
;
_chemical_formula_sum "Si O2"
_cell_formula_units_Z 14
_cell_length_a 11.507760
_cell_length_b 7.035529
_cell_length_c 24.782337
_cell_angle_alpha 131.442808
_cell_angle_beta 151.067864
_cell_angle_gamma 59.036228
_cell_volume 715.931076
_symmetry_space_group_name_H-M "P -1"
_symmetry_group_IT_number 2
_symmetry_cell_setting 'triclinic'
loop_
_space_group_symop_operation_xyz
x,y,z
-x,-y,-z
loop_
_atom_site_type_symbol
_atom_site_label
_atom_site_fract_x
_atom_site_fract_y
_atom_site_fract_z
Si Si1 0.866403 0.919718 0.149423
Si Si2 0.984787 0.475100 0.321397
Si Si3 0.674228 0.278426 0.681904
Si Si4 0.513817 0.189445 0.111655
Si Si5 0.599307 0.384015 0.299320
Si Si6 0.043198 0.747077 0.500588
Si Si7 0.609079 0.273798 0.530310
O O1 0.032948 0.713495 0.194986
O O2 0.047426 0.199185 0.275858
O O3 0.643281 0.939367 0.104409
O O4 0.753544 0.849477 0.030862
O O5 0.688373 0.440051 0.201639
O O6 0.099053 0.541562 0.439862
O O7 0.107073 0.692235 0.369033
O O8 0.620131 0.514758 0.740382
O O9 0.596219 0.316730 0.596582
O O10 0.525248 0.010150 0.594351
O O11 0.489444 0.223472 0.172098
O O12 0.801409 0.632583 0.414112
O O13 0.724750 0.197967 0.354492
O O14 0.000000 0.000000 0.500000
O O15 0.500000 0.500000 0.500000
#
# Coordination Sequence:
#
# PCOD8001785 Si02
#       7
#     2   2   2   2   2   2   2
#     4   9  18  37  59  81 107 149 193 224 272 324
#     4   9  17  34  58  80 106 145 187 227 264 327
#     4  11  23  32  57  89 112 149 179 228 287 329
#     4   8  18  37  61  76 109 151 190 230 265 328
#     4  10  21  35  55  84 114 142 184 227 283 329
#     4  10  20  34  56  81 115 145 179 227 282 333
#     4  11  20  34  53  82 121 143 177 226 281 337
#
# _framework density 19.554955
#
# number of rings (size 3 to 8) (size 9 to 14) (size 15 to 20)
#    0.857    1.429    1.429    1.714    2.000    1.714 
#    0.000    0.714    6.286    0.857    0.000    0.000 
#    0.000    0.000    0.000    0.000    0.000    0.000 
#
# Total GULP energy -173435.517072 kJ/mol
# GULP energy per Si atom -12388.251219 kJ/mol
# Density = 1.951045 g / cm^3
# Si number density = 19.554955 Si / 1000 Ang^3
#
#
#
# Elastic Constant Matrix: (Units=GPa)
#
#
# Indices 1 2 3 4 5 6 
#
# 1 88.9871 33.1136 39.7062 -6.3500 -16.8799 -10.9980
# 2 33.1136 80.2538 45.9070 -25.8677 -9.1037 1.8210
# 3 39.7062 45.9070 103.2517 -17.4214 -30.3436 -15.6697
# 4 -6.3500 -25.8677 -17.4214 23.4415 -2.6378 4.2224
# 5 -16.8799 -9.1037 -30.3436 -2.6378 34.2479 4.3237
# 6 -10.9980 1.8210 -15.6697 4.2224 4.3237 29.7114
#
#
#
# Elastic Compliance Matrix: (Units=1/GPa)
#
#
# Indices 1 2 3 4 5 6 
#
# 1 0.015542 -0.006676 -0.002340 -0.005549 0.002713 0.005322
# 2 -0.006676 0.028047 -0.006706 0.026469 0.001744 -0.011742
# 3 -0.002340 -0.006706 0.020159 0.007328 0.014604 0.007010
# 4 -0.005549 0.026469 0.007328 0.080438 0.018753 -0.013972
# 5 0.002713 0.001744 0.014604 0.018753 0.045470 -0.000682
# 6 0.005322 -0.011742 0.007010 -0.013972 -0.000682 0.042129
#
#
# Mechanical properties :
#
#
# Convention : Reuss Voigt Hill
#
# Bulk Modulus (GPa) = 30.95578 56.66070 43.80824
# Shear Modulus (GPa) = 18.24839 27.73122 22.98980
#
# Velocity S-wave (km/s) = 3.05812 3.76987 3.43250
# Velocity P-wave (km/s) = 5.32297 6.92729 6.17743
#
# Compressibility (1/GPa) = 0.03230414
#
# Stress axis : x y z
#
# Youngs Moduli (GPa) = 64.34007 35.65431 49.60648
#
# Poissons Ratio (x) = 0.23803 0.11607
# Poissons Ratio (y) = 0.42954 0.33266
# Poissons Ratio (z) = 0.15054 0.23910
#
# Static dielectric constant tensor:
#      x y z
#    x 3.756790 -0.026910 -0.028340 
#    y -0.026910 3.224970 0.047400 
#    z -0.028340 0.047400 3.490220 
# 
# 
# High freq. dielectric constant tensor:
#      x y z
#    x 1.762160 -0.010820 -0.009270 
#    y -0.010820 1.726650 -0.004450 
#    z -0.009270 -0.004450 1.749940 
# 
# From -- ./inp_files/609242.got.cif
#   From: 2010.06.25/outbox.cif.g09.slc.cpg/sg2_305_cif.got.tgz:609242.got - 2010.06.27 13:26:56.
