data_PCOD8001036
_publ_section_title
;
Structure prediction by ZEFSAII (Michael W. Deem and Ramdas Pophale) SiO2 
 PCOD8001036
Probable space group: P -1
;
_chemical_formula_sum "Si O2"
_cell_formula_units_Z 14
_cell_length_a 11.539314
_cell_length_b 20.499306
_cell_length_c 18.153284
_cell_angle_alpha 160.389326
_cell_angle_beta 153.204451
_cell_angle_gamma 36.990451
_cell_volume 624.046871
_symmetry_space_group_name_H-M "P -1"
_symmetry_group_IT_number 2
_symmetry_cell_setting 'triclinic'
loop_
_space_group_symop_operation_xyz
x,y,z
-x,-y,-z
loop_
_atom_site_type_symbol
_atom_site_label
_atom_site_fract_x
_atom_site_fract_y
_atom_site_fract_z
Si Si1 0.981874 0.968027 0.636576
Si Si2 0.532306 0.779869 0.277075
Si Si3 0.986703 0.437896 0.316584
Si Si4 0.367903 0.350145 0.329056
Si Si5 0.682886 0.285697 0.760604
Si Si6 0.146149 0.230432 0.321206
Si Si7 0.094573 0.605127 0.243805
O O1 0.834367 0.813687 0.454497
O O2 0.050278 0.828880 0.462727
O O3 0.780708 0.084664 0.611808
O O4 0.246691 0.124015 0.986932
O O5 0.459374 0.663455 0.190505
O O6 0.500000 0.000000 0.500000
O O7 0.330509 0.664480 0.976980
O O8 0.014094 0.662830 0.599821
O O9 0.125568 0.430793 0.309093
O O10 0.124235 0.311993 0.314366
O O11 0.500000 0.500000 0.500000
O O12 0.588562 0.359310 0.527092
O O13 0.459167 0.259082 0.542891
O O14 0.936796 0.466015 0.072578
O O15 0.000000 0.000000 0.000000
O O16 0.000000 0.500000 0.000000
#
# Coordination Sequence:
#
# PCOD8001036 Si02
#       7
#     2   2   2   2   2   2   2
#     4  11  24  45  74  98 135 175 231 286 333 394
#     4  10  19  40  73  97 128 163 219 281 339 383
#     4  11  23  45  66  99 140 169 216 283 332 399
#     4  12  24  48  70  98 136 183 232 276 328 400
#     4  11  23  45  69 103 131 171 226 275 338 398
#     4  11  25  41  67 104 136 171 214 272 351 403
#     4  12  27  46  68  98 140 187 227 269 334 406
#
# _framework density 22.434211999999999
#
# number of rings (size 3 to 8) (size 9 to 14) (size 15 to 20)
#    0.000    0.857    4.286    3.857    0.000    7.429 
#    5.143    0.000    0.000    0.000    0.000    0.000 
#    0.000    0.000    0.000    0.000    0.000    0.000 
#
# Total GULP energy -173572.930827 kJ/mol
# GULP energy per Si atom -12398.066488 kJ/mol
# Density = 2.238315 g / cm^3
# Si number density = 22.434212 Si / 1000 Ang^3
#
#
#
# Elastic Constant Matrix: (Units=GPa)
#
#
# Indices 1 2 3 4 5 6 
#
# 1 106.6077 22.1850 69.5706 13.5516 -1.2524 1.0946
# 2 22.1850 95.1031 52.4941 -9.0984 0.9346 6.1747
# 3 69.5706 52.4941 161.3826 -8.7364 -3.4737 -2.9106
# 4 13.5516 -9.0984 -8.7364 43.3982 -7.6588 -9.0824
# 5 -1.2524 0.9346 -3.4737 -7.6588 40.9364 -2.5206
# 6 1.0946 6.1747 -2.9106 -9.0824 -2.5206 26.4859
#
#
#
# Elastic Compliance Matrix: (Units=1/GPa)
#
#
# Indices 1 2 3 4 5 6 
#
# 1 0.014793 -0.000082 -0.006845 -0.007144 -0.001707 -0.003957
# 2 -0.000082 0.013218 -0.004274 0.001149 -0.000650 -0.003216
# 3 -0.006845 -0.004274 0.010910 0.004675 0.001951 0.004267
# 4 -0.007144 0.001149 0.004675 0.029991 0.006467 0.011441
# 5 -0.001707 -0.000650 0.001951 0.006467 0.026083 0.005137
# 6 -0.003957 -0.003216 0.004267 0.011441 0.005137 0.043550
#
#
# Mechanical properties :
#
#
# Convention : Reuss Voigt Hill
#
# Bulk Modulus (GPa) = 60.53961 72.39922 66.46942
# Shear Modulus (GPa) = 30.03841 36.75366 33.39603
#
# Velocity S-wave (km/s) = 3.66314 4.05197 3.86245
# Velocity P-wave (km/s) = 6.70339 7.36431 7.04161
#
# Compressibility (1/GPa) = 0.01651811
#
# Stress axis : x y z
#
# Youngs Moduli (GPa) = 67.59927 75.65293 91.66215
#
# Poissons Ratio (x) = 0.00622 0.62745
# Poissons Ratio (y) = 0.00556 0.39176
# Poissons Ratio (z) = 0.46273 0.32334
#
# Static dielectric constant tensor:
#      x y z
#    x 4.383200 -0.110680 0.127410 
#    y -0.110680 4.148460 -0.129070 
#    z 0.127410 -0.129070 4.159190 
# 
# 
# High freq. dielectric constant tensor:
#      x y z
#    x 1.879160 -0.006310 0.001780 
#    y -0.006310 1.886580 -0.001630 
#    z 0.001780 -0.001630 1.897820 
# 
# From -- ./inp_files/570826.got.cif
#   From: 2010.06.25/outbox.cif.g09.slc.cpg/sg2_286_cif.got.tgz:570826.got - 2010.06.27 13:26:56.
