data_PCOD8001219
_publ_section_title
;
Structure prediction by ZEFSAII (Michael W. Deem and Ramdas Pophale) SiO2 
 PCOD8001219
Probable space group: P -1
;
_chemical_formula_sum "Si O2"
_cell_formula_units_Z 14
_cell_length_a 12.208035
_cell_length_b 8.347338
_cell_length_c 12.703848
_cell_angle_alpha 118.822872
_cell_angle_beta 134.009190
_cell_angle_gamma 37.783462
_cell_volume 563.832532
_symmetry_space_group_name_H-M "P -1"
_symmetry_group_IT_number 2
_symmetry_cell_setting 'triclinic'
loop_
_space_group_symop_operation_xyz
x,y,z
-x,-y,-z
loop_
_atom_site_type_symbol
_atom_site_label
_atom_site_fract_x
_atom_site_fract_y
_atom_site_fract_z
Si Si1 0.391416 0.805283 0.856496
Si Si2 0.276193 0.722886 0.360171
Si Si3 0.121574 0.325756 0.715713
Si Si4 0.257281 0.757639 0.120225
Si Si5 0.053178 0.822535 0.574667
Si Si6 0.872660 0.554073 0.828467
Si Si7 0.537188 0.122307 0.849148
O O1 0.652482 0.529553 0.929228
O O2 0.276256 0.704290 0.739328
O O3 0.307467 0.016322 0.778003
O O4 0.347855 0.942483 0.981458
O O5 0.500000 0.500000 0.500000
O O6 0.312056 0.759718 0.277621
O O7 0.137146 0.656077 0.251813
O O8 0.140652 0.000983 0.413111
O O9 0.942873 0.387156 0.536580
O O10 0.269846 0.344576 0.756288
O O11 0.993103 0.521797 0.792031
O O12 0.401750 0.761344 0.145023
O O13 0.000000 0.000000 0.000000
O O14 0.000000 0.000000 0.500000
O O15 0.632523 0.856171 0.773353
O O16 0.000000 0.500000 0.000000
#
# Coordination Sequence:
#
# PCOD8001219 Si02
#       7
#     2   2   2   2   2   2   2
#     4  11  22  45  73  99 141 194 249 289 351 438
#     4  12  24  45  79 103 140 194 255 294 344 444
#     4  11  24  43  75 108 146 188 242 305 359 429
#     4  12  28  45  71 109 150 192 239 305 371 434
#     4  10  19  42  68 103 134 182 242 296 345 417
#     4  12  23  43  71 108 148 185 245 302 361 425
#     4  12  26  43  66 108 147 188 233 303 373 429
#
# _framework density 24.830065999999999
#
# number of rings (size 3 to 8) (size 9 to 14) (size 15 to 20)
#    0.000    0.571    4.286    6.000    4.000    0.000 
#    0.000    3.571    0.000    0.000    0.000    0.000 
#    0.000    0.000    0.000    0.000    0.000    0.000 
#
# Total GULP energy -173559.366005 kJ/mol
# GULP energy per Si atom -12397.097572 kJ/mol
# Density = 2.477355 g / cm^3
# Si number density = 24.830066 Si / 1000 Ang^3
#
#
#
# Elastic Constant Matrix: (Units=GPa)
#
#
# Indices 1 2 3 4 5 6 
#
# 1 115.8626 -0.1004 32.5766 11.7560 -2.4875 -29.8256
# 2 -0.1004 92.6368 18.5041 7.2869 -15.5554 -33.1830
# 3 32.5766 18.5041 133.2466 11.8739 6.4412 -18.8115
# 4 11.7560 7.2869 11.8739 38.6387 -10.4495 -8.5242
# 5 -2.4875 -15.5554 6.4412 -10.4495 42.4584 4.7674
# 6 -29.8256 -33.1830 -18.8115 -8.5242 4.7674 38.5277
#
#
#
# Elastic Compliance Matrix: (Units=1/GPa)
#
#
# Indices 1 2 3 4 5 6 
#
# 1 0.012709 0.005419 -0.001974 -0.001029 0.001299 0.013153
# 2 0.005419 0.018845 -0.001593 0.001024 0.005561 0.019186
# 3 -0.001974 -0.001593 0.008707 -0.002244 -0.002706 0.001190
# 4 -0.001029 0.001024 -0.002244 0.029730 0.007451 0.004645
# 5 0.001299 0.005561 -0.002706 0.007451 0.027606 0.002706
# 6 0.013153 0.019186 0.001190 0.004645 0.002706 0.053936
#
#
# Mechanical properties :
#
#
# Convention : Reuss Voigt Hill
#
# Bulk Modulus (GPa) = 22.74573 49.30073 36.02323
# Shear Modulus (GPa) = 30.77221 43.30933 37.04077
#
# Velocity S-wave (km/s) = 3.52421 4.18093 3.86654
# Velocity P-wave (km/s) = 5.07351 6.57307 5.87136
#
# Compressibility (1/GPa) = 0.04396430
#
# Stress axis : x y z
#
# Youngs Moduli (GPa) = 78.68589 53.06544 114.84427
#
# Poissons Ratio (x) = -0.28754 0.22667
# Poissons Ratio (y) = -0.42637 0.18297
# Poissons Ratio (z) = 0.15531 0.08454
#
# Static dielectric constant tensor:
#      x y z
#    x 4.133590 -0.420070 -0.092860 
#    y -0.420070 4.599120 0.406150 
#    z -0.092860 0.406150 5.260110 
# 
# 
# High freq. dielectric constant tensor:
#      x y z
#    x 1.988460 -0.022250 -0.004340 
#    y -0.022250 1.979240 0.009630 
#    z -0.004340 0.009630 1.994070 
# 
# From -- ./inp_files/402897.got.cif
#   From: 2010.06.25/outbox.cif.g09.slc.cpg/sg2_202_cif.got.tgz:402897.got - 2010.06.27 13:26:56.
