data_PCOD8001738
_publ_section_title
;
Structure prediction by ZEFSAII (Michael W. Deem and Ramdas Pophale) SiO2 
 PCOD8001738
Probable space group: P -1
;
_chemical_formula_sum "Si O2"
_cell_formula_units_Z 16
_cell_length_a 14.335785
_cell_length_b 12.163953
_cell_length_c 21.726475
_cell_angle_alpha 24.840180
_cell_angle_beta 30.257705
_cell_angle_gamma 30.670389
_cell_volume 748.123282
_symmetry_space_group_name_H-M "P -1"
_symmetry_group_IT_number 2
_symmetry_cell_setting 'triclinic'
loop_
_space_group_symop_operation_xyz
x,y,z
-x,-y,-z
loop_
_atom_site_type_symbol
_atom_site_label
_atom_site_fract_x
_atom_site_fract_y
_atom_site_fract_z
Si Si1 0.727566 0.173708 0.981281
Si Si2 0.405389 0.154900 0.877767
Si Si3 0.557567 0.296353 0.428792
Si Si4 0.861587 0.130849 0.137280
Si Si5 0.119720 0.107894 0.623701
Si Si6 0.298416 0.517626 0.354655
Si Si7 0.679383 0.670172 0.032704
Si Si8 0.504552 0.192048 0.222500
O O1 0.674307 0.506009 0.831537
O O2 0.608349 0.122485 0.132649
O O3 0.962634 0.008582 0.941356
O O4 0.683534 0.023819 0.022662
O O5 0.434700 0.415991 0.692092
O O6 0.265077 0.270846 0.959336
O O7 0.623318 0.955583 0.879653
O O8 0.361061 0.368791 0.461451
O O9 0.750459 0.188040 0.329353
O O10 0.572406 0.062741 0.590421
O O11 0.856348 0.424550 0.022121
O O12 0.655655 0.201480 0.184021
O O13 0.899244 0.909328 0.283318
O O14 0.245743 0.314036 0.438872
O O15 0.906234 0.215101 0.657689
O O16 0.478366 0.595148 0.186219
#
# Coordination Sequence:
#
# PCOD8001738 Si02
#       8
#     2   2   2   2   2   2   2   2
#     4  11  26  43  64  90 119 165 216 251 291 364
#     4  10  21  40  60  92 124 164 197 246 313 363
#     4  11  22  40  60  89 129 158 199 250 312 363
#     4  12  21  39  67  92 124 157 205 257 306 362
#     4  11  21  31  60  98 122 157 195 251 316 365
#     4  10  20  34  54  90 131 158 194 239 308 371
#     4  10  20  38  61  91 128 161 192 249 315 368
#     4  11  25  44  65  87 121 166 211 256 296 350
#
# _framework density 21.386848000000001
#
# number of rings (size 3 to 8) (size 9 to 14) (size 15 to 20)
#    0.000    1.250    5.000    2.250    3.500    1.000 
#    6.750    0.000    0.000    0.750    0.000    0.000 
#    0.000    0.000    0.000    0.000    0.000    0.000 
#
# Total GULP energy -198305.223659 kJ/mol
# GULP energy per Si atom -12394.076479 kJ/mol
# Density = 2.133817 g / cm^3
# Si number density = 21.386848 Si / 1000 Ang^3
#
#
#
# Elastic Constant Matrix: (Units=GPa)
#
#
# Indices 1 2 3 4 5 6 
#
# 1 39.6532 17.5457 2.4331 0.8038 8.7138 -1.9076
# 2 17.5457 136.3907 32.6926 -4.4540 5.7373 -3.4670
# 3 2.4331 32.6926 79.7067 -20.3607 9.3769 6.5107
# 4 0.8038 -4.4540 -20.3607 32.6974 -4.4483 -1.8031
# 5 8.7138 5.7373 9.3769 -4.4483 20.8119 -4.5203
# 6 -1.9076 -3.4670 6.5107 -1.8031 -4.5203 31.0724
#
#
#
# Elastic Compliance Matrix: (Units=1/GPa)
#
#
# Indices 1 2 3 4 5 6 
#
# 1 0.029575 -0.003768 0.001718 -0.001955 -0.012738 -0.000931
# 2 -0.003768 0.008735 -0.003981 -0.000950 0.001126 0.001686
# 3 0.001718 -0.003981 0.017624 0.009254 -0.006551 -0.004447
# 4 -0.001955 -0.000950 0.009254 0.036979 0.004968 0.000704
# 5 -0.012738 0.001126 -0.006551 0.004968 0.059173 0.009613
# 6 -0.000931 0.001686 -0.004447 0.000704 0.009613 0.034685
#
#
# Mechanical properties :
#
#
# Convention : Reuss Voigt Hill
#
# Bulk Modulus (GPa) = 22.79349 40.12148 31.45749
# Shear Modulus (GPa) = 23.42393 30.45495 26.93944
#
# Velocity S-wave (km/s) = 3.31305 3.77769 3.55297
# Velocity P-wave (km/s) = 5.03149 6.15049 5.61892
#
# Compressibility (1/GPa) = 0.04387217
#
# Stress axis : x y z
#
# Youngs Moduli (GPa) = 33.81287 114.47873 56.74081
#
# Poissons Ratio (x) = 0.43136 -0.09748
# Poissons Ratio (y) = 0.12741 0.22587
# Poissons Ratio (z) = -0.05809 0.45571
#
# Static dielectric constant tensor:
#      x y z
#    x 3.644970 -0.131080 0.084020 
#    y -0.131080 4.173260 -0.316140 
#    z 0.084020 -0.316140 3.743250 
# 
# 
# High freq. dielectric constant tensor:
#      x y z
#    x 1.815910 -0.011570 0.001110 
#    y -0.011570 1.851110 -0.028280 
#    z 0.001110 -0.028280 1.820590 
# 
# From -- ./inp_files/597940.got.cif
#   From: 2010.06.25/outbox.cif.g09.slc.cpg/sg2_299_cif.got.tgz:597940.got - 2010.06.27 13:26:56.
