data_PCOD8001918
_publ_section_title
;
Structure prediction by ZEFSAII (Michael W. Deem and Ramdas Pophale) SiO2 
 PCOD8001918
Probable space group: P -1
;
_chemical_formula_sum "Si O2"
_cell_formula_units_Z 16
_cell_length_a 11.666853
_cell_length_b 16.012606
_cell_length_c 9.124557
_cell_angle_alpha 34.438683
_cell_angle_beta 60.250502
_cell_angle_gamma 73.210472
_cell_volume 811.404268
_symmetry_space_group_name_H-M "P -1"
_symmetry_group_IT_number 2
_symmetry_cell_setting 'triclinic'
loop_
_space_group_symop_operation_xyz
x,y,z
-x,-y,-z
loop_
_atom_site_type_symbol
_atom_site_label
_atom_site_fract_x
_atom_site_fract_y
_atom_site_fract_z
Si Si1 0.698896 0.721157 0.388528
Si Si2 0.794166 0.339682 0.319151
Si Si3 0.271572 0.243635 0.333262
Si Si4 0.452615 0.515474 0.673561
Si Si5 0.019473 0.332485 0.716859
Si Si6 0.888140 0.015925 0.357901
Si Si7 0.038906 0.382996 0.311001
Si Si8 0.179060 0.988413 0.265657
O O1 0.694754 0.737272 0.543671
O O2 0.571561 0.596403 0.590498
O O3 0.829397 0.666072 0.328180
O O4 0.706072 0.884888 0.073697
O O5 0.657312 0.383354 0.393317
O O6 0.766090 0.163146 0.553663
O O7 0.897587 0.380393 0.329340
O O8 0.870630 0.440561 0.986679
O O9 0.139951 0.301268 0.278858
O O10 0.228751 0.067094 0.563808
O O11 0.398764 0.343968 0.017505
O O12 0.500000 0.500000 0.500000
O O13 0.004619 0.291641 0.614973
O O14 0.000000 0.500000 0.500000
O O15 0.910501 0.199221 0.062847
O O16 0.832766 0.961792 0.631780
O O17 0.032703 0.971258 0.303340
#
# Coordination Sequence:
#
# PCOD8001918 Si02
#       8
#     2   2   2   2   2   2   2   2
#     4  10  23  38  58  86 115 158 193 234 294 346
#     4  10  20  35  59  83 118 153 192 240 280 347
#     4  10  20  39  61  82 118 148 197 240 288 347
#     4  11  24  40  60  83 116 161 197 234 284 348
#     4  10  21  34  58  85 121 147 189 246 292 345
#     4  10  20  34  59  92 118 150 187 245 299 333
#     4   9  19  33  56  89 109 150 191 237 296 328
#     4  10  20  35  59  87 122 147 193 239 291 345
#
# _framework density 19.718897999999999
#
# number of rings (size 3 to 8) (size 9 to 14) (size 15 to 20)
#    0.000    2.000    1.250    1.875    3.500    2.000 
#    0.000    0.000    0.000    2.250    0.000    0.000 
#    0.000    0.000    0.000    0.000    0.000    0.000 
#
# Total GULP energy -198289.984131 kJ/mol
# GULP energy per Si atom -12393.124008 kJ/mol
# Density = 1.967402 g / cm^3
# Si number density = 19.718898 Si / 1000 Ang^3
#
#
#
# Elastic Constant Matrix: (Units=GPa)
#
#
# Indices 1 2 3 4 5 6 
#
# 1 88.1756 37.2441 43.7412 -6.5673 -11.3449 13.1810
# 2 37.2441 76.9535 43.2102 -7.4854 -10.6240 11.9833
# 3 43.7412 43.2102 138.7545 -3.3460 -3.5028 12.2719
# 4 -6.5673 -7.4854 -3.3460 35.2365 4.4234 3.8572
# 5 -11.3449 -10.6240 -3.5028 4.4234 30.7982 -7.2745
# 6 13.1810 11.9833 12.2719 3.8572 -7.2745 31.9602
#
#
#
# Elastic Compliance Matrix: (Units=1/GPa)
#
#
# Indices 1 2 3 4 5 6 
#
# 1 0.015904 -0.004932 -0.003096 0.001600 0.002851 -0.003065
# 2 -0.004932 0.018716 -0.003856 0.002645 0.003084 -0.003120
# 3 -0.003096 -0.003856 0.009450 -0.000150 -0.001674 -0.001269
# 4 0.001600 0.002645 -0.000150 0.030460 -0.004370 -0.006265
# 5 0.002851 0.003084 -0.001674 -0.004370 0.036721 0.007196
# 6 -0.003065 -0.003120 -0.001269 -0.006265 0.007196 0.036604
#
#
# Mechanical properties :
#
#
# Convention : Reuss Voigt Hill
#
# Bulk Modulus (GPa) = 49.25673 61.36384 55.31029
# Shear Modulus (GPa) = 28.02824 31.57817 29.80321
#
# Velocity S-wave (km/s) = 3.77422 4.00611 3.89189
# Velocity P-wave (km/s) = 6.63526 7.25158 6.95026
#
# Compressibility (1/GPa) = 0.02030180
#
# Stress axis : x y z
#
# Youngs Moduli (GPa) = 62.87544 53.42983 105.81842
#
# Poissons Ratio (x) = 0.26354 0.32762
# Poissons Ratio (y) = 0.31013 0.40804
# Poissons Ratio (z) = 0.19467 0.20603
#
# Static dielectric constant tensor:
#      x y z
#    x 3.459060 0.005680 0.107820 
#    y 0.005680 3.461070 0.082810 
#    z 0.107820 0.082810 3.984450 
# 
# 
# High freq. dielectric constant tensor:
#      x y z
#    x 1.749430 0.009080 0.008360 
#    y 0.009080 1.754530 -0.003450 
#    z 0.008360 -0.003450 1.785980 
# 
# From -- ./inp_files/201983.got.cif
#   From: 2010.06.25/outbox.cif.g09.slc.cpg/sg2_101_cif.got.tgz:201983.got - 2010.06.27 13:26:56.
