data_PCOD8001843
_publ_section_title
;
Structure prediction by ZEFSAII (Michael W. Deem and Ramdas Pophale) SiO2 
 PCOD8001843
Probable space group: P -1
;
_chemical_formula_sum "Si O2"
_cell_formula_units_Z 14
_cell_length_a 22.173618
_cell_length_b 9.436074
_cell_length_c 8.321675
_cell_angle_alpha 148.288735
_cell_angle_beta 57.347106
_cell_angle_gamma 133.801355
_cell_volume 654.959335
_symmetry_space_group_name_H-M "P -1"
_symmetry_group_IT_number 2
_symmetry_cell_setting 'triclinic'
loop_
_space_group_symop_operation_xyz
x,y,z
-x,-y,-z
loop_
_atom_site_type_symbol
_atom_site_label
_atom_site_fract_x
_atom_site_fract_y
_atom_site_fract_z
Si Si1 0.708823 0.826530 0.685392
Si Si2 0.791719 0.483642 0.076296
Si Si3 0.939757 0.630105 0.223850
Si Si4 0.794841 0.198869 0.239744
Si Si5 0.570142 0.382320 0.944274
Si Si6 0.756589 0.610162 0.910226
Si Si7 0.463863 0.673431 0.429837
O O1 0.763799 0.673831 0.414899
O O2 0.610467 0.553055 0.559311
O O3 0.724005 0.103884 0.807875
O O4 0.734373 0.985103 0.976943
O O5 0.879380 0.536034 0.065419
O O6 0.805961 0.609959 0.996698
O O7 0.884385 0.485387 0.324995
O O8 0.000000 0.000000 0.500000
O O9 0.000000 0.500000 0.000000
O O10 0.749286 0.353808 0.545797
O O11 0.808059 0.967840 0.113240
O O12 0.663086 0.514334 0.006557
O O13 0.575704 0.381501 0.743130
O O14 0.503254 0.035508 0.775361
O O15 0.539934 0.612519 0.269234
#
# Coordination Sequence:
#
# PCOD8001843 Si02
#       7
#     2   2   2   2   2   2   2
#     4  11  21  41  62  91 120 170 220 249 290 372
#     4  11  25  41  65  91 129 162 196 257 317 361
#     4  11  23  44  68  94 121 155 202 248 301 373
#     4  11  23  39  69  91 120 165 210 244 297 376
#     4  10  21  33  56  88 123 159 203 269 299 336
#     4  12  23  42  60  96 128 162 205 253 311 364
#     4  10  20  34  57  88 117 162 218 257 293 340
#
# _framework density 21.375374000000001
#
# number of rings (size 3 to 8) (size 9 to 14) (size 15 to 20)
#    0.000    1.143    1.429    6.857    4.000    0.000 
#    0.000    8.571    0.000    0.000    0.000    0.000 
#    0.000    0.000    0.000    0.000    0.000    0.000 
#
# Total GULP energy -173660.671665 kJ/mol
# GULP energy per Si atom -12404.333690 kJ/mol
# Density = 2.132672 g / cm^3
# Si number density = 21.375374 Si / 1000 Ang^3
#
#
#
# Elastic Constant Matrix: (Units=GPa)
#
#
# Indices 1 2 3 4 5 6 
#
# 1 105.2368 49.2907 28.7300 0.3029 -18.7070 -2.3882
# 2 49.2907 122.3189 34.6162 34.3496 -1.2257 -1.5581
# 3 28.7300 34.6162 100.3936 16.5199 -24.9389 4.7593
# 4 0.3029 34.3496 16.5199 47.2238 1.1020 -8.4941
# 5 -18.7070 -1.2257 -24.9389 1.1020 29.9196 5.3922
# 6 -2.3882 -1.5581 4.7593 -8.4941 5.3922 30.3841
#
#
#
# Elastic Compliance Matrix: (Units=1/GPa)
#
#
# Indices 1 2 3 4 5 6 
#
# 1 0.014325 -0.006948 -0.000680 0.005191 0.007743 0.000953
# 2 -0.006948 0.014340 -0.002697 -0.009509 -0.005460 -0.001078
# 3 -0.000680 -0.002697 0.015666 -0.005009 0.013880 -0.006509
# 4 0.005191 -0.009509 -0.005009 0.031777 -0.004357 0.010362
# 5 0.007743 -0.005460 0.013880 -0.004357 0.051985 -0.012289
# 6 0.000953 -0.001078 -0.006509 0.010362 -0.012289 0.039029
#
#
# Mechanical properties :
#
#
# Convention : Reuss Voigt Hill
#
# Bulk Modulus (GPa) = 42.22539 61.46925 51.84732
# Shear Modulus (GPa) = 25.55368 35.85967 30.70668
#
# Velocity S-wave (km/s) = 3.46131 4.10031 3.79429
# Velocity P-wave (km/s) = 5.98092 7.15795 6.59574
#
# Compressibility (1/GPa) = 0.02368243
#
# Stress axis : x y z
#
# Youngs Moduli (GPa) = 69.80609 69.73272 63.83259
#
# Poissons Ratio (x) = 0.48452 0.04339
# Poissons Ratio (y) = 0.48503 0.17214
# Poissons Ratio (z) = 0.04745 0.18805
#
# Static dielectric constant tensor:
#      x y z
#    x 3.671600 -0.038470 -0.251040 
#    y -0.038470 4.086240 0.302120 
#    z -0.251040 0.302120 3.939550 
# 
# 
# High freq. dielectric constant tensor:
#      x y z
#    x 1.823150 -0.001140 -0.023150 
#    y -0.001140 1.839700 0.018650 
#    z -0.023150 0.018650 1.849330 
# 
# From -- ./inp_files/212589.got.cif
#   From: 2010.06.25/outbox.cif.g09.slc.cpg/sg2_107_cif.got.tgz:212589.got - 2010.06.27 13:26:56.
