data_PCOD8001195
_publ_section_title
;
Structure prediction by ZEFSAII (Michael W. Deem and Ramdas Pophale) SiO2 
 PCOD8001195
Probable space group: P -1
;
_chemical_formula_sum "Si O2"
_cell_formula_units_Z 16
_cell_length_a 8.963931
_cell_length_b 15.688776
_cell_length_c 11.710539
_cell_angle_alpha 118.265937
_cell_angle_beta 141.466426
_cell_angle_gamma 45.419016
_cell_volume 720.097373
_symmetry_space_group_name_H-M "P -1"
_symmetry_group_IT_number 2
_symmetry_cell_setting 'triclinic'
loop_
_space_group_symop_operation_xyz
x,y,z
-x,-y,-z
loop_
_atom_site_type_symbol
_atom_site_label
_atom_site_fract_x
_atom_site_fract_y
_atom_site_fract_z
Si Si1 0.850896 0.670353 0.697121
Si Si2 0.618495 0.143832 0.646693
Si Si3 0.930748 0.253150 0.935718
Si Si4 0.225656 0.531686 0.428415
Si Si5 0.713502 0.498983 0.310076
Si Si6 0.734662 0.803354 0.300563
Si Si7 0.441238 0.123011 0.002272
Si Si8 0.012046 0.934073 0.580809
O O1 0.597090 0.742702 0.494481
O O2 0.809480 0.575908 0.672686
O O3 0.181724 0.597180 0.789829
O O4 0.846495 0.759352 0.841050
O O5 0.890424 0.146980 0.853856
O O6 0.448170 0.148096 0.659659
O O7 0.756716 0.024279 0.577949
O O8 0.601849 0.377307 0.832252
O O9 0.097883 0.234730 0.904003
O O10 0.500000 0.500000 0.500000
O O11 0.322093 0.546341 0.620582
O O12 0.907469 0.660081 0.291353
O O13 0.000000 0.500000 0.500000
O O14 0.515376 0.873157 0.105039
O O15 0.973309 0.832092 0.460042
O O16 0.665600 0.138199 0.213101
O O17 0.500000 0.000000 0.000000
O O18 0.000000 0.000000 0.500000
#
# Coordination Sequence:
#
# PCOD8001195 Si02
#       8
#     2   2   2   2   2   2   2   2
#     4  11  24  43  73 104 138 186 225 276 363 410
#     4  12  24  46  73 106 141 182 232 294 344 413
#     4  12  23  42  75  99 139 184 230 281 346 419
#     4  11  23  42  68 101 143 181 229 286 339 416
#     4  10  19  42  65  96 137 176 221 275 344 409
#     4  12  27  46  70 103 142 181 237 294 344 409
#     4  12  26  47  68 101 135 185 237 285 344 413
#     4  12  26  47  76  98 140 189 237 284 353 416
#
# _framework density 22.219215999999999
#
# number of rings (size 3 to 8) (size 9 to 14) (size 15 to 20)
#    0.000    0.500    6.250    3.000    3.500    1.500 
#    2.250    1.250    0.000    0.000    0.000    0.000 
#    0.000    0.000    0.000    0.000    0.000    0.000 
#
# Total GULP energy -198307.604301 kJ/mol
# GULP energy per Si atom -12394.225269 kJ/mol
# Density = 2.216864 g / cm^3
# Si number density = 22.219216 Si / 1000 Ang^3
#
#
#
# Elastic Constant Matrix: (Units=GPa)
#
#
# Indices 1 2 3 4 5 6 
#
# 1 149.2745 24.6451 42.4520 -2.1035 -8.7415 -7.1767
# 2 24.6451 65.8889 28.6703 5.6728 -3.0248 1.5525
# 3 42.4520 28.6703 118.1739 13.1925 -6.7545 14.3359
# 4 -2.1035 5.6728 13.1925 34.9779 -3.1145 6.0361
# 5 -8.7415 -3.0248 -6.7545 -3.1145 36.1928 -5.4823
# 6 -7.1767 1.5525 14.3359 6.0361 -5.4823 43.8073
#
#
#
# Elastic Compliance Matrix: (Units=1/GPa)
#
#
# Indices 1 2 3 4 5 6 
#
# 1 0.008041 -0.001908 -0.002783 0.001603 0.001749 0.002294
# 2 -0.001908 0.017527 -0.003413 -0.001723 0.000288 0.000457
# 3 -0.002783 -0.003413 0.011084 -0.003165 0.000311 -0.003487
# 4 0.001603 -0.001723 -0.003165 0.030785 0.001901 -0.002645
# 5 0.001749 0.000288 0.000311 0.001901 0.028831 0.003521
# 6 0.002294 0.000457 -0.003487 -0.002645 0.003521 0.025133
#
#
# Mechanical properties :
#
#
# Convention : Reuss Voigt Hill
#
# Bulk Modulus (GPa) = 48.91687 58.31912 53.61800
# Shear Modulus (GPa) = 34.62049 38.83361 36.72705
#
# Velocity S-wave (km/s) = 3.95160 4.18514 4.07005
# Velocity P-wave (km/s) = 6.54855 7.04685 6.80226
#
# Compressibility (1/GPa) = 0.02044285
#
# Stress axis : x y z
#
# Youngs Moduli (GPa) = 124.36635 57.05511 90.22080
#
# Poissons Ratio (x) = 0.10889 0.25106
# Poissons Ratio (y) = 0.23735 0.30794
# Poissons Ratio (z) = 0.34607 0.19474
#
# Static dielectric constant tensor:
#      x y z
#    x 4.368720 -0.382670 -0.126170 
#    y -0.382670 4.072790 0.136570 
#    z -0.126170 0.136570 3.985020 
# 
# 
# High freq. dielectric constant tensor:
#      x y z
#    x 1.888890 -0.021990 -0.001710 
#    y -0.021990 1.868460 0.001410 
#    z -0.001710 0.001410 1.870980 
# 
# From -- ./inp_files/274248.got.cif
#   From: 2010.06.25/outbox.cif.g09.slc.cpg/sg2_138_cif.got.tgz:274248.got - 2010.06.27 13:26:56.
