data_PCOD8001682
_publ_section_title
;
Structure prediction by ZEFSAII (Michael W. Deem and Ramdas Pophale) SiO2 
 PCOD8001682
Probable space group: P -1
;
_chemical_formula_sum "Si O2"
_cell_formula_units_Z 14
_cell_length_a 15.360220
_cell_length_b 32.846445
_cell_length_c 9.265703
_cell_angle_alpha 152.733788
_cell_angle_beta 142.652835
_cell_angle_gamma 19.624946
_cell_volume 691.611386
_symmetry_space_group_name_H-M "P -1"
_symmetry_group_IT_number 2
_symmetry_cell_setting 'triclinic'
loop_
_space_group_symop_operation_xyz
x,y,z
-x,-y,-z
loop_
_atom_site_type_symbol
_atom_site_label
_atom_site_fract_x
_atom_site_fract_y
_atom_site_fract_z
Si Si1 0.647534 0.717203 0.352773
Si Si2 0.453974 0.567062 0.372426
Si Si3 0.035370 0.057537 0.596786
Si Si4 0.589236 0.157424 0.274227
Si Si5 0.611713 0.311486 0.623831
Si Si6 0.949411 0.383532 0.605601
Si Si7 0.024303 0.184711 0.254714
O O1 0.648720 0.731266 0.572552
O O2 0.800654 0.719338 0.488900
O O3 0.343568 0.872779 0.383113
O O4 0.794086 0.549111 0.983940
O O5 0.391145 0.674343 0.506369
O O6 0.748683 0.429136 0.389758
O O7 0.240341 0.690042 0.605023
O O8 0.430523 0.481499 0.000605
O O9 0.845505 0.070042 0.424231
O O10 0.914901 0.157758 0.601446
O O11 0.991002 0.157836 0.970010
O O12 0.495301 0.272193 0.382941
O O13 0.715099 0.995042 0.883879
O O14 0.062306 0.268916 0.531249
#
# Coordination Sequence:
#
# PCOD8001682 Si02
#       7
#     2   2   2   2   2   2   2
#     4  10  20  34  53  77 113 132 175 219 264 298
#     4  11  20  35  54  83 104 140 170 222 250 323
#     4   9  18  35  53  80 102 139 168 221 257 305
#     4   9  18  34  53  79 102 140 167 220 257 306
#     4   9  21  35  54  78 111 133 176 207 276 295
#     4  11  21  32  52  85 103 140 172 218 260 311
#     4  11  19  31  57  78 105 129 186 215 255 298
#
# _framework density 20.242581000000001
#
# number of rings (size 3 to 8) (size 9 to 14) (size 15 to 20)
#    0.857    1.143    1.429    4.714    0.000    2.857 
#    0.000    0.714    0.000    0.857    0.000    0.000 
#    0.000    0.000    0.000    0.000    0.000    0.000 
#
# Total GULP energy -173467.573051 kJ/mol
# GULP energy per Si atom -12390.540932 kJ/mol
# Density = 2.019651 g / cm^3
# Si number density = 20.242581 Si / 1000 Ang^3
#
#
#
# Elastic Constant Matrix: (Units=GPa)
#
#
# Indices 1 2 3 4 5 6 
#
# 1 169.2253 42.6716 51.2604 30.6177 14.4380 -2.5062
# 2 42.6716 32.4609 25.7174 21.7947 -3.0963 -6.4508
# 3 51.2604 25.7174 66.8957 23.3997 9.9738 -5.8113
# 4 30.6177 21.7947 23.3997 23.7297 1.4713 -1.7055
# 5 14.4380 -3.0963 9.9738 1.4713 23.2635 14.7412
# 6 -2.5062 -6.4508 -5.8113 -1.7055 14.7412 32.2610
#
#
#
# Elastic Compliance Matrix: (Units=1/GPa)
#
#
# Indices 1 2 3 4 5 6 
#
# 1 0.010433 -0.014051 -0.001763 0.001864 -0.008870 0.001835
# 2 -0.014051 0.112170 -0.010355 -0.076667 0.032609 0.000519
# 3 -0.001763 -0.010355 0.029342 -0.015204 -0.018782 0.010856
# 4 0.001864 -0.076667 -0.015204 0.125077 -0.007861 -0.007720
# 5 -0.008870 0.032609 -0.018782 -0.007861 0.084583 -0.036616
# 6 0.001835 0.000519 0.010856 -0.007720 -0.036616 0.049522
#
#
# Mechanical properties :
#
#
# Convention : Reuss Voigt Hill
#
# Bulk Modulus (GPa) = 10.03941 56.43118 33.23529
# Shear Modulus (GPa) = 10.06710 25.77968 17.92339
#
# Velocity S-wave (km/s) = 2.23249 3.57254 2.97885
# Velocity P-wave (km/s) = 3.40818 6.70487 5.31841
#
# Compressibility (1/GPa) = 0.09960747
#
# Stress axis : x y z
#
# Youngs Moduli (GPa) = 95.84873 8.91503 34.08082
#
# Poissons Ratio (x) = 0.12527 0.06008
# Poissons Ratio (y) = 1.34680 0.35289
# Poissons Ratio (z) = 0.16898 0.09231
#
# Static dielectric constant tensor:
#      x y z
#    x 3.922390 0.111100 0.287700 
#    y 0.111100 3.329520 0.308710 
#    z 0.287700 0.308710 3.589370 
# 
# 
# High freq. dielectric constant tensor:
#      x y z
#    x 1.808410 0.011080 0.016050 
#    y 0.011080 1.743610 0.033080 
#    z 0.016050 0.033080 1.788650 
# 
# From -- ./inp_files/286086.got.cif
#   From: 2010.06.25/outbox.cif.g09.slc.cpg/sg2_144_cif.got.tgz:286086.got - 2010.06.27 13:26:56.
