data_PCOD8001824
_publ_section_title
;
Structure prediction by ZEFSAII (Michael W. Deem and Ramdas Pophale) SiO2 
 PCOD8001824
Probable space group: P -1
;
_chemical_formula_sum "Si O2"
_cell_formula_units_Z 16
_cell_length_a 24.125768
_cell_length_b 15.571938
_cell_length_c 15.702142
_cell_angle_alpha 151.917999
_cell_angle_beta 16.595306
_cell_angle_gamma 151.062489
_cell_volume 773.616235
_symmetry_space_group_name_H-M "P -1"
_symmetry_group_IT_number 2
_symmetry_cell_setting 'triclinic'
loop_
_space_group_symop_operation_xyz
x,y,z
-x,-y,-z
loop_
_atom_site_type_symbol
_atom_site_label
_atom_site_fract_x
_atom_site_fract_y
_atom_site_fract_z
Si Si1 0.398376 0.957926 0.202315
Si Si2 0.830146 0.523116 0.146490
Si Si3 0.848443 0.571779 0.722913
Si Si4 0.038271 0.016586 0.140907
Si Si5 0.598851 0.459203 0.135407
Si Si6 0.952778 0.626955 0.869008
Si Si7 0.756604 0.102916 0.912885
Si Si8 0.945858 0.087369 0.788106
O O1 0.200209 0.033558 0.552834
O O2 0.344024 0.737260 0.102615
O O3 0.500000 0.000000 0.000000
O O4 0.530494 0.066352 0.180429
O O5 0.616111 0.535777 0.509316
O O6 0.995798 0.688268 0.088270
O O7 0.845317 0.542779 0.040149
O O8 0.869048 0.320301 0.933446
O O9 0.000000 0.500000 0.500000
O O10 0.873804 0.794690 0.873504
O O11 0.886554 0.490941 0.503238
O O12 0.626963 0.497357 0.024705
O O13 0.120478 0.021328 0.121083
O O14 0.086190 0.837679 0.865281
O O15 0.768510 0.618606 0.068825
O O16 0.766106 0.040367 0.943046
O O17 0.863146 0.977899 0.586846
#
# Coordination Sequence:
#
# PCOD8001824 Si02
#       8
#     2   2   2   2   2   2   2   2
#     4  12  19  34  58  87 119 151 186 241 294 337
#     4  11  20  37  58  87 113 152 195 243 286 343
#     4  10  21  37  54  84 123 155 190 237 289 350
#     4  11  20  37  59  83 115 154 194 237 291 346
#     4  11  21  36  53  87 126 145 192 242 288 345
#     4  10  20  34  57  84 117 155 190 235 295 344
#     4  11  21  35  58  86 119 155 188 242 296 339
#     4  10  22  37  56  88 117 151 195 240 291 348
#
# _framework density 20.682089000000001
#
# number of rings (size 3 to 8) (size 9 to 14) (size 15 to 20)
#    0.000    1.250    5.000    3.750    0.000    2.000 
#    2.250    0.000    0.000    1.500    0.000    0.000 
#    0.000    0.000    0.000    0.000    0.000    0.000 
#
# Total GULP energy -198311.365215 kJ/mol
# GULP energy per Si atom -12394.460326 kJ/mol
# Density = 2.063502 g / cm^3
# Si number density = 20.682089 Si / 1000 Ang^3
#
#
#
# Elastic Constant Matrix: (Units=GPa)
#
#
# Indices 1 2 3 4 5 6 
#
# 1 106.1512 41.4999 26.5892 -6.8862 5.1514 -3.0671
# 2 41.4999 109.2623 22.0544 15.6465 15.7989 -24.0677
# 3 26.5892 22.0544 67.6050 -8.0576 25.9087 -5.0604
# 4 -6.8862 15.6465 -8.0576 31.5367 -8.6646 7.4382
# 5 5.1514 15.7989 25.9087 -8.6646 28.2681 0.3930
# 6 -3.0671 -24.0677 -5.0604 7.4382 0.3930 27.0735
#
#
#
# Elastic Compliance Matrix: (Units=1/GPa)
#
#
# Indices 1 2 3 4 5 6 
#
# 1 0.016038 -0.012520 -0.007687 0.015810 0.016179 -0.015328
# 2 -0.012520 0.029451 0.005408 -0.032357 -0.029541 0.035092
# 3 -0.007687 0.005408 0.027121 -0.008197 -0.029154 0.011681
# 4 0.015810 -0.032357 -0.008197 0.073363 0.045888 -0.049328
# 5 0.016179 -0.029541 -0.029154 0.045888 0.090332 -0.043796
# 6 -0.015328 0.035092 0.011681 -0.049328 -0.043796 0.082768
#
#
# Mechanical properties :
#
#
# Convention : Reuss Voigt Hill
#
# Bulk Modulus (GPa) = 23.24929 51.47841 37.36385
# Shear Modulus (GPa) = 13.77376 30.23398 22.00387
#
# Velocity S-wave (km/s) = 2.58345 3.82755 3.26530
# Velocity P-wave (km/s) = 4.49050 6.66918 5.68518
#
# Compressibility (1/GPa) = 0.04301206
#
# Stress axis : x y z
#
# Youngs Moduli (GPa) = 62.35081 33.95464 36.87150
#
# Poissons Ratio (x) = 0.42511 0.28343
# Poissons Ratio (y) = 0.78063 -0.19939
# Poissons Ratio (z) = 0.47929 -0.18362
#
# Static dielectric constant tensor:
#      x y z
#    x 3.949230 -0.123600 0.310000 
#    y -0.123600 3.848350 0.209220 
#    z 0.310000 0.209220 3.885900 
# 
# 
# High freq. dielectric constant tensor:
#      x y z
#    x 1.801600 -0.009630 0.026000 
#    y -0.009630 1.811430 0.024910 
#    z 0.026000 0.024910 1.790150 
# 
# From -- ./inp_files/274524.got.cif
#   From: 2010.06.25/outbox.cif.g09.slc.cpg/sg2_138_cif.got.tgz:274524.got - 2010.06.27 13:26:56.
