data_PCOD8001183
_publ_section_title
;
Structure prediction by ZEFSAII (Michael W. Deem and Ramdas Pophale) SiO2 
 PCOD8001183
Probable space group: P -1
;
_chemical_formula_sum "Si O2"
_cell_formula_units_Z 16
_cell_length_a 11.552027
_cell_length_b 9.172667
_cell_length_c 15.261044
_cell_angle_alpha 68.749798
_cell_angle_beta 136.914469
_cell_angle_gamma 132.153646
_cell_volume 792.447354
_symmetry_space_group_name_H-M "P -1"
_symmetry_group_IT_number 2
_symmetry_cell_setting 'triclinic'
loop_
_space_group_symop_operation_xyz
x,y,z
-x,-y,-z
loop_
_atom_site_type_symbol
_atom_site_label
_atom_site_fract_x
_atom_site_fract_y
_atom_site_fract_z
Si Si1 0.862389 0.760235 0.480952
Si Si2 0.774903 0.473911 0.135145
Si Si3 0.420412 0.441735 0.371966
Si Si4 0.676471 0.967481 0.615299
Si Si5 0.036334 0.112806 0.906907
Si Si6 0.708432 0.887661 0.098704
Si Si7 0.004891 0.696986 0.755853
Si Si8 0.092835 0.281476 0.674626
O O1 0.597526 0.637384 0.366207
O O2 0.903769 0.674917 0.436269
O O3 0.934095 0.709667 0.617542
O O4 0.000000 0.000000 0.500000
O O5 0.782565 0.640216 0.046592
O O6 0.951567 0.461597 0.192216
O O7 0.832923 0.537338 0.256603
O O8 0.535979 0.255116 0.044402
O O9 0.500000 0.500000 0.500000
O O10 0.431402 0.266316 0.389772
O O11 0.177537 0.376719 0.252875
O O12 0.500000 0.000000 0.500000
O O13 0.811291 0.063833 0.760164
O O14 0.845202 0.078782 0.603204
O O15 0.115462 0.029546 0.900148
O O16 0.000000 0.000000 0.000000
O O17 0.738620 0.763900 0.210929
O O18 0.768428 0.084248 0.137721
#
# Coordination Sequence:
#
# PCOD8001183 Si02
#       8
#     2   2   2   2   2   2   2   2
#     4  11  22  39  63  92 124 161 211 253 311 387
#     4  10  23  38  67  91 122 168 212 260 313 375
#     4  10  21  36  64  84 123 171 199 247 326 378
#     4  10  21  40  65  93 125 166 205 264 321 374
#     4  10  22  42  64  90 128 161 220 262 312 383
#     4  10  19  42  64  83 128 170 210 250 319 375
#     4  11  21  42  61  95 126 170 207 253 322 382
#     4  10  20  40  62  91 127 159 212 261 312 377
#
# _framework density 20.190615000000001
#
# number of rings (size 3 to 8) (size 9 to 14) (size 15 to 20)
#    0.000    2.000    3.750    2.625    7.000    2.500 
#    2.250    0.625    0.000    0.000    0.000    0.000 
#    0.000    0.000    0.000    0.000    0.000    0.000 
#
# Total GULP energy -198242.568178 kJ/mol
# GULP energy per Si atom -12390.160511 kJ/mol
# Density = 2.014466 g / cm^3
# Si number density = 20.190615 Si / 1000 Ang^3
#
#
#
# Elastic Constant Matrix: (Units=GPa)
#
#
# Indices 1 2 3 4 5 6 
#
# 1 112.6129 61.3452 51.5119 0.2802 -2.4984 1.5963
# 2 61.3452 91.8797 38.8496 21.0648 -3.9426 -0.0547
# 3 51.5119 38.8496 81.5349 9.7084 -2.7817 11.6566
# 4 0.2802 21.0648 9.7084 36.1280 1.5133 -1.0240
# 5 -2.4984 -3.9426 -2.7817 1.5133 33.0989 -2.8847
# 6 1.5963 -0.0547 11.6566 -1.0240 -2.8847 40.1229
#
#
#
# Elastic Compliance Matrix: (Units=1/GPa)
#
#
# Indices 1 2 3 4 5 6 
#
# 1 0.018223 -0.010913 -0.007563 0.008333 -0.000800 0.001613
# 2 -0.010913 0.021994 -0.002189 -0.012218 0.002254 0.000950
# 3 -0.007563 -0.002189 0.019355 -0.004040 0.000510 -0.005392
# 4 0.008333 -0.012218 -0.004040 0.035981 -0.002676 0.001551
# 5 -0.000800 0.002254 0.000510 -0.002676 0.030763 0.002030
# 6 0.001613 0.000950 -0.005392 0.001551 0.002030 0.026613
#
#
# Mechanical properties :
#
#
# Convention : Reuss Voigt Hill
#
# Bulk Modulus (GPa) = 54.81937 65.49342 60.15639
# Shear Modulus (GPa) = 24.95761 30.82468 27.89114
#
# Velocity S-wave (km/s) = 3.51963 3.91152 3.72074
# Velocity P-wave (km/s) = 6.61264 7.27378 6.95108
#
# Compressibility (1/GPa) = 0.01824173
#
# Stress axis : x y z
#
# Youngs Moduli (GPa) = 54.87607 45.46642 51.66514
#
# Poissons Ratio (x) = 0.49617 0.39075
# Poissons Ratio (y) = 0.59885 0.11312
# Poissons Ratio (z) = 0.41504 0.09955
#
# Static dielectric constant tensor:
#      x y z
#    x 4.054600 0.208610 0.158980 
#    y 0.208610 3.737480 0.366010 
#    z 0.158980 0.366010 3.774630 
# 
# 
# High freq. dielectric constant tensor:
#      x y z
#    x 1.784250 -0.003740 0.001930 
#    y -0.003740 1.782690 0.029880 
#    z 0.001930 0.029880 1.774640 
# 
# From -- ./inp_files/515441.got.cif
#   From: 2010.06.25/outbox.cif.g09.slc.cpg/sg2_258_cif.got.tgz:515441.got - 2010.06.27 13:26:56.
