data_PCOD8001029
_publ_section_title
;
Structure prediction by ZEFSAII (Michael W. Deem and Ramdas Pophale) SiO2 
 PCOD8001029
Probable space group: P -1
;
_chemical_formula_sum "Si O2"
_cell_formula_units_Z 10
_cell_length_a 12.387655
_cell_length_b 9.515904
_cell_length_c 9.655051
_cell_angle_alpha 70.183080
_cell_angle_beta 143.490116
_cell_angle_gamma 134.543206
_cell_volume 409.234561
_symmetry_space_group_name_H-M "P -1"
_symmetry_group_IT_number 2
_symmetry_cell_setting 'triclinic'
loop_
_space_group_symop_operation_xyz
x,y,z
-x,-y,-z
loop_
_atom_site_type_symbol
_atom_site_label
_atom_site_fract_x
_atom_site_fract_y
_atom_site_fract_z
Si Si1 0.944057 0.665754 0.300753
Si Si2 0.146810 0.409442 0.232405
Si Si3 0.809579 0.255134 0.201156
Si Si4 0.427094 0.081493 0.500304
Si Si5 0.730653 0.713166 0.835965
O O1 0.946871 0.658901 0.472704
O O2 0.821244 0.440433 0.175658
O O3 0.276735 0.906614 0.531844
O O4 0.774749 0.699360 0.048780
O O5 0.271296 0.652830 0.237745
O O6 0.399687 0.474200 0.544457
O O7 0.072078 0.273775 0.059731
O O8 0.888598 0.257702 0.125104
O O9 0.500000 0.000000 0.000000
O O10 0.214115 0.075267 0.216297
O O11 0.500000 0.000000 0.500000
#
# Coordination Sequence:
#
# PCOD8001029 Si02
#       5
#     2   2   2   2   2
#     4  11  23  42  64 101 134 176 229 269 339 398
#     4   9  21  43  66 102 129 177 225 270 342 386
#     4  11  26  43  64  98 144 181 216 275 341 405
#     4  10  19  40  71  99 131 170 229 280 322 396
#     4   9  21  40  72 101 131 169 230 283 324 396
#
# _framework density 24.435863999999999
#
# number of rings (size 3 to 8) (size 9 to 14) (size 15 to 20)
#    1.200    0.800    2.000    0.600    2.800    3.200 
#    0.000    4.000    0.000    0.000    0.000    0.000 
#    0.000    0.000    0.000    0.000    0.000    0.000 
#
# Total GULP energy -123897.198372 kJ/mol
# GULP energy per Si atom -12389.719837 kJ/mol
# Density = 2.438025 g / cm^3
# Si number density = 24.435864 Si / 1000 Ang^3
#
#
#
# Elastic Constant Matrix: (Units=GPa)
#
#
# Indices 1 2 3 4 5 6 
#
# 1 106.1376 38.2045 12.1431 10.8933 4.1840 -4.3685
# 2 38.2045 152.1651 33.5867 14.0894 6.8571 -2.0182
# 3 12.1431 33.5867 73.0691 -13.5403 -5.1471 1.3363
# 4 10.8933 14.0894 -13.5403 54.1885 12.0588 3.0445
# 5 4.1840 6.8571 -5.1471 12.0588 23.7244 10.6339
# 6 -4.3685 -2.0182 1.3363 3.0445 10.6339 39.7387
#
#
#
# Elastic Compliance Matrix: (Units=1/GPa)
#
#
# Indices 1 2 3 4 5 6 
#
# 1 0.010629 -0.002166 -0.001204 -0.001656 -0.001383 0.001596
# 2 -0.002166 0.008347 -0.004084 -0.002321 -0.002229 0.001097
# 3 -0.001204 -0.004084 0.016960 0.004865 0.003607 -0.002248
# 4 -0.001656 -0.002321 0.004865 0.022747 -0.009721 0.000395
# 5 -0.001383 -0.002229 0.003607 -0.009721 0.055226 -0.014420
# 6 0.001596 0.001097 -0.002248 0.000395 -0.014420 0.029300
#
#
# Mechanical properties :
#
#
# Convention : Reuss Voigt Hill
#
# Bulk Modulus (GPa) = 47.55686 55.47116 51.51401
# Shear Modulus (GPa) = 30.27979 40.02616 35.15298
#
# Velocity S-wave (km/s) = 3.52398 4.05162 3.79698
# Velocity P-wave (km/s) = 6.00517 6.68113 6.35215
#
# Compressibility (1/GPa) = 0.02102746
#
# Stress axis : x y z
#
# Youngs Moduli (GPa) = 94.07847 119.80401 58.96285
#
# Poissons Ratio (x) = 0.25950 0.07102
# Poissons Ratio (y) = 0.20378 0.24080
# Poissons Ratio (z) = 0.11331 0.48927
#
# Static dielectric constant tensor:
#      x y z
#    x 3.898820 -0.190660 0.201620 
#    y -0.190660 4.137540 0.173200 
#    z 0.201620 0.173200 4.823220 
# 
# 
# High freq. dielectric constant tensor:
#      x y z
#    x 1.938060 0.001770 0.008550 
#    y 0.001770 1.984240 0.006450 
#    z 0.008550 0.006450 2.007760 
# 
# From -- ./inp_files/228367.got.cif
#   From: 2010.06.25/outbox.cif.g09.slc.cpg/sg2_115_cif.got.tgz:228367.got - 2010.06.27 13:26:56.
