data_PCOD8002743
_publ_section_title
;
Structure prediction by ZEFSAII (Michael W. Deem and Ramdas Pophale) SiO2 
 PCOD8002743
Probable space group: P -1
;
_chemical_formula_sum "Si O2"
_cell_formula_units_Z 16
_cell_length_a 15.285776
_cell_length_b 6.857595
_cell_length_c 17.839720
_cell_angle_alpha 66.039979
_cell_angle_beta 28.032245
_cell_angle_gamma 78.562406
_cell_volume 745.188030
_symmetry_space_group_name_H-M "P -1"
_symmetry_group_IT_number 2
_symmetry_cell_setting 'triclinic'
loop_
_space_group_symop_operation_xyz
x,y,z
-x,-y,-z
loop_
_atom_site_type_symbol
_atom_site_label
_atom_site_fract_x
_atom_site_fract_y
_atom_site_fract_z
Si Si1 0.548379 0.294612 0.843833
Si Si2 0.215810 0.180171 0.398607
Si Si3 0.811423 0.374053 0.094914
Si Si4 0.659175 0.783438 0.144129
Si Si5 0.272998 0.929993 0.661412
Si Si6 0.575646 0.033395 0.612339
Si Si7 0.986427 0.857371 0.107979
Si Si8 0.238524 0.052958 0.234110
O O1 0.695579 0.556992 0.683535
O O2 0.436224 0.212017 0.863929
O O3 0.684040 0.152514 0.783311
O O4 0.378334 0.252300 0.042355
O O5 0.338111 0.047392 0.367714
O O6 0.983183 0.058909 0.616028
O O7 0.238964 0.176110 0.292754
O O8 0.767408 0.603209 0.095883
O O9 0.859092 0.301538 0.154995
O O10 0.610542 0.173192 0.249350
O O11 0.992269 0.380674 0.899341
O O12 0.493734 0.760252 0.338514
O O13 0.834511 0.028718 0.986199
O O14 0.500000 0.000000 0.500000
O O15 0.252141 0.878032 0.596124
O O16 0.212212 0.148725 0.696271
O O17 0.000000 0.000000 0.000000
#
# Coordination Sequence:
#
# PCOD8002743 Si02
#       8
#     2   2   2   2   2   2   2   2
#     4  11  22  41  65  95 124 167 215 257 320 387
#     4  11  21  41  66  90 131 164 208 268 320 374
#     4   9  19  38  59  83 115 164 205 254 313 369
#     4  11  21  36  62  87 124 166 209 257 313 373
#     4   9  19  36  59  82 119 158 203 252 312 368
#     4  10  20  36  58  87 125 163 201 259 313 369
#     4   9  20  37  58  84 117 158 210 258 307 366
#     4  10  24  40  65  93 125 165 210 266 322 381
#
# _framework density 21.471091000000001
#
# number of rings (size 3 to 8) (size 9 to 14) (size 15 to 20)
#    0.000    2.000    2.500    1.500    1.750    2.500 
#    0.000    2.500    5.500    0.000    0.000    0.000 
#    0.000    0.000    0.000    0.000    0.000    0.000 
#
# Total GULP energy -198263.345937 kJ/mol
# GULP energy per Si atom -12391.459121 kJ/mol
# Density = 2.142222 g / cm^3
# Si number density = 21.471091 Si / 1000 Ang^3
#
#
#
# Elastic Constant Matrix: (Units=GPa)
#
#
# Indices 1 2 3 4 5 6 
#
# 1 97.8135 29.5579 20.7105 15.4408 0.2022 13.0513
# 2 29.5579 123.5154 31.6676 36.3598 1.5212 -3.1503
# 3 20.7105 31.6676 56.4450 32.8705 2.4054 0.8229
# 4 15.4408 36.3598 32.8705 43.5462 2.1302 -1.5941
# 5 0.2022 1.5212 2.4054 2.1302 23.8810 0.4891
# 6 13.0513 -3.1503 0.8229 -1.5941 0.4891 26.2045
#
#
#
# Elastic Compliance Matrix: (Units=1/GPa)
#
#
# Indices 1 2 3 4 5 6 
#
# 1 0.012465 -0.002224 -0.002872 -0.000656 0.000516 -0.006435
# 2 -0.002224 0.011217 -0.000991 -0.007758 0.000055 0.002014
# 3 -0.002872 -0.000991 0.032665 -0.022795 -0.001147 -0.001080
# 4 -0.000656 -0.007758 -0.022795 0.047062 -0.001464 0.003000
# 5 0.000516 0.000055 -0.001147 -0.001464 0.042135 -0.001090
# 6 -0.006435 0.002014 -0.001080 0.003000 -0.001090 0.041845
#
#
# Mechanical properties :
#
#
# Convention : Reuss Voigt Hill
#
# Bulk Modulus (GPa) = 22.63828 49.07176 35.85502
# Shear Modulus (GPa) = 23.33318 31.78222 27.55770
#
# Velocity S-wave (km/s) = 3.30013 3.85155 3.58645
# Velocity P-wave (km/s) = 5.00876 6.53328 5.82114
#
# Compressibility (1/GPa) = 0.04417297
#
# Stress axis : x y z
#
# Youngs Moduli (GPa) = 80.22623 89.15099 30.61374
#
# Poissons Ratio (x) = 0.19827 0.08793
# Poissons Ratio (y) = 0.17842 0.03033
# Poissons Ratio (z) = 0.23042 0.08833
#
# Static dielectric constant tensor:
#      x y z
#    x 4.205290 0.182300 0.150620 
#    y 0.182300 4.058910 0.506230 
#    z 0.150620 0.506230 4.245550 
# 
# 
# High freq. dielectric constant tensor:
#      x y z
#    x 1.852610 0.013420 -0.014150 
#    y 0.013420 1.842790 0.031960 
#    z -0.014150 0.031960 1.835040 
# 
# From -- ./inp_files/116368.got.cif
#   From: 2010.06.25/outbox.cif.g09.slc.cpg/sg2_59_cif.got.tgz:116368.got - 2010.06.27 13:26:56.
