data_PCOD8002606
_publ_section_title
;
Structure prediction by ZEFSAII (Michael W. Deem and Ramdas Pophale) SiO2 
 PCOD8002606
Probable space group: P -1
;
_chemical_formula_sum "Si O2"
_cell_formula_units_Z 16
_cell_length_a 6.558386
_cell_length_b 9.175408
_cell_length_c 14.795178
_cell_angle_alpha 70.739884
_cell_angle_beta 89.858895
_cell_angle_gamma 96.989907
_cell_volume 833.372993
_symmetry_space_group_name_H-M "P -1"
_symmetry_group_IT_number 2
_symmetry_cell_setting 'triclinic'
loop_
_space_group_symop_operation_xyz
x,y,z
-x,-y,-z
loop_
_atom_site_type_symbol
_atom_site_label
_atom_site_fract_x
_atom_site_fract_y
_atom_site_fract_z
Si Si1 0.035518 0.982731 0.852632
Si Si2 0.108719 0.246230 0.345207
Si Si3 0.085379 0.093600 0.638209
Si Si4 0.018908 0.652443 0.858885
Si Si5 0.551684 0.828446 0.509411
Si Si6 0.882444 0.341696 0.490504
Si Si7 0.694375 0.912129 0.000756
Si Si8 0.296560 0.429951 0.966931
O O1 0.118924 0.826613 0.848856
O O2 0.075655 0.103966 0.745188
O O3 0.153825 0.042467 0.927954
O O4 0.795985 0.955199 0.892558
O O5 0.119742 0.344579 0.232165
O O6 0.330621 0.233350 0.391438
O O7 0.975116 0.337425 0.392331
O O8 0.985212 0.077222 0.364172
O O9 0.308435 0.155970 0.584286
O O10 0.921888 0.200390 0.582795
O O11 0.204617 0.545244 0.870927
O O12 0.871605 0.593259 0.951258
O O13 0.365528 0.690900 0.515092
O O14 0.500000 0.000000 0.500000
O O15 0.000000 0.500000 0.500000
O O16 0.647785 0.726187 0.048146
O O17 0.500000 0.000000 0.000000
O O18 0.500000 0.500000 0.000000
#
# Coordination Sequence:
#
# PCOD8002606 Si02
#       8
#     2   2   2   2   2   2   2   2
#     4   9  20  37  57  83 113 149 196 243 289 348
#     4  10  20  37  59  84 113 153 203 244 294 358
#     4  10  20  37  59  86 111 152 203 244 294 357
#     4   9  20  37  57  83 113 151 196 242 290 349
#     4  11  19  37  63  86 114 155 199 246 296 358
#     4  11  23  37  56  86 124 154 188 250 307 350
#     4  10  20  36  57  83 115 152 192 241 295 348
#     4  10  20  36  56  82 117 153 194 240 291 351
#
# _framework density 19.199088
#
# number of rings (size 3 to 8) (size 9 to 14) (size 15 to 20)
#    0.000    2.000    2.500    1.500    0.000    6.000 
#    2.250    1.250    0.000    0.000    0.000    0.000 
#    0.000    0.000    0.000    0.000    0.000    0.000 
#
# Total GULP energy -198221.011230 kJ/mol
# GULP energy per Si atom -12388.813202 kJ/mol
# Density = 1.915539 g / cm^3
# Si number density = 19.199088 Si / 1000 Ang^3
#
#
#
# Elastic Constant Matrix: (Units=GPa)
#
#
# Indices 1 2 3 4 5 6 
#
# 1 106.6804 49.1104 24.8599 0.6483 19.4461 -2.3535
# 2 49.1104 102.8467 37.1812 6.0107 7.1695 -1.7529
# 3 24.8599 37.1812 105.1805 10.3776 19.5839 -10.1406
# 4 0.6483 6.0107 10.3776 20.7733 -4.7864 4.1405
# 5 19.4461 7.1695 19.5839 -4.7864 20.4238 0.7813
# 6 -2.3535 -1.7529 -10.1406 4.1405 0.7813 38.6128
#
#
#
# Elastic Compliance Matrix: (Units=1/GPa)
#
#
# Indices 1 2 3 4 5 6 
#
# 1 0.014549 -0.006452 0.001999 -0.003238 -0.014330 0.001756
# 2 -0.006452 0.014056 -0.004590 -0.000061 0.005637 -0.001068
# 3 0.001999 -0.004590 0.015856 -0.012074 -0.018546 0.005748
# 4 -0.003238 -0.000061 -0.012074 0.063333 0.029936 -0.010768
# 5 -0.014330 0.005637 -0.018546 0.029936 0.085826 -0.010435
# 6 0.001756 -0.001068 0.005748 -0.010768 -0.010435 0.028832
#
#
# Mechanical properties :
#
#
# Convention : Reuss Voigt Hill
#
# Bulk Modulus (GPa) = 37.91557 59.66783 48.79170
# Shear Modulus (GPa) = 20.05381 29.53238 24.79310
#
# Velocity S-wave (km/s) = 3.23541 3.92627 3.59746
# Velocity P-wave (km/s) = 5.80936 7.19027 6.53639
#
# Compressibility (1/GPa) = 0.02637439
#
# Stress axis : x y z
#
# Youngs Moduli (GPa) = 68.73531 71.14476 63.06673
#
# Poissons Ratio (x) = 0.45900 -0.12607
# Poissons Ratio (y) = 0.44346 0.28950
# Poissons Ratio (z) = -0.13740 0.32659
#
# Static dielectric constant tensor:
#      x y z
#    x 3.496680 -0.285140 0.035860 
#    y -0.285140 4.434530 0.131240 
#    z 0.035860 0.131240 3.825550 
# 
# 
# High freq. dielectric constant tensor:
#      x y z
#    x 1.744080 -0.002280 0.005730 
#    y -0.002280 1.743660 0.002910 
#    z 0.005730 0.002910 1.748430 
# 
# From -- ./inp_files/83114.got.cif
#   From: 2010.06.25/outbox.cif.g09.slc.cpg/sg2_42_cif.got.tgz:83114.got - 2010.06.27 13:26:56.
