data_PCOD8002683
_publ_section_title
;
Structure prediction by ZEFSAII (Michael W. Deem and Ramdas Pophale) SiO2 
 PCOD8002683
Probable space group: P -1
;
_chemical_formula_sum "Si O2"
_cell_formula_units_Z 16
_cell_length_a 12.032115
_cell_length_b 8.736535
_cell_length_c 9.182080
_cell_angle_alpha 74.060002
_cell_angle_beta 93.871819
_cell_angle_gamma 54.830849
_cell_volume 726.726752
_symmetry_space_group_name_H-M "P -1"
_symmetry_group_IT_number 2
_symmetry_cell_setting 'triclinic'
loop_
_space_group_symop_operation_xyz
x,y,z
-x,-y,-z
loop_
_atom_site_type_symbol
_atom_site_label
_atom_site_fract_x
_atom_site_fract_y
_atom_site_fract_z
Si Si1 0.250349 0.335867 0.956297
Si Si2 0.485628 0.369472 0.921141
Si Si3 0.197721 0.941544 0.956158
Si Si4 0.571612 0.954750 0.724244
Si Si5 0.563683 0.596435 0.411621
Si Si6 0.747095 0.840165 0.294112
Si Si7 0.761496 0.611859 0.607735
Si Si8 0.080458 0.695333 0.039556
O O1 0.388629 0.323590 0.997976
O O2 0.217577 0.307849 0.799539
O O3 0.302279 0.149661 0.116363
O O4 0.109065 0.550148 0.946592
O O5 0.406578 0.476780 0.734377
O O6 0.500000 0.500000 0.000000
O O7 0.643042 0.169981 0.943933
O O8 0.191577 0.037718 0.771751
O O9 0.164843 0.783176 0.986597
O O10 0.086805 0.122948 0.009757
O O11 0.627613 0.807854 0.627890
O O12 0.545143 0.162698 0.635581
O O13 0.423314 0.003880 0.747205
O O14 0.500000 0.500000 0.500000
O O15 0.710492 0.513340 0.524635
O O16 0.821571 0.699256 0.482469
O O17 0.873766 0.432445 0.772918
#
# Coordination Sequence:
#
# PCOD8002683 Si02
#       8
#     2   2   2   2   2   2   2   2
#     4  11  20  38  63  87 120 155 211 252 298 359
#     4  12  22  36  64  96 113 154 205 259 301 356
#     4  11  23  38  64  88 121 161 211 248 301 364
#     4  10  20  36  57  89 124 159 193 254 306 359
#     4  11  22  34  56  92 124 154 196 253 311 359
#     4  11  20  35  62  92 118 157 206 259 298 355
#     4  10  22  40  60  88 129 162 196 253 313 365
#     4  10  24  43  58  86 125 170 199 247 308 371
#
# _framework density 22.016529999999999
#
# number of rings (size 3 to 8) (size 9 to 14) (size 15 to 20)
#    0.000    1.250    5.000    3.375    1.750    2.000 
#    0.000    0.000    0.000    9.750    0.000    0.000 
#    0.000    0.000    0.000    0.000    0.000    0.000 
#
# Total GULP energy -198230.717183 kJ/mol
# GULP energy per Si atom -12389.419824 kJ/mol
# Density = 2.196642 g / cm^3
# Si number density = 22.016530 Si / 1000 Ang^3
#
#
#
# Elastic Constant Matrix: (Units=GPa)
#
#
# Indices 1 2 3 4 5 6 
#
# 1 65.7981 22.9539 22.2273 -7.7574 -21.4075 0.8673
# 2 22.9539 109.3746 39.7711 6.9431 2.9791 -8.4679
# 3 22.2273 39.7711 113.4694 17.8351 -12.8976 11.5744
# 4 -7.7574 6.9431 17.8351 34.3312 13.3287 -4.0656
# 5 -21.4075 2.9791 -12.8976 13.3287 36.0040 -3.2289
# 6 0.8673 -8.4679 11.5744 -4.0656 -3.2289 30.8639
#
#
#
# Elastic Compliance Matrix: (Units=1/GPa)
#
#
# Indices 1 2 3 4 5 6 
#
# 1 0.021303 -0.004268 -0.001716 0.002082 0.011668 0.000369
# 2 -0.004268 0.012229 -0.004872 0.001827 -0.005526 0.004965
# 3 -0.001716 -0.004872 0.014131 -0.010591 0.007723 -0.007175
# 4 0.002082 0.001827 -0.010591 0.042586 -0.017740 0.008168
# 5 0.011668 -0.005526 0.007723 -0.017740 0.044284 -0.002444
# 6 0.000369 0.004965 -0.007175 0.008168 -0.002444 0.037263
#
#
# Mechanical properties :
#
#
# Convention : Reuss Voigt Hill
#
# Bulk Modulus (GPa) = 38.53304 50.94962 44.74133
# Shear Modulus (GPa) = 24.73304 33.81913 29.27608
#
# Velocity S-wave (km/s) = 3.35533 3.92354 3.65051
# Velocity P-wave (km/s) = 5.70534 6.61191 6.17528
#
# Compressibility (1/GPa) = 0.02595175
#
# Stress axis : x y z
#
# Youngs Moduli (GPa) = 46.94108 81.77200 70.76631
#
# Poissons Ratio (x) = 0.34904 0.12141
# Poissons Ratio (y) = 0.20036 0.34476
# Poissons Ratio (z) = 0.08053 0.39838
#
# Static dielectric constant tensor:
#      x y z
#    x 3.936280 0.039720 -0.367150 
#    y 0.039720 4.086210 0.055260 
#    z -0.367150 0.055260 4.280620 
# 
# 
# High freq. dielectric constant tensor:
#      x y z
#    x 1.852800 0.007670 -0.021200 
#    y 0.007670 1.867110 0.000790 
#    z -0.021200 0.000790 1.866210 
# 
# From -- ./inp_files/243541.got.cif
#   From: 2010.06.25/outbox.cif.g09.slc.cpg/sg2_122_cif.got.tgz:243541.got - 2010.06.27 13:26:56.
