data_PCOD8002191
_publ_section_title
;
Structure prediction by ZEFSAII (Michael W. Deem and Ramdas Pophale) SiO2 
 PCOD8002191
Probable space group: P -1
;
_chemical_formula_sum "Si O2"
_cell_formula_units_Z 14
_cell_length_a 11.618655
_cell_length_b 18.351763
_cell_length_c 11.640709
_cell_angle_alpha 30.050898
_cell_angle_beta 135.165683
_cell_angle_gamma 150.721499
_cell_volume 597.115798
_symmetry_space_group_name_H-M "P -1"
_symmetry_group_IT_number 2
_symmetry_cell_setting 'triclinic'
loop_
_space_group_symop_operation_xyz
x,y,z
-x,-y,-z
loop_
_atom_site_type_symbol
_atom_site_label
_atom_site_fract_x
_atom_site_fract_y
_atom_site_fract_z
Si Si1 0.215453 0.124360 0.143943
Si Si2 0.637183 0.719215 0.734035
Si Si3 0.159296 0.926183 0.161836
Si Si4 0.374563 0.821748 0.320820
Si Si5 0.754334 0.553184 0.892638
Si Si6 0.201614 0.700650 0.114682
Si Si7 0.596950 0.412252 0.731921
O O1 0.180350 0.085205 0.311192
O O2 0.124062 0.924255 0.278238
O O3 0.496545 0.322385 0.055358
O O4 0.082226 0.183045 0.925151
O O5 0.444089 0.706839 0.566960
O O6 0.782947 0.739216 0.704726
O O7 0.500000 0.500000 0.000000
O O8 0.226208 0.804855 0.340978
O O9 0.370059 0.170658 0.939028
O O10 0.615746 0.064432 0.130178
O O11 0.203915 0.703520 0.250333
O O12 0.783311 0.563742 0.761132
O O13 0.940652 0.570716 0.063456
O O14 0.263756 0.578439 0.284284
O O15 0.500000 0.500000 0.500000
#
# Coordination Sequence:
#
# PCOD8002191 Si02
#       7
#     2   2   2   2   2   2   2
#     4   9  19  37  56  78 110 145 183 226 273 329
#     4  10  21  37  55  81 113 144 183 228 277 330
#     4   9  19  37  57  78 109 146 185 224 271 330
#     4  10  21  37  58  82 110 146 187 229 276 328
#     4  10  20  36  55  81 114 143 184 230 274 328
#     4  10  21  37  58  83 111 146 186 229 275 327
#     4  10  20  35  57  84 112 144 182 227 278 329
#
# _framework density 23.446038999999999
#
# number of rings (size 3 to 8) (size 9 to 14) (size 15 to 20)
#    0.000    2.286    0.000    2.143    0.000    2.286 
#    0.000   20.000    0.000    0.000    0.000    0.000 
#    0.000    0.000    0.000    0.000    0.000    0.000 
#
# Total GULP energy -173551.026479 kJ/mol
# GULP energy per Si atom -12396.501891 kJ/mol
# Density = 2.339267 g / cm^3
# Si number density = 23.446039 Si / 1000 Ang^3
#
#
#
# Elastic Constant Matrix: (Units=GPa)
#
#
# Indices 1 2 3 4 5 6 
#
# 1 135.3503 51.5010 38.4546 14.2383 43.7937 -32.2164
# 2 51.5010 142.3778 39.0501 40.5409 15.7802 -13.5492
# 3 38.4546 39.0501 104.4220 26.4560 40.0716 -7.7261
# 4 14.2383 40.5409 26.4560 33.2294 3.8237 3.4526
# 5 43.7937 15.7802 40.0716 3.8237 37.8672 10.0902
# 6 -32.2164 -13.5492 -7.7261 3.4526 10.0902 45.4911
#
#
#
# Elastic Compliance Matrix: (Units=1/GPa)
#
#
# Indices 1 2 3 4 5 6 
#
# 1 -0.783683 -0.140077 -0.800444 1.040231 2.043764 -1.264930
# 2 -0.140077 -0.011598 -0.138048 0.165910 0.354046 -0.217223
# 3 -0.800444 -0.138048 -0.788861 1.035755 2.053457 -1.276038
# 4 1.040231 0.165910 1.035755 -1.306557 -2.677285 1.655005
# 5 2.043764 0.354046 2.053457 -2.677285 -5.259075 3.271263
# 6 -1.264930 -0.217223 -1.276038 1.655005 3.271263 -2.006437
#
#
# Mechanical properties :
#
#
# Convention : Reuss Voigt Hill
#
# Bulk Modulus (GPa) = -0.26729 71.12905 35.43088
# Shear Modulus (GPa) = -0.54076 40.19384 19.82654
#
# Velocity S-wave (km/s) = -0.48077 4.14492 2.91112
# Velocity P-wave (km/s) = 0.64995 7.30139 5.14237
#
# Compressibility (1/GPa) = -3.74128050
#
# Stress axis : x y z
#
# Youngs Moduli (GPa) = -1.27603 -86.21901 -1.26765
#
# Poissons Ratio (x) = -12.07732 -1.01468
# Poissons Ratio (y) = -0.17874 -0.17500
# Poissons Ratio (z) = -1.02139 -11.90237
#
# Static dielectric constant tensor:
#      x y z
#    x 5.234620 -0.909230 0.136990 
#    y -0.909230 4.822980 0.093770 
#    z 0.136990 0.093770 3.785420 
# 
# 
# High freq. dielectric constant tensor:
#      x y z
#    x 1.944860 -0.018600 0.015530 
#    y -0.018600 1.940270 0.012660 
#    z 0.015530 0.012660 1.896720 
# 
# From -- ./inp_files/177901.got.cif
#   From: 2010.06.25/outbox.cif.g09.slc.cpg/sg2_89_cif.got.tgz:177901.got - 2010.06.27 13:26:56.
