data_PCOD8002321
_publ_section_title
;
Structure prediction by ZEFSAII (Michael W. Deem and Ramdas Pophale) SiO2 
 PCOD8002321
Probable space group: P -1
;
_chemical_formula_sum "Si O2"
_cell_formula_units_Z 16
_cell_length_a 17.948345
_cell_length_b 8.680776
_cell_length_c 11.731533
_cell_angle_alpha 54.707991
_cell_angle_beta 61.111080
_cell_angle_gamma 105.236751
_cell_volume 851.541271
_symmetry_space_group_name_H-M "P -1"
_symmetry_group_IT_number 2
_symmetry_cell_setting 'triclinic'
loop_
_space_group_symop_operation_xyz
x,y,z
-x,-y,-z
loop_
_atom_site_type_symbol
_atom_site_label
_atom_site_fract_x
_atom_site_fract_y
_atom_site_fract_z
Si Si1 0.542934 0.686489 0.999533
Si Si2 0.870054 0.890234 0.610511
Si Si3 0.196070 0.848013 0.755030
Si Si4 0.277226 0.382965 0.397060
Si Si5 0.620399 0.439754 0.140631
Si Si6 0.367575 0.808071 0.563398
Si Si7 0.244641 0.649892 0.488371
Si Si8 0.954068 0.425375 0.252611
O O1 0.428123 0.637214 0.138974
O O2 0.575294 0.583040 0.115392
O O3 0.500000 0.500000 0.000000
O O4 0.671431 0.021432 0.736674
O O5 0.821639 0.762727 0.573094
O O6 0.908082 0.172928 0.470450
O O7 0.757257 0.648142 0.885777
O O8 0.000000 0.000000 0.500000
O O9 0.303461 0.863684 0.666341
O O10 0.112661 0.687010 0.772408
O O11 0.258969 0.160652 0.576730
O O12 0.109471 0.683698 0.004555
O O13 0.250688 0.516698 0.437966
O O14 0.634211 0.390926 0.280930
O O15 0.513635 0.126381 0.290652
O O16 0.293670 0.637037 0.574342
O O17 0.094396 0.466733 0.692560
#
# Coordination Sequence:
#
# PCOD8002321 Si02
#       8
#     2   2   2   2   2   2   2   2
#     4  12  18  38  63  87 112 151 198 239 273 340
#     4  11  21  37  59  85 112 150 200 241 278 335
#     4   9  17  34  55  80 110 145 196 234 268 332
#     4  11  22  35  59  89 114 152 191 237 290 343
#     4  11  20  34  63  87 113 144 199 241 278 325
#     4  10  20  35  59  89 113 147 190 241 286 337
#     4  11  21  36  58  87 122 150 187 232 295 348
#     4   9  18  33  56  78 107 153 194 228 273 339
#
# _framework density 18.789459000000001
#
# number of rings (size 3 to 8) (size 9 to 14) (size 15 to 20)
#    0.000    1.500    5.000    1.875    0.000    1.500 
#    0.000    1.250    5.500    0.000    0.000    0.000 
#    0.000    0.000    0.000    0.000    0.000    0.000 
#
# Total GULP energy -198356.127982 kJ/mol
# GULP energy per Si atom -12397.257999 kJ/mol
# Density = 1.874669 g / cm^3
# Si number density = 18.789459 Si / 1000 Ang^3
#
#
#
# Elastic Constant Matrix: (Units=GPa)
#
#
# Indices 1 2 3 4 5 6 
#
# 1 118.4992 26.4175 32.5017 9.4017 -0.1537 -6.4305
# 2 26.4175 70.2538 15.1446 13.6780 -0.2417 -11.9319
# 3 32.5017 15.1446 104.9350 12.9967 -9.4993 -5.7779
# 4 9.4017 13.6780 12.9967 21.3003 -9.3708 -5.3162
# 5 -0.1537 -0.2417 -9.4993 -9.3708 38.3641 2.8768
# 6 -6.4305 -11.9319 -5.7779 -5.3162 2.8768 20.2522
#
#
#
# Elastic Compliance Matrix: (Units=1/GPa)
#
#
# Indices 1 2 3 4 5 6 
#
# 1 0.009902 -0.002834 -0.002557 -0.001279 -0.000965 0.000546
# 2 -0.002834 0.018616 -0.000435 -0.009804 -0.002981 0.007794
# 3 -0.002557 -0.000435 0.011125 -0.004507 0.001588 0.000697
# 4 -0.001279 -0.009804 -0.004507 0.064603 0.014035 0.007496
# 5 -0.000965 -0.002981 0.001588 0.014035 0.030029 -0.002191
# 6 0.000546 0.007794 0.000697 0.007496 -0.002191 0.056620
#
#
# Mechanical properties :
#
#
# Convention : Reuss Voigt Hill
#
# Bulk Modulus (GPa) = 35.72648 49.09062 42.40855
# Shear Modulus (GPa) = 23.59860 30.62496 27.11178
#
# Velocity S-wave (km/s) = 3.54778 4.04158 3.80271
# Velocity P-wave (km/s) = 5.98646 6.92550 6.47303
#
# Compressibility (1/GPa) = 0.02799045
#
# Stress axis : x y z
#
# Youngs Moduli (GPa) = 100.99251 53.71795 89.88879
#
# Poissons Ratio (x) = 0.15222 0.22982
# Poissons Ratio (y) = 0.28619 0.03914
# Poissons Ratio (z) = 0.25821 0.02339
#
# Static dielectric constant tensor:
#      x y z
#    x 3.190560 -0.362880 0.432200 
#    y -0.362880 2.972960 0.225970 
#    z 0.432200 0.225970 3.322650 
# 
# 
# High freq. dielectric constant tensor:
#      x y z
#    x 1.734360 -0.018930 -0.002280 
#    y -0.018930 1.682720 0.003180 
#    z -0.002280 0.003180 1.750090 
# 
# From -- ./inp_files/205577.got.cif
#   From: 2010.06.25/outbox.cif.g09.slc.cpg/sg2_103_cif.got.tgz:205577.got - 2010.06.27 13:26:56.
