data_PCOD8002259
_publ_section_title
;
Structure prediction by ZEFSAII (Michael W. Deem and Ramdas Pophale) SiO2 
 PCOD8002259
Probable space group: P -1
;
_chemical_formula_sum "Si O2"
_cell_formula_units_Z 16
_cell_length_a 18.122294
_cell_length_b 5.310565
_cell_length_c 11.702639
_cell_angle_alpha 76.885907
_cell_angle_beta 67.467718
_cell_angle_gamma 63.924024
_cell_volume 932.073190
_symmetry_space_group_name_H-M "P -1"
_symmetry_group_IT_number 2
_symmetry_cell_setting 'triclinic'
loop_
_space_group_symop_operation_xyz
x,y,z
-x,-y,-z
loop_
_atom_site_type_symbol
_atom_site_label
_atom_site_fract_x
_atom_site_fract_y
_atom_site_fract_z
Si Si1 0.438473 0.204614 0.775360
Si Si2 0.662887 0.554867 0.401618
Si Si3 0.511771 0.415965 0.132749
Si Si4 0.617035 0.046002 0.556911
Si Si5 0.180285 0.714401 0.530336
Si Si6 0.099153 0.356640 0.489257
Si Si7 0.259444 0.223521 0.274615
Si Si8 0.684319 0.349534 0.747989
O O1 0.355088 0.352813 0.729111
O O2 0.435555 0.418767 0.856560
O O3 0.524118 0.134506 0.658627
O O4 0.435555 0.918019 0.856563
O O5 0.622175 0.327086 0.475358
O O6 0.767550 0.413099 0.371145
O O7 0.622181 0.831055 0.475349
O O8 0.416828 0.504885 0.239740
O O9 0.500000 0.500000 0.000000
O O10 0.693416 0.900448 0.618881
O O11 0.120026 0.546229 0.552649
O O12 0.255134 0.669459 0.395656
O O13 0.120026 0.041041 0.552647
O O14 0.156179 0.344266 0.342929
O O15 0.000000 0.500000 0.500000
O O16 0.291093 0.467187 0.189540
O O17 0.291090 0.969980 0.189540
#
# Coordination Sequence:
#
# PCOD8002259 Si02
#       8
#     2   2   2   2   2   2   2   2
#     4  12  23  33  47  70  90 121 167 199 224 275
#     4  12  20  30  47  70  95 124 154 195 222 276
#     4  12  23  37  49  63  89 126 164 209 241 260
#     4  12  17  32  47  69  96 123 157 188 230 264
#     4  10  17  30  45  64  94 124 147 180 232 262
#     4  10  18  27  42  64  91 126 156 174 208 273
#     4  10  16  28  48  59  94 118 154 178 224 259
#     4  10  16  31  46  63  84 122 156 183 223 273
#
# _framework density 17.166032999999999
#
# number of rings (size 3 to 8) (size 9 to 14) (size 15 to 20)
#    0.000    1.000    7.500    3.000    0.000    0.000 
#    0.000    0.000    0.000    0.000    0.000    0.000 
#    0.000    0.000    0.000   90.000    0.000    0.000 
#
# Total GULP energy -198282.636819 kJ/mol
# GULP energy per Si atom -12392.664801 kJ/mol
# Density = 1.712696 g / cm^3
# Si number density = 17.166033 Si / 1000 Ang^3
#
#
#
# Elastic Constant Matrix: (Units=GPa)
#
#
# Indices 1 2 3 4 5 6 
#
# 1 103.4390 69.1613 31.2599 -8.2848 15.6246 4.7667
# 2 69.1613 135.5882 32.9333 -26.2890 4.4485 37.7195
# 3 31.2599 32.9333 47.0369 -12.4428 17.8830 3.3266
# 4 -8.2848 -26.2890 -12.4428 15.4331 -1.6256 -3.3001
# 5 15.6246 4.4485 17.8830 -1.6256 16.2957 -2.1605
# 6 4.7667 37.7195 3.3266 -3.3001 -2.1605 47.8666
#
#
#
# Elastic Compliance Matrix: (Units=1/GPa)
#
#
# Indices 1 2 3 4 5 6 
#
# 1 0.020888 -0.014833 -0.003740 -0.016636 -0.012452 0.008159
# 2 -0.014833 0.025873 -0.003378 0.031217 0.011861 -0.015989
# 3 -0.003740 -0.003378 0.053683 0.029883 -0.051550 -0.000963
# 4 -0.016636 0.031217 0.029883 0.127965 -0.014836 -0.016867
# 5 -0.012452 0.011861 -0.051550 -0.014836 0.125172 0.000103
# 6 0.008159 -0.015989 -0.000963 -0.016867 0.000103 0.031587
#
#
# Mechanical properties :
#
#
# Convention : Reuss Voigt Hill
#
# Bulk Modulus (GPa) = 17.68610 61.41921 39.55266
# Shear Modulus (GPa) = 11.16277 26.09974 18.63125
#
# Velocity S-wave (km/s) = 2.55283 3.90350 3.29805
# Velocity P-wave (km/s) = 4.36057 7.49490 6.13140
#
# Compressibility (1/GPa) = 0.05654158
#
# Stress axis : x y z
#
# Youngs Moduli (GPa) = 47.87474 38.64966 18.62795
#
# Poissons Ratio (x) = 0.57329 0.06967
# Poissons Ratio (y) = 0.71013 0.06293
# Poissons Ratio (z) = 0.17905 0.13057
#
# Static dielectric constant tensor:
#      x y z
#    x 3.646940 0.800520 -0.052280 
#    y 0.800520 4.501700 -0.326080 
#    z -0.052280 -0.326080 2.701210 
# 
# 
# High freq. dielectric constant tensor:
#      x y z
#    x 1.658750 0.030800 -0.001740 
#    y 0.030800 1.690800 -0.017600 
#    z -0.001740 -0.017600 1.590500 
# 
# From -- ./inp_files/459020.got.cif
#   From: 2010.06.25/outbox.cif.g09.slc.cpg/sg2_230_cif.got.tgz:459020.got - 2010.06.27 13:26:56.
