data_PCOD8002227
_publ_section_title
;
Structure prediction by ZEFSAII (Michael W. Deem and Ramdas Pophale) SiO2 
 PCOD8002227
Probable space group: P -1
;
_chemical_formula_sum "Si O2"
_cell_formula_units_Z 16
_cell_length_a 17.182560
_cell_length_b 19.969018
_cell_length_c 8.762218
_cell_angle_alpha 123.419995
_cell_angle_beta 112.853984
_cell_angle_gamma 19.764387
_cell_volume 753.272776
_symmetry_space_group_name_H-M "P -1"
_symmetry_group_IT_number 2
_symmetry_cell_setting 'triclinic'
loop_
_space_group_symop_operation_xyz
x,y,z
-x,-y,-z
loop_
_atom_site_type_symbol
_atom_site_label
_atom_site_fract_x
_atom_site_fract_y
_atom_site_fract_z
Si Si1 0.939951 0.368656 0.418941
Si Si2 0.760720 0.943448 0.033221
Si Si3 0.171341 0.012958 0.298236
Si Si4 0.795785 0.733742 0.340569
Si Si5 0.624521 0.467149 0.486748
Si Si6 0.945222 0.662136 0.038929
Si Si7 0.377520 0.813058 0.541570
Si Si8 0.396773 0.367677 0.093615
O O1 0.631461 0.641237 0.536836
O O2 0.005828 0.281008 0.188446
O O3 0.082595 0.184673 0.422363
O O4 0.034045 0.373497 0.536854
O O5 0.725327 0.893750 0.045287
O O6 0.825584 0.962628 0.214694
O O7 0.502757 0.196369 0.057577
O O8 0.915088 0.187754 0.294581
O O9 0.271748 0.906770 0.410072
O O10 0.397015 0.787763 0.070062
O O11 0.815817 0.756679 0.218930
O O12 0.500000 0.000000 0.500000
O O13 0.900667 0.549487 0.184001
O O14 0.500000 0.500000 0.500000
O O15 0.443199 0.663361 0.457854
O O16 0.659926 0.503600 0.687457
O O17 0.135281 0.568595 0.074205
#
# Coordination Sequence:
#
# PCOD8002227 Si02
#       8
#     2   2   2   2   2   2   2   2
#     4  10  21  37  56  83 113 148 196 240 280 334
#     4  10  20  35  58  82 107 146 191 232 282 334
#     4  10  20  37  62  85 113 154 191 231 285 341
#     4  11  23  39  57  82 120 155 190 242 292 331
#     4  10  22  38  58  89 122 148 184 234 285 345
#     4  11  23  39  59  83 112 152 197 237 283 341
#     4  10  20  37  61  84 113 154 194 231 282 340
#     4  10  21  40  61  83 114 149 191 238 284 339
#
# _framework density 21.240646000000002
#
# number of rings (size 3 to 8) (size 9 to 14) (size 15 to 20)
#    0.000    1.750    0.000    6.000    0.000    3.500 
#    0.000   10.625    0.000    0.000    0.000    0.000 
#    0.000    0.000    0.000    0.000    0.000    0.000 
#
# Total GULP energy -198340.484195 kJ/mol
# GULP energy per Si atom -12396.280262 kJ/mol
# Density = 2.119230 g / cm^3
# Si number density = 21.240646 Si / 1000 Ang^3
#
#
#
# Elastic Constant Matrix: (Units=GPa)
#
#
# Indices 1 2 3 4 5 6 
#
# 1 124.4296 54.2004 41.2135 4.0659 -6.7035 5.1860
# 2 54.2004 73.1850 28.2574 -0.6262 -7.0647 23.9607
# 3 41.2135 28.2574 96.3104 4.4276 -19.6977 5.4955
# 4 4.0659 -0.6262 4.4276 24.0530 1.0916 -10.8169
# 5 -6.7035 -7.0647 -19.6977 1.0916 30.1747 -2.4590
# 6 5.1860 23.9607 5.4955 -10.8169 -2.4590 39.4101
#
#
#
# Elastic Compliance Matrix: (Units=1/GPa)
#
#
# Indices 1 2 3 4 5 6 
#
# 1 0.013346 -0.010412 -0.003201 0.000388 -0.001164 0.005054
# 2 -0.010412 0.027672 -0.002208 -0.004508 0.001560 -0.016286
# 3 -0.003201 -0.002208 0.014209 -0.002704 0.008108 -0.000454
# 4 0.000388 -0.004508 -0.002704 0.049425 -0.003183 0.016434
# 5 -0.001164 0.001560 0.008108 -0.003183 0.038623 -0.000390
# 6 0.005054 -0.016286 -0.000454 0.016434 -0.000390 0.039160
#
#
# Mechanical properties :
#
#
# Convention : Reuss Voigt Hill
#
# Bulk Modulus (GPa) = 42.39786 60.14085 51.26936
# Shear Modulus (GPa) = 22.52884 30.07780 26.30332
#
# Velocity S-wave (km/s) = 3.26029 3.76713 3.52284
# Velocity P-wave (km/s) = 5.84609 6.87729 6.38255
#
# Compressibility (1/GPa) = 0.02358609
#
# Stress axis : x y z
#
# Youngs Moduli (GPa) = 74.92788 36.13824 70.37793
#
# Poissons Ratio (x) = 0.37628 0.22525
# Poissons Ratio (y) = 0.78016 0.15536
# Poissons Ratio (z) = 0.23981 0.07978
#
# Static dielectric constant tensor:
#      x y z
#    x 3.807330 0.164580 -0.232600 
#    y 0.164580 3.835390 0.120230 
#    z -0.232600 0.120230 4.013680 
# 
# 
# High freq. dielectric constant tensor:
#      x y z
#    x 1.814940 0.019620 -0.020580 
#    y 0.019620 1.831920 0.009740 
#    z -0.020580 0.009740 1.843000 
# 
# From -- ./inp_files/337848.got.cif
#   From: 2010.06.25/outbox.cif.g09.slc.cpg/sg2_169_cif.got.tgz:337848.got - 2010.06.27 13:26:56.
