data_PCOD8002429
_publ_section_title
;
Structure prediction by ZEFSAII (Michael W. Deem and Ramdas Pophale) SiO2 
 PCOD8002429
Probable space group: P -1
;
_chemical_formula_sum "Si O2"
_cell_formula_units_Z 12
_cell_length_a 13.403708
_cell_length_b 10.805923
_cell_length_c 10.581535
_cell_angle_alpha 133.563558
_cell_angle_beta 32.078478
_cell_angle_gamma 120.317385
_cell_volume 577.184169
_symmetry_space_group_name_H-M "P -1"
_symmetry_group_IT_number 2
_symmetry_cell_setting 'triclinic'
loop_
_space_group_symop_operation_xyz
x,y,z
-x,-y,-z
loop_
_atom_site_type_symbol
_atom_site_label
_atom_site_fract_x
_atom_site_fract_y
_atom_site_fract_z
Si Si1 0.077445 0.644854 0.597554
Si Si2 0.055278 0.426022 0.695981
Si Si3 0.802959 0.830602 0.847929
Si Si4 0.691081 0.574458 0.341217
Si Si5 0.450443 0.767727 0.296744
Si Si6 0.479111 0.126308 0.439801
O O1 0.944819 0.824637 0.813326
O O2 0.000000 0.500000 0.500000
O O3 0.049131 0.603373 0.745942
O O4 0.298001 0.653839 0.338644
O O5 0.084789 0.251624 0.455410
O O6 0.233490 0.402875 0.583730
O O7 0.854010 0.441969 0.995457
O O8 0.646799 0.708242 0.963301
O O9 0.690543 0.030718 0.090825
O O10 0.500000 0.500000 0.500000
O O11 0.644548 0.764664 0.460699
O O12 0.493744 0.744557 0.383910
O O13 0.370977 0.976202 0.501729
#
# Coordination Sequence:
#
# PCOD8002429 Si02
#       6
#     2   2   2   2   2   2
#     4  10  20  35  61  93 120 148 192 246 297 352
#     4  10  23  37  58  86 117 153 204 241 285 357
#     4   9  20  38  58  93 117 149 199 243 299 344
#     4  11  23  42  58  79 117 165 201 241 292 349
#     4   9  19  37  60  92 121 153 185 246 303 346
#     4   9  20  40  61  88 121 157 195 238 300 354
#
# _framework density 20.790590000000002
#
# number of rings (size 3 to 8) (size 9 to 14) (size 15 to 20)
#    1.000    1.333    0.000    2.000    0.000    6.667 
#    6.000    0.833    0.000    0.000    0.000    0.000 
#    0.000    0.000    0.000    0.000    0.000    0.000 
#
# Total GULP energy -148673.168324 kJ/mol
# GULP energy per Si atom -12389.430694 kJ/mol
# Density = 2.074327 g / cm^3
# Si number density = 20.790590 Si / 1000 Ang^3
#
#
#
# Elastic Constant Matrix: (Units=GPa)
#
#
# Indices 1 2 3 4 5 6 
#
# 1 145.8686 40.3962 33.6030 -1.9587 -12.2711 -25.4453
# 2 40.3962 47.1696 -0.2410 -10.9775 -6.5781 -3.0979
# 3 33.6030 -0.2410 76.1772 -7.2472 2.1911 -8.2595
# 4 -1.9587 -10.9775 -7.2472 35.3936 5.4772 -12.3335
# 5 -12.2711 -6.5781 2.1911 5.4772 34.2401 -1.8889
# 6 -25.4453 -3.0979 -8.2595 -12.3335 -1.8889 33.7340
#
#
#
# Elastic Compliance Matrix: (Units=1/GPa)
#
#
# Indices 1 2 3 4 5 6 
#
# 1 0.012156 -0.009901 -0.004923 -0.001612 0.003395 0.006655
# 2 -0.009901 0.032375 0.005577 0.010841 0.000629 0.000870
# 3 -0.004923 0.005577 0.016297 0.006207 -0.002568 0.002915
# 4 -0.001612 0.010841 0.006207 0.038765 -0.004253 0.015234
# 5 0.003395 0.000629 -0.002568 -0.004253 0.031509 0.002199
# 6 0.006655 0.000870 0.002915 0.015234 0.002199 0.041150
#
#
# Mechanical properties :
#
#
# Convention : Reuss Voigt Hill
#
# Bulk Modulus (GPa) = 23.62050 46.30352 34.96201
# Shear Modulus (GPa) = 24.40727 33.70401 29.05564
#
# Velocity S-wave (km/s) = 3.43002 4.03068 3.74242
# Velocity P-wave (km/s) = 5.20313 6.63186 5.96046
#
# Compressibility (1/GPa) = 0.04233611
#
# Stress axis : x y z
#
# Youngs Moduli (GPa) = 82.26191 30.88778 61.36092
#
# Poissons Ratio (x) = 0.30580 0.30208
# Poissons Ratio (y) = 0.81444 -0.34223
# Poissons Ratio (z) = 0.40498 -0.17227
#
# Static dielectric constant tensor:
#      x y z
#    x 3.970360 -0.384730 -0.296330 
#    y -0.384730 3.498780 0.073280 
#    z -0.296330 0.073280 3.767300 
# 
# 
# High freq. dielectric constant tensor:
#      x y z
#    x 1.814990 -0.013780 -0.014340 
#    y -0.013780 1.781130 0.001440 
#    z -0.014340 0.001440 1.816410 
# 
# From -- ./inp_files/450566.got.cif
#   From: 2010.06.25/outbox.cif.g09.slc.cpg/sg2_226_cif.got.tgz:450566.got - 2010.06.27 13:26:56.
