data_PCOD8002938
_publ_section_title
;
Structure prediction by ZEFSAII (Michael W. Deem and Ramdas Pophale) SiO2 
 PCOD8002938
Probable space group: P -1
;
_chemical_formula_sum "Si O2"
_cell_formula_units_Z 16
_cell_length_a 11.646710
_cell_length_b 11.616341
_cell_length_c 11.830811
_cell_angle_alpha 120.168166
_cell_angle_beta 46.436193
_cell_angle_gamma 84.884190
_cell_volume 720.800602
_symmetry_space_group_name_H-M "P -1"
_symmetry_group_IT_number 2
_symmetry_cell_setting 'triclinic'
loop_
_space_group_symop_operation_xyz
x,y,z
-x,-y,-z
loop_
_atom_site_type_symbol
_atom_site_label
_atom_site_fract_x
_atom_site_fract_y
_atom_site_fract_z
Si Si1 0.704444 0.368498 0.035306
Si Si2 0.856275 0.647816 0.537917
Si Si3 0.403143 0.048754 0.310411
Si Si4 0.132493 0.161078 0.766747
Si Si5 0.784049 0.728362 0.013747
Si Si6 0.403232 0.756390 0.355293
Si Si7 0.479809 0.279793 0.042406
Si Si8 0.211526 0.649150 0.286698
O O1 0.821442 0.320278 0.810300
O O2 0.874984 0.285668 0.980636
O O3 0.507355 0.592168 0.293883
O O4 0.606716 0.275061 0.059044
O O5 0.751548 0.649723 0.724722
O O6 0.995324 0.697449 0.501441
O O7 0.652295 0.807373 0.673377
O O8 0.998581 0.450936 0.283136
O O9 0.657448 0.913980 0.115151
O O10 0.239087 0.161896 0.582981
O O11 0.368326 0.921235 0.216806
O O12 0.153278 0.255457 0.898260
O O13 0.257312 0.952513 0.614996
O O14 0.607977 0.710016 0.130186
O O15 0.235715 0.778581 0.394030
O O16 0.429831 0.433065 0.065050
#
# Coordination Sequence:
#
# PCOD8002938 Si02
#       8
#     2   2   2   2   2   2   2   2
#     4  11  21  39  62  93 121 161 202 257 305 352
#     4  12  24  40  61  96 125 167 195 245 317 374
#     4  11  21  39  62  92 122 157 204 254 301 364
#     4  11  23  38  64  93 120 163 210 255 293 358
#     4  11  23  41  61  91 128 160 207 252 300 358
#     4  10  20  36  60  91 120 151 200 260 300 345
#     4  11  24  40  62  94 132 155 198 255 316 365
#     4  11  20  39  64  90 124 156 200 254 310 354
#
# _framework density 22.197541000000001
#
# number of rings (size 3 to 8) (size 9 to 14) (size 15 to 20)
#    0.000    1.000    3.750    6.000    1.750    4.000 
#    0.000    0.625    0.000    3.750    0.000    0.000 
#    0.000    0.000    0.000    0.000    0.000    0.000 
#
# Total GULP energy -198349.078264 kJ/mol
# GULP energy per Si atom -12396.817392 kJ/mol
# Density = 2.214702 g / cm^3
# Si number density = 22.197541 Si / 1000 Ang^3
#
#
#
# Elastic Constant Matrix: (Units=GPa)
#
#
# Indices 1 2 3 4 5 6 
#
# 1 118.6103 17.9161 25.5231 2.7143 2.4571 2.2897
# 2 17.9161 52.7597 22.1604 7.1295 0.0168 1.1744
# 3 25.5231 22.1604 64.0199 7.9041 4.0394 -2.2824
# 4 2.7143 7.1295 7.9041 27.1791 -2.3249 -14.5576
# 5 2.4571 0.0168 4.0394 -2.3249 33.5949 5.3493
# 6 2.2897 1.1744 -2.2824 -14.5576 5.3493 26.8128
#
#
#
# Elastic Compliance Matrix: (Units=1/GPa)
#
#
# Indices 1 2 3 4 5 6 
#
# 1 0.009407 -0.001845 -0.003125 -0.000102 -0.000157 -0.001013
# 2 -0.001845 0.023485 -0.006835 -0.006761 0.001335 -0.005390
# 3 -0.003125 -0.006835 0.019843 -0.003389 -0.002535 0.000921
# 4 -0.000102 -0.006761 -0.003389 0.055814 -0.000565 0.030433
# 5 -0.000157 0.001335 -0.002535 -0.000565 0.031122 -0.006777
# 6 -0.001013 -0.005390 0.000921 0.030433 -0.006777 0.055572
#
#
# Mechanical properties :
#
#
# Convention : Reuss Voigt Hill
#
# Bulk Modulus (GPa) = 34.33625 40.73212 37.53419
# Shear Modulus (GPa) = 21.87584 28.83672 25.35628
#
# Velocity S-wave (km/s) = 3.14268 3.60821 3.38346
# Velocity P-wave (km/s) = 5.35450 5.97901 5.67535
#
# Compressibility (1/GPa) = 0.02912374
#
# Stress axis : x y z
#
# Youngs Moduli (GPa) = 106.29958 42.58104 50.39486
#
# Poissons Ratio (x) = 0.07858 0.15750
# Poissons Ratio (y) = 0.19617 0.34445
# Poissons Ratio (z) = 0.33221 0.29105
#
# Static dielectric constant tensor:
#      x y z
#    x 4.021300 0.036120 -0.195510 
#    y 0.036120 3.986650 0.365810 
#    z -0.195510 0.365810 3.807860 
# 
# 
# High freq. dielectric constant tensor:
#      x y z
#    x 1.874970 0.002140 -0.010620 
#    y 0.002140 1.853590 0.028230 
#    z -0.010620 0.028230 1.857620 
# 
# From -- ./inp_files/258145.got.cif
#   From: 2010.06.25/outbox.cif.g09.slc.cpg/sg2_130_cif.got.tgz:258145.got - 2010.06.27 13:26:56.
