data_PCOD8002162
_publ_section_title
;
Structure prediction by ZEFSAII (Michael W. Deem and Ramdas Pophale) SiO2 
 PCOD8002162
Probable space group: P -1
;
_chemical_formula_sum "Si O2"
_cell_formula_units_Z 16
_cell_length_a 24.099511
_cell_length_b 11.700581
_cell_length_c 21.369234
_cell_angle_alpha 151.004503
_cell_angle_beta 161.258421
_cell_angle_gamma 27.671122
_cell_volume 872.548182
_symmetry_space_group_name_H-M "P -1"
_symmetry_group_IT_number 2
_symmetry_cell_setting 'triclinic'
loop_
_space_group_symop_operation_xyz
x,y,z
-x,-y,-z
loop_
_atom_site_type_symbol
_atom_site_label
_atom_site_fract_x
_atom_site_fract_y
_atom_site_fract_z
Si Si1 0.929727 0.897007 0.316046
Si Si2 0.966246 0.932000 0.830707
Si Si3 0.559553 0.897016 0.945874
Si Si4 0.297805 0.214905 0.722059
Si Si5 0.277798 0.763295 0.981134
Si Si6 0.911512 0.214870 0.335750
Si Si7 0.119721 0.588993 0.948111
Si Si8 0.337738 0.236734 0.634418
O O1 0.705508 0.019335 0.135886
O O2 0.994851 0.982751 0.362075
O O3 0.997237 0.589616 0.244937
O O4 0.000000 0.000000 0.500000
O O5 0.779459 0.912284 0.594005
O O6 0.122818 0.912345 0.937393
O O7 0.906731 0.209055 0.929262
O O8 0.051372 0.714519 0.868557
O O9 0.660802 0.589620 0.908492
O O10 0.500000 0.000000 0.000000
O O11 0.389558 0.982794 0.756805
O O12 0.328668 0.463104 0.899075
O O13 0.382099 0.143227 0.708674
O O14 0.079144 0.276529 0.514008
O O15 0.198774 0.856815 0.872220
O O16 0.465327 0.823620 0.219577
O O17 0.778607 0.463064 0.348996
#
# Coordination Sequence:
#
# PCOD8002162 Si02
#       8
#     2   2   2   2   2   2   2   2
#     4  10  20  35  56  86 119 152 193 239 306 344
#     4  11  20  45  60  86 120 157 213 230 303 352
#     4  10  20  35  56  86 119 152 193 239 306 344
#     4  11  19  35  58  93 123 150 197 255 296 348
#     4  11  21  35  63  91 118 157 197 250 299 345
#     4  11  19  35  58  93 123 150 197 255 296 348
#     4   9  24  38  62  81 126 161 187 262 281 363
#     4  11  21  35  63  91 118 157 197 250 299 345
#
# _framework density 18.337095999999999
#
# number of rings (size 3 to 8) (size 9 to 14) (size 15 to 20)
#    0.750    0.750    2.500    6.000    0.000    0.000 
#    0.000    7.500    0.000    0.000    0.000    0.000 
#    0.000    0.000    0.000    0.000    0.000    0.000 
#
# Total GULP energy -198338.377706 kJ/mol
# GULP energy per Si atom -12396.148607 kJ/mol
# Density = 1.829536 g / cm^3
# Si number density = 18.337096 Si / 1000 Ang^3
#
#
#
# Elastic Constant Matrix: (Units=GPa)
#
#
# Indices 1 2 3 4 5 6 
#
# 1 98.0072 51.5701 46.4570 7.8637 -0.3015 -3.6868
# 2 51.5701 107.4026 40.1084 5.3556 -14.8551 5.0289
# 3 46.4570 40.1084 110.7739 -2.9112 7.7958 -13.5627
# 4 7.8637 5.3556 -2.9112 27.4612 -4.5052 0.9551
# 5 -0.3015 -14.8551 7.7958 -4.5052 36.3417 -4.5588
# 6 -3.6868 5.0289 -13.5627 0.9551 -4.5588 31.2712
#
#
#
# Elastic Compliance Matrix: (Units=1/GPa)
#
#
# Indices 1 2 3 4 5 6 
#
# 1 0.015789 -0.006059 -0.004306 -0.004125 -0.001830 0.000828
# 2 -0.006059 0.014640 -0.003664 -0.000360 0.006206 -0.003742
# 3 -0.004306 -0.003664 0.013101 0.002603 -0.003370 0.005193
# 4 -0.004125 -0.000360 0.002603 0.038605 0.004060 0.000113
# 5 -0.001830 0.006206 -0.003370 0.004060 0.031489 0.001791
# 6 0.000828 -0.003742 0.005193 0.000113 0.001791 0.035188
#
#
# Mechanical properties :
#
#
# Convention : Reuss Voigt Hill
#
# Bulk Modulus (GPa) = 64.63425 65.82829 65.23127
# Shear Modulus (GPa) = 27.46827 30.88472 29.17650
#
# Velocity S-wave (km/s) = 3.87455 4.10845 3.99321
# Velocity P-wave (km/s) = 7.43912 7.64740 7.54398
#
# Compressibility (1/GPa) = 0.01547167
#
# Stress axis : x y z
#
# Youngs Moduli (GPa) = 63.33359 68.30598 76.32811
#
# Poissons Ratio (x) = 0.41389 0.32868
# Poissons Ratio (y) = 0.38376 0.27966
# Poissons Ratio (z) = 0.27273 0.25027
#
# Static dielectric constant tensor:
#      x y z
#    x 3.346520 0.054420 0.070480 
#    y 0.054420 3.191470 -0.103340 
#    z 0.070480 -0.103340 3.360440 
# 
# 
# High freq. dielectric constant tensor:
#      x y z
#    x 1.717260 0.012610 0.001980 
#    y 0.012610 1.688850 -0.015270 
#    z 0.001980 -0.015270 1.709080 
# 
# From -- ./inp_files/474660.got.cif
#   From: 2010.06.25/outbox.cif.g09.slc.cpg/sg2_238_cif.got.tgz:474660.got - 2010.06.27 13:26:56.
