data_PCOD8002181
_publ_section_title
;
Structure prediction by ZEFSAII (Michael W. Deem and Ramdas Pophale) SiO2 
 PCOD8002181
Probable space group: P -1
;
_chemical_formula_sum "Si O2"
_cell_formula_units_Z 16
_cell_length_a 9.018501
_cell_length_b 14.405926
_cell_length_c 12.887594
_cell_angle_alpha 101.551143
_cell_angle_beta 134.334247
_cell_angle_gamma 51.296411
_cell_volume 846.395925
_symmetry_space_group_name_H-M "P -1"
_symmetry_group_IT_number 2
_symmetry_cell_setting 'triclinic'
loop_
_space_group_symop_operation_xyz
x,y,z
-x,-y,-z
loop_
_atom_site_type_symbol
_atom_site_label
_atom_site_fract_x
_atom_site_fract_y
_atom_site_fract_z
Si Si1 0.087566 0.121877 0.534208
Si Si2 0.931677 0.650163 0.757943
Si Si3 0.122770 0.875068 0.167713
Si Si4 0.265825 0.877036 0.467940
Si Si5 0.265836 0.645119 0.085643
Si Si6 0.460669 0.876040 0.165831
Si Si7 0.721027 0.348772 0.244177
Si Si8 0.612506 0.646185 0.083523
O O1 0.891903 0.135364 0.527037
O O2 0.893382 0.255363 0.404664
O O3 0.341669 0.097370 0.708582
O O4 0.231168 0.999251 0.501471
O O5 0.596543 0.742990 0.598566
O O6 0.057740 0.674042 0.732730
O O7 0.073246 0.500708 0.792104
O O8 0.995886 0.676896 0.907666
O O9 0.125384 0.901425 0.294287
O O10 0.163113 0.748588 0.148722
O O11 0.374851 0.851521 0.225698
O O12 0.817426 0.999357 0.000896
O O13 0.495828 0.497967 0.210531
O O14 0.407321 0.660451 0.067592
O O15 0.633587 0.750069 0.145751
O O16 0.539364 0.321664 0.095184
#
# Coordination Sequence:
#
# PCOD8002181 Si02
#       8
#     2   2   2   2   2   2   2   2
#     4  11  24  38  51  73 107 142 176 216 261 308
#     4   9  17  34  59  81 105 137 172 211 257 309
#     4  10  20  35  57  82 105 133 174 218 259 308
#     4  11  24  38  51  73 107 142 176 216 261 308
#     4   8  16  32  56  85 109 131 167 217 263 301
#     4  10  20  35  57  82 105 133 174 218 259 308
#     4   9  17  34  59  81 105 137 172 211 257 309
#     4   8  16  32  56  85 109 131 167 217 263 301
#
# _framework density 18.903683000000001
#
# number of rings (size 3 to 8) (size 9 to 14) (size 15 to 20)
#    0.000    2.500    0.000    3.750    0.000    5.500 
#    0.000   10.000    0.000    0.000    0.000    0.000 
#    0.000    0.000    0.000    0.000    0.000    0.000 
#
# Total GULP energy -198398.448983 kJ/mol
# GULP energy per Si atom -12399.903061 kJ/mol
# Density = 1.886066 g / cm^3
# Si number density = 18.903683 Si / 1000 Ang^3
#
#
#
# Elastic Constant Matrix: (Units=GPa)
#
#
# Indices 1 2 3 4 5 6 
#
# 1 42.7648 34.4700 32.3109 0.8621 1.8498 -0.5467
# 2 34.4700 142.7024 54.7221 16.9035 -0.1803 1.6899
# 3 32.3109 54.7221 98.5728 4.0508 -0.3558 0.6197
# 4 0.8621 16.9035 4.0508 35.4237 1.1799 -0.2987
# 5 1.8498 -0.1803 -0.3558 1.1799 -0.2070 13.0926
# 6 -0.5467 1.6899 0.6197 -0.2987 13.0926 13.5498
#
#
#
# Elastic Compliance Matrix: (Units=1/GPa)
#
#
# Indices 1 2 3 4 5 6 
#
# 1 0.033153 -0.005115 -0.008061 0.002256 0.007709 -0.005055
# 2 -0.005115 0.010192 -0.003825 -0.004206 -0.002580 0.001097
# 3 -0.008061 -0.003825 0.014878 0.000399 -0.002011 0.001423
# 4 0.002256 -0.004206 0.000399 0.029964 0.004403 -0.002997
# 5 0.007709 -0.002580 -0.002011 0.004403 -0.075331 0.073612
# 6 -0.005055 0.001097 0.001423 -0.002997 0.073612 0.002202
#
#
# Mechanical properties :
#
#
# Convention : Reuss Voigt Hill
#
# Bulk Modulus (GPa) = 41.28479 58.56067 49.92273
# Shear Modulus (GPa) = 87.51656 20.58911 54.05284
#
# Velocity S-wave (km/s) = 6.81150 3.30382 5.35312
# Velocity P-wave (km/s) = 9.15145 6.75273 8.04203
#
# Compressibility (1/GPa) = 0.02422199
#
# Stress axis : x y z
#
# Youngs Moduli (GPa) = 30.16296 98.11895 67.21474
#
# Poissons Ratio (x) = 0.50186 0.54181
# Poissons Ratio (y) = 0.15428 0.25707
# Poissons Ratio (z) = 0.24314 0.37527
#
# Static dielectric constant tensor:
#      x y z
#    x 3.120960 0.018860 0.000010 
#    y 0.018860 3.977690 0.181510 
#    z 0.000010 0.181510 3.436700 
# 
# 
# High freq. dielectric constant tensor:
#      x y z
#    x 1.697540 0.001460 -0.000730 
#    y 0.001460 1.751700 -0.001280 
#    z -0.000730 -0.001280 1.738560 
# 
# From -- ./inp_files/182569.got.cif
#   From: 2010.06.25/outbox.cif.g09.slc.cpg/sg2_92_cif.got.tgz:182569.got - 2010.06.27 13:26:56.
