data_PCOD8002114
_publ_section_title
;
Structure prediction by ZEFSAII (Michael W. Deem and Ramdas Pophale) SiO2 
 PCOD8002114
Probable space group: P -1
;
_chemical_formula_sum "Si O2"
_cell_formula_units_Z 16
_cell_length_a 16.105916
_cell_length_b 9.117309
_cell_length_c 9.203522
_cell_angle_alpha 63.109558
_cell_angle_beta 91.988113
_cell_angle_gamma 51.688507
_cell_volume 844.487832
_symmetry_space_group_name_H-M "P -1"
_symmetry_group_IT_number 2
_symmetry_cell_setting 'triclinic'
loop_
_space_group_symop_operation_xyz
x,y,z
-x,-y,-z
loop_
_atom_site_type_symbol
_atom_site_label
_atom_site_fract_x
_atom_site_fract_y
_atom_site_fract_z
Si Si1 0.749046 0.602302 0.448133
Si Si2 0.328686 0.184179 0.172877
Si Si3 0.538517 0.116918 0.208256
Si Si4 0.140641 0.988392 0.046015
Si Si5 0.544295 0.269262 0.435692
Si Si6 0.726202 0.898218 0.095850
Si Si7 0.318218 0.656459 0.438586
Si Si8 0.869411 0.369110 0.854587
O O1 0.795260 0.655175 0.296796
O O2 0.723562 0.457671 0.445127
O O3 0.843693 0.460822 0.646640
O O4 0.625341 0.849254 0.392844
O O5 0.411450 0.219755 0.113760
O O6 0.209577 0.421154 0.130292
O O7 0.399882 0.972949 0.385078
O O8 0.294964 0.122353 0.061252
O O9 0.525215 0.273578 0.260992
O O10 0.598199 0.112001 0.069286
O O11 0.207415 0.899843 0.244350
O O12 0.154604 0.791633 0.058046
O O13 0.195480 0.048009 0.915643
O O14 0.004304 0.222756 0.964197
O O15 0.417185 0.488291 0.397057
O O16 0.633323 0.296971 0.451163
#
# Coordination Sequence:
#
# PCOD8002114 Si02
#       8
#     2   2   2   2   2   2   2   2
#     4   9  19  37  56  83 111 155 180 228 294 333
#     4  12  19  37  60  90 113 150 194 236 282 341
#     4  10  20  35  55  85 118 148 182 232 287 347
#     4  10  21  41  58  87 116 147 197 238 280 335
#     4  11  19  34  60  86 112 154 196 231 278 344
#     4  10  22  37  57  86 123 147 184 236 296 339
#     4  10  20  35  59  83 116 151 194 238 276 334
#     4  10  22  38  66  81 111 155 196 238 275 334
#
# _framework density 18.946396
#
# number of rings (size 3 to 8) (size 9 to 14) (size 15 to 20)
#    0.750    1.000    3.750    2.250    0.000    1.000 
#    2.250    1.250    0.000    2.250    0.000    0.000 
#    0.000    0.000    0.000    0.000    0.000    0.000 
#
# Total GULP energy -198366.885105 kJ/mol
# GULP energy per Si atom -12397.930319 kJ/mol
# Density = 1.890327 g / cm^3
# Si number density = 18.946396 Si / 1000 Ang^3
#
#
#
# Elastic Constant Matrix: (Units=GPa)
#
#
# Indices 1 2 3 4 5 6 
#
# 1 114.3358 30.0381 33.9353 -0.8089 -5.8938 3.1008
# 2 30.0381 72.8272 13.1442 9.4514 13.0984 -1.4819
# 3 33.9353 13.1442 52.5735 -2.9691 4.8580 -2.7256
# 4 -0.8089 9.4514 -2.9691 28.3255 -3.7145 7.0727
# 5 -5.8938 13.0984 4.8580 -3.7145 30.9265 -5.3646
# 6 3.1008 -1.4819 -2.7256 7.0727 -5.3646 23.7592
#
#
#
# Elastic Compliance Matrix: (Units=1/GPa)
#
#
# Indices 1 2 3 4 5 6 
#
# 1 0.012722 -0.005355 -0.007374 0.002720 0.005770 -0.002347
# 2 -0.005355 0.018916 -0.000751 -0.008323 -0.009547 0.002115
# 3 -0.007374 -0.000751 0.024575 0.001466 -0.004371 0.002312
# 4 0.002720 -0.008323 0.001466 0.042132 0.006844 -0.011703
# 5 0.005770 -0.009547 -0.004371 0.006844 0.039874 0.005116
# 6 -0.002347 0.002115 0.002312 -0.011703 0.005116 0.047431
#
#
# Mechanical properties :
#
#
# Convention : Reuss Voigt Hill
#
# Bulk Modulus (GPa) = 34.18517 43.77464 38.97991
# Shear Modulus (GPa) = 22.48594 27.44349 24.96472
#
# Velocity S-wave (km/s) = 3.44876 3.81002 3.63388
# Velocity P-wave (km/s) = 5.82588 6.51994 6.18266
#
# Compressibility (1/GPa) = 0.02925245
#
# Stress axis : x y z
#
# Youngs Moduli (GPa) = 78.60327 52.86637 40.69134
#
# Poissons Ratio (x) = 0.28310 0.30007
# Poissons Ratio (y) = 0.42092 0.03056
# Poissons Ratio (z) = 0.57965 0.03970
#
# Static dielectric constant tensor:
#      x y z
#    x 3.493690 0.138930 0.048180 
#    y 0.138930 3.288620 -0.158990 
#    z 0.048180 -0.158990 3.302440 
# 
# 
# High freq. dielectric constant tensor:
#      x y z
#    x 1.738440 0.016210 0.004930 
#    y 0.016210 1.720180 -0.008240 
#    z 0.004930 -0.008240 1.724500 
# 
# From -- ./inp_files/328723.got.cif
#   From: 2010.06.25/outbox.cif.g09.slc.cpg/sg2_165_cif.got.tgz:328723.got - 2010.06.27 13:26:56.
