data_PCOD8002687
_publ_section_title
;
Structure prediction by ZEFSAII (Michael W. Deem and Ramdas Pophale) SiO2 
 PCOD8002687
Probable space group: P -1
;
_chemical_formula_sum "Si O2"
_cell_formula_units_Z 14
_cell_length_a 24.903237
_cell_length_b 14.105185
_cell_length_c 9.558418
_cell_angle_alpha 146.333880
_cell_angle_beta 24.859954
_cell_angle_gamma 154.046287
_cell_volume 615.267481
_symmetry_space_group_name_H-M "P -1"
_symmetry_group_IT_number 2
_symmetry_cell_setting 'triclinic'
loop_
_space_group_symop_operation_xyz
x,y,z
-x,-y,-z
loop_
_atom_site_type_symbol
_atom_site_label
_atom_site_fract_x
_atom_site_fract_y
_atom_site_fract_z
Si Si1 0.717240 0.689098 0.055356
Si Si2 0.076281 0.419021 0.126216
Si Si3 0.826417 0.813244 0.240239
Si Si4 0.915942 0.102634 0.627447
Si Si5 0.409394 0.783118 0.278916
Si Si6 0.277810 0.771752 0.864134
Si Si7 0.786895 0.056492 0.174662
O O1 0.606742 0.427846 0.987860
O O2 0.897035 0.783726 0.696961
O O3 0.702183 0.738774 0.313876
O O4 0.668044 0.812444 0.225849
O O5 0.000000 0.500000 0.500000
O O6 0.935509 0.202907 0.110597
O O7 0.173672 0.384609 0.962799
O O8 0.217846 0.592962 0.902117
O O9 0.795695 0.894786 0.554759
O O10 0.000000 0.000000 0.000000
O O11 0.884611 0.272937 0.866878
O O12 0.859032 0.030415 0.832227
O O13 0.366932 0.745170 0.496899
O O14 0.302302 0.836240 0.512148
O O15 0.596773 0.990368 0.070382
#
# Coordination Sequence:
#
# PCOD8002687 Si02
#       7
#     2   2   2   2   2   2   2
#     4  11  21  39  65  91 126 161 206 270 309 366
#     4  12  22  37  67  92 123 164 209 263 314 365
#     4  10  20  36  57  92 125 151 200 260 317 363
#     4  10  20  38  62  92 121 156 213 263 309 362
#     4  10  23  44  60  92 132 167 209 251 312 381
#     4  10  23  41  63  89 129 170 203 257 313 376
#     4  11  22  38  66  95 120 161 215 264 307 367
#
# _framework density 22.754331000000001
#
# number of rings (size 3 to 8) (size 9 to 14) (size 15 to 20)
#    0.000    1.429    2.857    4.714    2.000    2.286 
#    2.571    5.714    0.000    0.000    0.000    0.000 
#    0.000    0.000    0.000    0.000    0.000    0.000 
#
# Total GULP energy -173486.605195 kJ/mol
# GULP energy per Si atom -12391.900371 kJ/mol
# Density = 2.270254 g / cm^3
# Si number density = 22.754331 Si / 1000 Ang^3
#
#
#
# Elastic Constant Matrix: (Units=GPa)
#
#
# Indices 1 2 3 4 5 6 
#
# 1 101.3191 44.5373 13.0348 1.9518 25.2958 -17.4257
# 2 44.5373 131.1514 8.6453 17.9778 -0.6591 -19.5476
# 3 13.0348 8.6453 32.8961 11.0690 10.4821 -3.0371
# 4 1.9518 17.9778 11.0690 21.9182 14.0357 2.8509
# 5 25.2958 -0.6591 10.4821 14.0357 31.8573 8.7171
# 6 -17.4257 -19.5476 -3.0371 2.8509 8.7171 48.6299
#
#
#
# Elastic Compliance Matrix: (Units=1/GPa)
#
#
# Indices 1 2 3 4 5 6 
#
# 1 0.024640 -0.011051 -0.005531 0.030015 -0.033463 0.008280
# 2 -0.011051 0.014692 0.002778 -0.024643 0.018978 0.000162
# 3 -0.005531 0.002778 0.039495 -0.022472 0.000585 0.002814
# 4 0.030015 -0.024643 -0.022472 0.119242 -0.070898 0.005165
# 5 -0.033463 0.018978 0.000585 -0.070898 0.094057 -0.017030
# 6 0.008280 0.000162 0.002814 0.005165 -0.017030 0.026521
#
#
# Mechanical properties :
#
#
# Convention : Reuss Voigt Hill
#
# Bulk Modulus (GPa) = 19.52468 44.20018 31.86243
# Shear Modulus (GPa) = 13.76160 33.75769 23.75964
#
# Velocity S-wave (km/s) = 2.46192 3.85590 3.23488
# Velocity P-wave (km/s) = 4.08419 6.26826 5.29016
#
# Compressibility (1/GPa) = 0.05121724
#
# Stress axis : x y z
#
# Youngs Moduli (GPa) = 40.58482 68.06394 25.31948
#
# Poissons Ratio (x) = 0.75219 0.14005
# Poissons Ratio (y) = 0.44851 -0.07033
# Poissons Ratio (z) = 0.22449 -0.18905
#
# Static dielectric constant tensor:
#      x y z
#    x 4.657250 -0.027840 0.238480 
#    y -0.027840 4.355500 0.305080 
#    z 0.238480 0.305080 3.958780 
# 
# 
# High freq. dielectric constant tensor:
#      x y z
#    x 1.905530 -0.014060 0.013380 
#    y -0.014060 1.895590 0.013980 
#    z 0.013380 0.013980 1.886900 
# 
# From -- ./inp_files/183732.got.cif
#   From: 2010.06.25/outbox.cif.g09.slc.cpg/sg2_92_cif.got.tgz:183732.got - 2010.06.27 13:26:56.
