data_PCOD8002825
_publ_section_title
;
Structure prediction by ZEFSAII (Michael W. Deem and Ramdas Pophale) SiO2 
 PCOD8002825
Probable space group: P -1
;
_chemical_formula_sum "Si O2"
_cell_formula_units_Z 16
_cell_length_a 24.150783
_cell_length_b 9.365454
_cell_length_c 9.198449
_cell_angle_alpha 121.449146
_cell_angle_beta 150.855156
_cell_angle_gamma 56.714170
_cell_volume 842.418867
_symmetry_space_group_name_H-M "P -1"
_symmetry_group_IT_number 2
_symmetry_cell_setting 'triclinic'
loop_
_space_group_symop_operation_xyz
x,y,z
-x,-y,-z
loop_
_atom_site_type_symbol
_atom_site_label
_atom_site_fract_x
_atom_site_fract_y
_atom_site_fract_z
Si Si1 0.574946 0.944478 0.789103
Si Si2 0.687296 0.530794 0.492404
Si Si3 0.544030 0.271318 0.081576
Si Si4 0.801541 0.712583 0.096611
Si Si5 0.120750 0.371056 0.202117
Si Si6 0.448501 0.359184 0.230439
Si Si7 0.819253 0.526091 0.325302
Si Si8 0.016310 0.192806 0.638597
O O1 0.531417 0.791349 0.685305
O O2 0.500000 0.000000 0.500000
O O3 0.710909 0.884830 0.028345
O O4 0.571721 0.079842 0.982826
O O5 0.661492 0.344004 0.367228
O O6 0.784403 0.529869 0.592311
O O7 0.732019 0.608827 0.779148
O O8 0.562751 0.640365 0.217301
O O9 0.509133 0.286536 0.179424
O O10 0.852132 0.582965 0.273391
O O11 0.913206 0.770157 0.320357
O O12 0.154282 0.329493 0.424481
O O13 0.101886 0.208133 0.979909
O O14 0.000000 0.500000 0.000000
O O15 0.500000 0.500000 0.500000
O O16 0.316539 0.461850 0.958694
O O17 0.892992 0.333083 0.430636
O O18 0.000000 0.000000 0.500000
#
# Coordination Sequence:
#
# PCOD8002825 Si02
#       8
#     2   2   2   2   2   2   2   2
#     4  11  23  37  58  88 122 160 202 254 300 352
#     4  10  20  36  59  87 118 163 200 248 303 368
#     4  11  21  37  59  87 127 156 208 249 301 357
#     4  10  21  40  59  85 121 161 203 240 312 364
#     4   9  19  37  61  84 115 157 200 244 303 363
#     4  11  24  40  61  91 124 164 206 245 308 370
#     4  10  20  39  61  84 117 159 200 245 301 366
#     4  10  22  39  61  91 115 151 202 257 305 355
#
# _framework density 18.992926000000001
#
# number of rings (size 3 to 8) (size 9 to 14) (size 15 to 20)
#    0.000    1.750    2.500    2.250    1.750    3.000 
#    0.000    3.125    0.000    0.000    0.000    0.000 
#    0.000    0.000    0.000    0.000    0.000    0.000 
#
# Total GULP energy -198219.825970 kJ/mol
# GULP energy per Si atom -12388.739123 kJ/mol
# Density = 1.894970 g / cm^3
# Si number density = 18.992926 Si / 1000 Ang^3
#
#
#
# Elastic Constant Matrix: (Units=GPa)
#
#
# Indices 1 2 3 4 5 6 
#
# 1 100.7575 49.2093 66.2008 19.2444 -17.9079 -3.8604
# 2 49.2093 115.6758 60.0701 15.7129 -3.6478 -1.4021
# 3 66.2008 60.0701 124.9307 14.1198 -5.2765 6.8802
# 4 19.2444 15.7129 14.1198 32.5383 4.0411 -1.0713
# 5 -17.9079 -3.6478 -5.2765 4.0411 40.1414 -1.2108
# 6 -3.8604 -1.4021 6.8802 -1.0713 -1.2108 28.6026
#
#
#
# Elastic Compliance Matrix: (Units=1/GPa)
#
#
# Indices 1 2 3 4 5 6 
#
# 1 0.019812 -0.002819 -0.008168 -0.007708 0.008423 0.004568
# 2 -0.002819 0.012387 -0.004275 -0.002369 -0.000421 0.001149
# 3 -0.008168 -0.004275 0.014472 0.000747 -0.002352 -0.004865
# 4 -0.007708 -0.002369 0.000747 0.037008 -0.007289 -0.000259
# 5 0.008423 -0.000421 -0.002352 -0.007289 0.029136 0.002642
# 6 0.004568 0.001149 -0.004865 -0.000259 0.002642 0.036907
#
#
# Mechanical properties :
#
#
# Convention : Reuss Voigt Hill
#
# Bulk Modulus (GPa) = 61.93027 76.92492 69.42760
# Shear Modulus (GPa) = 26.93549 31.31539 29.12544
#
# Velocity S-wave (km/s) = 3.76997 4.06494 3.92023
# Velocity P-wave (km/s) = 7.18526 7.91337 7.55809
#
# Compressibility (1/GPa) = 0.01614719
#
# Stress axis : x y z
#
# Youngs Moduli (GPa) = 50.47408 80.73202 69.09661
#
# Poissons Ratio (x) = 0.22756 0.56437
# Poissons Ratio (y) = 0.14227 0.29542
# Poissons Ratio (z) = 0.41227 0.34517
#
# Static dielectric constant tensor:
#      x y z
#    x 3.800170 -0.109930 -0.033750 
#    y -0.109930 3.351350 0.132140 
#    z -0.033750 0.132140 2.768110 
# 
# 
# High freq. dielectric constant tensor:
#      x y z
#    x 1.758330 -0.008900 -0.006800 
#    y -0.008900 1.715390 0.000530 
#    z -0.006800 0.000530 1.752270 
# 
# From -- ./inp_files/176121.got.cif
#   From: 2010.06.25/outbox.cif.g09.slc.cpg/sg2_89_cif.got.tgz:176121.got - 2010.06.27 13:26:56.
