data_PCOD8002183
_publ_section_title
;
Structure prediction by ZEFSAII (Michael W. Deem and Ramdas Pophale) SiO2 
 PCOD8002183
Probable space group: P -1
;
_chemical_formula_sum "Si O2"
_cell_formula_units_Z 16
_cell_length_a 15.641344
_cell_length_b 21.067503
_cell_length_c 12.342968
_cell_angle_alpha 43.742318
_cell_angle_beta 26.914427
_cell_angle_gamma 27.717019
_cell_volume 811.908880
_symmetry_space_group_name_H-M "P -1"
_symmetry_group_IT_number 2
_symmetry_cell_setting 'triclinic'
loop_
_space_group_symop_operation_xyz
x,y,z
-x,-y,-z
loop_
_atom_site_type_symbol
_atom_site_label
_atom_site_fract_x
_atom_site_fract_y
_atom_site_fract_z
Si Si1 0.308871 0.932636 0.758711
Si Si2 0.150482 0.248219 0.251147
Si Si3 0.061632 0.695737 0.987850
Si Si4 0.247818 0.669597 0.578831
Si Si5 0.331416 0.341244 0.804506
Si Si6 0.335757 0.447213 0.465705
Si Si7 0.448755 0.990710 0.730773
Si Si8 0.196268 0.378722 0.516884
O O1 0.361692 0.936005 0.821792
O O2 0.553225 0.770235 0.644286
O O3 0.327787 0.022829 0.564323
O O4 0.000000 0.000000 0.000000
O O5 0.382129 0.104798 0.235723
O O6 0.936896 0.260046 0.410722
O O7 0.964157 0.387002 0.366988
O O8 0.340203 0.232518 0.965361
O O9 0.980801 0.621538 0.200770
O O10 0.852980 0.845686 0.099649
O O11 0.037734 0.723520 0.851931
O O12 0.395633 0.582447 0.791853
O O13 0.500000 0.500000 0.500000
O O14 0.415723 0.703380 0.355435
O O15 0.402730 0.334017 0.606984
O O16 0.000000 0.500000 0.000000
O O17 0.326165 0.414090 0.395846
O O18 0.000000 0.500000 0.500000
#
# Coordination Sequence:
#
# PCOD8002183 Si02
#       8
#     2   2   2   2   2   2   2   2
#     4  10  22  43  61  77 115 157 189 237 292 344
#     4  11  21  34  58  87 116 148 192 237 272 346
#     4  10  22  39  58  80 118 152 184 235 284 341
#     4  11  19  36  58  86 117 154 187 225 292 339
#     4   9  18  32  54  82 112 149 183 228 277 331
#     4  10  20  35  57  82 111 150 185 230 291 328
#     4  10  23  40  58  84 114 153 193 233 291 335
#     4  11  23  36  58  89 110 142 195 243 284 332
#
# _framework density 19.706645999999999
#
# number of rings (size 3 to 8) (size 9 to 14) (size 15 to 20)
#    0.000    1.750    3.750    2.250    1.750    3.000 
#    0.000    2.500    0.000    0.000    0.000    0.000 
#    0.000    0.000    0.000    0.000    0.000    0.000 
#
# Total GULP energy -198361.781972 kJ/mol
# GULP energy per Si atom -12397.611373 kJ/mol
# Density = 1.966179 g / cm^3
# Si number density = 19.706646 Si / 1000 Ang^3
#
#
#
# Elastic Constant Matrix: (Units=GPa)
#
#
# Indices 1 2 3 4 5 6 
#
# 1 134.7489 26.1595 22.1405 -0.8255 -12.5809 -5.3352
# 2 26.1595 57.9553 20.0835 -3.3863 -8.2297 -10.9602
# 3 22.1405 20.0835 86.1704 -1.1542 -10.7945 -2.7521
# 4 -0.8255 -3.3863 -1.1542 16.3817 3.9261 4.6501
# 5 -12.5809 -8.2297 -10.7945 3.9261 30.1479 6.0177
# 6 -5.3352 -10.9602 -2.7521 4.6501 6.0177 33.3653
#
#
#
# Elastic Compliance Matrix: (Units=1/GPa)
#
#
# Indices 1 2 3 4 5 6 
#
# 1 0.008433 -0.003135 -0.001152 -0.000850 0.002379 -0.000087
# 2 -0.003135 0.021405 -0.003750 0.001973 0.001813 0.005619
# 3 -0.001152 -0.003750 0.013173 -0.000481 0.003451 -0.000885
# 4 -0.000850 0.001973 -0.000481 0.065138 -0.007005 -0.007342
# 5 0.002379 0.001813 0.003451 -0.007005 0.037717 -0.004565
# 6 -0.000087 0.005619 -0.000885 -0.007342 -0.004565 0.033577
#
#
# Mechanical properties :
#
#
# Convention : Reuss Voigt Hill
#
# Bulk Modulus (GPa) = 37.12670 46.18242 41.65456
# Shear Modulus (GPa) = 24.45049 30.01172 27.23111
#
# Velocity S-wave (km/s) = 3.52621 3.90670 3.72132
# Velocity P-wave (km/s) = 5.95479 6.62084 6.29663
#
# Compressibility (1/GPa) = 0.02693480
#
# Stress axis : x y z
#
# Youngs Moduli (GPa) = 118.58701 46.71854 75.91527
#
# Poissons Ratio (x) = 0.14648 0.08746
# Poissons Ratio (y) = 0.37182 0.28469
# Poissons Ratio (z) = 0.13663 0.17520
#
# Static dielectric constant tensor:
#      x y z
#    x 4.002600 0.035550 0.077500 
#    y 0.035550 3.351460 -0.259980 
#    z 0.077500 -0.259980 3.840130 
# 
# 
# High freq. dielectric constant tensor:
#      x y z
#    x 1.780870 0.001840 -0.004420 
#    y 0.001840 1.743110 -0.003710 
#    z -0.004420 -0.003710 1.773500 
# 
# From -- ./inp_files/457474.got.cif
#   From: 2010.06.25/outbox.cif.g09.slc.cpg/sg2_229_cif.got.tgz:457474.got - 2010.06.27 13:26:56.
