data_PCOD8002390
_publ_section_title
;
Structure prediction by ZEFSAII (Michael W. Deem and Ramdas Pophale) SiO2 
 PCOD8002390
Probable space group: P -1
;
_chemical_formula_sum "Si O2"
_cell_formula_units_Z 16
_cell_length_a 16.576014
_cell_length_b 11.957710
_cell_length_c 16.298681
_cell_angle_alpha 134.735975
_cell_angle_beta 152.183031
_cell_angle_gamma 66.222622
_cell_volume 802.988359
_symmetry_space_group_name_H-M "P -1"
_symmetry_group_IT_number 2
_symmetry_cell_setting 'triclinic'
loop_
_space_group_symop_operation_xyz
x,y,z
-x,-y,-z
loop_
_atom_site_type_symbol
_atom_site_label
_atom_site_fract_x
_atom_site_fract_y
_atom_site_fract_z
Si Si1 0.345543 0.240945 0.142322
Si Si2 0.361266 0.210156 0.829220
Si Si3 0.698666 0.993946 0.171176
Si Si4 0.369164 0.560813 0.239683
Si Si5 0.191373 0.424477 0.833541
Si Si6 0.774449 0.337474 0.160609
Si Si7 0.054353 0.798257 0.245554
Si Si8 0.508989 0.128171 0.368814
O O1 0.115307 0.182031 0.947257
O O2 0.273842 0.056904 0.921735
O O3 0.469961 0.454700 0.310893
O O4 0.516628 0.270812 0.379847
O O5 0.299595 0.354824 0.837288
O O6 0.381514 0.192992 0.936216
O O7 0.159121 0.970736 0.499154
O O8 0.582202 0.311745 0.025658
O O9 0.937314 0.221032 0.529333
O O10 0.500000 0.000000 0.000000
O O11 0.518916 0.799096 0.531480
O O12 0.358189 0.558709 0.130426
O O13 0.108965 0.428414 0.973686
O O14 0.188000 0.576575 0.852816
O O15 0.000000 0.500000 0.500000
O O16 0.708088 0.113883 0.972471
O O17 0.255382 0.832376 0.393901
#
# Coordination Sequence:
#
# PCOD8002390 Si02
#       8
#     2   2   2   2   2   2   2   2
#     4  10  20  35  60  93 126 153 204 259 306 352
#     4  11  19  39  61  91 118 157 201 255 311 364
#     4  12  20  34  63  96 125 153 205 263 308 355
#     4  10  21  37  61  90 124 162 201 254 307 369
#     4  12  21  40  60  91 125 160 203 248 315 372
#     4  11  26  41  60  89 121 164 204 257 310 365
#     4   9  19  35  60  93 117 157 199 253 310 351
#     4  11  22  40  59  89 127 163 209 246 309 369
#
# _framework density 19.925568999999999
#
# number of rings (size 3 to 8) (size 9 to 14) (size 15 to 20)
#    0.750    0.500    3.750    4.500    0.000    0.500 
#    0.000    0.000    0.000    0.750    0.000    0.000 
#    0.000    0.000    0.000    0.000    0.000    0.000 
#
# Total GULP energy -198224.827578 kJ/mol
# GULP energy per Si atom -12389.051724 kJ/mol
# Density = 1.988022 g / cm^3
# Si number density = 19.925569 Si / 1000 Ang^3
#
#
#
# Elastic Constant Matrix: (Units=GPa)
#
#
# Indices 1 2 3 4 5 6 
#
# 1 75.8222 41.6405 34.9269 1.0460 -16.6515 -5.4821
# 2 41.6405 98.6969 31.8473 -6.9673 -7.6867 -5.7907
# 3 34.9269 31.8473 73.8789 5.4625 -8.0832 -18.6185
# 4 1.0460 -6.9673 5.4625 31.2884 -6.0501 1.1124
# 5 -16.6515 -7.6867 -8.0832 -6.0501 32.1481 2.1459
# 6 -5.4821 -5.7907 -18.6185 1.1124 2.1459 34.0700
#
#
#
# Elastic Compliance Matrix: (Units=1/GPa)
#
#
# Indices 1 2 3 4 5 6 
#
# 1 0.021536 -0.006192 -0.007199 0.000808 0.008154 -0.002061
# 2 -0.006192 0.014172 -0.003655 0.004040 0.000071 -0.000721
# 3 -0.007199 -0.003655 0.021321 -0.004813 -0.000820 0.010081
# 4 0.000808 0.004040 -0.004813 0.035151 0.007017 -0.003403
# 5 0.008154 0.000071 -0.000820 0.007017 0.036571 -0.001657
# 6 -0.002061 -0.000721 0.010081 -0.003403 -0.001657 0.034621
#
#
# Mechanical properties :
#
#
# Convention : Reuss Voigt Hill
#
# Bulk Modulus (GPa) = 43.59643 51.69192 47.64418
# Shear Modulus (GPa) = 24.37702 28.83352 26.60527
#
# Velocity S-wave (km/s) = 3.50151 3.80815 3.65805
# Velocity P-wave (km/s) = 6.18665 6.73312 6.46566
#
# Compressibility (1/GPa) = 0.02293766
#
# Stress axis : x y z
#
# Youngs Moduli (GPa) = 46.43373 70.56093 46.90176
#
# Poissons Ratio (x) = 0.43691 0.33766
# Poissons Ratio (y) = 0.28752 0.17141
# Poissons Ratio (z) = 0.33429 0.25788
#
# Static dielectric constant tensor:
#      x y z
#    x 3.350570 -0.202310 -0.285740 
#    y -0.202310 3.649420 -0.174550 
#    z -0.285740 -0.174550 3.818480 
# 
# 
# High freq. dielectric constant tensor:
#      x y z
#    x 1.757290 -0.017140 -0.017420 
#    y -0.017140 1.774800 -0.007060 
#    z -0.017420 -0.007060 1.764870 
# 
# From -- ./inp_files/531982.got.cif
#   From: 2010.06.25/outbox.cif.g09.slc.cpg/sg2_266_cif.got.tgz:531982.got - 2010.06.27 13:26:56.
