data_PCOD8002342
_publ_section_title
;
Structure prediction by ZEFSAII (Michael W. Deem and Ramdas Pophale) SiO2 
 PCOD8002342
Probable space group: P -1
;
_chemical_formula_sum "Si O2"
_cell_formula_units_Z 14
_cell_length_a 17.609746
_cell_length_b 11.499099
_cell_length_c 16.542191
_cell_angle_alpha 157.694684
_cell_angle_beta 29.076336
_cell_angle_gamma 138.597099
_cell_volume 585.951307
_symmetry_space_group_name_H-M "P -1"
_symmetry_group_IT_number 2
_symmetry_cell_setting 'triclinic'
loop_
_space_group_symop_operation_xyz
x,y,z
-x,-y,-z
loop_
_atom_site_type_symbol
_atom_site_label
_atom_site_fract_x
_atom_site_fract_y
_atom_site_fract_z
Si Si1 0.370782 0.311386 0.013441
Si Si2 0.262474 0.578682 0.452982
Si Si3 0.313433 0.209987 0.826932
Si Si4 0.929621 0.374923 0.907549
Si Si5 0.632966 0.197298 0.906024
Si Si6 0.884995 0.757669 0.502742
Si Si7 0.589154 0.716416 0.508163
O O1 0.272299 0.322034 0.029881
O O2 0.458186 0.935974 0.709442
O O3 0.500000 0.500000 0.000000
O O4 0.253210 0.464906 0.296588
O O5 0.130152 0.483751 0.568740
O O6 0.210306 0.968565 0.747836
O O7 0.439171 0.399835 0.216467
O O8 0.500000 0.000000 0.500000
O O9 0.266960 0.543406 0.033733
O O10 0.007191 0.472905 0.816746
O O11 0.981818 0.984031 0.599551
O O12 0.732189 0.504553 0.180374
O O13 0.000000 0.500000 0.000000
O O14 0.706773 0.992183 0.785762
O O15 0.663465 0.934141 0.636613
O O16 0.500000 0.500000 0.500000
#
# Coordination Sequence:
#
# PCOD8002342 Si02
#       7
#     2   2   2   2   2   2   2
#     4  11  20  37  57  92 128 161 205 254 309 370
#     4  10  22  36  60  94 129 159 207 261 306 361
#     4  10  20  35  59  93 127 164 201 259 316 364
#     4  11  24  42  63  89 131 169 201 255 324 372
#     4  10  20  38  60  97 126 160 210 259 313 368
#     4  11  24  40  62  92 124 166 212 259 306 380
#     4  11  23  38  66  99 123 162 208 262 313 363
#
# _framework density 23.892771
#
# number of rings (size 3 to 8) (size 9 to 14) (size 15 to 20)
#    0.000    1.429    5.714    2.143    6.000    1.143 
#    0.000    0.000    0.000   10.286    0.000    0.000 
#    0.000    0.000    0.000    0.000    0.000    0.000 
#
# Total GULP energy -173489.875810 kJ/mol
# GULP energy per Si atom -12392.133986 kJ/mol
# Density = 2.383839 g / cm^3
# Si number density = 23.892771 Si / 1000 Ang^3
#
#
#
# Elastic Constant Matrix: (Units=GPa)
#
#
# Indices 1 2 3 4 5 6 
#
# 1 69.8460 13.2033 28.6993 -4.1927 29.2272 -9.5929
# 2 13.2033 158.0449 56.5122 1.8368 25.6603 -31.5345
# 3 28.6993 56.5122 102.0648 1.7498 27.8687 -4.2285
# 4 -4.1927 1.8368 1.7498 41.4056 -11.0831 5.0120
# 5 29.2272 25.6603 27.8687 -11.0831 42.8015 -0.0472
# 6 -9.5929 -31.5345 -4.2285 5.0120 -0.0472 26.3162
#
#
#
# Elastic Compliance Matrix: (Units=1/GPa)
#
#
# Indices 1 2 3 4 5 6 
#
# 1 0.024766 0.005770 -0.004303 -0.004524 -0.018723 0.016079
# 2 0.005770 0.012779 -0.005397 -0.004314 -0.009185 0.017355
# 3 -0.004303 -0.005397 0.014826 -0.001180 -0.003791 -0.005436
# 4 -0.004524 -0.004314 -0.001180 0.029198 0.013990 -0.012544
# 5 -0.018723 -0.009185 -0.003791 0.013990 0.047723 -0.021020
# 6 0.016079 0.017355 -0.005436 -0.012544 -0.021020 0.066134
#
#
# Mechanical properties :
#
#
# Convention : Reuss Voigt Hill
#
# Bulk Modulus (GPa) = 22.46602 58.53172 40.49887
# Shear Modulus (GPa) = 22.92275 37.54071 30.23173
#
# Velocity S-wave (km/s) = 3.10078 3.96816 3.56098
# Velocity P-wave (km/s) = 4.71625 6.74877 5.82190
#
# Compressibility (1/GPa) = 0.04451167
#
# Stress axis : x y z
#
# Youngs Moduli (GPa) = 40.37821 78.25068 67.44823
#
# Poissons Ratio (x) = -0.45152 0.29021
# Poissons Ratio (y) = -0.23299 0.36404
# Poissons Ratio (z) = 0.17374 0.42235
#
# Static dielectric constant tensor:
#      x y z
#    x 4.195140 0.009740 0.269130 
#    y 0.009740 4.309700 0.295080 
#    z 0.269130 0.295080 4.585800 
# 
# 
# High freq. dielectric constant tensor:
#      x y z
#    x 1.931610 -0.010420 0.022610 
#    y -0.010420 1.944220 0.009010 
#    z 0.022610 0.009010 1.953500 
# 
# From -- ./inp_files/578066.got.cif
#   From: 2010.06.25/outbox.cif.g09.slc.cpg/sg2_290_cif.got.tgz:578066.got - 2010.06.27 13:26:56.
