data_PCOD8002286
_publ_section_title
;
Structure prediction by ZEFSAII (Michael W. Deem and Ramdas Pophale) SiO2 
 PCOD8002286
Probable space group: P -1
;
_chemical_formula_sum "Si O2"
_cell_formula_units_Z 14
_cell_length_a 9.288641
_cell_length_b 9.092359
_cell_length_c 9.911636
_cell_angle_alpha 111.913694
_cell_angle_beta 60.274723
_cell_angle_gamma 133.600020
_cell_volume 525.780403
_symmetry_space_group_name_H-M "P -1"
_symmetry_group_IT_number 2
_symmetry_cell_setting 'triclinic'
loop_
_space_group_symop_operation_xyz
x,y,z
-x,-y,-z
loop_
_atom_site_type_symbol
_atom_site_label
_atom_site_fract_x
_atom_site_fract_y
_atom_site_fract_z
Si Si1 0.299088 0.424959 0.654904
Si Si2 0.717849 0.069604 0.484112
Si Si3 0.148165 0.840670 0.822045
Si Si4 0.512839 0.242727 0.968105
Si Si5 0.264884 0.296766 0.906515
Si Si6 0.934978 0.383096 0.692724
Si Si7 0.490615 0.139434 0.228838
O O1 0.500000 0.500000 0.500000
O O2 0.284388 0.286206 0.732685
O O3 0.334717 0.618355 0.769640
O O4 0.076975 0.312587 0.640363
O O5 0.828341 0.051208 0.296359
O O6 0.861849 0.306505 0.546047
O O7 0.500000 0.000000 0.500000
O O8 0.676712 0.937418 0.593986
O O9 0.370957 0.941319 0.838143
O O10 0.062648 0.619432 0.734636
O O11 0.982124 0.828161 0.989113
O O12 0.599947 0.471919 0.029089
O O13 0.397101 0.099045 0.106240
O O14 0.340882 0.176869 0.902764
O O15 0.711914 0.246256 0.835763
#
# Coordination Sequence:
#
# PCOD8002286 Si02
#       7
#     2   2   2   2   2   2   2
#     4  10  21  37  59  85 111 141 185 232 274 328
#     4  10  21  35  55  83 114 147 184 230 278 326
#     4   9  18  35  58  81 109 146 189 224 268 329
#     4   9  18  33  56  83 110 142 185 227 273 327
#     4   9  18  33  55  83 110 140 182 234 273 315
#     4  10  20  35  59  82 107 147 190 227 271 328
#     4   9  19  36  56  80 113 148 179 225 280 326
#
# _framework density 26.627085999999998
#
# number of rings (size 3 to 8) (size 9 to 14) (size 15 to 20)
#    0.000    2.571    0.000    1.286    0.000   12.000 
#    0.000    2.857    0.000    5.143    0.000    0.000 
#    0.000    0.000    0.000    0.000    0.000    0.000 
#
# Total GULP energy -173484.097502 kJ/mol
# GULP energy per Si atom -12391.721250 kJ/mol
# Density = 2.656648 g / cm^3
# Si number density = 26.627086 Si / 1000 Ang^3
#
#
#
# Elastic Constant Matrix: (Units=GPa)
#
#
# Indices 1 2 3 4 5 6 
#
# 1 189.6086 56.8643 95.2385 -18.9059 19.3097 7.0375
# 2 56.8643 94.1667 27.5373 -8.7364 19.2321 6.2359
# 3 95.2385 27.5373 218.0167 -46.8135 40.4506 11.4819
# 4 -18.9059 -8.7364 -46.8135 42.0171 6.4860 5.1420
# 5 19.3097 19.2321 40.4506 6.4860 40.2199 -3.5503
# 6 7.0375 6.2359 11.4819 5.1420 -3.5503 43.4527
#
#
#
# Elastic Compliance Matrix: (Units=1/GPa)
#
#
# Indices 1 2 3 4 5 6 
#
# 1 0.008124 -0.004577 -0.004048 -0.002354 0.002821 0.000920
# 2 -0.004577 0.015432 0.003929 0.007714 -0.010758 -0.004303
# 3 -0.004048 0.003929 0.012650 0.016332 -0.015864 -0.006480
# 4 -0.002354 0.007714 0.016332 0.048453 -0.027951 -0.013059
# 5 0.002821 -0.010758 -0.015864 -0.027951 0.050236 0.012691
# 6 0.000920 -0.004303 -0.006480 -0.013059 0.012691 0.027777
#
#
# Mechanical properties :
#
#
# Convention : Reuss Voigt Hill
#
# Bulk Modulus (GPa) = 37.29316 95.67467 66.48391
# Shear Modulus (GPa) = 27.62384 46.61473 37.11929
#
# Velocity S-wave (km/s) = 3.22442 4.18862 3.73774
# Velocity P-wave (km/s) = 5.28191 7.70727 6.60684
#
# Compressibility (1/GPa) = 0.02681457
#
# Stress axis : x y z
#
# Youngs Moduli (GPa) = 123.09277 64.79907 79.04890
#
# Poissons Ratio (x) = 0.29661 0.31999
# Poissons Ratio (y) = 0.56345 -0.31062
# Poissons Ratio (z) = 0.49829 -0.25463
#
# Static dielectric constant tensor:
#      x y z
#    x 4.855240 -0.116400 0.375940 
#    y -0.116400 5.621390 0.079490 
#    z 0.375940 0.079490 5.218040 
# 
# 
# High freq. dielectric constant tensor:
#      x y z
#    x 2.056260 -0.011070 0.016530 
#    y -0.011070 2.120580 0.015890 
#    z 0.016530 0.015890 2.076090 
# 
# From -- ./inp_files/180112.got.cif
#   From: 2010.06.25/outbox.cif.g09.slc.cpg/sg2_91_cif.got.tgz:180112.got - 2010.06.27 13:26:56.
