data_PCOD8002875
_publ_section_title
;
Structure prediction by ZEFSAII (Michael W. Deem and Ramdas Pophale) SiO2 
 PCOD8002875
Probable space group: P -1
;
_chemical_formula_sum "Si O2"
_cell_formula_units_Z 16
_cell_length_a 15.154686
_cell_length_b 9.539759
_cell_length_c 11.948591
_cell_angle_alpha 82.345827
_cell_angle_beta 27.341569
_cell_angle_gamma 73.789007
_cell_volume 735.594675
_symmetry_space_group_name_H-M "P -1"
_symmetry_group_IT_number 2
_symmetry_cell_setting 'triclinic'
loop_
_space_group_symop_operation_xyz
x,y,z
-x,-y,-z
loop_
_atom_site_type_symbol
_atom_site_label
_atom_site_fract_x
_atom_site_fract_y
_atom_site_fract_z
Si Si1 0.411856 0.982847 0.788490
Si Si2 0.160924 0.235987 0.737230
Si Si3 0.701098 0.482741 0.042266
Si Si4 0.344404 0.292877 0.743975
Si Si5 0.737754 0.211308 0.167409
Si Si6 0.483381 0.860944 0.963112
Si Si7 0.860553 0.589515 0.479166
Si Si8 0.373752 0.618023 0.219624
O O1 0.347009 0.162414 0.842333
O O2 0.644783 0.914892 0.488627
O O3 0.263399 0.943545 0.870558
O O4 0.385913 0.924283 0.947071
O O5 0.185781 0.306557 0.820575
O O6 0.151629 0.357839 0.640666
O O7 0.960583 0.189001 0.967577
O O8 0.905636 0.445870 0.737904
O O9 0.737540 0.552646 0.111436
O O10 0.669534 0.328006 0.127238
O O11 0.503017 0.594258 0.190960
O O12 0.572829 0.266779 0.445870
O O13 0.703537 0.723657 0.717129
O O14 0.330482 0.789197 0.206270
O O15 0.500000 0.000000 0.000000
O O16 0.826396 0.427901 0.533066
O O17 0.500000 0.500000 0.000000
#
# Coordination Sequence:
#
# PCOD8002875 Si02
#       8
#     2   2   2   2   2   2   2   2
#     4  10  21  38  55  80 114 148 187 229 274 325
#     4   9  19  36  58  83 114 147 183 223 274 331
#     4  11  22  37  57  86 115 143 185 230 275 329
#     4  11  22  34  56  86 116 146 184 228 268 327
#     4  10  20  36  60  82 113 153 181 220 276 333
#     4  10  20  38  61  82 109 146 188 235 281 322
#     4   9  21  38  59  83 112 146 182 227 278 334
#     4  10  20  37  61  80 107 148 185 228 279 329
#
# _framework density 21.751107999999999
#
# number of rings (size 3 to 8) (size 9 to 14) (size 15 to 20)
#    0.000    2.000    0.000    5.625    0.000    7.000 
#    0.000    5.000    0.000   15.750    0.000    0.000 
#    0.000    0.000    0.000    0.000    0.000    0.000 
#
# Total GULP energy -198366.418652 kJ/mol
# GULP energy per Si atom -12397.901166 kJ/mol
# Density = 2.170160 g / cm^3
# Si number density = 21.751108 Si / 1000 Ang^3
#
#
#
# Elastic Constant Matrix: (Units=GPa)
#
#
# Indices 1 2 3 4 5 6 
#
# 1 77.9974 8.5259 23.8585 -2.3686 -4.7017 14.2615
# 2 8.5259 109.6680 39.1799 -22.7671 -0.7876 8.7078
# 3 23.8585 39.1799 65.7388 -19.1525 -3.7586 11.9001
# 4 -2.3686 -22.7671 -19.1525 29.4700 8.8534 5.9033
# 5 -4.7017 -0.7876 -3.7586 8.8534 23.2354 -1.6509
# 6 14.2615 8.7078 11.9001 5.9033 -1.6509 32.5906
#
#
#
# Elastic Compliance Matrix: (Units=1/GPa)
#
#
# Indices 1 2 3 4 5 6 
#
# 1 0.015363 0.000844 -0.005589 -0.001606 0.002526 -0.004488
# 2 0.000844 0.012915 -0.005014 0.008672 -0.003773 -0.003751
# 3 -0.005589 -0.005014 0.026114 0.015479 -0.003595 -0.008736
# 4 -0.001606 0.008672 0.015479 0.061132 -0.022203 -0.019464
# 5 0.002526 -0.003773 -0.003595 -0.022203 0.051858 0.007864
# 6 -0.004488 -0.003751 -0.008736 -0.019464 0.007864 0.040764
#
#
# Mechanical properties :
#
#
# Convention : Reuss Voigt Hill
#
# Bulk Modulus (GPa) = 28.67560 44.05920 36.36740
# Shear Modulus (GPa) = 20.89529 29.18185 25.03857
#
# Velocity S-wave (km/s) = 3.10280 3.66679 3.39653
# Velocity P-wave (km/s) = 5.10379 6.18282 5.66903
#
# Compressibility (1/GPa) = 0.03487286
#
# Stress axis : x y z
#
# Youngs Moduli (GPa) = 65.09319 77.42887 38.29411
#
# Poissons Ratio (x) = -0.06532 0.21403
# Poissons Ratio (y) = -0.05492 0.19199
# Poissons Ratio (z) = 0.36382 0.38820
#
# Static dielectric constant tensor:
#      x y z
#    x 4.245990 -0.270900 -0.015170 
#    y -0.270900 4.273240 -0.396010 
#    z -0.015170 -0.396010 4.075110 
# 
# 
# High freq. dielectric constant tensor:
#      x y z
#    x 1.853640 -0.002590 0.004920 
#    y -0.002590 1.862760 -0.023550 
#    z 0.004920 -0.023550 1.835720 
# 
# From -- ./inp_files/337667.got.cif
#   From: 2010.06.25/outbox.cif.g09.slc.cpg/sg2_169_cif.got.tgz:337667.got - 2010.06.27 13:26:56.
