data_PCOD8002963
_publ_section_title
;
Structure prediction by ZEFSAII (Michael W. Deem and Ramdas Pophale) SiO2 
 PCOD8002963
Probable space group: P -1
;
_chemical_formula_sum "Si O2"
_cell_formula_units_Z 16
_cell_length_a 13.167468
_cell_length_b 18.458474
_cell_length_c 10.932844
_cell_angle_alpha 146.559712
_cell_angle_beta 123.702381
_cell_angle_gamma 32.482579
_cell_volume 679.410177
_symmetry_space_group_name_H-M "P -1"
_symmetry_group_IT_number 2
_symmetry_cell_setting 'triclinic'
loop_
_space_group_symop_operation_xyz
x,y,z
-x,-y,-z
loop_
_atom_site_type_symbol
_atom_site_label
_atom_site_fract_x
_atom_site_fract_y
_atom_site_fract_z
Si Si1 0.465511 0.239107 0.640576
Si Si2 0.305879 0.809442 0.462675
Si Si3 0.893540 0.869984 0.536213
Si Si4 0.146148 0.677788 0.201861
Si Si5 0.628654 0.133373 0.168363
Si Si6 0.976704 0.073164 0.954747
Si Si7 0.678807 0.807044 0.745114
Si Si8 0.158606 0.555941 0.499832
O O1 0.555680 0.291319 0.709648
O O2 0.410694 0.178373 0.417943
O O3 0.661176 0.014384 0.545055
O O4 0.252991 0.464236 0.894926
O O5 0.315758 0.648566 0.285842
O O6 0.408455 0.816611 0.640645
O O7 0.058136 0.082516 0.670637
O O8 0.078508 0.675007 0.282912
O O9 0.957327 0.753497 0.547934
O O10 0.868248 0.053254 0.775741
O O11 0.372882 0.364822 0.283362
O O12 0.777123 0.119666 0.200788
O O13 0.757476 0.883432 0.865547
O O14 0.831006 0.335245 0.238203
O O15 0.000000 0.000000 0.000000
O O16 0.862514 0.557408 0.589675
O O17 0.500000 0.000000 0.000000
#
# Coordination Sequence:
#
# PCOD8002963 Si02
#       8
#     2   2   2   2   2   2   2   2
#     4  11  22  39  64  92 132 169 214 265 319 381
#     4  10  20  36  60  96 126 165 208 272 314 381
#     4  10  23  40  62  96 133 165 212 266 324 389
#     4  10  22  36  61  94 133 164 214 259 336 378
#     4  11  22  41  66  91 134 163 215 271 314 371
#     4  10  23  40  63 100 132 166 215 262 328 391
#     4  10  22  43  66  94 126 173 223 265 312 376
#     4  10  23  41  66  95 129 176 213 259 328 377
#
# _framework density 23.54984
#
# number of rings (size 3 to 8) (size 9 to 14) (size 15 to 20)
#    0.000    1.750    3.750    0.375    3.500    4.500 
#    0.000    2.500    0.000    6.000    0.000    0.000 
#    0.000    0.000    0.000    0.000    0.000    0.000 
#
# Total GULP energy -198248.551167 kJ/mol
# GULP energy per Si atom -12390.534448 kJ/mol
# Density = 2.349624 g / cm^3
# Si number density = 23.549840 Si / 1000 Ang^3
#
#
#
# Elastic Constant Matrix: (Units=GPa)
#
#
# Indices 1 2 3 4 5 6 
#
# 1 37.3067 19.1020 13.8709 -4.1591 -1.5433 7.6703
# 2 19.1020 101.2897 32.7125 -14.2300 7.1621 16.5968
# 3 13.8709 32.7125 128.4329 -16.6703 -11.5678 5.9385
# 4 -4.1591 -14.2300 -16.6703 33.3237 -0.9055 0.8398
# 5 -1.5433 7.1621 -11.5678 -0.9055 33.5173 -0.0235
# 6 7.6703 16.5968 5.9385 0.8398 -0.0235 21.2158
#
#
#
# Elastic Compliance Matrix: (Units=1/GPa)
#
#
# Indices 1 2 3 4 5 6 
#
# 1 0.031317 -0.003997 -0.001632 0.001630 0.001771 -0.007801
# 2 -0.003997 0.013728 -0.002454 0.004252 -0.003856 -0.008779
# 3 -0.001632 -0.002454 0.009403 0.003562 0.003791 -0.000259
# 4 0.001630 0.004252 0.003562 0.034003 0.001310 -0.006257
# 5 0.001771 -0.003856 0.003791 0.001310 0.032085 0.001298
# 6 -0.007801 -0.008779 -0.000259 -0.006257 0.001298 0.057145
#
#
# Mechanical properties :
#
#
# Convention : Reuss Voigt Hill
#
# Bulk Modulus (GPa) = 26.12261 44.26668 35.19464
# Shear Modulus (GPa) = 24.20040 31.03430 27.61735
#
# Velocity S-wave (km/s) = 3.20914 3.63411 3.42821
# Velocity P-wave (km/s) = 4.98477 6.03712 5.53601
#
# Compressibility (1/GPa) = 0.03828102
#
# Stress axis : x y z
#
# Youngs Moduli (GPa) = 31.93131 72.84616 106.34583
#
# Poissons Ratio (x) = 0.29115 0.17360
# Poissons Ratio (y) = 0.12762 0.26100
# Poissons Ratio (z) = 0.05213 0.17878
#
# Static dielectric constant tensor:
#      x y z
#    x 4.498530 -0.158350 1.036960 
#    y -0.158350 4.048870 -0.487150 
#    z 1.036960 -0.487150 6.978290 
# 
# 
# High freq. dielectric constant tensor:
#      x y z
#    x 1.921300 -0.002860 -0.013660 
#    y -0.002860 1.917580 -0.008070 
#    z -0.013660 -0.008070 1.938850 
# 
# From -- ./inp_files/457748.got.cif
#   From: 2010.06.25/outbox.cif.g09.slc.cpg/sg2_229_cif.got.tgz:457748.got - 2010.06.27 13:26:56.
