data_PCOD8002318
_publ_section_title
;
Structure prediction by ZEFSAII (Michael W. Deem and Ramdas Pophale) SiO2 
 PCOD8002318
Probable space group: P -1
;
_chemical_formula_sum "Si O2"
_cell_formula_units_Z 16
_cell_length_a 10.810372
_cell_length_b 14.549337
_cell_length_c 8.989248
_cell_angle_alpha 141.174528
_cell_angle_beta 124.589732
_cell_angle_gamma 56.273089
_cell_volume 712.042506
_symmetry_space_group_name_H-M "P -1"
_symmetry_group_IT_number 2
_symmetry_cell_setting 'triclinic'
loop_
_space_group_symop_operation_xyz
x,y,z
-x,-y,-z
loop_
_atom_site_type_symbol
_atom_site_label
_atom_site_fract_x
_atom_site_fract_y
_atom_site_fract_z
Si Si1 0.423639 0.914464 0.220715
Si Si2 0.903801 0.183693 0.532959
Si Si3 0.227407 0.708216 0.960204
Si Si4 0.605302 0.338077 0.689712
Si Si5 0.246935 0.592702 0.515095
Si Si6 0.395288 0.117793 0.187474
Si Si7 0.927073 0.843220 0.098346
Si Si8 0.429138 0.376642 0.175340
O O1 0.279947 0.852402 0.108139
O O2 0.500000 0.000000 0.500000
O O3 0.353473 0.026655 0.184096
O O4 0.567850 0.783923 0.097944
O O5 0.750581 0.223272 0.576050
O O6 0.893926 0.297294 0.528718
O O7 0.043194 0.194744 0.753733
O O8 0.925985 0.015671 0.276830
O O9 0.357755 0.636790 0.079413
O O10 0.058952 0.744342 0.961371
O O11 0.219193 0.591360 0.671470
O O12 0.465424 0.255766 0.466578
O O13 0.572399 0.502083 0.802622
O O14 0.284638 0.425962 0.253804
O O15 0.406432 0.647276 0.654498
O O16 0.235892 0.195064 0.097022
O O17 0.500000 0.000000 0.000000
#
# Coordination Sequence:
#
# PCOD8002318 Si02
#       8
#     2   2   2   2   2   2   2   2
#     4  11  23  40  60  98 132 152 204 270 309 361
#     4   9  18  34  56  86 120 163 214 244 298 377
#     4  10  21  37  60  94 128 161 207 253 312 373
#     4  10  20  38  59  95 124 162 210 255 306 376
#     4   9  18  33  58  89 116 156 211 250 283 371
#     4  12  24  38  61  95 128 159 211 267 305 361
#     4  10  20  35  59  88 122 174 200 257 315 369
#     4   9  20  36  63  91 123 168 205 247 315 368
#
# _framework density 22.470569000000001
#
# number of rings (size 3 to 8) (size 9 to 14) (size 15 to 20)
#    0.000    2.000    2.500    1.500    5.250    4.000 
#    0.000    0.000    0.000    3.750   16.250    0.000 
#    0.000    0.000    0.000    0.000    0.000    0.000 
#
# Total GULP energy -198307.545593 kJ/mol
# GULP energy per Si atom -12394.221600 kJ/mol
# Density = 2.241943 g / cm^3
# Si number density = 22.470569 Si / 1000 Ang^3
#
#
#
# Elastic Constant Matrix: (Units=GPa)
#
#
# Indices 1 2 3 4 5 6 
#
# 1 51.9133 24.0267 38.1216 -17.2238 -3.6204 -3.8724
# 2 24.0267 118.3046 63.6636 -25.1011 2.3809 -3.2474
# 3 38.1216 63.6636 132.6318 -15.1984 -19.6075 -7.4053
# 4 -17.2238 -25.1011 -15.1984 42.1962 -2.8000 -3.3433
# 5 -3.6204 2.3809 -19.6075 -2.8000 33.0031 -2.2072
# 6 -3.8724 -3.2474 -7.4053 -3.3433 -2.2072 36.4521
#
#
#
# Elastic Compliance Matrix: (Units=1/GPa)
#
#
# Indices 1 2 3 4 5 6 
#
# 1 0.027319 0.000032 -0.006726 0.008928 -0.000086 0.002352
# 2 0.000032 0.013021 -0.006277 0.005227 -0.004214 0.000112
# 3 -0.006726 -0.006277 0.013655 -0.000888 0.007879 0.001896
# 4 0.008928 0.005227 -0.000888 0.030664 0.002959 0.004225
# 5 -0.000086 -0.004214 0.007879 0.002959 0.035771 0.003653
# 6 0.002352 0.000112 0.001896 0.004225 0.003653 0.028687
#
#
# Mechanical properties :
#
#
# Convention : Reuss Voigt Hill
#
# Bulk Modulus (GPa) = 35.64743 61.60817 48.62780
# Shear Modulus (GPa) = 27.11364 34.13280 30.62322
#
# Velocity S-wave (km/s) = 3.47743 3.90166 3.69564
# Velocity P-wave (km/s) = 5.65878 6.91188 6.31648
#
# Compressibility (1/GPa) = 0.02805252
#
# Stress axis : x y z
#
# Youngs Moduli (GPa) = 36.60499 76.79817 73.23532
#
# Poissons Ratio (x) = -0.00243 0.49255
# Poissons Ratio (y) = -0.00116 0.45970
# Poissons Ratio (z) = 0.24619 0.48206
#
# Static dielectric constant tensor:
#      x y z
#    x 3.801120 -0.104900 -0.368990 
#    y -0.104900 4.185190 -0.233210 
#    z -0.368990 -0.233210 4.239860 
# 
# 
# High freq. dielectric constant tensor:
#      x y z
#    x 1.852270 -0.001180 -0.027620 
#    y -0.001180 1.897730 -0.011940 
#    z -0.027620 -0.011940 1.886470 
# 
# From -- ./inp_files/274762.got.cif
#   From: 2010.06.25/outbox.cif.g09.slc.cpg/sg2_138_cif.got.tgz:274762.got - 2010.06.27 13:26:56.
