data_PCOD8002826
_publ_section_title
;
Structure prediction by ZEFSAII (Michael W. Deem and Ramdas Pophale) SiO2 
 PCOD8002826
Probable space group: P -1
;
_chemical_formula_sum "Si O2"
_cell_formula_units_Z 14
_cell_length_a 14.081698
_cell_length_b 6.067490
_cell_length_c 9.303037
_cell_angle_alpha 61.348353
_cell_angle_beta 67.662845
_cell_angle_gamma 69.308105
_cell_volume 630.688602
_symmetry_space_group_name_H-M "P -1"
_symmetry_group_IT_number 2
_symmetry_cell_setting 'triclinic'
loop_
_space_group_symop_operation_xyz
x,y,z
-x,-y,-z
loop_
_atom_site_type_symbol
_atom_site_label
_atom_site_fract_x
_atom_site_fract_y
_atom_site_fract_z
Si Si1 0.682096 0.887770 0.308511
Si Si2 0.580065 0.427481 0.102801
Si Si3 0.943446 0.293173 0.926744
Si Si4 0.133518 0.531081 0.773926
Si Si5 0.247456 0.467936 0.204625
Si Si6 0.607070 0.457758 0.638367
Si Si7 0.247244 0.938812 0.492494
O O1 0.770117 0.714022 0.212782
O O2 0.604308 0.720963 0.471839
O O3 0.616601 0.118574 0.180019
O O4 0.738199 0.012826 0.363819
O O5 0.514031 0.535471 0.249849
O O6 0.500000 0.500000 0.000000
O O7 0.678618 0.559549 0.972601
O O8 0.859771 0.326676 0.833649
O O9 0.029138 0.462373 0.789020
O O10 0.881838 0.391508 0.076122
O O11 0.000000 0.000000 0.000000
O O12 0.159904 0.763138 0.589090
O O13 0.309689 0.563442 0.270826
O O14 0.212536 0.201979 0.342372
O O15 0.643345 0.213490 0.591472
#
# Coordination Sequence:
#
# PCOD8002826 Si02
#       7
#     2   2   2   2   2   2   2
#     4  10  20  40  61  84 120 154 192 239 285 343
#     4  10  20  36  59  87 119 155 193 238 286 337
#     4  11  23  40  62  89 115 148 193 239 293 349
#     4  10  22  39  63  86 113 154 191 235 294 347
#     4  10  22  38  58  86 120 151 190 244 288 340
#     4   9  21  38  60  86 116 157 196 237 287 335
#     4  10  21  39  59  85 118 154 195 235 285 343
#
# _framework density 22.197959000000001
#
# number of rings (size 3 to 8) (size 9 to 14) (size 15 to 20)
#    0.000    2.000    0.000    3.000    0.000    6.286 
#    0.000   15.714    0.000    0.000    0.000    0.000 
#    0.000    0.000    0.000    0.000    0.000    0.000 
#
# Total GULP energy -173561.527186 kJ/mol
# GULP energy per Si atom -12397.251942 kJ/mol
# Density = 2.214744 g / cm^3
# Si number density = 22.197959 Si / 1000 Ang^3
#
#
#
# Elastic Constant Matrix: (Units=GPa)
#
#
# Indices 1 2 3 4 5 6 
#
# 1 83.4767 42.9627 53.1015 -16.7278 2.5558 -22.9249
# 2 42.9627 136.1648 61.6410 -1.8476 1.5553 -18.7977
# 3 53.1015 61.6410 121.4814 -15.9472 -10.4889 -21.2709
# 4 -16.7278 -1.8476 -15.9472 41.9146 -12.2084 1.4215
# 5 2.5558 1.5553 -10.4889 -12.2084 32.8911 -2.2790
# 6 -22.9249 -18.7977 -21.2709 1.4215 -2.2790 29.3103
#
#
#
# Elastic Compliance Matrix: (Units=1/GPa)
#
#
# Indices 1 2 3 4 5 6 
#
# 1 0.020620 -0.002680 -0.005097 0.005747 -0.000246 0.010412
# 2 -0.002680 0.010414 -0.004572 -0.003223 -0.002855 0.001199
# 3 -0.005097 -0.004572 0.014916 0.005544 0.007721 0.004237
# 4 0.005747 -0.003223 0.005544 0.031917 0.013735 0.005972
# 5 -0.000246 -0.002855 0.007721 0.013735 0.038527 0.005909
# 6 0.010412 0.001199 0.004237 0.005972 0.005909 0.046275
#
#
# Mechanical properties :
#
#
# Convention : Reuss Voigt Hill
#
# Bulk Modulus (GPa) = 47.05764 72.94815 60.00289
# Shear Modulus (GPa) = 25.71343 33.05103 29.38223
#
# Velocity S-wave (km/s) = 3.40717 3.86284 3.64214
# Velocity P-wave (km/s) = 6.06000 7.26838 6.69152
#
# Compressibility (1/GPa) = 0.02125054
#
# Stress axis : x y z
#
# Youngs Moduli (GPa) = 48.49732 96.02529 67.04195
#
# Poissons Ratio (x) = 0.25739 0.34171
# Poissons Ratio (y) = 0.12999 0.30653
# Poissons Ratio (z) = 0.24719 0.43905
#
# Static dielectric constant tensor:
#      x y z
#    x 4.005830 -0.166270 -0.483780 
#    y -0.166270 4.065400 0.106710 
#    z -0.483780 0.106710 4.533250 
# 
# 
# High freq. dielectric constant tensor:
#      x y z
#    x 1.861010 -0.010740 -0.017750 
#    y -0.010740 1.869120 -0.001950 
#    z -0.017750 -0.001950 1.887550 
# 
# From -- ./inp_files/27095.got.cif
#   From: 2010.06.25/outbox.cif.g09.slc.cpg/sg2_14_cif.got.tgz:27095.got - 2010.06.27 13:26:56.
