data_PCOD8002443
_publ_section_title
;
Structure prediction by ZEFSAII (Michael W. Deem and Ramdas Pophale) SiO2 
 PCOD8002443
Probable space group: P -1
;
_chemical_formula_sum "Si O2"
_cell_formula_units_Z 14
_cell_length_a 16.546869
_cell_length_b 8.338925
_cell_length_c 13.381909
_cell_angle_alpha 125.829373
_cell_angle_beta 152.613750
_cell_angle_gamma 48.571693
_cell_volume 636.820626
_symmetry_space_group_name_H-M "P -1"
_symmetry_group_IT_number 2
_symmetry_cell_setting 'triclinic'
loop_
_space_group_symop_operation_xyz
x,y,z
-x,-y,-z
loop_
_atom_site_type_symbol
_atom_site_label
_atom_site_fract_x
_atom_site_fract_y
_atom_site_fract_z
Si Si1 0.786413 0.164059 0.936527
Si Si2 0.651479 0.909454 0.342367
Si Si3 0.853716 0.691455 0.847119
Si Si4 0.637314 0.272398 0.025568
Si Si5 0.071855 0.401794 0.326061
Si Si6 0.974682 0.712252 0.487899
Si Si7 0.545651 0.269079 0.508707
O O1 0.676557 0.221290 0.732202
O O2 0.898851 0.906420 0.974869
O O3 0.642733 0.264318 0.907240
O O4 0.944309 0.263321 0.147572
O O5 0.744100 0.703173 0.440528
O O6 0.776756 0.894807 0.374375
O O7 0.645802 0.116153 0.471173
O O8 0.444451 0.903763 0.087849
O O9 0.861089 0.593223 0.710241
O O10 0.643554 0.767457 0.686475
O O11 0.000000 0.500000 0.000000
O O12 0.852483 0.208661 0.277544
O O13 0.500000 0.500000 0.000000
O O14 0.963515 0.647330 0.335750
O O15 0.000000 0.500000 0.500000
O O16 0.500000 0.500000 0.500000
#
# Coordination Sequence:
#
# PCOD8002443 Si02
#       7
#     2   2   2   2   2   2   2
#     4  12  23  41  68  99 131 178 218 272 343 388
#     4  11  21  40  64  97 135 169 223 272 329 396
#     4  12  26  42  66  99 134 174 223 277 335 397
#     4  12  20  35  66  99 131 174 224 269 327 402
#     4  11  21  39  67  99 131 171 220 269 334 399
#     4  10  20  35  62 102 126 171 222 269 327 396
#     4  12  27  43  66  99 133 178 222 278 333 394
#
# _framework density 21.984213
#
# number of rings (size 3 to 8) (size 9 to 14) (size 15 to 20)
#    0.000    0.571    8.571    2.571    2.000    0.000 
#    0.000    0.000    3.143    4.286    3.714    0.000 
#    0.000    0.000    0.000    0.000    0.000    0.000 
#
# Total GULP energy -173555.879594 kJ/mol
# GULP energy per Si atom -12396.848542 kJ/mol
# Density = 2.193418 g / cm^3
# Si number density = 21.984213 Si / 1000 Ang^3
#
#
#
# Elastic Constant Matrix: (Units=GPa)
#
#
# Indices 1 2 3 4 5 6 
#
# 1 88.3509 62.7223 29.7579 5.1969 6.8158 -38.1376
# 2 62.7223 116.7978 45.4259 13.4516 -17.9813 -24.5515
# 3 29.7579 45.4259 104.4355 21.8754 20.2976 4.6014
# 4 5.1969 13.4516 21.8754 33.6673 1.0948 -7.5711
# 5 6.8158 -17.9813 20.2976 1.0948 39.7697 5.1370
# 6 -38.1376 -24.5515 4.6014 -7.5711 5.1370 47.4474
#
#
#
# Elastic Compliance Matrix: (Units=1/GPa)
#
#
# Indices 1 2 3 4 5 6 
#
# 1 0.033094 -0.015282 -0.002667 0.008093 -0.014257 0.021786
# 2 -0.015282 0.022429 -0.008177 -0.002330 0.017272 -0.002127
# 3 -0.002667 -0.008177 0.018548 -0.009923 -0.011332 -0.008530
# 4 0.008093 -0.002330 -0.009923 0.038628 -0.000045 0.012431
# 5 -0.014257 0.017272 -0.011332 -0.000045 0.041954 -0.005973
# 6 0.021786 -0.002127 -0.008530 0.012431 -0.005973 0.040945
#
#
# Mechanical properties :
#
#
# Convention : Reuss Voigt Hill
#
# Bulk Modulus (GPa) = 45.82884 65.04405 55.43644
# Shear Modulus (GPa) = 19.59837 35.62208 27.61023
#
# Velocity S-wave (km/s) = 2.98900 4.02972 3.54773
# Velocity P-wave (km/s) = 5.72745 7.16258 6.48483
#
# Compressibility (1/GPa) = 0.02182032
#
# Stress axis : x y z
#
# Youngs Moduli (GPa) = 30.21681 44.58473 53.91317
#
# Poissons Ratio (x) = 0.68136 0.14377
# Poissons Ratio (y) = 0.46179 0.44083
# Poissons Ratio (z) = 0.08058 0.36455
#
# Static dielectric constant tensor:
#      x y z
#    x 6.955780 -1.055630 0.939770 
#    y -1.055630 4.125810 0.199410 
#    z 0.939770 0.199410 4.315770 
# 
# 
# High freq. dielectric constant tensor:
#      x y z
#    x 1.874600 -0.038270 0.019000 
#    y -0.038270 1.852510 0.030500 
#    z 0.019000 0.030500 1.862230 
# 
# From -- ./inp_files/448114.got.cif
#   From: 2010.06.25/outbox.cif.g09.slc.cpg/sg2_225_cif.got.tgz:448114.got - 2010.06.27 13:26:56.
