data_PCOD8002612
_publ_section_title
;
Structure prediction by ZEFSAII (Michael W. Deem and Ramdas Pophale) SiO2 
 PCOD8002612
Probable space group: P -1
;
_chemical_formula_sum "Si O2"
_cell_formula_units_Z 16
_cell_length_a 11.067463
_cell_length_b 27.939159
_cell_length_c 14.335552
_cell_angle_alpha 157.413485
_cell_angle_beta 31.262863
_cell_angle_gamma 150.267354
_cell_volume 810.972459
_symmetry_space_group_name_H-M "P -1"
_symmetry_group_IT_number 2
_symmetry_cell_setting 'triclinic'
loop_
_space_group_symop_operation_xyz
x,y,z
-x,-y,-z
loop_
_atom_site_type_symbol
_atom_site_label
_atom_site_fract_x
_atom_site_fract_y
_atom_site_fract_z
Si Si1 0.275442 0.041044 0.844938
Si Si2 0.729881 0.549720 0.011156
Si Si3 0.968704 0.388011 0.244268
Si Si4 0.373246 0.098301 0.676713
Si Si5 0.516832 0.849646 0.908417
Si Si6 0.394317 0.294931 0.862132
Si Si7 0.287500 0.059268 0.381407
Si Si8 0.874548 0.853952 0.532238
O O1 0.313412 0.119409 0.862155
O O2 0.355018 0.912967 0.540259
O O3 0.467852 0.142388 0.975514
O O4 0.000000 0.000000 0.000000
O O5 0.637962 0.440167 0.958907
O O6 0.957722 0.547921 0.792824
O O7 0.500000 0.500000 0.000000
O O8 0.822892 0.700077 0.262597
O O9 0.674974 0.294309 0.261928
O O10 0.000000 0.500000 0.500000
O O11 0.132473 0.304111 0.018994
O O12 0.366096 0.230415 0.867756
O O13 0.168750 0.955858 0.513791
O O14 0.788700 0.867322 0.718274
O O15 0.429131 0.961616 0.126890
O O16 0.451277 0.195739 0.574667
O O17 0.291917 0.094651 0.333420
O O18 0.000000 0.000000 0.500000
#
# Coordination Sequence:
#
# PCOD8002612 Si02
#       8
#     2   2   2   2   2   2   2   2
#     4  11  23  42  62  93 121 164 218 264 308 362
#     4  10  20  36  56  83 127 166 195 235 311 387
#     4  11  22  38  60  93 130 166 202 248 315 390
#     4  11  23  41  67  89 125 164 208 272 311 353
#     4  12  22  36  62  93 123 161 211 261 308 373
#     4  11  21  38  60  91 129 163 199 251 321 375
#     4  12  19  34  57  91 128 154 196 256 321 378
#     4  12  21  37  61  92 124 166 198 250 323 382
#
# _framework density 19.729398
#
# number of rings (size 3 to 8) (size 9 to 14) (size 15 to 20)
#    0.000    0.750    7.500    2.625    0.000    0.000 
#    2.250    0.000    0.000    9.750    0.000    0.000 
#    0.000    0.000    0.000    0.000    0.000    0.000 
#
# Total GULP energy -198275.432359 kJ/mol
# GULP energy per Si atom -12392.214522 kJ/mol
# Density = 1.968449 g / cm^3
# Si number density = 19.729398 Si / 1000 Ang^3
#
#
#
# Elastic Constant Matrix: (Units=GPa)
#
#
# Indices 1 2 3 4 5 6 
#
# 1 97.7083 43.1376 29.9283 6.7763 16.7782 -27.5310
# 2 43.1376 113.8697 55.9540 5.8628 -5.6458 -17.6668
# 3 29.9283 55.9540 93.1363 -0.4618 21.2221 -2.9781
# 4 6.7763 5.8628 -0.4618 42.7168 0.3911 3.1095
# 5 16.7782 -5.6458 21.2221 0.3911 28.2155 -6.4280
# 6 -27.5310 -17.6668 -2.9781 3.1095 -6.4280 30.5943
#
#
#
# Elastic Compliance Matrix: (Units=1/GPa)
#
#
# Indices 1 2 3 4 5 6 
#
# 1 0.017318 -0.004927 -0.000338 -0.002814 -0.008435 0.011220
# 2 -0.004927 0.021544 -0.016008 -0.003379 0.021925 0.011399
# 3 -0.000338 -0.016008 0.025863 0.003691 -0.025410 -0.012744
# 4 -0.002814 -0.003379 0.003691 0.024938 -0.003824 -0.007462
# 5 -0.008435 0.021925 -0.025410 -0.003824 0.067941 0.017260
# 6 0.011220 0.011399 -0.012744 -0.007462 0.017260 0.052509
#
#
# Mechanical properties :
#
#
# Convention : Reuss Voigt Hill
#
# Bulk Modulus (GPa) = 45.08687 62.52823 53.80755
# Shear Modulus (GPa) = 19.22677 32.01828 25.62252
#
# Velocity S-wave (km/s) = 3.12512 4.03286 3.60765
# Velocity P-wave (km/s) = 5.99367 7.31074 6.68472
#
# Compressibility (1/GPa) = 0.02217940
#
# Stress axis : x y z
#
# Youngs Moduli (GPa) = 57.74190 46.41642 38.66457
#
# Poissons Ratio (x) = 0.22870 0.01308
# Poissons Ratio (y) = 0.28450 0.61894
# Poissons Ratio (z) = 0.01953 0.74303
#
# Static dielectric constant tensor:
#      x y z
#    x 3.710170 -0.151420 0.056840 
#    y -0.151420 4.128050 -0.088860 
#    z 0.056840 -0.088860 4.028360 
# 
# 
# High freq. dielectric constant tensor:
#      x y z
#    x 1.755660 -0.007260 0.018210 
#    y -0.007260 1.772360 -0.010520 
#    z 0.018210 -0.010520 1.760520 
# 
# From -- ./inp_files/458393.got.cif
#   From: 2010.06.25/outbox.cif.g09.slc.cpg/sg2_230_cif.got.tgz:458393.got - 2010.06.27 13:26:56.
