data_PCOD8002725
_publ_section_title
;
Structure prediction by ZEFSAII (Michael W. Deem and Ramdas Pophale) SiO2 
 PCOD8002725
Probable space group: P -1
;
_chemical_formula_sum "Si O2"
_cell_formula_units_Z 16
_cell_length_a 10.639006
_cell_length_b 19.732312
_cell_length_c 10.599255
_cell_angle_alpha 147.861846
_cell_angle_beta 138.427737
_cell_angle_gamma 50.998058
_cell_volume 785.395698
_symmetry_space_group_name_H-M "P -1"
_symmetry_group_IT_number 2
_symmetry_cell_setting 'triclinic'
loop_
_space_group_symop_operation_xyz
x,y,z
-x,-y,-z
loop_
_atom_site_type_symbol
_atom_site_label
_atom_site_fract_x
_atom_site_fract_y
_atom_site_fract_z
Si Si1 0.467272 0.291887 0.214229
Si Si2 0.138004 0.481265 0.245340
Si Si3 0.903067 0.887362 0.823365
Si Si4 0.289789 0.024719 0.694593
Si Si5 0.109331 0.952599 0.695743
Si Si6 0.493952 0.110604 0.564668
Si Si7 0.745380 0.286774 0.182360
Si Si8 0.171662 0.664668 0.331993
O O1 0.316393 0.392328 0.206586
O O2 0.615145 0.255158 0.157136
O O3 0.598062 0.346737 0.515463
O O4 0.357019 0.169717 0.990517
O O5 0.200410 0.561047 0.543688
O O6 0.099498 0.589731 0.283296
O O7 0.942315 0.396675 0.971299
O O8 0.719091 0.839506 0.532129
O O9 0.049460 0.774674 0.762574
O O10 0.839322 0.939640 0.994047
O O11 0.000000 0.000000 0.000000
O O12 0.260971 0.963271 0.713472
O O13 0.444391 0.944171 0.609947
O O14 0.099709 0.018711 0.462370
O O15 0.116511 0.811926 0.538114
O O16 0.500000 0.000000 0.500000
O O17 0.625479 0.233014 0.889765
#
# Coordination Sequence:
#
# PCOD8002725 Si02
#       8
#     2   2   2   2   2   2   2   2
#     4  11  21  37  61  89 122 156 201 253 297 358
#     4  10  22  37  57  88 121 159 203 252 296 346
#     4  12  22  36  58  87 122 157 196 247 305 355
#     4  11  22  40  63  92 124 158 202 248 307 367
#     4  11  23  39  64  90 123 163 197 252 309 360
#     4  12  22  37  60  88 124 158 195 250 305 360
#     4  11  22  35  56  88 120 154 198 244 303 350
#     4  10  20  36  58  85 118 156 199 249 298 352
#
# _framework density 20.371896
#
# number of rings (size 3 to 8) (size 9 to 14) (size 15 to 20)
#    0.000    1.000    5.000    3.750    0.000    6.000 
#    0.000    0.000    0.000    3.000    0.000    6.125 
#    0.000    0.000    0.000    0.000    0.000    0.000 
#
# Total GULP energy -198259.126384 kJ/mol
# GULP energy per Si atom -12391.195399 kJ/mol
# Density = 2.032553 g / cm^3
# Si number density = 20.371896 Si / 1000 Ang^3
#
#
#
# Elastic Constant Matrix: (Units=GPa)
#
#
# Indices 1 2 3 4 5 6 
#
# 1 81.8066 37.9541 32.0209 -4.0035 -3.7836 -11.7573
# 2 37.9541 92.5666 46.2582 -7.6475 -1.8871 -19.9680
# 3 32.0209 46.2582 143.0892 -12.9105 -2.7449 -16.9269
# 4 -4.0035 -7.6475 -12.9105 37.5107 -7.7544 4.7417
# 5 -3.7836 -1.8871 -2.7449 -7.7544 20.1833 -2.6484
# 6 -11.7573 -19.9680 -16.9269 4.7417 -2.6484 22.1364
#
#
#
# Elastic Compliance Matrix: (Units=1/GPa)
#
#
# Indices 1 2 3 4 5 6 
#
# 1 0.015677 -0.004965 -0.001463 0.000360 0.002806 0.002987
# 2 -0.004965 0.016609 -0.002937 0.000963 0.001921 0.010122
# 3 -0.001463 -0.002937 0.008879 0.002313 0.001954 0.003101
# 4 0.000360 0.000963 0.002313 0.030430 0.011865 -0.002271
# 5 0.002806 0.001921 0.001954 0.011865 0.056244 0.008905
# 6 0.002987 0.010122 0.003101 -0.002271 0.008905 0.059815
#
#
# Mechanical properties :
#
#
# Convention : Reuss Voigt Hill
#
# Bulk Modulus (GPa) = 44.57700 61.10322 52.84011
# Shear Modulus (GPa) = 23.37950 29.38135 26.38043
#
# Velocity S-wave (km/s) = 3.39135 3.80182 3.60243
# Velocity P-wave (km/s) = 6.10444 7.02358 6.58008
#
# Compressibility (1/GPa) = 0.02243310
#
# Stress axis : x y z
#
# Youngs Moduli (GPa) = 63.78722 60.20868 112.63009
#
# Poissons Ratio (x) = 0.29895 0.16483
# Poissons Ratio (y) = 0.31672 0.33080
# Poissons Ratio (z) = 0.09335 0.17684
#
# Static dielectric constant tensor:
#      x y z
#    x 3.339280 -0.041030 0.094850 
#    y -0.041030 3.531530 -0.366500 
#    z 0.094850 -0.366500 4.566900 
# 
# 
# High freq. dielectric constant tensor:
#      x y z
#    x 1.753580 -0.028670 0.008270 
#    y -0.028670 1.789050 -0.018280 
#    z 0.008270 -0.018280 1.821250 
# 
# From -- ./inp_files/438546.got.cif
#   From: 2010.06.25/outbox.cif.g09.slc.cpg/sg2_220_cif.got.tgz:438546.got - 2010.06.27 13:26:56.
