data_PCOD8002613
_publ_section_title
;
Structure prediction by ZEFSAII (Michael W. Deem and Ramdas Pophale) SiO2 
 PCOD8002613
Probable space group: P -1
;
_chemical_formula_sum "Si O2"
_cell_formula_units_Z 14
_cell_length_a 24.562243
_cell_length_b 15.581103
_cell_length_c 9.238721
_cell_angle_alpha 150.807702
_cell_angle_beta 28.043298
_cell_angle_gamma 151.772938
_cell_volume 710.247462
_symmetry_space_group_name_H-M "P -1"
_symmetry_group_IT_number 2
_symmetry_cell_setting 'triclinic'
loop_
_space_group_symop_operation_xyz
x,y,z
-x,-y,-z
loop_
_atom_site_type_symbol
_atom_site_label
_atom_site_fract_x
_atom_site_fract_y
_atom_site_fract_z
Si Si1 0.970755 0.460484 0.180852
Si Si2 0.081774 0.209142 0.699495
Si Si3 0.670747 0.183847 0.476330
Si Si4 0.369384 0.516168 0.809295
Si Si5 0.626728 0.526968 0.580407
Si Si6 0.074377 0.216719 0.072260
Si Si7 0.474100 0.746828 0.327245
O O1 0.825100 0.275906 0.268268
O O2 0.984806 0.652720 0.519376
O O3 0.000000 0.500000 0.000000
O O4 0.064102 0.386499 0.928288
O O5 0.235850 0.276743 0.411384
O O6 0.046064 0.192865 0.930696
O O7 0.000000 0.000000 0.500000
O O8 0.634494 0.215594 0.445126
O O9 0.609362 0.953933 0.328104
O O10 0.606607 0.284809 0.874700
O O11 0.500000 0.500000 0.500000
O O12 0.354018 0.556173 0.737872
O O13 0.232061 0.319404 0.889731
O O14 0.587966 0.339792 0.500348
O O15 0.510060 0.587058 0.931904
O O16 0.000000 0.000000 0.000000
#
# Coordination Sequence:
#
# PCOD8002613 Si02
#       7
#     2   2   2   2   2   2   2
#     4  11  22  39  61  87 122 157 201 241 301 353
#     4  11  22  39  61  87 122 157 201 241 301 353
#     4  10  21  37  59  83 116 152 192 240 290 347
#     4  10  20  40  59  84 117 152 192 241 296 346
#     4  10  21  37  59  83 116 152 192 240 290 347
#     4  10  23  41  61  90 120 160 202 249 300 358
#     4  10  20  36  56  84 116 146 196 236 288 340
#
# _framework density 19.711438999999999
#
# number of rings (size 3 to 8) (size 9 to 14) (size 15 to 20)
#    0.000    1.714    1.429    3.000    0.000    2.857 
#    5.143    0.000    0.000    0.000    0.000    0.000 
#    0.000    0.000    0.000    0.000    0.000    0.000 
#
# Total GULP energy -173555.997728 kJ/mol
# GULP energy per Si atom -12396.856981 kJ/mol
# Density = 1.966658 g / cm^3
# Si number density = 19.711439 Si / 1000 Ang^3
#
#
#
# Elastic Constant Matrix: (Units=GPa)
#
#
# Indices 1 2 3 4 5 6 
#
# 1 88.2532 42.2154 30.8974 3.4069 9.3156 -14.1871
# 2 42.2154 86.2969 23.3274 14.8047 8.0965 -26.9056
# 3 30.8974 23.3274 80.0189 2.3067 7.7825 -9.2497
# 4 3.4069 14.8047 2.3067 29.4334 5.1867 1.9844
# 5 9.3156 8.0965 7.7825 5.1867 30.5019 -4.8153
# 6 -14.1871 -26.9056 -9.2497 1.9844 -4.8153 34.6254
#
#
#
# Elastic Compliance Matrix: (Units=1/GPa)
#
#
# Indices 1 2 3 4 5 6 
#
# 1 0.016304 -0.007242 -0.004073 0.002558 -0.002537 -0.000535
# 2 -0.007242 0.021897 -0.001701 -0.011189 0.001005 0.014375
# 3 -0.004073 -0.001701 0.014828 0.000485 -0.002067 0.000656
# 4 0.002558 -0.011189 0.000485 0.041167 -0.006640 -0.010799
# 5 -0.002537 0.001005 -0.002067 -0.006640 0.035665 0.004530
# 6 -0.000535 0.014375 0.000656 -0.010799 0.004530 0.041255
#
#
# Mechanical properties :
#
#
# Convention : Reuss Voigt Hill
#
# Bulk Modulus (GPa) = 37.03990 49.71660 43.37825
# Shear Modulus (GPa) = 24.25430 29.45405 26.85418
#
# Velocity S-wave (km/s) = 3.51161 3.86976 3.69503
# Velocity P-wave (km/s) = 5.93917 6.72634 6.34498
#
# Compressibility (1/GPa) = 0.02699791
#
# Stress axis : x y z
#
# Youngs Moduli (GPa) = 61.33279 45.66732 67.43825
#
# Poissons Ratio (x) = 0.33074 0.27468
# Poissons Ratio (y) = 0.44420 0.11469
# Poissons Ratio (z) = 0.24981 0.07767
#
# Static dielectric constant tensor:
#      x y z
#    x 3.794620 0.062320 -0.051760 
#    y 0.062320 3.610000 -0.040160 
#    z -0.051760 -0.040160 4.071970 
# 
# 
# High freq. dielectric constant tensor:
#      x y z
#    x 1.774990 0.002060 0.003130 
#    y 0.002060 1.772670 -0.006200 
#    z 0.003130 -0.006200 1.771130 
# 
# From -- ./inp_files/171753.got.cif
#   From: 2010.06.25/outbox.cif.g09.slc.cpg/sg2_86_cif.got.tgz:171753.got - 2010.06.27 13:26:56.
