data_PCOD8002945
_publ_section_title
;
Structure prediction by ZEFSAII (Michael W. Deem and Ramdas Pophale) SiO2 
 PCOD8002945
Probable space group: P -1
;
_chemical_formula_sum "Si O2"
_cell_formula_units_Z 16
_cell_length_a 18.095934
_cell_length_b 9.556044
_cell_length_c 9.641373
_cell_angle_alpha 137.580738
_cell_angle_beta 64.637940
_cell_angle_gamma 136.251494
_cell_volume 757.741421
_symmetry_space_group_name_H-M "P -1"
_symmetry_group_IT_number 2
_symmetry_cell_setting 'triclinic'
loop_
_space_group_symop_operation_xyz
x,y,z
-x,-y,-z
loop_
_atom_site_type_symbol
_atom_site_label
_atom_site_fract_x
_atom_site_fract_y
_atom_site_fract_z
Si Si1 0.269527 0.502886 0.042607
Si Si2 0.869351 0.867243 0.350356
Si Si3 0.197337 0.809233 0.298901
Si Si4 0.642260 0.700904 0.655859
Si Si5 0.552142 0.314170 0.182964
Si Si6 0.224507 0.283970 0.217834
Si Si7 0.040403 0.647370 0.928046
Si Si8 0.879240 0.628633 0.435850
O O1 0.277222 0.763826 0.264927
O O2 0.252209 0.341277 0.076353
O O3 0.163057 0.323088 0.896013
O O4 0.369563 0.567932 0.927847
O O5 0.831741 0.689132 0.392084
O O6 0.808152 0.984806 0.460409
O O7 0.998359 0.101723 0.425124
O O8 0.072930 0.514055 0.181034
O O9 0.254861 0.975194 0.229040
O O10 0.617046 0.489626 0.399472
O O11 0.537801 0.661812 0.751029
O O12 0.672311 0.639155 0.729701
O O13 0.500000 0.000000 0.000000
O O14 0.200266 0.468900 0.439749
O O15 0.109596 0.973166 0.113775
O O16 0.123012 0.617772 0.775443
O O17 0.000000 0.500000 0.000000
#
# Coordination Sequence:
#
# PCOD8002945 Si02
#       8
#     2   2   2   2   2   2   2   2
#     4  12  25  39  64  94 134 164 209 269 331 364
#     4  10  20  37  62  89 127 172 216 258 295 375
#     4  11  20  38  66  92 126 171 211 255 302 379
#     4  11  23  43  71  91 122 161 221 267 313 381
#     4  11  24  45  72  94 112 165 223 267 318 386
#     4  12  25  41  60 101 137 166 203 266 320 377
#     4  11  21  36  65  97 129 172 218 246 298 383
#     4  10  20  36  60  92 127 174 219 249 300 369
#
# _framework density 21.115380999999999
#
# number of rings (size 3 to 8) (size 9 to 14) (size 15 to 20)
#    0.000    1.000    5.000    3.000    0.000    4.500 
#    0.000    3.125    0.000    0.000    0.000    0.000 
#    0.000    0.000    0.000    0.000    0.000    0.000 
#
# Total GULP energy -198237.584898 kJ/mol
# GULP energy per Si atom -12389.849056 kJ/mol
# Density = 2.106732 g / cm^3
# Si number density = 21.115381 Si / 1000 Ang^3
#
#
#
# Elastic Constant Matrix: (Units=GPa)
#
#
# Indices 1 2 3 4 5 6 
#
# 1 101.0590 47.6428 54.6119 -8.6557 -15.2854 5.6195
# 2 47.6428 84.1764 50.1140 -20.9670 -1.3926 -14.5559
# 3 54.6119 50.1140 98.0363 -14.0492 -14.8287 1.4150
# 4 -8.6557 -20.9670 -14.0492 32.6925 -0.0970 3.0025
# 5 -15.2854 -1.3926 -14.8287 -0.0970 41.4726 -7.1966
# 6 5.6195 -14.5559 1.4150 3.0025 -7.1966 16.4072
#
#
#
# Elastic Compliance Matrix: (Units=1/GPa)
#
#
# Indices 1 2 3 4 5 6 
#
# 1 0.018267 -0.010622 -0.004575 -0.002671 0.002345 -0.013768
# 2 -0.010622 0.030916 -0.008955 0.010453 -0.000933 0.029516
# 3 -0.004575 -0.008955 0.018138 0.001470 0.003331 -0.006750
# 4 -0.002671 0.010453 0.001470 0.036890 0.000599 0.003573
# 5 0.002345 -0.000933 0.003331 0.000599 0.027910 0.010215
# 6 -0.013768 0.029516 -0.006750 0.003573 0.010215 0.096258
#
#
# Mechanical properties :
#
#
# Convention : Reuss Voigt Hill
#
# Bulk Modulus (GPa) = 52.58878 65.33435 58.96156
# Shear Modulus (GPa) = 17.66640 26.84132 22.25386
#
# Velocity S-wave (km/s) = 2.89565 3.56922 3.24993
# Velocity P-wave (km/s) = 6.01159 6.92781 6.48590
#
# Compressibility (1/GPa) = 0.01901546
#
# Stress axis : x y z
#
# Youngs Moduli (GPa) = 54.74404 32.34623 55.13144
#
# Poissons Ratio (x) = 0.34359 0.25223
# Poissons Ratio (y) = 0.58151 0.49371
# Poissons Ratio (z) = 0.25046 0.28967
#
# Static dielectric constant tensor:
#      x y z
#    x 3.692360 0.013700 -0.158380 
#    y 0.013700 3.310530 0.191070 
#    z -0.158380 0.191070 4.062910 
# 
# 
# High freq. dielectric constant tensor:
#      x y z
#    x 1.833520 0.017240 -0.027290 
#    y 0.017240 1.791990 0.005010 
#    z -0.027290 0.005010 1.835360 
# 
# From -- ./inp_files/329573.got.cif
#   From: 2010.06.25/outbox.cif.g09.slc.cpg/sg2_165_cif.got.tgz:329573.got - 2010.06.27 13:26:56.
