data_PCOD8002373
_publ_section_title
;
Structure prediction by ZEFSAII (Michael W. Deem and Ramdas Pophale) SiO2 
 PCOD8002373
Probable space group: P -1
;
_chemical_formula_sum "Si O2"
_cell_formula_units_Z 16
_cell_length_a 31.110229
_cell_length_b 9.295531
_cell_length_c 16.102611
_cell_angle_alpha 45.914348
_cell_angle_beta 18.823507
_cell_angle_gamma 36.999223
_cell_volume 859.654915
_symmetry_space_group_name_H-M "P -1"
_symmetry_group_IT_number 2
_symmetry_cell_setting 'triclinic'
loop_
_space_group_symop_operation_xyz
x,y,z
-x,-y,-z
loop_
_atom_site_type_symbol
_atom_site_label
_atom_site_fract_x
_atom_site_fract_y
_atom_site_fract_z
Si Si1 0.176956 0.190404 0.654976
Si Si2 0.258434 0.560891 0.410312
Si Si3 0.406524 0.706549 0.657400
Si Si4 0.410738 0.089239 0.715233
Si Si5 0.393119 0.656128 0.418077
Si Si6 0.885470 0.363673 0.995107
Si Si7 0.462100 0.634053 0.890442
Si Si8 0.933963 0.989387 0.925317
O O1 0.213334 0.387140 0.526195
O O2 0.348527 0.922823 0.420688
O O3 0.045991 0.295023 0.777567
O O4 0.101712 0.162318 0.887024
O O5 0.411014 0.400797 0.258774
O O6 0.308414 0.657287 0.203554
O O7 0.105960 0.802087 0.639209
O O8 0.500000 0.500000 0.500000
O O9 0.469974 0.876757 0.461518
O O10 0.457787 0.570742 0.707641
O O11 0.208569 0.873245 0.940047
O O12 0.223947 0.346207 0.947630
O O13 0.500000 0.000000 0.500000
O O14 0.390333 0.890183 0.871051
O O15 0.223195 0.682100 0.728497
O O16 0.447033 0.599081 0.246557
O O17 0.941299 0.191815 0.880137
#
# Coordination Sequence:
#
# PCOD8002373 Si02
#       8
#     2   2   2   2   2   2   2   2
#     4  11  21  36  61  90 113 153 200 245 293 337
#     4  11  26  38  60  85 120 161 195 242 283 357
#     4  11  19  36  61  97 114 147 198 244 296 340
#     4  11  21  36  64  89 114 157 194 243 291 345
#     4  10  20  37  61  87 119 154 189 249 292 344
#     4  10  20  35  60  90 116 146 194 248 299 339
#     4  11  23  44  57  84 122 158 198 233 299 347
#     4  11  21  37  59  88 124 147 195 247 291 344
#
# _framework density 18.612120000000001
#
# number of rings (size 3 to 8) (size 9 to 14) (size 15 to 20)
#    0.000    1.250    6.250    4.125    1.750    0.500 
#    0.000    3.125    0.000    0.000    0.000    0.000 
#    0.000    0.000    0.000    0.000    0.000    0.000 
#
# Total GULP energy -198432.118925 kJ/mol
# GULP energy per Si atom -12402.007433 kJ/mol
# Density = 1.856976 g / cm^3
# Si number density = 18.612120 Si / 1000 Ang^3
#
#
#
# Elastic Constant Matrix: (Units=GPa)
#
#
# Indices 1 2 3 4 5 6 
#
# 1 104.6825 50.7353 51.7904 -8.0123 -3.7870 9.3510
# 2 50.7353 128.1789 71.9182 7.3466 13.8400 6.6179
# 3 51.7904 71.9182 105.1454 2.2797 9.6935 6.7299
# 4 -8.0123 7.3466 2.2797 20.1207 -3.2734 2.3652
# 5 -3.7870 13.8400 9.6935 -3.2734 35.5021 6.1463
# 6 9.3510 6.6179 6.7299 2.3652 6.1463 30.2004
#
#
#
# Elastic Compliance Matrix: (Units=1/GPa)
#
#
# Indices 1 2 3 4 5 6 
#
# 1 0.015691 -0.004252 -0.005332 0.010042 0.006554 -0.004859
# 2 -0.004252 0.014426 -0.007245 -0.007108 -0.004987 0.001341
# 3 -0.005332 -0.007245 0.017376 -0.001888 -0.002673 0.000058
# 4 0.010042 -0.007108 -0.001888 0.059280 0.011219 -0.008057
# 5 0.006554 -0.004987 -0.002673 0.011219 0.033983 -0.008136
# 6 -0.004859 0.001341 0.000058 -0.008057 -0.008136 0.036596
#
#
# Mechanical properties :
#
#
# Convention : Reuss Voigt Hill
#
# Bulk Modulus (GPa) = 72.27376 76.32162 74.29769
# Shear Modulus (GPa) = 23.18878 28.06884 25.62881
#
# Velocity S-wave (km/s) = 3.53356 3.88763 3.71482
# Velocity P-wave (km/s) = 7.45412 7.82605 7.64235
#
# Compressibility (1/GPa) = 0.01383628
#
# Stress axis : x y z
#
# Youngs Moduli (GPa) = 63.73188 69.31863 57.55080
#
# Poissons Ratio (x) = 0.29472 0.30683
# Poissons Ratio (y) = 0.27096 0.41696
# Poissons Ratio (z) = 0.33979 0.50222
#
# Static dielectric constant tensor:
#      x y z
#    x 4.373980 -0.205230 -0.300940 
#    y -0.205230 3.731460 0.216280 
#    z -0.300940 0.216280 3.352910 
# 
# 
# High freq. dielectric constant tensor:
#      x y z
#    x 1.736920 0.010760 -0.005960 
#    y 0.010760 1.729270 0.020220 
#    z -0.005960 0.020220 1.694930 
# 
# From -- ./inp_files/256228.got.cif
#   From: 2010.06.25/outbox.cif.g09.slc.cpg/sg2_129_cif.got.tgz:256228.got - 2010.06.27 13:26:56.
