data_PCOD8002103
_publ_section_title
;
Structure prediction by ZEFSAII (Michael W. Deem and Ramdas Pophale) SiO2 
 PCOD8002103
Probable space group: P -1
;
_chemical_formula_sum "Si O2"
_cell_formula_units_Z 14
_cell_length_a 8.975586
_cell_length_b 22.186782
_cell_length_c 22.369407
_cell_angle_alpha 18.346684
_cell_angle_beta 150.202573
_cell_angle_gamma 149.256354
_cell_volume 678.304916
_symmetry_space_group_name_H-M "P -1"
_symmetry_group_IT_number 2
_symmetry_cell_setting 'triclinic'
loop_
_space_group_symop_operation_xyz
x,y,z
-x,-y,-z
loop_
_atom_site_type_symbol
_atom_site_label
_atom_site_fract_x
_atom_site_fract_y
_atom_site_fract_z
Si Si1 0.343904 0.132232 0.186598
Si Si2 0.836792 0.961242 0.585497
Si Si3 0.625471 0.422297 0.238386
Si Si4 0.345968 0.476752 0.712490
Si Si5 0.666303 0.266660 0.645086
Si Si6 0.500680 0.091398 0.149128
Si Si7 0.953007 0.833845 0.412857
O O1 0.308425 0.078554 0.155123
O O2 0.656678 0.080011 0.367872
O O3 0.366086 0.362969 0.986936
O O4 0.037376 0.002792 0.232509
O O5 0.655925 0.734104 0.742357
O O6 0.172875 0.963539 0.674449
O O7 0.860523 0.068607 0.556168
O O8 0.578911 0.407840 0.307610
O O9 0.939668 0.360725 0.387419
O O10 0.444609 0.619366 0.556591
O O11 0.981359 0.381978 0.674896
O O12 0.543622 0.311277 0.931010
O O13 0.411206 0.231693 0.641393
O O14 0.700856 0.057370 0.828551
#
# Coordination Sequence:
#
# PCOD8002103 Si02
#       7
#     2   2   2   2   2   2   2
#     4  10  20  35  55  82 113 145 175 219 275 319
#     4  10  21  35  55  82 111 146 180 218 269 319
#     4  10  21  37  55  82 114 140 182 223 263 328
#     4  10  22  38  59  82 104 144 184 226 272 310
#     4  10  21  39  59  79 109 141 183 228 267 320
#     4  10  21  37  58  82 109 142 183 224 267 321
#     4  10  22  36  54  81 110 146 180 219 272 321
#
# _framework density 20.639685
#
# number of rings (size 3 to 8) (size 9 to 14) (size 15 to 20)
#    0.000    2.000    0.000    4.286    0.000   10.857 
#    0.000    2.857    0.000    0.000    0.000    0.000 
#    0.000    0.000    0.000    0.000    0.000    0.000 
#
# Total GULP energy -173600.897342 kJ/mol
# GULP energy per Si atom -12400.064096 kJ/mol
# Density = 2.059271 g / cm^3
# Si number density = 20.639685 Si / 1000 Ang^3
#
#
#
# Elastic Constant Matrix: (Units=GPa)
#
#
# Indices 1 2 3 4 5 6 
#
# 1 85.1675 11.2756 45.0064 -17.4319 -3.5383 3.1214
# 2 11.2756 49.4574 17.9001 -12.0076 8.9689 10.3446
# 3 45.0064 17.9001 120.4100 -21.2513 8.7805 1.6539
# 4 -17.4319 -12.0076 -21.2513 28.5731 -8.3092 1.5249
# 5 -3.5383 8.9689 8.7805 -8.3092 17.9190 -10.9164
# 6 3.1214 10.3446 1.6539 1.5249 -10.9164 28.2455
#
#
#
# Elastic Compliance Matrix: (Units=1/GPa)
#
#
# Indices 1 2 3 4 5 6 
#
# 1 0.017505 -0.003617 -0.005574 0.009226 0.015434 0.005183
# 2 -0.003617 0.031979 -0.000327 0.003916 -0.028452 -0.022501
# 3 -0.005574 -0.000327 0.011536 0.003223 -0.006755 -0.002724
# 4 0.009226 0.003916 0.003223 0.051646 0.024750 0.004135
# 5 0.015434 -0.028452 -0.006755 0.024750 0.121140 0.054592
# 6 0.005183 -0.022501 -0.002724 0.004135 0.054592 0.064107
#
#
# Mechanical properties :
#
#
# Convention : Reuss Voigt Hill
#
# Bulk Modulus (GPa) = 23.81815 44.82214 34.32015
# Shear Modulus (GPa) = 15.10832 27.00438 21.05635
#
# Velocity S-wave (km/s) = 2.70849 3.62107 3.19750
# Velocity P-wave (km/s) = 4.62020 6.26470 5.50421
#
# Compressibility (1/GPa) = 0.04198478
#
# Stress axis : x y z
#
# Youngs Moduli (GPa) = 57.12508 31.27036 86.68702
#
# Poissons Ratio (x) = 0.11310 0.48318
# Poissons Ratio (y) = 0.20661 0.02836
# Poissons Ratio (z) = 0.31841 0.01023
#
# Static dielectric constant tensor:
#      x y z
#    x 3.750530 -0.118390 0.071670 
#    y -0.118390 3.615500 -0.169860 
#    z 0.071670 -0.169860 3.830090 
# 
# 
# High freq. dielectric constant tensor:
#      x y z
#    x 1.810370 -0.007900 0.006550 
#    y -0.007900 1.801650 -0.014860 
#    z 0.006550 -0.014860 1.811030 
# 
# From -- ./inp_files/251364.got.cif
#   From: 2010.06.25/outbox.cif.g09.slc.cpg/sg2_126_cif.got.tgz:251364.got - 2010.06.27 13:26:56.
