data_PCOD8002148
_publ_section_title
;
Structure prediction by ZEFSAII (Michael W. Deem and Ramdas Pophale) SiO2 
 PCOD8002148
Probable space group: P -1
;
_chemical_formula_sum "Si O2"
_cell_formula_units_Z 16
_cell_length_a 19.814069
_cell_length_b 20.385889
_cell_length_c 6.613932
_cell_angle_alpha 61.753239
_cell_angle_beta 106.828831
_cell_angle_gamma 158.499418
_cell_volume 762.653636
_symmetry_space_group_name_H-M "P -1"
_symmetry_group_IT_number 2
_symmetry_cell_setting 'triclinic'
loop_
_space_group_symop_operation_xyz
x,y,z
-x,-y,-z
loop_
_atom_site_type_symbol
_atom_site_label
_atom_site_fract_x
_atom_site_fract_y
_atom_site_fract_z
Si Si1 0.368950 0.516612 0.559760
Si Si2 0.914686 0.244098 0.193692
Si Si3 0.075392 0.620610 0.699699
Si Si4 0.671436 0.697181 0.527352
Si Si5 0.176218 0.590877 0.592478
Si Si6 0.763339 0.559448 0.854492
Si Si7 0.119872 0.196322 0.135171
Si Si8 0.472017 0.751107 0.565472
O O1 0.592806 0.700469 0.526700
O O2 0.322008 0.471887 0.347369
O O3 0.358599 0.590084 0.529402
O O4 0.197858 0.292676 0.838166
O O5 0.849069 0.226464 0.362799
O O6 0.100697 0.372437 0.220169
O O7 0.707320 0.991327 0.341007
O O8 0.986192 0.363031 0.885766
O O9 0.241354 0.732332 0.561428
O O10 0.892040 0.455772 0.623713
O O11 0.000000 0.500000 0.000000
O O12 0.500000 0.500000 0.500000
O O13 0.700304 0.672024 0.782911
O O14 0.904805 0.938793 0.289951
O O15 0.374961 0.736453 0.526998
O O16 0.908368 0.753676 0.842106
O O17 0.562404 0.326957 0.139378
#
# Coordination Sequence:
#
# PCOD8002148 Si02
#       8
#     2   2   2   2   2   2   2   2
#     4  11  22  39  60  83 115 155 188 236 294 339
#     4  10  20  35  56  83 110 148 189 231 284 338
#     4   9  18  35  57  79 111 149 184 231 287 333
#     4  11  22  41  62  87 117 151 194 239 290 348
#     4   9  19  37  55  78 114 146 184 235 280 338
#     4  10  21  39  57  83 116 148 190 236 284 339
#     4  10  23  41  59  86 119 150 193 242 286 346
#     4  10  22  36  57  83 113 147 190 234 279 346
#
# _framework density 20.979379000000002
#
# number of rings (size 3 to 8) (size 9 to 14) (size 15 to 20)
#    0.000    2.000    1.250    1.875    0.000    3.000 
#    2.250    5.625    0.000    0.000    0.000    0.000 
#    0.000    0.000    0.000    0.000    0.000    0.000 
#
# Total GULP energy -198241.539979 kJ/mol
# GULP energy per Si atom -12390.096249 kJ/mol
# Density = 2.093163 g / cm^3
# Si number density = 20.979379 Si / 1000 Ang^3
#
#
#
# Elastic Constant Matrix: (Units=GPa)
#
#
# Indices 1 2 3 4 5 6 
#
# 1 97.1851 21.3949 17.7577 6.6152 -0.0829 8.8362
# 2 21.3949 84.5233 47.7522 1.3674 2.0899 4.8411
# 3 17.7577 47.7522 102.4843 9.9489 6.3116 12.6163
# 4 6.6152 1.3674 9.9489 34.4567 3.6045 0.8234
# 5 -0.0829 2.0899 6.3116 3.6045 26.5902 2.5873
# 6 8.8362 4.8411 12.6163 0.8234 2.5873 23.2696
#
#
#
# Elastic Compliance Matrix: (Units=1/GPa)
#
#
# Indices 1 2 3 4 5 6 
#
# 1 0.011361 -0.002550 -0.000182 -0.002035 0.000916 -0.003715
# 2 -0.002550 0.016729 -0.007752 0.002016 0.000087 0.001610
# 3 -0.000182 -0.007752 0.014582 -0.003539 -0.001799 -0.005899
# 4 -0.002035 0.002016 -0.003539 0.030697 -0.003641 0.001590
# 5 0.000916 0.000087 -0.001799 -0.003641 0.038873 -0.003584
# 6 -0.003715 0.001610 -0.005899 0.001590 -0.003584 0.047591
#
#
# Mechanical properties :
#
#
# Convention : Reuss Voigt Hill
#
# Bulk Modulus (GPa) = 46.07549 50.88917 48.48233
# Shear Modulus (GPa) = 26.59054 30.01583 28.30318
#
# Velocity S-wave (km/s) = 3.56400 3.78660 3.67699
# Velocity P-wave (km/s) = 6.24068 6.58993 6.41768
#
# Compressibility (1/GPa) = 0.02170351
#
# Stress axis : x y z
#
# Youngs Moduli (GPa) = 88.01812 59.77524 68.57845
#
# Poissons Ratio (x) = 0.15242 0.01249
# Poissons Ratio (y) = 0.22444 0.53165
# Poissons Ratio (z) = 0.01603 0.46341
#
# Static dielectric constant tensor:
#      x y z
#    x 4.317360 -0.132740 0.000030 
#    y -0.132740 3.378000 0.138150 
#    z 0.000030 0.138150 3.760620 
# 
# 
# High freq. dielectric constant tensor:
#      x y z
#    x 1.849690 -0.005090 0.003230 
#    y -0.005090 1.787050 0.012890 
#    z 0.003230 0.012890 1.819840 
# 
# From -- ./inp_files/11157.got.cif
#   From: 2010.06.25/outbox.cif.g09.slc.cpg/sg2_6_cif.got.tgz:11157.got - 2010.06.27 13:26:56.
