data_PCOD8003444
_publ_section_title
;
Structure prediction by ZEFSAII (Michael W. Deem and Ramdas Pophale) SiO2 
 PCOD8003444
Probable space group: P -1
;
_chemical_formula_sum "Si O2"
_cell_formula_units_Z 16
_cell_length_a 7.680037
_cell_length_b 24.883647
_cell_length_c 8.959765
_cell_angle_alpha 137.966864
_cell_angle_beta 62.395058
_cell_angle_gamma 134.497445
_cell_volume 811.869447
_symmetry_space_group_name_H-M "P -1"
_symmetry_group_IT_number 2
_symmetry_cell_setting 'triclinic'
loop_
_space_group_symop_operation_xyz
x,y,z
-x,-y,-z
loop_
_atom_site_type_symbol
_atom_site_label
_atom_site_fract_x
_atom_site_fract_y
_atom_site_fract_z
Si Si1 0.246041 0.523889 0.236638
Si Si2 0.360198 0.481802 0.804862
Si Si3 0.242781 0.845632 0.336035
Si Si4 0.332738 0.847478 0.641810
Si Si5 0.278514 0.035571 0.789574
Si Si6 0.884465 0.653580 0.909109
Si Si7 0.808302 0.018861 0.951059
Si Si8 0.931926 0.345394 0.466985
O O1 0.209688 0.492246 0.012275
O O2 0.815486 0.398548 0.560548
O O3 0.527828 0.573519 0.281334
O O4 0.063115 0.422560 0.198357
O O5 0.589037 0.593365 0.889284
O O6 0.183520 0.421023 0.612162
O O7 0.289384 0.821367 0.431000
O O8 0.206920 0.932228 0.535579
O O9 0.464448 0.873509 0.195879
O O10 0.992265 0.748014 0.169301
O O11 0.615812 0.942906 0.745976
O O12 0.268268 0.749690 0.550327
O O13 0.163937 0.877980 0.837896
O O14 0.069234 0.048130 0.857324
O O15 0.296792 0.038279 0.966820
O O16 0.004943 0.692350 0.779468
#
# Coordination Sequence:
#
# PCOD8003444 Si02
#       8
#     2   2   2   2   2   2   2   2
#     4   9  21  39  59  81 115 155 187 244 281 340
#     4   9  21  39  59  83 113 154 191 243 280 342
#     4  10  20  37  57  87 116 151 191 231 293 336
#     4  10  22  35  59  84 119 146 191 243 279 353
#     4   9  19  37  64  80 112 154 187 237 287 351
#     4  10  21  38  56  83 119 151 192 239 277 346
#     4   9  19  41  56  86 112 147 192 237 293 333
#     4  12  21  38  60  87 115 156 192 237 290 334
#
# _framework density 19.707602999999999
#
# number of rings (size 3 to 8) (size 9 to 14) (size 15 to 20)
#    0.750    1.500    0.000    2.625    0.000    2.500 
#    6.750    1.250    0.000    0.000    0.000    0.000 
#    0.000    0.000    0.000    0.000    0.000    0.000 
#
# Total GULP energy -198355.665291 kJ/mol
# GULP energy per Si atom -12397.229081 kJ/mol
# Density = 1.966275 g / cm^3
# Si number density = 19.707603 Si / 1000 Ang^3
#
#
#
# Elastic Constant Matrix: (Units=GPa)
#
#
# Indices 1 2 3 4 5 6 
#
# 1 59.0942 3.5256 18.7743 1.9980 -7.8610 9.2771
# 2 3.5256 72.4898 18.1026 0.8730 -3.2478 -3.6731
# 3 18.7743 18.1026 72.2687 -4.2409 14.7268 10.3640
# 4 1.9980 0.8730 -4.2409 29.6301 1.5611 1.8659
# 5 -7.8610 -3.2478 14.7268 1.5611 29.8142 1.2408
# 6 9.2771 -3.6731 10.3640 1.8659 1.2408 26.2970
#
#
#
# Elastic Compliance Matrix: (Units=1/GPa)
#
#
# Indices 1 2 3 4 5 6 
#
# 1 0.021275 0.000985 -0.007205 -0.002700 0.009616 -0.004790
# 2 0.000985 0.015647 -0.005839 -0.001870 0.004778 0.004046
# 3 -0.007205 -0.005839 0.020973 0.004733 -0.012882 -0.006268
# 4 -0.002700 -0.001870 0.004733 0.035141 -0.004951 -0.003434
# 5 0.009616 0.004778 -0.012882 -0.004951 0.043192 0.000665
# 6 -0.004790 0.004046 -0.006268 -0.003434 0.000665 0.042965
#
#
# Mechanical properties :
#
#
# Convention : Reuss Voigt Hill
#
# Bulk Modulus (GPa) = 29.60507 31.62861 30.61684
# Shear Modulus (GPa) = 23.30252 28.04494 25.67373
#
# Velocity S-wave (km/s) = 3.44235 3.77643 3.61325
# Velocity P-wave (km/s) = 5.55468 5.92444 5.74254
#
# Compressibility (1/GPa) = 0.03377800
#
# Stress axis : x y z
#
# Youngs Moduli (GPa) = 47.00396 63.91048 47.67973
#
# Poissons Ratio (x) = -0.06296 0.34351
# Poissons Ratio (y) = -0.04630 0.27840
# Poissons Ratio (z) = 0.33865 0.37317
#
# Static dielectric constant tensor:
#      x y z
#    x 3.476500 -0.045140 0.034930 
#    y -0.045140 3.402890 -0.109470 
#    z 0.034930 -0.109470 3.487040 
# 
# 
# High freq. dielectric constant tensor:
#      x y z
#    x 1.757040 -0.002190 0.011080 
#    y -0.002190 1.757860 -0.007360 
#    z 0.011080 -0.007360 1.768630 
# 
# From -- ./inp_files/227897.got.cif
#   From: 2010.06.25/outbox.cif.g09.slc.cpg/sg2_114_cif.got.tgz:227897.got - 2010.06.27 13:26:56.
