data_PCOD8003541
_publ_section_title
;
Structure prediction by ZEFSAII (Michael W. Deem and Ramdas Pophale) SiO2 
 PCOD8003541
Probable space group: P -1
;
_chemical_formula_sum "Si O2"
_cell_formula_units_Z 16
_cell_length_a 8.111877
_cell_length_b 7.339597
_cell_length_c 18.882786
_cell_angle_alpha 91.931817
_cell_angle_beta 40.747230
_cell_angle_gamma 98.804971
_cell_volume 719.249925
_symmetry_space_group_name_H-M "P -1"
_symmetry_group_IT_number 2
_symmetry_cell_setting 'triclinic'
loop_
_space_group_symop_operation_xyz
x,y,z
-x,-y,-z
loop_
_atom_site_type_symbol
_atom_site_label
_atom_site_fract_x
_atom_site_fract_y
_atom_site_fract_z
Si Si1 0.436820 0.792065 0.544206
Si Si2 0.728192 0.788461 0.897345
Si Si3 0.336419 0.937072 0.273202
Si Si4 0.705743 0.194322 0.867042
Si Si5 0.287916 0.885690 0.735102
Si Si6 0.723464 0.720707 0.323837
Si Si7 0.738311 0.427006 0.624479
Si Si8 0.856668 0.722777 0.702894
O O1 0.453296 0.779494 0.625074
O O2 0.631366 0.687920 0.435896
O O3 0.147032 0.695532 0.615461
O O4 0.500000 0.000000 0.500000
O O5 0.698702 0.697420 0.827783
O O6 0.002903 0.764403 0.840384
O O7 0.730141 0.007421 0.896837
O O8 0.488124 0.699058 0.025124
O O9 0.410845 0.849579 0.174343
O O10 0.228368 0.774103 0.360771
O O11 0.583302 0.070279 0.230000
O O12 0.128190 0.066697 0.328661
O O13 0.990540 0.327970 0.773478
O O14 0.256812 0.067265 0.703195
O O15 0.517394 0.587715 0.340122
O O16 0.698911 0.567354 0.701230
O O17 0.000000 0.500000 0.500000
#
# Coordination Sequence:
#
# PCOD8003541 Si02
#       8
#     2   2   2   2   2   2   2   2
#     4   9  15  30  53  76 108 149 181 219 283 329
#     4   8  16  33  59  83 109 151 186 228 283 332
#     4  10  21  36  56  86 114 146 190 230 276 333
#     4   9  17  34  57  82 114 147 190 231 275 335
#     4   8  16  29  51  82 110 142 185 230 277 331
#     4   9  17  33  51  75 114 151 180 228 286 323
#     4  11  22  39  55  81 118 151 184 232 281 331
#     4  10  20  37  59  83 112 148 189 227 278 337
#
# _framework density 22.245394999999998
#
# number of rings (size 3 to 8) (size 9 to 14) (size 15 to 20)
#    0.000    2.750    1.250    2.250    0.000    1.000 
#    2.250    5.625    0.000    0.000    0.000    0.000 
#    0.000    0.000    0.000    0.000    0.000    0.000 
#
# Total GULP energy -198272.269641 kJ/mol
# GULP energy per Si atom -12392.016853 kJ/mol
# Density = 2.219476 g / cm^3
# Si number density = 22.245395 Si / 1000 Ang^3
#
#
#
# Elastic Constant Matrix: (Units=GPa)
#
#
# Indices 1 2 3 4 5 6 
#
# 1 104.2220 30.2904 78.0648 7.4011 4.4824 42.3369
# 2 30.2904 57.7902 40.2083 10.9563 1.1310 25.1005
# 3 78.0648 40.2083 190.0332 17.9614 -20.6324 35.5722
# 4 7.4011 10.9563 17.9614 22.0396 5.0690 11.6952
# 5 4.4824 1.1310 -20.6324 5.0690 24.0040 -1.8300
# 6 42.3369 25.1005 35.5722 11.6952 -1.8300 40.3828
#
#
#
# Elastic Compliance Matrix: (Units=1/GPa)
#
#
# Indices 1 2 3 4 5 6 
#
# 1 0.027058 0.001428 -0.010260 0.016826 -0.019472 -0.025972
# 2 0.001428 0.025663 -0.003893 -0.001428 -0.005577 -0.013859
# 3 -0.010260 -0.003893 0.011731 -0.011246 0.015074 0.006783
# 4 0.016826 -0.001428 -0.011246 0.071945 -0.030148 -0.029049
# 5 -0.019472 -0.005577 0.015074 -0.030148 0.066586 0.022351
# 6 -0.025972 -0.013859 0.006783 -0.029049 0.022351 0.064057
#
#
# Mechanical properties :
#
#
# Convention : Reuss Voigt Hill
#
# Bulk Modulus (GPa) = 25.63983 72.13027 48.88505
# Shear Modulus (GPa) = 16.36714 30.85076 23.60895
#
# Velocity S-wave (km/s) = 2.71542 3.72807 3.26129
# Velocity P-wave (km/s) = 4.62410 7.14328 6.01701
#
# Compressibility (1/GPa) = 0.03900182
#
# Stress axis : x y z
#
# Youngs Moduli (GPa) = 36.95762 38.96631 85.24694
#
# Poissons Ratio (x) = -0.05566 0.87466
# Poissons Ratio (y) = -0.05279 0.33187
# Poissons Ratio (z) = 0.37919 0.15170
#
# Static dielectric constant tensor:
#      x y z
#    x 3.983430 0.250690 -0.031640 
#    y 0.250690 3.835190 0.159480 
#    z -0.031640 0.159480 4.392070 
# 
# 
# High freq. dielectric constant tensor:
#      x y z
#    x 1.861740 0.018360 0.003130 
#    y 0.018360 1.863880 0.006540 
#    z 0.003130 0.006540 1.868700 
# 
# From -- ./inp_files/352303.got.cif
#   From: 2010.06.25/outbox.cif.g09.slc.cpg/sg2_177_cif.got.tgz:352303.got - 2010.06.27 13:26:56.
