data_PCOD8003340
_publ_section_title
;
Structure prediction by ZEFSAII (Michael W. Deem and Ramdas Pophale) SiO2 
 PCOD8003340
Probable space group: P -1
;
_chemical_formula_sum "Si O2"
_cell_formula_units_Z 14
_cell_length_a 10.919552
_cell_length_b 15.638723
_cell_length_c 20.166858
_cell_angle_alpha 20.455898
_cell_angle_beta 149.648605
_cell_angle_gamma 138.744980
_cell_volume 575.918734
_symmetry_space_group_name_H-M "P -1"
_symmetry_group_IT_number 2
_symmetry_cell_setting 'triclinic'
loop_
_space_group_symop_operation_xyz
x,y,z
-x,-y,-z
loop_
_atom_site_type_symbol
_atom_site_label
_atom_site_fract_x
_atom_site_fract_y
_atom_site_fract_z
Si Si1 0.244243 0.091353 0.408135
Si Si2 0.059500 0.265982 0.837984
Si Si3 0.484512 0.365639 0.659353
Si Si4 0.694248 0.657251 0.965701
Si Si5 0.792768 0.417798 0.888349
Si Si6 0.520992 0.869441 0.969704
Si Si7 0.058506 0.160884 0.468450
O O1 0.234353 0.285832 0.323833
O O2 0.542807 0.917169 0.663872
O O3 0.087745 0.896229 0.493907
O O4 0.095903 0.250321 0.159542
O O5 0.801863 0.511109 0.535590
O O6 0.216361 0.264776 0.978983
O O7 0.217444 0.292588 0.826729
O O8 0.000000 0.000000 0.000000
O O9 0.500000 0.500000 0.500000
O O10 0.695929 0.406243 0.777630
O O11 0.557238 0.054953 0.910804
O O12 0.500000 0.500000 0.000000
O O13 0.941814 0.472386 0.174881
O O14 0.618051 0.327526 0.925420
O O15 0.357834 0.067341 0.693065
O O16 0.000000 0.000000 0.500000
#
# Coordination Sequence:
#
# PCOD8003340 Si02
#       7
#     2   2   2   2   2   2   2
#     4   9  20  40  69  95 138 184 221 289 348 404
#     4  12  24  41  70 105 141 176 238 291 342 418
#     4  12  25  43  71 100 135 184 238 286 344 418
#     4  10  20  38  67 104 133 175 239 289 335 411
#     4  10  23  43  68 100 147 180 230 284 355 424
#     4  11  23  43  66 103 137 188 224 283 360 407
#     4  10  20  36  69 102 134 180 233 291 343 407
#
# _framework density 24.308986000000001
#
# number of rings (size 3 to 8) (size 9 to 14) (size 15 to 20)
#    0.000    1.429    2.857    3.000    2.000    0.571 
#    0.000    0.000    6.286    6.857    0.000    0.000 
#    0.000    0.000    0.000    0.000    0.000    0.000 
#
# Total GULP energy -173533.777272 kJ/mol
# GULP energy per Si atom -12395.269805 kJ/mol
# Density = 2.425366 g / cm^3
# Si number density = 24.308986 Si / 1000 Ang^3
#
#
#
# Elastic Constant Matrix: (Units=GPa)
#
#
# Indices 1 2 3 4 5 6 
#
# 1 62.1512 25.3171 41.7087 4.1766 20.3453 -8.4928
# 2 25.3171 161.2863 50.2634 17.0808 2.4641 -23.1339
# 3 41.7087 50.2634 155.6537 9.5170 21.8143 -18.2884
# 4 4.1766 17.0808 9.5170 38.1953 -4.1404 -9.8707
# 5 20.3453 2.4641 21.8143 -4.1404 40.8655 -1.8102
# 6 -8.4928 -23.1339 -18.2884 -9.8707 -1.8102 36.8330
#
#
#
# Elastic Compliance Matrix: (Units=1/GPa)
#
#
# Indices 1 2 3 4 5 6 
#
# 1 0.022800 -0.001870 -0.003984 -0.001325 -0.009188 0.001297
# 2 -0.001870 0.007635 -0.001671 -0.001849 0.001313 0.003104
# 3 -0.003984 -0.001671 0.008667 -0.000730 -0.002527 0.002016
# 4 -0.001325 -0.001849 -0.000730 0.029436 0.004421 0.006276
# 5 -0.009188 0.001313 -0.002527 0.004421 0.030769 0.000148
# 6 0.001297 0.003104 0.002016 0.006276 0.000148 0.032088
#
#
# Mechanical properties :
#
#
# Convention : Reuss Voigt Hill
#
# Bulk Modulus (GPa) = 41.57734 68.18552 54.88143
# Shear Modulus (GPa) = 32.37010 40.63220 36.50115
#
# Velocity S-wave (km/s) = 3.65308 4.09282 3.87919
# Velocity P-wave (km/s) = 5.91051 7.10249 6.53374
#
# Compressibility (1/GPa) = 0.02405156
#
# Stress axis : x y z
#
# Youngs Moduli (GPa) = 43.86050 130.96942 115.37745
#
# Poissons Ratio (x) = 0.24497 0.45969
# Poissons Ratio (y) = 0.08204 0.19275
# Poissons Ratio (z) = 0.17475 0.21880
#
# Static dielectric constant tensor:
#      x y z
#    x 4.193160 -0.067140 0.605590 
#    y -0.067140 2.537730 3.119390 
#    z 0.605590 3.119390 0.560300 
# 
# 
# High freq. dielectric constant tensor:
#      x y z
#    x 1.943360 0.005480 0.007090 
#    y 0.005480 1.983950 0.000750 
#    z 0.007090 0.000750 1.975710 
# 
# From -- ./inp_files/595583.got.cif
#   From: 2010.06.25/outbox.cif.g09.slc.cpg/sg2_298_cif.got.tgz:595583.got - 2010.06.27 13:26:56.
