data_PCOD8003669
_publ_section_title
;
Structure prediction by ZEFSAII (Michael W. Deem and Ramdas Pophale) SiO2 
 PCOD8003669
Probable space group: P -1
;
_chemical_formula_sum "Si O2"
_cell_formula_units_Z 16
_cell_length_a 6.227575
_cell_length_b 19.601142
_cell_length_c 8.777745
_cell_angle_alpha 50.547687
_cell_angle_beta 55.899003
_cell_angle_gamma 75.516616
_cell_volume 675.575081
_symmetry_space_group_name_H-M "P -1"
_symmetry_group_IT_number 2
_symmetry_cell_setting 'triclinic'
loop_
_space_group_symop_operation_xyz
x,y,z
-x,-y,-z
loop_
_atom_site_type_symbol
_atom_site_label
_atom_site_fract_x
_atom_site_fract_y
_atom_site_fract_z
Si Si1 0.080383 0.435481 0.227831
Si Si2 0.433029 0.010465 0.270140
Si Si3 0.652770 0.270269 0.610631
Si Si4 0.639178 0.302645 0.907540
Si Si5 0.386686 0.127835 0.395506
Si Si6 0.217321 0.375825 0.578609
Si Si7 0.640941 0.534755 0.225456
Si Si8 0.815520 0.090597 0.763862
O O1 0.876987 0.352376 0.352066
O O2 0.909507 0.513877 0.226914
O O3 0.222532 0.405614 0.360111
O O4 0.309825 0.471589 0.966727
O O5 0.337625 0.087915 0.300147
O O6 0.429684 0.926628 0.503300
O O7 0.235960 0.982517 0.247687
O O8 0.716672 0.046929 0.027831
O O9 0.692033 0.254485 0.797813
O O10 0.361859 0.289626 0.657800
O O11 0.677906 0.176275 0.654524
O O12 0.431761 0.367761 0.852557
O O13 0.917341 0.354944 0.788446
O O14 0.521161 0.231295 0.182916
O O15 0.124024 0.124690 0.602048
O O16 0.391640 0.458629 0.485458
#
# Coordination Sequence:
#
# PCOD8003669 Si02
#       8
#     2   2   2   2   2   2   2   2
#     4   9  20  38  60  86 119 162 210 260 307 373
#     4  10  24  43  67 100 124 166 211 259 325 381
#     4  10  22  39  58  89 125 167 206 256 314 369
#     4  11  23  38  59  90 126 164 209 259 310 373
#     4  11  23  44  67  97 129 165 213 261 317 381
#     4  10  22  38  59  86 126 162 207 258 307 371
#     4  10  20  37  60  87 119 163 208 257 313 365
#     4  11  22  43  68  94 130 167 207 264 319 375
#
# _framework density 23.683524999999999
#
# number of rings (size 3 to 8) (size 9 to 14) (size 15 to 20)
#    0.000    1.750    1.250    2.250    0.000    9.500 
#    9.000    0.000    0.000    0.000    0.000    0.000 
#    0.000    0.000    0.000    0.000    0.000    0.000 
#
# Total GULP energy -198384.532116 kJ/mol
# GULP energy per Si atom -12399.033257 kJ/mol
# Density = 2.362962 g / cm^3
# Si number density = 23.683525 Si / 1000 Ang^3
#
#
#
# Elastic Constant Matrix: (Units=GPa)
#
#
# Indices 1 2 3 4 5 6 
#
# 1 61.7034 10.7863 13.2615 -5.2360 -2.0704 -4.5167
# 2 10.7863 75.2276 15.2728 -8.1226 -2.0449 -8.6817
# 3 13.2615 15.2728 135.0905 -10.4782 -11.4197 -8.8408
# 4 -5.2360 -8.1226 -10.4782 36.3577 -6.0590 3.9693
# 5 -2.0704 -2.0449 -11.4197 -6.0590 37.2149 1.0841
# 6 -4.5167 -8.6817 -8.8408 3.9693 1.0841 26.5123
#
#
#
# Elastic Compliance Matrix: (Units=1/GPa)
#
#
# Indices 1 2 3 4 5 6 
#
# 1 0.017061 -0.001821 -0.001173 0.001651 0.000710 0.001643
# 2 -0.001821 0.014457 -0.000970 0.002395 0.000677 0.003714
# 3 -0.001173 -0.000970 0.008141 0.002217 0.002690 0.001756
# 4 0.001651 0.002395 0.002217 0.030225 0.005911 -0.002962
# 5 0.000710 0.000677 0.002690 0.005911 0.028759 -0.000821
# 6 0.001643 0.003714 0.001756 -0.002962 -0.000821 0.040277
#
#
# Mechanical properties :
#
#
# Convention : Reuss Voigt Hill
#
# Bulk Modulus (GPa) = 31.51425 38.96250 35.23838
# Shear Modulus (GPa) = 31.76112 35.53039 33.64575
#
# Velocity S-wave (km/s) = 3.66603 3.87746 3.77323
# Velocity P-wave (km/s) = 5.59061 6.04428 5.82187
#
# Compressibility (1/GPa) = 0.03173168
#
# Stress axis : x y z
#
# Youngs Moduli (GPa) = 58.61239 69.17257 122.82781
#
# Poissons Ratio (x) = 0.12596 0.14413
# Poissons Ratio (y) = 0.10673 0.11908
# Poissons Ratio (z) = 0.06878 0.06706
#
# Static dielectric constant tensor:
#      x y z
#    x 3.945260 -0.094700 -0.050090 
#    y -0.094700 4.092380 0.010970 
#    z -0.050090 0.010970 4.453690 
# 
# 
# High freq. dielectric constant tensor:
#      x y z
#    x 1.921370 -0.009830 0.004760 
#    y -0.009830 1.929100 0.004620 
#    z 0.004760 0.004620 1.953980 
# 
# From -- ./inp_files/141099.got.cif
#   From: 2010.06.25/outbox.cif.g09.slc.cpg/sg2_71_cif.got.tgz:141099.got - 2010.06.27 13:26:56.
