data_PCOD8003843
_publ_section_title
;
Structure prediction by ZEFSAII (Michael W. Deem and Ramdas Pophale) SiO2 
 PCOD8003843
Probable space group: P -1
;
_chemical_formula_sum "Si O2"
_cell_formula_units_Z 16
_cell_length_a 15.876738
_cell_length_b 12.447925
_cell_length_c 21.556341
_cell_angle_alpha 160.539161
_cell_angle_beta 147.952441
_cell_angle_gamma 41.853991
_cell_volume 716.682878
_symmetry_space_group_name_H-M "P -1"
_symmetry_group_IT_number 2
_symmetry_cell_setting 'triclinic'
loop_
_space_group_symop_operation_xyz
x,y,z
-x,-y,-z
loop_
_atom_site_type_symbol
_atom_site_label
_atom_site_fract_x
_atom_site_fract_y
_atom_site_fract_z
Si Si1 0.798481 0.229759 0.044693
Si Si2 0.378104 0.689786 0.717381
Si Si3 0.807103 0.365515 0.311748
Si Si4 0.311598 0.293949 0.687903
Si Si5 0.065449 0.765572 0.325246
Si Si6 0.138005 0.801847 0.528891
Si Si7 0.213194 0.242355 0.107037
Si Si8 0.483889 0.190213 0.437191
O O1 0.834913 0.021153 0.010948
O O2 0.703133 0.951387 0.783580
O O3 0.666138 0.419620 0.088775
O O4 0.972200 0.481950 0.264621
O O5 0.225117 0.545191 0.589607
O O6 0.304894 0.787808 0.660425
O O7 0.469268 0.408591 0.607327
O O8 0.500000 0.000000 0.000000
O O9 0.712578 0.553375 0.310162
O O10 0.000000 0.500000 0.500000
O O11 0.757862 0.960892 0.046550
O O12 0.146495 0.005446 0.449165
O O13 0.463330 0.139746 0.691314
O O14 0.173339 0.821982 0.488030
O O15 0.054665 0.391778 0.088790
O O16 0.893205 0.844202 0.276251
O O17 0.381601 0.567178 0.394738
#
# Coordination Sequence:
#
# PCOD8003843 Si02
#       8
#     2   2   2   2   2   2   2   2
#     4  10  20  37  66  96 126 161 211 272 326 375
#     4  12  25  44  62  90 135 176 214 253 311 385
#     4  11  23  44  67  87 128 177 216 256 305 378
#     4   9  21  41  63  96 127 158 210 270 322 378
#     4   9  19  40  65  95 123 155 212 274 331 365
#     4  10  22  41  64  94 130 165 208 272 324 373
#     4  10  20  37  61  92 124 164 214 260 315 385
#     4  11  22  39  62  93 128 166 211 262 329 374
#
# _framework density 22.325077
#
# number of rings (size 3 to 8) (size 9 to 14) (size 15 to 20)
#    0.000    1.750    1.250    3.750    0.000    4.500 
#    9.000    1.875    0.000    0.000    0.000    0.000 
#    0.000    0.000    0.000    0.000    0.000    0.000 
#
# Total GULP energy -198209.822229 kJ/mol
# GULP energy per Si atom -12388.113889 kJ/mol
# Density = 2.227426 g / cm^3
# Si number density = 22.325077 Si / 1000 Ang^3
#
#
#
# Elastic Constant Matrix: (Units=GPa)
#
#
# Indices 1 2 3 4 5 6 
#
# 1 75.1236 20.7485 7.5466 15.1980 -14.0199 -10.5417
# 2 20.7485 70.9912 32.3736 20.1366 -13.3565 -11.0170
# 3 7.5466 32.3736 88.3207 8.7184 -3.8996 -11.7982
# 4 15.1980 20.1366 8.7184 41.1647 -8.6735 -7.5306
# 5 -14.0199 -13.3565 -3.8996 -8.6735 36.6318 4.7353
# 6 -10.5417 -11.0170 -11.7982 -7.5306 4.7353 30.0193
#
#
#
# Elastic Compliance Matrix: (Units=1/GPa)
#
#
# Indices 1 2 3 4 5 6 
#
# 1 0.015863 -0.002731 0.000586 -0.003196 0.003945 0.003375
# 2 -0.002731 0.020652 -0.006259 -0.006578 0.004018 0.001876
# 3 0.000586 -0.006259 0.013976 0.000349 -0.000958 0.003640
# 4 -0.003196 -0.006578 0.000349 0.029919 0.003030 0.003628
# 5 0.003945 0.004018 -0.000958 0.003030 0.031104 -0.001663
# 6 0.003375 0.001876 0.003640 0.003628 -0.001663 0.037789
#
#
# Mechanical properties :
#
#
# Convention : Reuss Voigt Hill
#
# Bulk Modulus (GPa) = 29.68855 39.53031 34.60943
# Shear Modulus (GPa) = 28.19465 33.14761 30.67113
#
# Velocity S-wave (km/s) = 3.55761 3.85745 3.71056
# Velocity P-wave (km/s) = 5.49569 6.13066 5.82184
#
# Compressibility (1/GPa) = 0.03368302
#
# Stress axis : x y z
#
# Youngs Moduli (GPa) = 63.03897 48.42165 71.55101
#
# Poissons Ratio (x) = 0.13224 -0.04194
# Poissons Ratio (y) = 0.17216 0.44785
# Poissons Ratio (z) = -0.03695 0.30308
#
# Static dielectric constant tensor:
#      x y z
#    x 2.792190 -1.134000 0.911470 
#    y -1.134000 3.342060 1.051270 
#    z 0.911470 1.051270 2.999370 
# 
# 
# High freq. dielectric constant tensor:
#      x y z
#    x 1.888080 -0.010700 -0.011920 
#    y -0.010700 1.874940 0.028560 
#    z -0.011920 0.028560 1.860320 
# 
# From -- ./inp_files/574417.got.cif
#   From: 2010.06.25/outbox.cif.g09.slc.cpg/sg2_288_cif.got.tgz:574417.got - 2010.06.27 13:26:56.
