data_PCOD8003473
_publ_section_title
;
Structure prediction by ZEFSAII (Michael W. Deem and Ramdas Pophale) SiO2 
 PCOD8003473
Probable space group: P -1
;
_chemical_formula_sum "Si O2"
_cell_formula_units_Z 16
_cell_length_a 14.686487
_cell_length_b 10.140084
_cell_length_c 11.191619
_cell_angle_alpha 77.997050
_cell_angle_beta 138.328611
_cell_angle_gamma 126.242795
_cell_volume 804.401505
_symmetry_space_group_name_H-M "P -1"
_symmetry_group_IT_number 2
_symmetry_cell_setting 'triclinic'
loop_
_space_group_symop_operation_xyz
x,y,z
-x,-y,-z
loop_
_atom_site_type_symbol
_atom_site_label
_atom_site_fract_x
_atom_site_fract_y
_atom_site_fract_z
Si Si1 0.455438 0.102115 0.865114
Si Si2 0.373632 0.371811 0.507700
Si Si3 0.097762 0.905719 0.696908
Si Si4 0.099927 0.197447 0.706184
Si Si5 0.952267 0.631835 0.794556
Si Si6 0.319682 0.505164 0.034130
Si Si7 0.250061 0.992653 0.457690
Si Si8 0.949217 0.318665 0.849225
O O1 0.628693 0.316441 0.005817
O O2 0.274879 0.044596 0.760944
O O3 0.418612 0.053069 0.696103
O O4 0.500000 0.000000 0.000000
O O5 0.500000 0.500000 0.500000
O O6 0.226385 0.391050 0.387480
O O7 0.500676 0.435083 0.735824
O O8 0.275386 0.166029 0.414632
O O9 0.917695 0.781912 0.456650
O O10 0.097979 0.775724 0.808078
O O11 0.089406 0.030571 0.750401
O O12 0.932971 0.157489 0.618725
O O13 0.282306 0.381134 0.909307
O O14 0.901384 0.443346 0.754019
O O15 0.048114 0.709138 0.002157
O O16 0.148461 0.408015 0.975323
O O17 0.221618 0.882254 0.332538
#
# Coordination Sequence:
#
# PCOD8003473 Si02
#       8
#     2   2   2   2   2   2   2   2
#     4  10  21  37  58  83 117 152 186 236 293 336
#     4  11  21  38  60  87 117 148 192 243 289 332
#     4  10  20  37  58  82 117 151 187 233 284 342
#     4   9  19  36  59  85 109 148 193 234 279 337
#     4  11  22  38  61  86 117 152 193 236 288 343
#     4  10  21  38  61  86 114 149 196 240 283 337
#     4   9  20  39  61  83 112 153 195 233 280 348
#     4  10  22  40  62  83 115 155 196 233 282 348
#
# _framework density 19.890567000000001
#
# number of rings (size 3 to 8) (size 9 to 14) (size 15 to 20)
#    0.000    2.000    2.500    0.750    1.750    3.000 
#    2.250    4.375    0.000    0.000    0.000    0.000 
#    0.000    0.000    0.000    0.000    0.000    0.000 
#
# Total GULP energy -198341.748627 kJ/mol
# GULP energy per Si atom -12396.359289 kJ/mol
# Density = 1.984529 g / cm^3
# Si number density = 19.890567 Si / 1000 Ang^3
#
#
#
# Elastic Constant Matrix: (Units=GPa)
#
#
# Indices 1 2 3 4 5 6 
#
# 1 48.4989 31.4214 26.7017 9.0994 -16.7343 -5.9079
# 2 31.4214 133.0357 73.9135 3.2373 -27.2656 -10.0383
# 3 26.7017 73.9135 97.2266 10.7393 -22.3853 -20.6003
# 4 9.0994 3.2373 10.7393 39.4302 -9.1050 -3.9705
# 5 -16.7343 -27.2656 -22.3853 -9.1050 27.3489 2.2669
# 6 -5.9079 -10.0383 -20.6003 -3.9705 2.2669 40.9083
#
#
#
# Elastic Compliance Matrix: (Units=1/GPa)
#
#
# Indices 1 2 3 4 5 6 
#
# 1 0.028472 -0.002861 -0.002396 -0.002889 0.011539 0.001283
# 2 -0.002861 0.014589 -0.009609 0.003336 0.006180 -0.001691
# 3 -0.002396 -0.009609 0.021234 -0.002567 0.004860 0.007470
# 4 -0.002889 0.003336 -0.002567 0.028644 0.008878 0.001397
# 5 0.011539 0.006180 0.004860 0.008878 0.056441 0.003364
# 6 0.001283 -0.001691 0.007470 0.001397 0.003364 0.027926
#
#
# Mechanical properties :
#
#
# Convention : Reuss Voigt Hill
#
# Bulk Modulus (GPa) = 28.93399 60.31493 44.62446
# Shear Modulus (GPa) = 22.87706 31.31912 27.09809
#
# Velocity S-wave (km/s) = 3.39506 3.97239 3.69502
# Velocity P-wave (km/s) = 5.47236 7.17141 6.37871
#
# Compressibility (1/GPa) = 0.03456142
#
# Stress axis : x y z
#
# Youngs Moduli (GPa) = 35.12205 68.54490 47.09515
#
# Poissons Ratio (x) = 0.19612 0.11286
# Poissons Ratio (y) = 0.10049 0.45254
# Poissons Ratio (z) = 0.08417 0.65865
#
# Static dielectric constant tensor:
#      x y z
#    x 3.745340 0.096000 0.002340 
#    y 0.096000 3.763440 0.123520 
#    z 0.002340 0.123520 3.884120 
# 
# 
# High freq. dielectric constant tensor:
#      x y z
#    x 1.767060 0.002610 -0.008680 
#    y 0.002610 1.780050 -0.001590 
#    z -0.008680 -0.001590 1.773380 
# 
# From -- ./inp_files/181357.got.cif
#   From: 2010.06.25/outbox.cif.g09.slc.cpg/sg2_91_cif.got.tgz:181357.got - 2010.06.27 13:26:56.
