data_PCOD8003306
_publ_section_title
;
Structure prediction by ZEFSAII (Michael W. Deem and Ramdas Pophale) SiO2 
 PCOD8003306
Probable space group: P -1
;
_chemical_formula_sum "Si O2"
_cell_formula_units_Z 16
_cell_length_a 11.991425
_cell_length_b 9.623264
_cell_length_c 15.409154
_cell_angle_alpha 148.365146
_cell_angle_beta 59.205751
_cell_angle_gamma 107.181693
_cell_volume 761.222038
_symmetry_space_group_name_H-M "P -1"
_symmetry_group_IT_number 2
_symmetry_cell_setting 'triclinic'
loop_
_space_group_symop_operation_xyz
x,y,z
-x,-y,-z
loop_
_atom_site_type_symbol
_atom_site_label
_atom_site_fract_x
_atom_site_fract_y
_atom_site_fract_z
Si Si1 0.115007 0.134499 0.545406
Si Si2 0.943630 0.611492 0.988459
Si Si3 0.941523 0.907422 0.807874
Si Si4 0.372254 0.340742 0.272684
Si Si5 0.870892 0.657742 0.532311
Si Si6 0.659443 0.701327 0.212294
Si Si7 0.341040 0.785608 0.922577
Si Si8 0.641867 0.200025 0.609809
O O1 0.175258 0.194765 0.462191
O O2 0.239791 0.917014 0.429761
O O3 0.000000 0.000000 0.500000
O O4 0.043192 0.416851 0.775461
O O5 0.783072 0.627453 0.052900
O O6 0.951553 0.922526 0.138260
O O7 0.000000 0.500000 0.000000
O O8 0.906790 0.866023 0.698101
O O9 0.996031 0.611260 0.676185
O O10 0.797426 0.072025 0.001045
O O11 0.247388 0.470182 0.456482
O O12 0.518205 0.349161 0.259630
O O13 0.346871 0.512404 0.283111
O O14 0.375649 0.019984 0.091825
O O15 0.693649 0.449757 0.132806
O O16 0.507968 0.744377 0.255539
O O17 0.659884 0.983604 0.409265
#
# Coordination Sequence:
#
# PCOD8003306 Si02
#       8
#     2   2   2   2   2   2   2   2
#     4  12  27  39  59  94 131 159 203 266 313 358
#     4  12  21  38  64  91 121 165 209 254 307 370
#     4  10  20  37  66  86 121 164 212 245 305 379
#     4   9  19  34  61  83 117 160 205 241 297 375
#     4  10  23  38  60  92 125 160 201 257 315 364
#     4  10  20  36  66  92 117 161 211 253 297 380
#     4   9  17  32  57  90 110 149 209 251 285 353
#     4  10  21  40  63  93 120 158 211 253 307 367
#
# _framework density 21.018833999999998
#
# number of rings (size 3 to 8) (size 9 to 14) (size 15 to 20)
#    0.000    1.750    2.500    1.500    7.000    0.500 
#    0.000    1.875    0.000   14.250    0.000    0.000 
#    0.000    0.000    0.000    0.000    0.000    0.000 
#
# Total GULP energy -198238.093225 kJ/mol
# GULP energy per Si atom -12389.880827 kJ/mol
# Density = 2.097099 g / cm^3
# Si number density = 21.018834 Si / 1000 Ang^3
#
#
#
# Elastic Constant Matrix: (Units=GPa)
#
#
# Indices 1 2 3 4 5 6 
#
# 1 105.9336 44.4286 38.8176 -10.4478 -35.6225 15.9584
# 2 44.4286 82.7922 26.9254 -5.2411 -9.0931 12.6541
# 3 38.8176 26.9254 70.9501 8.9273 -21.4134 3.2703
# 4 -10.4478 -5.2411 8.9273 28.0753 8.5431 0.5212
# 5 -35.6225 -9.0931 -21.4134 8.5431 47.8383 -2.3652
# 6 15.9584 12.6541 3.2703 0.5212 -2.3652 37.1288
#
#
#
# Elastic Compliance Matrix: (Units=1/GPa)
#
#
# Indices 1 2 3 4 5 6 
#
# 1 0.018039 -0.005959 -0.005306 0.004682 0.008854 -0.004757
# 2 -0.005959 0.017118 -0.004841 0.003853 -0.004195 -0.003168
# 3 -0.005306 -0.004841 0.022560 -0.012404 0.007571 0.002600
# 4 0.004682 0.003853 -0.012404 0.044991 -0.009540 -0.003472
# 5 0.008854 -0.004195 0.007571 -0.009540 0.031748 -0.000886
# 6 -0.004757 -0.003168 0.002600 -0.003472 -0.000886 0.029821
#
#
# Mechanical properties :
#
#
# Convention : Reuss Voigt Hill
#
# Bulk Modulus (GPa) = 39.20611 53.33542 46.27076
# Shear Modulus (GPa) = 24.39156 32.57544 28.48350
#
# Velocity S-wave (km/s) = 3.41025 3.94105 3.68522
# Velocity P-wave (km/s) = 5.84806 6.79259 6.33794
#
# Compressibility (1/GPa) = 0.02550623
#
# Stress axis : x y z
#
# Youngs Moduli (GPa) = 55.43651 58.41901 44.32602
#
# Poissons Ratio (x) = 0.34811 0.23517
# Poissons Ratio (y) = 0.33033 0.21457
# Poissons Ratio (z) = 0.29412 0.28280
#
# Static dielectric constant tensor:
#      x y z
#    x 4.167400 0.328540 -0.296470 
#    y 0.328540 3.417860 -0.846590 
#    z -0.296470 -0.846590 2.970630 
# 
# 
# High freq. dielectric constant tensor:
#      x y z
#    x 1.812140 0.041130 -0.037710 
#    y 0.041130 1.804580 0.028450 
#    z -0.037710 0.028450 1.829660 
# 
# From -- ./inp_files/516372.got.cif
#   From: 2010.06.25/outbox.cif.g09.slc.cpg/sg2_259_cif.got.tgz:516372.got - 2010.06.27 13:26:56.
