data_PCOD8003708
_publ_section_title
;
Structure prediction by ZEFSAII (Michael W. Deem and Ramdas Pophale) SiO2 
 PCOD8003708
Probable space group: P -1
;
_chemical_formula_sum "Si O2"
_cell_formula_units_Z 14
_cell_length_a 17.746749
_cell_length_b 9.362073
_cell_length_c 21.258124
_cell_angle_alpha 37.008041
_cell_angle_beta 19.870283
_cell_angle_gamma 46.793179
_cell_volume 683.518281
_symmetry_space_group_name_H-M "P -1"
_symmetry_group_IT_number 2
_symmetry_cell_setting 'triclinic'
loop_
_space_group_symop_operation_xyz
x,y,z
-x,-y,-z
loop_
_atom_site_type_symbol
_atom_site_label
_atom_site_fract_x
_atom_site_fract_y
_atom_site_fract_z
Si Si1 0.997143 0.903316 0.106188
Si Si2 0.933429 0.373808 0.029721
Si Si3 0.319699 0.385927 0.939715
Si Si4 0.315431 0.416804 0.312269
Si Si5 0.849388 0.401145 0.341529
Si Si6 0.215179 0.845361 0.164810
Si Si7 0.570981 0.097314 0.155860
O O1 0.847586 0.606973 0.324423
O O2 0.260601 0.936887 0.909326
O O3 0.886804 0.072694 0.177490
O O4 0.000000 0.000000 0.000000
O O5 0.147549 0.491495 0.770319
O O6 0.704178 0.432470 0.162909
O O7 0.000000 0.500000 0.000000
O O8 0.554033 0.527844 0.743199
O O9 0.089536 0.329267 0.185713
O O10 0.341656 0.130577 0.984929
O O11 0.299053 0.674145 0.207151
O O12 0.451253 0.300402 0.197588
O O13 0.063154 0.214502 0.593710
O O14 0.621992 0.167757 0.614083
O O15 0.281477 0.797019 0.059293
#
# Coordination Sequence:
#
# PCOD8003708 Si02
#       7
#     2   2   2   2   2   2   2
#     4  10  20  37  60  90 120 163 206 237 305 369
#     4   9  18  36  63  92 122 157 211 245 294 367
#     4  10  20  42  61  88 129 160 197 261 307 354
#     4  11  22  44  64  87 125 161 203 261 302 363
#     4   9  21  37  61  85 126 161 192 249 307 351
#     4  11  25  39  65  94 116 163 212 248 312 364
#     4  12  22  41  64  88 129 160 200 257 307 361
#
# _framework density 20.482261999999999
#
# number of rings (size 3 to 8) (size 9 to 14) (size 15 to 20)
#    0.857    0.857    2.857    1.714    0.000    3.429 
#    0.000    2.143    0.000    6.857    0.000    0.000 
#    0.000    0.000    0.000    0.000    0.000    0.000 
#
# Total GULP energy -173542.047826 kJ/mol
# GULP energy per Si atom -12395.860559 kJ/mol
# Density = 2.043564 g / cm^3
# Si number density = 20.482262 Si / 1000 Ang^3
#
#
#
# Elastic Constant Matrix: (Units=GPa)
#
#
# Indices 1 2 3 4 5 6 
#
# 1 110.0726 46.1766 23.3403 6.8793 -22.5295 5.5588
# 2 46.1766 154.0394 26.4892 -4.1531 -18.1668 19.4682
# 3 23.3403 26.4892 32.8941 1.6608 -12.6764 -2.4286
# 4 6.8793 -4.1531 1.6608 24.2199 9.9904 -3.2583
# 5 -22.5295 -18.1668 -12.6764 9.9904 29.5088 3.3281
# 6 5.5588 19.4682 -2.4286 -3.2583 3.3281 37.0319
#
#
#
# Elastic Compliance Matrix: (Units=1/GPa)
#
#
# Indices 1 2 3 4 5 6 
#
# 1 0.013659 -0.002047 -0.003580 -0.008918 0.010986 -0.002981
# 2 -0.002047 0.008878 -0.005442 0.001124 0.001723 -0.004773
# 3 -0.003580 -0.005442 0.043949 -0.008668 0.015263 0.004146
# 4 -0.008918 0.001124 -0.008668 0.058260 -0.030471 0.008044
# 5 0.010986 0.001723 0.015263 -0.030471 0.061308 -0.009745
# 6 -0.002981 -0.004773 0.004146 0.008044 -0.009745 0.031816
#
#
# Mechanical properties :
#
#
# Convention : Reuss Voigt Hill
#
# Bulk Modulus (GPa) = 22.54890 54.33538 38.44214
# Shear Modulus (GPa) = 19.62401 31.55214 25.58807
#
# Velocity S-wave (km/s) = 3.09867 3.92913 3.53835
# Velocity P-wave (km/s) = 4.88214 6.86802 5.95839
#
# Compressibility (1/GPa) = 0.04434806
#
# Stress axis : x y z
#
# Youngs Moduli (GPa) = 73.21065 112.63755 22.75375
#
# Poissons Ratio (x) = 0.23058 0.08145
# Poissons Ratio (y) = 0.14987 0.12383
# Poissons Ratio (z) = 0.26207 0.61299
#
# Static dielectric constant tensor:
#      x y z
#    x 3.568490 0.030660 -0.158400 
#    y 0.030660 4.240060 -0.088710 
#    z -0.158400 -0.088710 3.354050 
# 
# 
# High freq. dielectric constant tensor:
#      x y z
#    x 1.796180 0.004860 -0.015590 
#    y 0.004860 1.824200 -0.005420 
#    z -0.015590 -0.005420 1.770310 
# 
# From -- ./inp_files/599354.got.cif
#   From: 2010.06.25/outbox.cif.g09.slc.cpg/sg2_300_cif.got.tgz:599354.got - 2010.06.27 13:26:56.
