data_PCOD8003761
_publ_section_title
;
Structure prediction by ZEFSAII (Michael W. Deem and Ramdas Pophale) SiO2 
 PCOD8003761
Probable space group: P -1
;
_chemical_formula_sum "Si O2"
_cell_formula_units_Z 16
_cell_length_a 9.016300
_cell_length_b 14.746275
_cell_length_c 15.817886
_cell_angle_alpha 143.074347
_cell_angle_beta 58.535118
_cell_angle_gamma 93.946121
_cell_volume 790.193850
_symmetry_space_group_name_H-M "P -1"
_symmetry_group_IT_number 2
_symmetry_cell_setting 'triclinic'
loop_
_space_group_symop_operation_xyz
x,y,z
-x,-y,-z
loop_
_atom_site_type_symbol
_atom_site_label
_atom_site_fract_x
_atom_site_fract_y
_atom_site_fract_z
Si Si1 0.358001 0.168492 0.296807
Si Si2 0.266082 0.449187 0.380997
Si Si3 0.064710 0.536322 0.777712
Si Si4 0.798251 0.038921 0.748265
Si Si5 0.347123 0.689120 0.298007
Si Si6 0.567686 0.689362 0.078412
Si Si7 0.146615 0.250395 0.167135
Si Si8 0.626639 0.435597 0.181054
O O1 0.296769 0.303703 0.334831
O O2 0.251991 0.300636 0.513362
O O3 0.252134 0.060945 0.240634
O O4 0.642824 0.993791 0.082256
O O5 0.238315 0.372371 0.243277
O O6 0.474726 0.446528 0.309119
O O7 0.028462 0.681622 0.650970
O O8 0.184375 0.564319 0.835070
O O9 0.994624 0.681602 0.827464
O O10 0.827972 0.607251 0.941333
O O11 0.615823 0.112564 0.780081
O O12 0.768251 0.223325 0.931434
O O13 0.066411 0.872762 0.513515
O O14 0.466273 0.748202 0.248183
O O15 0.451358 0.636417 0.322828
O O16 0.418791 0.486207 0.090242
#
# Coordination Sequence:
#
# PCOD8003761 Si02
#       8
#     2   2   2   2   2   2   2   2
#     4  11  21  36  66  88 111 159 204 237 292 348
#     4  10  22  36  61  87 119 155 202 250 283 345
#     4  11  23  40  59  87 127 159 188 245 299 357
#     4  11  21  39  66  89 115 152 206 248 286 351
#     4  10  22  39  64  92 114 156 200 249 292 349
#     4  10  20  40  66  89 118 150 202 249 295 345
#     4  10  20  37  61  85 114 156 206 239 286 342
#     4  11  25  40  56  89 131 155 191 244 301 349
#
# _framework density 20.248197000000001
#
# number of rings (size 3 to 8) (size 9 to 14) (size 15 to 20)
#    0.000    1.500    3.750    1.500    3.500    3.500 
#    0.000    1.875    0.000    0.000    0.000    0.000 
#    0.000    0.000    0.000    0.000    0.000    0.000 
#
# Total GULP energy -198346.920947 kJ/mol
# GULP energy per Si atom -12396.682559 kJ/mol
# Density = 2.020211 g / cm^3
# Si number density = 20.248197 Si / 1000 Ang^3
#
#
#
# Elastic Constant Matrix: (Units=GPa)
#
#
# Indices 1 2 3 4 5 6 
#
# 1 113.4560 49.9366 24.1121 -4.4093 -14.4727 -11.7412
# 2 49.9366 105.1996 48.6349 -16.0504 -13.3087 -2.6068
# 3 24.1121 48.6349 114.7765 2.9812 -29.3345 -10.6222
# 4 -4.4093 -16.0504 2.9812 25.2706 4.3861 -5.3354
# 5 -14.4727 -13.3087 -29.3345 4.3861 29.1636 -1.3083
# 6 -11.7412 -2.6068 -10.6222 -5.3354 -1.3083 15.2219
#
#
#
# Elastic Compliance Matrix: (Units=1/GPa)
#
#
# Indices 1 2 3 4 5 6 
#
# 1 0.013110 -0.006554 0.002909 -0.001076 0.007108 0.011253
# 2 -0.006554 0.017120 -0.007871 0.010638 -0.005151 -0.004330
# 3 0.002909 -0.007871 0.016886 -0.006862 0.016393 0.011683
# 4 -0.001076 0.010638 -0.006862 0.051468 -0.009721 0.013408
# 5 0.007108 -0.005151 0.016393 -0.009721 0.054192 0.017290
# 6 0.011253 -0.004330 0.011683 0.013408 0.017290 0.087972
#
#
# Mechanical properties :
#
#
# Convention : Reuss Voigt Hill
#
# Bulk Modulus (GPa) = 41.52231 64.31103 52.91667
# Shear Modulus (GPa) = 18.39537 27.98111 23.18824
#
# Velocity S-wave (km/s) = 3.01739 3.72143 3.38775
# Velocity P-wave (km/s) = 5.71758 7.09195 6.44152
#
# Compressibility (1/GPa) = 0.02408344
#
# Stress axis : x y z
#
# Youngs Moduli (GPa) = 76.27819 58.41165 59.22156
#
# Poissons Ratio (x) = 0.38284 -0.17228
# Poissons Ratio (y) = 0.49994 0.46614
# Poissons Ratio (z) = -0.22190 0.45976
#
# Static dielectric constant tensor:
#      x y z
#    x 3.352240 -0.128000 -0.202880 
#    y -0.128000 3.816700 -0.059380 
#    z -0.202880 -0.059380 3.962800 
# 
# 
# High freq. dielectric constant tensor:
#      x y z
#    x 1.758500 -0.008400 -0.024740 
#    y -0.008400 1.788490 -0.004480 
#    z -0.024740 -0.004480 1.806010 
# 
# From -- ./inp_files/313897.got.cif
#   From: 2010.06.25/outbox.cif.g09.slc.cpg/sg2_157_cif.got.tgz:313897.got - 2010.06.27 13:26:56.
