data_PCOD8003166
_publ_section_title
;
Structure prediction by ZEFSAII (Michael W. Deem and Ramdas Pophale) SiO2 
 PCOD8003166
Probable space group: P -1
;
_chemical_formula_sum "Si O2"
_cell_formula_units_Z 14
_cell_length_a 9.159192
_cell_length_b 20.934574
_cell_length_c 10.014107
_cell_angle_alpha 145.556384
_cell_angle_beta 135.462041
_cell_angle_gamma 41.052692
_cell_volume 691.568909
_symmetry_space_group_name_H-M "P -1"
_symmetry_group_IT_number 2
_symmetry_cell_setting 'triclinic'
loop_
_space_group_symop_operation_xyz
x,y,z
-x,-y,-z
loop_
_atom_site_type_symbol
_atom_site_label
_atom_site_fract_x
_atom_site_fract_y
_atom_site_fract_z
Si Si1 0.556098 0.061613 0.514934
Si Si2 0.905863 0.315897 0.769619
Si Si3 0.512332 0.474678 0.247808
Si Si4 0.066576 0.259499 0.486053
Si Si5 0.857378 0.208492 0.002541
Si Si6 0.087777 0.104915 0.722666
Si Si7 0.806252 0.534310 0.742494
O O1 0.334418 0.173801 0.505808
O O2 0.742642 0.111866 0.763984
O O3 0.500000 0.000000 0.500000
O O4 0.658919 0.955957 0.283565
O O5 0.653526 0.430065 0.805353
O O6 0.911282 0.211423 0.695094
O O7 0.959746 0.254579 0.551918
O O8 0.101923 0.359652 0.018185
O O9 0.663699 0.539904 0.525631
O O10 0.360511 0.442206 0.200409
O O11 0.679816 0.344004 0.067073
O O12 0.024082 0.401076 0.670518
O O13 0.935936 0.213740 0.213222
O O14 0.073543 0.163253 0.962275
O O15 0.000000 0.000000 0.500000
#
# Coordination Sequence:
#
# PCOD8003166 Si02
#       7
#     2   2   2   2   2   2   2
#     4  11  21  39  61  84 109 157 205 234 277 341
#     4  11  19  36  61  87 114 156 195 233 284 351
#     4   9  18  33  58  91 117 147 184 241 298 339
#     4  10  20  36  63  90 112 151 196 239 289 342
#     4  10  22  40  58  85 126 146 184 251 295 337
#     4  10  24  42  55  83 125 154 193 245 288 338
#     4   9  18  33  58  94 119 138 192 247 283 342
#
# _framework density 20.243825999999999
#
# number of rings (size 3 to 8) (size 9 to 14) (size 15 to 20)
#    0.000    2.000    1.429    4.286    0.000    1.714 
#    0.000    5.714    0.000    0.000    0.000    0.000 
#    0.000    0.000    0.000    0.000    0.000    0.000 
#
# Total GULP energy -173567.789157 kJ/mol
# GULP energy per Si atom -12397.699226 kJ/mol
# Density = 2.019775 g / cm^3
# Si number density = 20.243826 Si / 1000 Ang^3
#
#
#
# Elastic Constant Matrix: (Units=GPa)
#
#
# Indices 1 2 3 4 5 6 
#
# 1 90.4438 48.8077 51.4875 8.3957 -10.3803 -2.4038
# 2 48.8077 87.1755 39.3303 7.6588 6.0892 -3.0398
# 3 51.4875 39.3303 105.3298 6.0076 -9.8611 -0.3356
# 4 8.3957 7.6588 6.0076 26.5869 -7.7041 -4.8472
# 5 -10.3803 6.0892 -9.8611 -7.7041 22.7087 9.7831
# 6 -2.4038 -3.0398 -0.3356 -4.8472 9.7831 38.1981
#
#
#
# Elastic Compliance Matrix: (Units=1/GPa)
#
#
# Indices 1 2 3 4 5 6 
#
# 1 0.020689 -0.010029 -0.005372 0.000312 0.010909 -0.002298
# 2 -0.010029 0.020568 -0.003897 -0.005602 -0.015517 0.004235
# 3 -0.005372 -0.003897 0.014060 0.000991 0.005848 -0.001897
# 4 0.000312 -0.005602 0.000991 0.043870 0.016568 0.000906
# 5 0.010909 -0.015517 0.005848 0.016568 0.068174 -0.015855
# 6 -0.002298 0.004235 -0.001897 0.000906 -0.015855 0.030531
#
#
# Mechanical properties :
#
#
# Convention : Reuss Voigt Hill
#
# Bulk Modulus (GPa) = 59.80837 62.46668 61.13753
# Shear Modulus (GPa) = 20.65577 27.05367 23.85472
#
# Velocity S-wave (km/s) = 3.19776 3.65963 3.43646
# Velocity P-wave (km/s) = 6.57589 6.98437 6.78320
#
# Compressibility (1/GPa) = 0.01672007
#
# Stress axis : x y z
#
# Youngs Moduli (GPa) = 48.33463 48.61852 71.12232
#
# Poissons Ratio (x) = 0.48761 0.38208
# Poissons Ratio (y) = 0.48476 0.27720
# Poissons Ratio (z) = 0.25966 0.18949
#
# Static dielectric constant tensor:
#      x y z
#    x 3.761980 -0.387800 -0.402590 
#    y -0.387800 4.044510 0.288820 
#    z -0.402590 0.288820 3.833570 
# 
# 
# High freq. dielectric constant tensor:
#      x y z
#    x 1.767800 -0.009460 -0.011570 
#    y -0.009460 1.797500 0.015230 
#    z -0.011570 0.015230 1.788450 
# 
# From -- ./inp_files/187276.got.cif
#   From: 2010.06.25/outbox.cif.g09.slc.cpg/sg2_94_cif.got.tgz:187276.got - 2010.06.27 13:26:56.
