data_PCOD8003413
_publ_section_title
;
Structure prediction by ZEFSAII (Michael W. Deem and Ramdas Pophale) SiO2 
 PCOD8003413
Probable space group: P -1
;
_chemical_formula_sum "Si O2"
_cell_formula_units_Z 16
_cell_length_a 10.439583
_cell_length_b 7.593491
_cell_length_c 17.867884
_cell_angle_alpha 31.663020
_cell_angle_beta 83.606988
_cell_angle_gamma 81.133095
_cell_volume 734.096461
_symmetry_space_group_name_H-M "P -1"
_symmetry_group_IT_number 2
_symmetry_cell_setting 'triclinic'
loop_
_space_group_symop_operation_xyz
x,y,z
-x,-y,-z
loop_
_atom_site_type_symbol
_atom_site_label
_atom_site_fract_x
_atom_site_fract_y
_atom_site_fract_z
Si Si1 0.527701 0.247893 0.307699
Si Si2 0.338325 0.436984 0.380217
Si Si3 0.050147 0.705422 0.310271
Si Si4 0.161950 0.792891 0.506092
Si Si5 0.599819 0.190876 0.624061
Si Si6 0.920298 0.082891 0.049181
Si Si7 0.777843 0.491898 0.238883
Si Si8 0.964780 0.761721 0.756435
O O1 0.409975 0.429842 0.298703
O O2 0.637803 0.503907 0.203251
O O3 0.603528 0.901849 0.459191
O O4 0.462118 0.157939 0.265234
O O5 0.182728 0.465889 0.369111
O O6 0.364111 0.775698 0.302850
O O7 0.931978 0.486752 0.403360
O O8 0.060136 0.892945 0.320827
O O9 0.014604 0.989050 0.146932
O O10 0.282422 0.751209 0.458286
O O11 0.212206 0.772834 0.595756
O O12 0.084128 0.158242 0.355481
O O13 0.500000 0.500000 0.500000
O O14 0.796881 0.865896 0.134289
O O15 0.882468 0.488722 0.901495
O O16 0.000000 0.000000 0.000000
O O17 0.883620 0.375321 0.210483
#
# Coordination Sequence:
#
# PCOD8003413 Si02
#       8
#     2   2   2   2   2   2   2   2
#     4  10  21  36  58  83 122 170 188 244 300 348
#     4  10  20  37  56  89 125 153 198 244 303 355
#     4  11  22  37  61  91 121 149 196 251 300 358
#     4  11  21  34  57  94 117 150 195 252 293 351
#     4  10  21  34  54  86 127 155 193 240 298 355
#     4   9  22  40  58  84 118 158 195 244 297 362
#     4  10  21  37  57  88 119 155 204 238 293 356
#     4  11  21  36  61  87 121 154 191 248 307 344
#
# _framework density 21.795500000000001
#
# number of rings (size 3 to 8) (size 9 to 14) (size 15 to 20)
#    0.000    1.750    1.250    4.125    3.500    5.000 
#    0.000    0.000    0.000    7.500    0.000    0.000 
#    0.000    0.000    0.000    0.000    0.000    0.000 
#
# Total GULP energy -198222.339584 kJ/mol
# GULP energy per Si atom -12388.896224 kJ/mol
# Density = 2.174589 g / cm^3
# Si number density = 21.795500 Si / 1000 Ang^3
#
#
#
# Elastic Constant Matrix: (Units=GPa)
#
#
# Indices 1 2 3 4 5 6 
#
# 1 109.7977 42.4351 11.5709 -17.6326 -22.0191 14.4172
# 2 42.4351 94.3947 8.5227 -6.7719 -11.4588 14.3910
# 3 11.5709 8.5227 76.8423 0.2132 -1.6652 13.0630
# 4 -17.6326 -6.7719 0.2132 20.4627 4.2906 4.7254
# 5 -22.0191 -11.4588 -1.6652 4.2906 14.0316 -1.3143
# 6 14.4172 14.3910 13.0630 4.7254 -1.3143 35.8364
#
#
#
# Elastic Compliance Matrix: (Units=1/GPa)
#
#
# Indices 1 2 3 4 5 6 
#
# 1 0.017028 -0.003507 -0.000781 0.010685 0.019952 -0.005835
# 2 -0.003507 0.013452 -0.000199 0.001359 0.004676 -0.003926
# 3 -0.000781 -0.000199 0.013952 0.000264 -0.000256 -0.004736
# 4 0.010685 0.001359 0.000264 0.062057 -0.002304 -0.013208
# 5 0.019952 0.004676 -0.000256 -0.002304 0.106546 -0.005600
# 6 -0.005835 -0.003926 -0.004736 -0.013208 -0.005600 0.035091
#
#
# Mechanical properties :
#
#
# Convention : Reuss Voigt Hill
#
# Bulk Modulus (GPa) = 28.20038 45.12134 36.66086
# Shear Modulus (GPa) = 18.59299 28.63321 23.61310
#
# Velocity S-wave (km/s) = 2.92390 3.62846 3.29506
# Velocity P-wave (km/s) = 4.93615 6.18881 5.59763
#
# Compressibility (1/GPa) = 0.03546052
#
# Stress axis : x y z
#
# Youngs Moduli (GPa) = 58.72514 74.33945 71.67374
#
# Poissons Ratio (x) = 0.26067 0.05594
# Poissons Ratio (y) = 0.20592 0.01426
# Poissons Ratio (z) = 0.04584 0.01479
#
# Static dielectric constant tensor:
#      x y z
#    x 4.352110 0.587360 -0.124590 
#    y 0.587360 4.411490 -0.182830 
#    z -0.124590 -0.182830 5.890980 
# 
# 
# High freq. dielectric constant tensor:
#      x y z
#    x 1.864380 0.012680 -0.009730 
#    y 0.012680 1.865110 -0.009170 
#    z -0.009730 -0.009170 1.814540 
# 
# From -- ./inp_files/587707.got.cif
#   From: 2010.06.25/outbox.cif.g09.slc.cpg/sg2_294_cif.got.tgz:587707.got - 2010.06.27 13:26:56.
