data_PCOD8003514
_publ_section_title
;
Structure prediction by ZEFSAII (Michael W. Deem and Ramdas Pophale) SiO2 
 PCOD8003514
Probable space group: P -1
;
_chemical_formula_sum "Si O2"
_cell_formula_units_Z 14
_cell_length_a 10.295676
_cell_length_b 21.971332
_cell_length_c 9.095156
_cell_angle_alpha 140.445190
_cell_angle_beta 138.198476
_cell_angle_gamma 29.987271
_cell_volume 635.056373
_symmetry_space_group_name_H-M "P -1"
_symmetry_group_IT_number 2
_symmetry_cell_setting 'triclinic'
loop_
_space_group_symop_operation_xyz
x,y,z
-x,-y,-z
loop_
_atom_site_type_symbol
_atom_site_label
_atom_site_fract_x
_atom_site_fract_y
_atom_site_fract_z
Si Si1 0.377545 0.630255 0.961111
Si Si2 0.907227 0.432096 0.224615
Si Si3 0.196489 0.038309 0.205577
Si Si4 0.460179 0.226244 0.180798
Si Si5 0.465502 0.133480 0.569339
Si Si6 0.275683 0.855892 0.445882
Si Si7 0.588354 0.268185 0.088613
O O1 0.670192 0.524796 0.081527
O O2 0.230047 0.775423 0.163808
O O3 0.191837 0.602582 0.790756
O O4 0.406527 0.633510 0.813383
O O5 0.000000 0.500000 0.500000
O O6 0.153386 0.302332 0.100870
O O7 0.217277 0.143933 0.377921
O O8 0.883675 0.117262 0.069087
O O9 0.286748 0.998221 0.377253
O O10 0.391860 0.913892 0.028836
O O11 0.600567 0.214301 0.424893
O O12 0.473957 0.313408 0.242589
O O13 0.535494 0.132348 0.457404
O O14 0.395856 0.257744 0.821039
O O15 0.000000 0.000000 0.500000
#
# Coordination Sequence:
#
# PCOD8003514 Si02
#       7
#     2   2   2   2   2   2   2
#     4  10  24  43  65  85 124 167 200 259 311 354
#     4  11  24  46  64  87 122 165 215 257 297 356
#     4  10  20  37  58  90 130 162 197 246 315 364
#     4  11  22  37  64  89 124 164 206 254 298 366
#     4   9  20  35  55  87 127 167 188 240 309 368
#     4  11  21  36  62  96 125 154 203 253 309 366
#     4  10  21  41  60  91 126 158 198 258 308 366
#
# _framework density 22.045287999999999
#
# number of rings (size 3 to 8) (size 9 to 14) (size 15 to 20)
#    0.000    1.714    1.429    4.286    4.000    1.143 
#    2.571    0.714    0.000    0.000    0.000    0.000 
#    0.000    0.000    0.000    0.000    0.000    0.000 
#
# Total GULP energy -173540.332809 kJ/mol
# GULP energy per Si atom -12395.738058 kJ/mol
# Density = 2.199511 g / cm^3
# Si number density = 22.045288 Si / 1000 Ang^3
#
#
#
# Elastic Constant Matrix: (Units=GPa)
#
#
# Indices 1 2 3 4 5 6 
#
# 1 196.7631 34.0304 51.2094 -12.6418 -8.9575 22.7575
# 2 34.0304 65.1226 6.0623 -3.5347 1.3425 -8.0719
# 3 51.2094 6.0623 66.8589 -4.1994 5.5054 -4.8271
# 4 -12.6418 -3.5347 -4.1994 19.6253 6.0289 -1.0765
# 5 -8.9575 1.3425 5.5054 6.0289 40.1374 -6.0790
# 6 22.7575 -8.0719 -4.8271 -1.0765 -6.0790 40.3253
#
#
#
# Elastic Compliance Matrix: (Units=1/GPa)
#
#
# Indices 1 2 3 4 5 6 
#
# 1 0.008507 -0.004504 -0.006536 0.002426 0.001647 -0.006172
# 2 -0.004504 0.018387 0.002450 0.001665 -0.001241 0.006373
# 3 -0.006536 0.002450 0.020628 0.002137 -0.003761 0.006138
# 4 0.002426 0.001665 0.002137 0.055785 -0.008268 -0.000537
# 5 0.001647 -0.001241 -0.003761 -0.008268 0.027427 0.002286
# 6 -0.006172 0.006373 0.006138 -0.000537 0.002286 0.030622
#
#
# Mechanical properties :
#
#
# Convention : Reuss Voigt Hill
#
# Bulk Modulus (GPa) = 32.95895 56.81655 44.88775
# Shear Modulus (GPa) = 26.50379 35.84712 31.17545
#
# Velocity S-wave (km/s) = 3.47110 4.03683 3.76460
# Velocity P-wave (km/s) = 5.57205 6.89613 6.26914
#
# Compressibility (1/GPa) = 0.03034077
#
# Stress axis : x y z
#
# Youngs Moduli (GPa) = 117.54969 54.38551 48.47734
#
# Poissons Ratio (x) = 0.24497 0.31686
# Poissons Ratio (y) = 0.52947 -0.11875
# Poissons Ratio (z) = 0.76833 -0.13323
#
# Static dielectric constant tensor:
#      x y z
#    x 4.573310 0.017810 -0.007240 
#    y 0.017810 3.866210 -0.187960 
#    z -0.007240 -0.187960 3.777480 
# 
# 
# High freq. dielectric constant tensor:
#      x y z
#    x 1.892440 0.013630 0.001870 
#    y 0.013630 1.846150 -0.016650 
#    z 0.001870 -0.016650 1.846610 
# 
# From -- ./inp_files/224136.got.cif
#   From: 2010.06.25/outbox.cif.g09.slc.cpg/sg2_113_cif.got.tgz:224136.got - 2010.06.27 13:26:56.
