data_PCOD8003870
_publ_section_title
;
Structure prediction by ZEFSAII (Michael W. Deem and Ramdas Pophale) SiO2 
 PCOD8003870
Probable space group: P -1
;
_chemical_formula_sum "Si O2"
_cell_formula_units_Z 16
_cell_length_a 11.023254
_cell_length_b 13.927616
_cell_length_c 14.138821
_cell_angle_alpha 55.653867
_cell_angle_beta 30.826892
_cell_angle_gamma 46.208956
_cell_volume 800.325019
_symmetry_space_group_name_H-M "P -1"
_symmetry_group_IT_number 2
_symmetry_cell_setting 'triclinic'
loop_
_space_group_symop_operation_xyz
x,y,z
-x,-y,-z
loop_
_atom_site_type_symbol
_atom_site_label
_atom_site_fract_x
_atom_site_fract_y
_atom_site_fract_z
Si Si1 0.241292 0.297602 0.462701
Si Si2 0.183767 0.518297 0.617863
Si Si3 0.390449 0.134910 0.098874
Si Si4 0.017823 0.618370 0.872919
Si Si5 0.351004 0.739581 0.639588
Si Si6 0.066067 0.214940 0.453443
Si Si7 0.220436 0.509004 0.212052
Si Si8 0.897336 0.004896 0.722180
O O1 0.528586 0.231395 0.362450
O O2 0.198311 0.196752 0.479429
O O3 0.258347 0.406195 0.325790
O O4 0.997774 0.350232 0.673426
O O5 0.211813 0.554021 0.687135
O O6 0.417329 0.370478 0.520438
O O7 0.177679 0.633123 0.488078
O O8 0.899791 0.519130 0.787430
O O9 0.307916 0.182530 0.234891
O O10 0.273666 0.034716 0.211865
O O11 0.267910 0.261206 0.038782
O O12 0.716402 0.060850 0.908416
O O13 0.145702 0.680360 0.826935
O O14 0.000000 0.500000 0.000000
O O15 0.191944 0.879989 0.614536
O O16 0.940426 0.117866 0.580257
O O17 0.500000 0.500000 0.000000
#
# Coordination Sequence:
#
# PCOD8003870 Si02
#       8
#     2   2   2   2   2   2   2   2
#     4   9  20  35  53  85 115 147 191 234 274 342
#     4   9  20  37  56  87 111 142 196 234 275 350
#     4   9  21  41  56  87 113 143 202 229 275 354
#     4  10  21  34  58  87 111 146 184 242 290 328
#     4  10  21  39  53  83 122 142 186 239 284 335
#     4  10  20  37  62  81 110 154 190 230 282 333
#     4   9  18  34  57  80 116 154 184 228 287 332
#     4  10  21  39  61  79 114 158 182 237 286 330
#
# _framework density 19.991879000000001
#
# number of rings (size 3 to 8) (size 9 to 14) (size 15 to 20)
#    0.000    2.500    0.000    1.500    3.500    3.500 
#    6.750    0.625    0.000    0.000    0.000    0.000 
#    0.000    0.000    0.000    0.000    0.000    0.000 
#
# Total GULP energy -198261.289061 kJ/mol
# GULP energy per Si atom -12391.330566 kJ/mol
# Density = 1.994638 g / cm^3
# Si number density = 19.991879 Si / 1000 Ang^3
#
#
#
# Elastic Constant Matrix: (Units=GPa)
#
#
# Indices 1 2 3 4 5 6 
#
# 1 86.2512 28.2313 24.9366 -3.0430 0.4890 -0.3545
# 2 28.2313 110.7012 48.9151 -0.1302 -10.1204 2.5048
# 3 24.9366 48.9151 92.9129 0.5109 -4.0346 -5.1192
# 4 -3.0430 -0.1302 0.5109 35.5989 4.9108 -4.1969
# 5 0.4890 -10.1204 -4.0346 4.9108 23.2250 5.5282
# 6 -0.3545 2.5048 -5.1192 -4.1969 5.5282 20.2224
#
#
#
# Elastic Compliance Matrix: (Units=1/GPa)
#
#
# Indices 1 2 3 4 5 6 
#
# 1 0.013164 -0.002615 -0.002214 0.001589 -0.002369 0.000971
# 2 -0.002615 0.013146 -0.006229 -0.001580 0.006297 -0.005300
# 3 -0.002214 -0.006229 0.014848 0.000339 -0.001333 0.004926
# 4 0.001589 -0.001580 0.000339 0.030587 -0.009321 0.009206
# 5 -0.002369 0.006297 -0.001333 -0.009321 0.051690 -0.017224
# 6 0.000971 -0.005300 0.004926 0.009206 -0.017224 0.057990
#
#
# Mechanical properties :
#
#
# Convention : Reuss Voigt Hill
#
# Bulk Modulus (GPa) = 52.51798 54.89235 53.70516
# Shear Modulus (GPa) = 23.82204 28.32809 26.07507
#
# Velocity S-wave (km/s) = 3.45568 3.76836 3.61540
# Velocity P-wave (km/s) = 6.49992 6.81550 6.65958
#
# Compressibility (1/GPa) = 0.01904110
#
# Stress axis : x y z
#
# Youngs Moduli (GPa) = 75.96649 76.06592 67.34877
#
# Poissons Ratio (x) = 0.19894 0.14912
# Poissons Ratio (y) = 0.19868 0.41952
# Poissons Ratio (z) = 0.16820 0.47382
#
# Static dielectric constant tensor:
#      x y z
#    x 3.813990 0.174340 -0.060480 
#    y 0.174340 3.650450 0.187680 
#    z -0.060480 0.187680 3.443210 
# 
# 
# High freq. dielectric constant tensor:
#      x y z
#    x 1.777720 0.013870 -0.005670 
#    y 0.013870 1.774830 0.007370 
#    z -0.005670 0.007370 1.760790 
# 
# From -- ./inp_files/258718.got.cif
#   From: 2010.06.25/outbox.cif.g09.slc.cpg/sg2_130_cif.got.tgz:258718.got - 2010.06.27 13:26:56.
