data_PCOD8003703
_publ_section_title
;
Structure prediction by ZEFSAII (Michael W. Deem and Ramdas Pophale) SiO2 
 PCOD8003703
Probable space group: P -1
;
_chemical_formula_sum "Si O2"
_cell_formula_units_Z 16
_cell_length_a 18.899016
_cell_length_b 6.230320
_cell_length_c 9.211290
_cell_angle_alpha 126.282413
_cell_angle_beta 53.823913
_cell_angle_gamma 108.379983
_cell_volume 704.783903
_symmetry_space_group_name_H-M "P -1"
_symmetry_group_IT_number 2
_symmetry_cell_setting 'triclinic'
loop_
_space_group_symop_operation_xyz
x,y,z
-x,-y,-z
loop_
_atom_site_type_symbol
_atom_site_label
_atom_site_fract_x
_atom_site_fract_y
_atom_site_fract_z
Si Si1 0.381665 0.860575 0.159874
Si Si2 0.779965 0.179430 0.834981
Si Si3 0.236008 0.243596 0.821825
Si Si4 0.523084 0.616486 0.677522
Si Si5 0.941404 0.011027 0.437170
Si Si6 0.669320 0.292946 0.536637
Si Si7 0.171810 0.440643 0.687209
Si Si8 0.883790 0.002935 0.911325
O O1 0.296924 0.973570 0.214599
O O2 0.351891 0.676121 0.254518
O O3 0.429285 0.104219 0.274670
O O4 0.439953 0.672928 0.905429
O O5 0.859192 0.227910 0.642484
O O6 0.821970 0.989925 0.836244
O O7 0.735051 0.461550 0.054337
O O8 0.214113 0.240558 0.677169
O O9 0.312568 0.014817 0.660380
O O10 0.151275 0.180830 0.993821
O O11 0.500000 0.500000 0.500000
O O12 0.586500 0.391422 0.582258
O O13 0.901175 0.721500 0.367837
O O14 0.000000 0.000000 0.500000
O O15 0.011521 0.082145 0.256865
O O16 0.754339 0.460792 0.471742
O O17 0.119905 0.686752 0.923007
#
# Coordination Sequence:
#
# PCOD8003703 Si02
#       8
#     2   2   2   2   2   2   2   2
#     4  11  26  46  70 104 133 175 220 266 339 400
#     4  10  22  40  63  95 136 170 220 274 325 400
#     4  10  22  38  65  96 127 177 227 266 334 391
#     4  11  27  47  73 101 139 168 214 279 331 397
#     4  10  20  37  60  89 133 173 221 279 335 376
#     4  11  23  44  70  96 132 177 222 266 334 399
#     4  10  21  40  64  90 130 175 225 276 322 395
#     4   9  21  38  63  95 127 179 223 276 333 387
#
# _framework density 22.701993999999999
#
# number of rings (size 3 to 8) (size 9 to 14) (size 15 to 20)
#    0.000    1.750    0.000    3.000    7.000    4.500 
#    2.250    5.000    0.000    0.000    0.000    0.000 
#    0.000    0.000    0.000    0.000    0.000    0.000 
#
# Total GULP energy -198266.442110 kJ/mol
# GULP energy per Si atom -12391.652632 kJ/mol
# Density = 2.265032 g / cm^3
# Si number density = 22.701994 Si / 1000 Ang^3
#
#
#
# Elastic Constant Matrix: (Units=GPa)
#
#
# Indices 1 2 3 4 5 6 
#
# 1 100.8043 15.4180 48.4098 -12.3568 7.7163 20.5928
# 2 15.4180 64.2209 34.2951 -27.0598 11.5574 -1.0520
# 3 48.4098 34.2951 140.3761 -22.4457 1.8491 7.5088
# 4 -12.3568 -27.0598 -22.4457 45.7589 7.4436 -2.3405
# 5 7.7163 11.5574 1.8491 7.4436 41.5107 5.0805
# 6 20.5928 -1.0520 7.5088 -2.3405 5.0805 27.0732
#
#
#
# Elastic Compliance Matrix: (Units=1/GPa)
#
#
# Indices 1 2 3 4 5 6 
#
# 1 0.014081 -0.000655 -0.003990 0.001201 -0.001338 -0.009274
# 2 -0.000655 0.026342 -0.003909 0.015501 -0.010543 0.005924
# 3 -0.003990 -0.003909 0.009616 0.001140 0.001186 0.000092
# 4 0.001201 0.015501 0.001140 0.033954 -0.011219 0.004413
# 5 -0.001338 -0.010543 0.001186 -0.011219 0.030007 -0.006322
# 6 -0.009274 0.005924 0.000092 0.004413 -0.006322 0.045764
#
#
# Mechanical properties :
#
#
# Convention : Reuss Voigt Hill
#
# Bulk Modulus (GPa) = 30.36642 55.73854 43.05248
# Shear Modulus (GPa) = 26.61706 36.68712 31.65209
#
# Velocity S-wave (km/s) = 3.42783 4.02435 3.73801
# Velocity P-wave (km/s) = 5.39183 6.79702 6.13479
#
# Compressibility (1/GPa) = 0.03293112
#
# Stress axis : x y z
#
# Youngs Moduli (GPa) = 71.01873 37.96223 103.98810
#
# Poissons Ratio (x) = 0.02485 0.41493
# Poissons Ratio (y) = 0.04650 0.40651
# Poissons Ratio (z) = 0.28337 0.14840
#
# Static dielectric constant tensor:
#      x y z
#    x 10.645380 4.162220 -10.342630 
#    y 4.162220 6.417540 -6.473250 
#    z -10.342630 -6.473250 20.633530 
# 
# 
# High freq. dielectric constant tensor:
#      x y z
#    x 1.888860 0.007320 -0.006420 
#    y 0.007320 1.877440 -0.003220 
#    z -0.006420 -0.003220 1.924520 
# 
# From -- ./inp_files/324090.got.cif
#   From: 2010.06.25/outbox.cif.g09.slc.cpg/sg2_163_cif.got.tgz:324090.got - 2010.06.27 13:26:56.
