data_PCOD8003937
_publ_section_title
;
Structure prediction by ZEFSAII (Michael W. Deem and Ramdas Pophale) SiO2 
 PCOD8003937
Probable space group: P -1
;
_chemical_formula_sum "Si O2"
_cell_formula_units_Z 16
_cell_length_a 14.664862
_cell_length_b 7.510601
_cell_length_c 7.283452
_cell_angle_alpha 57.063124
_cell_angle_beta 92.010034
_cell_angle_gamma 106.628731
_cell_volume 637.830938
_symmetry_space_group_name_H-M "P -1"
_symmetry_group_IT_number 2
_symmetry_cell_setting 'triclinic'
loop_
_space_group_symop_operation_xyz
x,y,z
-x,-y,-z
loop_
_atom_site_type_symbol
_atom_site_label
_atom_site_fract_x
_atom_site_fract_y
_atom_site_fract_z
Si Si1 0.314669 0.028732 0.264134
Si Si2 0.136521 0.719815 0.025737
Si Si3 0.873528 0.143595 0.427981
Si Si4 0.533478 0.599916 0.746315
Si Si5 0.914305 0.734447 0.615806
Si Si6 0.617820 0.385072 0.567066
Si Si7 0.946258 0.780258 0.011615
Si Si8 0.759411 0.773175 0.160657
O O1 0.382877 0.160116 0.360017
O O2 0.314061 0.227732 0.010494
O O3 0.206073 0.904613 0.394838
O O4 0.350957 0.836186 0.284557
O O5 0.146249 0.690351 0.821277
O O6 0.161936 0.518085 0.247465
O O7 0.021425 0.642477 0.102073
O O8 0.203428 0.958758 0.957266
O O9 0.980116 0.244892 0.469992
O O10 0.869241 0.918488 0.425830
O O11 0.568533 0.419735 0.734521
O O12 0.451142 0.654764 0.592630
O O13 0.500000 0.500000 0.000000
O O14 0.927362 0.828338 0.773538
O O15 0.704858 0.616736 0.409410
O O16 0.844773 0.671679 0.170772
O O17 0.000000 0.000000 0.000000
#
# Coordination Sequence:
#
# PCOD8003937 Si02
#       8
#     2   2   2   2   2   2   2   2
#     4  12  25  44  74 107 140 188 232 288 362 421
#     4  10  22  37  62  91 133 195 239 283 342 397
#     4  10  21  37  63  95 136 177 239 285 337 407
#     4  11  25  54  78 107 143 177 223 300 360 437
#     4  10  20  37  62  90 133 192 236 285 340 399
#     4  11  27  48  78 108 142 180 232 287 365 434
#     4   9  18  35  58  85 133 179 228 284 334 387
#     4  11  23  43  61 103 141 177 236 295 335 418
#
# _framework density 25.085017000000001
#
# number of rings (size 3 to 8) (size 9 to 14) (size 15 to 20)
#    0.000    1.500    2.500    2.625    3.500    2.500 
#    4.500    0.625    0.000    0.000    0.000    0.000 
#    0.000    0.000    0.000    0.000    0.000    0.000 
#
# Total GULP energy -198209.121657 kJ/mol
# GULP energy per Si atom -12388.070104 kJ/mol
# Density = 2.502792 g / cm^3
# Si number density = 25.085017 Si / 1000 Ang^3
#
#
#
# Elastic Constant Matrix: (Units=GPa)
#
#
# Indices 1 2 3 4 5 6 
#
# 1 80.5710 18.9200 25.5830 3.7182 -11.9981 -10.8410
# 2 18.9200 96.1144 15.3188 -5.6537 -7.8148 0.9524
# 3 25.5830 15.3188 100.9175 0.1875 -5.9721 -7.9814
# 4 3.7182 -5.6537 0.1875 42.5315 -10.0017 -6.0639
# 5 -11.9981 -7.8148 -5.9721 -10.0017 25.8728 0.5965
# 6 -10.8410 0.9524 -7.9814 -6.0639 0.5965 32.4956
#
#
#
# Elastic Compliance Matrix: (Units=1/GPa)
#
#
# Indices 1 2 3 4 5 6 
#
# 1 0.015254 -0.002093 -0.002855 0.000403 0.005837 0.004417
# 2 -0.002093 0.011389 -0.001091 0.002306 0.003130 -0.000927
# 3 -0.002855 -0.001091 0.011008 0.000574 0.001066 0.001871
# 4 0.000403 0.002306 0.000574 0.027187 0.011408 0.005072
# 5 0.005837 0.003130 0.001066 0.011408 0.046881 0.003386
# 6 0.004417 -0.000927 0.001871 0.005072 0.003386 0.033618
#
#
# Mechanical properties :
#
#
# Convention : Reuss Voigt Hill
#
# Bulk Modulus (GPa) = 39.10207 44.13852 41.62029
# Shear Modulus (GPa) = 30.13118 34.69870 32.41494
#
# Velocity S-wave (km/s) = 3.46954 3.72323 3.59862
# Velocity P-wave (km/s) = 5.62778 6.00975 5.82190
#
# Compressibility (1/GPa) = 0.02557410
#
# Stress axis : x y z
#
# Youngs Moduli (GPa) = 65.55444 87.80024 90.83933
#
# Poissons Ratio (x) = 0.18379 0.25938
# Poissons Ratio (y) = 0.13722 0.09907
# Poissons Ratio (z) = 0.18718 0.09575
#
# Static dielectric constant tensor:
#      x y z
#    x 5.225490 -0.145000 0.009480 
#    y -0.145000 4.586050 0.072080 
#    z 0.009480 0.072080 4.481910 
# 
# 
# High freq. dielectric constant tensor:
#      x y z
#    x 1.989930 0.004340 0.004780 
#    y 0.004340 2.003060 -0.007940 
#    z 0.004780 -0.007940 2.002710 
# 
# From -- ./inp_files/294056.got.cif
#   From: 2010.06.25/outbox.cif.g09.slc.cpg/sg2_148_cif.got.tgz:294056.got - 2010.06.27 13:26:56.
