data_PCOD8003094
_publ_section_title
;
Structure prediction by ZEFSAII (Michael W. Deem and Ramdas Pophale) SiO2 
 PCOD8003094
Probable space group: P -1
;
_chemical_formula_sum "Si O2"
_cell_formula_units_Z 12
_cell_length_a 6.623603
_cell_length_b 9.070814
_cell_length_c 11.525556
_cell_angle_alpha 98.500127
_cell_angle_beta 58.251172
_cell_angle_gamma 78.954348
_cell_volume 551.704804
_symmetry_space_group_name_H-M "P -1"
_symmetry_group_IT_number 2
_symmetry_cell_setting 'triclinic'
loop_
_space_group_symop_operation_xyz
x,y,z
-x,-y,-z
loop_
_atom_site_type_symbol
_atom_site_label
_atom_site_fract_x
_atom_site_fract_y
_atom_site_fract_z
Si Si1 0.365345 0.834722 0.679301
Si Si2 0.974586 0.906090 0.313041
Si Si3 0.791143 0.417220 0.914950
Si Si4 0.401043 0.632021 0.448542
Si Si5 0.174508 0.587573 0.830712
Si Si6 0.864877 0.839010 0.591021
O O1 0.443958 0.783147 0.514558
O O2 0.190086 0.737093 0.770187
O O3 0.606419 0.800308 0.686408
O O4 0.210010 0.019371 0.731517
O O5 0.142253 0.733229 0.206138
O O6 0.836159 0.902383 0.475537
O O7 0.136954 0.023735 0.301783
O O8 0.941326 0.536988 0.846800
O O9 0.500000 0.500000 0.000000
O O10 0.863633 0.362660 0.018463
O O11 0.500000 0.500000 0.500000
O O12 0.573296 0.566515 0.276417
O O13 0.105470 0.680584 0.511550
#
# Coordination Sequence:
#
# PCOD8003094 Si02
#       6
#     2   2   2   2   2   2
#     4  10  21  38  62  90 120 151 193 247 295 345
#     4  10  22  38  60  89 118 155 199 240 288 352
#     4  11  24  41  60  81 115 160 201 241 292 350
#     4   9  19  35  58  90 120 147 188 240 291 346
#     4  10  23  39  58  86 117 153 198 243 290 344
#     4  10  20  36  62  91 120 155 191 237 299 351
#
# _framework density 21.750762999999999
#
# number of rings (size 3 to 8) (size 9 to 14) (size 15 to 20)
#    0.000    2.000    0.000    2.500    0.000   12.667 
#    0.000    1.667    0.000    3.000    0.000    0.000 
#    0.000    0.000    0.000    0.000    0.000    0.000 
#
# Total GULP energy -148687.816366 kJ/mol
# GULP energy per Si atom -12390.651364 kJ/mol
# Density = 2.170126 g / cm^3
# Si number density = 21.750763 Si / 1000 Ang^3
#
#
#
# Elastic Constant Matrix: (Units=GPa)
#
#
# Indices 1 2 3 4 5 6 
#
# 1 151.0809 59.9855 34.2306 3.9012 -31.5852 -6.0145
# 2 59.9855 100.7292 25.6388 2.4891 -15.7017 -5.5341
# 3 34.2306 25.6388 65.1445 9.2210 0.4933 14.1682
# 4 3.9012 2.4891 9.2210 28.5756 1.0702 2.5989
# 5 -31.5852 -15.7017 0.4933 1.0702 34.6464 1.0344
# 6 -6.0145 -5.5341 14.1682 2.5989 1.0344 29.2421
#
#
#
# Elastic Compliance Matrix: (Units=1/GPa)
#
#
# Indices 1 2 3 4 5 6 
#
# 1 0.011277 -0.003820 -0.005307 -0.000166 0.008514 0.003881
# 2 -0.003820 0.013957 -0.004383 0.000265 0.002782 0.003857
# 3 -0.005307 -0.004383 0.023359 -0.005041 -0.006627 -0.012556
# 4 -0.000166 0.000265 -0.005041 0.036731 -0.001071 -0.000768
# 5 0.008514 0.002782 -0.006627 -0.001071 0.037886 0.004243
# 6 0.003881 0.003857 -0.012556 -0.000768 0.004243 0.041728
#
#
# Mechanical properties :
#
#
# Convention : Reuss Voigt Hill
#
# Bulk Modulus (GPa) = 46.35700 61.85161 54.10430
# Shear Modulus (GPa) = 25.10666 31.63281 28.36974
#
# Velocity S-wave (km/s) = 3.40117 3.81771 3.61544
# Velocity P-wave (km/s) = 6.06490 6.92325 6.50824
#
# Compressibility (1/GPa) = 0.02157172
#
# Stress axis : x y z
#
# Youngs Moduli (GPa) = 88.67618 71.64707 42.81011
#
# Poissons Ratio (x) = 0.27371 0.22720
# Poissons Ratio (y) = 0.33876 0.18765
# Poissons Ratio (z) = 0.47062 0.31406
#
# Static dielectric constant tensor:
#      x y z
#    x 4.031770 0.056040 0.050150 
#    y 0.056040 3.992870 0.357260 
#    z 0.050150 0.357260 4.246340 
# 
# 
# High freq. dielectric constant tensor:
#      x y z
#    x 1.859470 -0.000490 0.004260 
#    y -0.000490 1.851500 0.008980 
#    z 0.004260 0.008980 1.832790 
# 
# From -- ./inp_files/31003.got.cif
#   From: 2010.06.25/outbox.cif.g09.slc.cpg/sg2_16_cif.got.tgz:31003.got - 2010.06.27 13:26:56.
