data_PCOD8003853
_publ_section_title
;
Structure prediction by ZEFSAII (Michael W. Deem and Ramdas Pophale) SiO2 
 PCOD8003853
Probable space group: P -1
;
_chemical_formula_sum "Si O2"
_cell_formula_units_Z 16
_cell_length_a 8.516260
_cell_length_b 7.343788
_cell_length_c 12.939483
_cell_angle_alpha 110.009254
_cell_angle_beta 66.322926
_cell_angle_gamma 105.534818
_cell_volume 688.355158
_symmetry_space_group_name_H-M "P -1"
_symmetry_group_IT_number 2
_symmetry_cell_setting 'triclinic'
loop_
_space_group_symop_operation_xyz
x,y,z
-x,-y,-z
loop_
_atom_site_type_symbol
_atom_site_label
_atom_site_fract_x
_atom_site_fract_y
_atom_site_fract_z
Si Si1 0.284912 0.727787 0.707448
Si Si2 0.778846 0.788753 0.327282
Si Si3 0.540190 0.471150 0.686746
Si Si4 0.801310 0.696826 0.531575
Si Si5 0.592525 0.048583 0.687092
Si Si6 0.990947 0.498252 0.124736
Si Si7 0.180445 0.782725 0.527295
Si Si8 0.632996 0.431348 0.872673
O O1 0.438579 0.616378 0.680809
O O2 0.210384 0.659064 0.600262
O O3 0.136319 0.688560 0.828184
O O4 0.388523 0.951275 0.713981
O O5 0.588626 0.739179 0.313638
O O6 0.756885 0.669411 0.418044
O O7 0.924264 0.702009 0.207370
O O8 0.843247 0.012604 0.373692
O O9 0.720886 0.495505 0.576946
O O10 0.595852 0.545446 0.800342
O O11 0.005070 0.712278 0.498405
O O12 0.723438 0.887915 0.632551
O O13 0.658881 0.183307 0.592358
O O14 0.610969 0.196635 0.809136
O O15 0.177327 0.491074 0.121589
O O16 0.000000 0.500000 0.000000
O O17 0.500000 0.500000 0.000000
#
# Coordination Sequence:
#
# PCOD8003853 Si02
#       8
#     2   2   2   2   2   2   2   2
#     4  10  22  40  62  91 123 159 200 246 298 355
#     4  10  20  38  62  88 122 159 196 247 301 354
#     4  10  22  38  57  88 123 160 201 243 293 356
#     4  10  20  37  61  93 123 156 196 246 303 358
#     4  10  22  40  62  91 124 157 197 246 300 359
#     4  11  24  44  63  88 120 158 203 251 296 352
#     4  11  20  37  63  94 124 157 195 245 304 359
#     4  12  24  42  63  85 117 162 204 248 298 353
#
# _framework density 23.243815999999999
#
# number of rings (size 3 to 8) (size 9 to 14) (size 15 to 20)
#    0.000    1.500    0.000    6.750    0.000    5.000 
#    0.000   13.750    0.000    0.000    0.000    0.000 
#    0.000    0.000    0.000    0.000    0.000    0.000 
#
# Total GULP energy -198303.023136 kJ/mol
# GULP energy per Si atom -12393.938946 kJ/mol
# Density = 2.319091 g / cm^3
# Si number density = 23.243816 Si / 1000 Ang^3
#
#
#
# Elastic Constant Matrix: (Units=GPa)
#
#
# Indices 1 2 3 4 5 6 
#
# 1 167.2954 25.2972 71.5283 -15.6017 1.7834 24.2377
# 2 25.2972 94.5097 52.8950 -20.0323 -4.9102 6.7650
# 3 71.5283 52.8950 195.1638 -10.6763 -3.0463 3.1905
# 4 -15.6017 -20.0323 -10.6763 39.0822 -5.0708 -6.1319
# 5 1.7834 -4.9102 -3.0463 -5.0708 50.2233 -2.2798
# 6 24.2377 6.7650 3.1905 -6.1319 -2.2798 38.7460
#
#
#
# Elastic Compliance Matrix: (Units=1/GPa)
#
#
# Indices 1 2 3 4 5 6 
#
# 1 0.007976 0.000083 -0.002787 0.001692 -0.000479 -0.004535
# 2 0.000083 0.013988 -0.003431 0.006318 0.001744 -0.001109
# 3 -0.002787 -0.003431 0.007014 -0.000667 0.000197 0.001671
# 4 0.001692 0.006318 -0.000667 0.030254 0.003703 0.002899
# 5 -0.000479 0.001744 0.000197 0.003703 0.020565 0.001775
# 6 -0.004535 -0.001109 0.001671 0.002899 0.001775 0.029265
#
#
# Mechanical properties :
#
#
# Convention : Reuss Voigt Hill
#
# Bulk Modulus (GPa) = 59.84454 84.04551 71.94502
# Shear Modulus (GPa) = 39.40069 46.09354 42.74711
#
# Velocity S-wave (km/s) = 4.12163 4.45797 4.29310
# Velocity P-wave (km/s) = 6.96080 7.92053 7.45612
#
# Compressibility (1/GPa) = 0.01670996
#
# Stress axis : x y z
#
# Youngs Moduli (GPa) = 125.37213 71.49042 142.56674
#
# Poissons Ratio (x) = -0.00593 0.39728
# Poissons Ratio (y) = -0.01039 0.48908
# Poissons Ratio (z) = 0.34936 0.24525
#
# Static dielectric constant tensor:
#      x y z
#    x 4.593720 -0.094350 0.006720 
#    y -0.094350 4.723510 -0.037280 
#    z 0.006720 -0.037280 4.038680 
# 
# 
# High freq. dielectric constant tensor:
#      x y z
#    x 1.953880 -0.013130 -0.002270 
#    y -0.013130 1.950290 -0.000800 
#    z -0.002270 -0.000800 1.903140 
# 
# From -- ./inp_files/379884.got.cif
#   From: 2010.06.25/outbox.cif.g09.slc.cpg/sg2_190_cif.got.tgz:379884.got - 2010.06.27 13:26:56.
