data_PCOD8003650
_publ_section_title
;
Structure prediction by ZEFSAII (Michael W. Deem and Ramdas Pophale) SiO2 
 PCOD8003650
Probable space group: P -1
;
_chemical_formula_sum "Si O2"
_cell_formula_units_Z 16
_cell_length_a 15.806139
_cell_length_b 21.109071
_cell_length_c 9.972248
_cell_angle_alpha 36.480150
_cell_angle_beta 46.504888
_cell_angle_gamma 22.544012
_cell_volume 736.575027
_symmetry_space_group_name_H-M "P -1"
_symmetry_group_IT_number 2
_symmetry_cell_setting 'triclinic'
loop_
_space_group_symop_operation_xyz
x,y,z
-x,-y,-z
loop_
_atom_site_type_symbol
_atom_site_label
_atom_site_fract_x
_atom_site_fract_y
_atom_site_fract_z
Si Si1 0.777901 0.216054 0.798911
Si Si2 0.762171 0.710486 0.188183
Si Si3 0.115241 0.068470 0.518238
Si Si4 0.312618 0.689357 0.982334
Si Si5 0.801424 0.765650 0.483318
Si Si6 0.273005 0.032722 0.148607
Si Si7 0.335853 0.108939 0.292894
Si Si8 0.823283 0.980171 0.004295
O O1 0.620667 0.384504 0.805556
O O2 0.860829 0.241188 0.559336
O O3 0.677933 0.191347 0.870992
O O4 0.000000 0.000000 0.000000
O O5 0.959253 0.473341 0.410852
O O6 0.522398 0.846032 0.264915
O O7 0.814795 0.777238 0.100656
O O8 0.738056 0.757731 0.975930
O O9 0.101562 0.105950 0.311082
O O10 0.214291 0.090689 0.451617
O O11 0.287617 0.835303 0.744201
O O12 0.500000 0.500000 0.000000
O O13 0.081467 0.812221 0.983945
O O14 0.609984 0.879668 0.390615
O O15 0.737300 0.775736 0.685338
O O16 0.820309 0.879018 0.273293
O O17 0.291613 0.955063 0.122501
#
# Coordination Sequence:
#
# PCOD8003650 Si02
#       8
#     2   2   2   2   2   2   2   2
#     4   8  17  36  59  84 113 156 194 246 302 359
#     4  10  22  38  53  87 129 156 203 254 297 353
#     4   9  19  37  59  77 119 166 188 245 310 348
#     4  10  21  35  59  92 117 142 201 258 296 363
#     4  11  21  34  63  87 117 163 201 251 306 354
#     4  10  21  38  56  83 122 163 202 253 297 355
#     4  10  20  38  59  88 117 160 207 243 303 369
#     4  10  20  37  60  85 116 158 207 239 300 369
#
# _framework density 21.722159000000001
#
# number of rings (size 3 to 8) (size 9 to 14) (size 15 to 20)
#    0.000    2.500    1.250    2.625    1.750    3.500 
#    0.000    0.000    2.750    1.500    0.000    0.000 
#    0.000    0.000    0.000    0.000    0.000    0.000 
#
# Total GULP energy -198283.258185 kJ/mol
# GULP energy per Si atom -12392.703637 kJ/mol
# Density = 2.167272 g / cm^3
# Si number density = 21.722159 Si / 1000 Ang^3
#
#
#
# Elastic Constant Matrix: (Units=GPa)
#
#
# Indices 1 2 3 4 5 6 
#
# 1 113.5059 24.4500 30.4532 10.9819 -8.3799 14.1609
# 2 24.4500 95.2335 35.0437 7.4341 -8.7354 24.3410
# 3 30.4532 35.0437 69.4107 15.2775 -9.5672 -2.3047
# 4 10.9819 7.4341 15.2775 32.8521 -0.9264 6.3156
# 5 -8.3799 -8.7354 -9.5672 -0.9264 27.6624 7.6939
# 6 14.1609 24.3410 -2.3047 6.3156 7.6939 35.2604
#
#
#
# Elastic Compliance Matrix: (Units=1/GPa)
#
#
# Indices 1 2 3 4 5 6 
#
# 1 0.010989 0.000892 -0.004907 -0.000324 0.003593 -0.006076
# 2 0.000892 0.018389 -0.009971 0.003433 0.007161 -0.015881
# 3 -0.004907 -0.009971 0.024124 -0.009660 0.000002 0.012161
# 4 -0.000324 0.003433 -0.009660 0.036169 0.001551 -0.009688
# 5 0.003593 0.007161 0.000002 0.001551 0.044081 -0.016282
# 6 -0.006076 -0.015881 0.012161 -0.009688 -0.016282 0.047847
#
#
# Mechanical properties :
#
#
# Convention : Reuss Voigt Hill
#
# Bulk Modulus (GPa) = 39.16972 50.89377 45.03175
# Shear Modulus (GPa) = 22.92721 31.70186 27.31453
#
# Velocity S-wave (km/s) = 3.25233 3.82439 3.54990
# Velocity P-wave (km/s) = 5.67229 6.55603 6.13011
#
# Compressibility (1/GPa) = 0.02552992
#
# Stress axis : x y z
#
# Youngs Moduli (GPa) = 90.99953 54.38119 41.45193
#
# Poissons Ratio (x) = -0.04851 0.20340
# Poissons Ratio (y) = -0.08118 0.41333
# Poissons Ratio (z) = 0.44653 0.54225
#
# Static dielectric constant tensor:
#      x y z
#    x 4.182020 0.363930 -0.092910 
#    y 0.363930 4.125010 0.450110 
#    z -0.092910 0.450110 3.782060 
# 
# 
# High freq. dielectric constant tensor:
#      x y z
#    x 1.862750 0.019030 -0.006550 
#    y 0.019030 1.842150 0.034690 
#    z -0.006550 0.034690 1.832640 
# 
# From -- ./inp_files/467424.got.cif
#   From: 2010.06.25/outbox.cif.g09.slc.cpg/sg2_234_cif.got.tgz:467424.got - 2010.06.27 13:26:56.
