data_PCOD8003008
_publ_section_title
;
Structure prediction by ZEFSAII (Michael W. Deem and Ramdas Pophale) SiO2 
 PCOD8003008
Probable space group: P -1
;
_chemical_formula_sum "Si O2"
_cell_formula_units_Z 16
_cell_length_a 9.369876
_cell_length_b 11.193950
_cell_length_c 16.508710
_cell_angle_alpha 62.319087
_cell_angle_beta 151.248182
_cell_angle_gamma 113.765862
_cell_volume 737.531979
_symmetry_space_group_name_H-M "P -1"
_symmetry_group_IT_number 2
_symmetry_cell_setting 'triclinic'
loop_
_space_group_symop_operation_xyz
x,y,z
-x,-y,-z
loop_
_atom_site_type_symbol
_atom_site_label
_atom_site_fract_x
_atom_site_fract_y
_atom_site_fract_z
Si Si1 0.331527 0.302564 0.097591
Si Si2 0.459330 0.227608 0.604078
Si Si3 0.123459 0.804807 0.773218
Si Si4 0.338210 0.950288 0.691459
Si Si5 0.972518 0.753422 0.206219
Si Si6 0.714019 0.293572 0.870081
Si Si7 0.522808 0.592614 0.122191
Si Si8 0.792934 0.036862 0.087546
O O1 0.552963 0.176959 0.270290
O O2 0.531125 0.435645 0.153573
O O3 0.201963 0.269919 0.955872
O O4 0.060946 0.327049 0.017705
O O5 0.512696 0.318920 0.681735
O O6 0.680730 0.275905 0.628277
O O7 0.131022 0.240836 0.400902
O O8 0.537378 0.075063 0.722113
O O9 0.361084 0.900138 0.812860
O O10 0.006058 0.884056 0.769614
O O11 0.286741 0.667955 0.923510
O O12 0.000000 0.000000 0.500000
O O13 0.846579 0.656266 0.244830
O O14 0.966152 0.908324 0.181782
O O15 0.569359 0.388833 0.836178
O O16 0.704219 0.136598 0.939296
O O17 0.500000 0.000000 0.000000
#
# Coordination Sequence:
#
# PCOD8003008 Si02
#       8
#     2   2   2   2   2   2   2   2
#     4  11  21  38  62  93 116 162 219 246 292 374
#     4  10  22  38  60  94 122 155 203 255 317 354
#     4  10  21  37  61  90 122 163 195 253 311 363
#     4  10  20  36  61  89 119 156 196 258 307 356
#     4  11  21  35  60  91 119 158 205 258 295 363
#     4  10  21  36  62  92 122 161 205 259 296 361
#     4  11  22  39  65  87 122 167 211 245 298 365
#     4  11  18  34  61  91 119 151 207 255 303 347
#
# _framework density 21.693974000000001
#
# number of rings (size 3 to 8) (size 9 to 14) (size 15 to 20)
#    0.000    1.500    3.750    3.000    0.000    2.500 
#    0.000    3.750    0.000    6.000    0.000    0.000 
#    0.000    0.000    0.000    0.000    0.000    0.000 
#
# Total GULP energy -198271.477363 kJ/mol
# GULP energy per Si atom -12391.967335 kJ/mol
# Density = 2.164460 g / cm^3
# Si number density = 21.693974 Si / 1000 Ang^3
#
#
#
# Elastic Constant Matrix: (Units=GPa)
#
#
# Indices 1 2 3 4 5 6 
#
# 1 128.4714 22.1268 31.2415 6.7064 6.2333 0.4539
# 2 22.1268 93.4956 15.4018 0.5792 4.0940 -2.6408
# 3 31.2415 15.4018 64.3309 9.7211 -3.7924 -5.6367
# 4 6.7064 0.5792 9.7211 16.6097 3.0019 4.5067
# 5 6.2333 4.0940 -3.7924 3.0019 24.0787 5.7011
# 6 0.4539 -2.6408 -5.6367 4.5067 5.7011 21.0455
#
#
#
# Elastic Compliance Matrix: (Units=1/GPa)
#
#
# Indices 1 2 3 4 5 6 
#
# 1 0.009218 -0.001379 -0.004286 -0.000504 -0.002596 -0.000708
# 2 -0.001379 0.011546 -0.002396 0.001692 -0.002465 0.001142
# 3 -0.004286 -0.002396 0.021108 -0.013311 0.004847 0.006983
# 4 -0.000504 0.001692 -0.013311 0.074152 -0.007423 -0.017210
# 5 -0.002596 -0.002465 0.004847 -0.007423 0.046681 -0.010011
# 6 -0.000708 0.001142 0.006983 -0.017210 -0.010011 0.055942
#
#
# Mechanical properties :
#
#
# Convention : Reuss Voigt Hill
#
# Bulk Modulus (GPa) = 38.83031 47.09312 42.96172
# Shear Modulus (GPa) = 20.54635 26.84863 23.69749
#
# Velocity S-wave (km/s) = 3.08084 3.52178 3.30866
# Velocity P-wave (km/s) = 5.53113 6.18808 5.86880
#
# Compressibility (1/GPa) = 0.02575308
#
# Stress axis : x y z
#
# Youngs Moduli (GPa) = 108.48033 86.60733 47.37455
#
# Poissons Ratio (x) = 0.11942 0.20302
# Poissons Ratio (y) = 0.14958 0.11349
# Poissons Ratio (z) = 0.46490 0.20748
#
# Static dielectric constant tensor:
#      x y z
#    x 2.030460 4.707580 2.487140 
#    y 4.707580 -4.557350 -4.654490 
#    z 2.487140 -4.654490 0.960140 
# 
# 
# High freq. dielectric constant tensor:
#      x y z
#    x 1.869690 0.003790 -0.000800 
#    y 0.003790 1.847490 0.010830 
#    z -0.000800 0.010830 1.815560 
# 
# From -- ./inp_files/466531.got.cif
#   From: 2010.06.25/outbox.cif.g09.slc.cpg/sg2_234_cif.got.tgz:466531.got - 2010.06.27 13:26:56.
