data_PCOD8004407
_publ_section_title
;
Structure prediction by ZEFSAII (Michael W. Deem and Ramdas Pophale) SiO2 
 PCOD8004407
Probable space group: P -1
;
_chemical_formula_sum "Si O2"
_cell_formula_units_Z 16
_cell_length_a 13.940595
_cell_length_b 14.464802
_cell_length_c 14.061826
_cell_angle_alpha 144.597962
_cell_angle_beta 33.818508
_cell_angle_gamma 146.141367
_cell_volume 804.415755
_symmetry_space_group_name_H-M "P -1"
_symmetry_group_IT_number 2
_symmetry_cell_setting 'triclinic'
loop_
_space_group_symop_operation_xyz
x,y,z
-x,-y,-z
loop_
_atom_site_type_symbol
_atom_site_label
_atom_site_fract_x
_atom_site_fract_y
_atom_site_fract_z
Si Si1 0.387847 0.337362 0.026288
Si Si2 0.335622 0.016683 0.091338
Si Si3 0.756979 0.443075 0.914947
Si Si4 0.216353 0.153187 0.464159
Si Si5 0.404095 0.952616 0.259172
Si Si6 0.617989 0.022462 0.327264
Si Si7 0.942306 0.642082 0.120626
Si Si8 0.032523 0.367108 0.294704
O O1 0.171581 0.313618 0.199136
O O2 0.500000 0.500000 0.000000
O O3 0.525360 0.385695 0.047171
O O4 0.358147 0.154327 0.849875
O O5 0.311938 0.179341 0.300845
O O6 0.133757 0.831301 0.105197
O O7 0.500000 0.000000 0.000000
O O8 0.415959 0.058709 0.953536
O O9 0.874981 0.541197 0.805324
O O10 0.769585 0.255963 0.763290
O O11 0.841160 0.572761 0.044425
O O12 0.327360 0.079968 0.381488
O O13 0.211280 0.330088 0.660337
O O14 0.000000 0.000000 0.500000
O O15 0.488665 0.041404 0.365406
O O16 0.829378 0.193430 0.295914
O O17 0.500000 0.000000 0.500000
O O18 0.000000 0.500000 0.000000
O O19 0.000000 0.500000 0.500000
#
# Coordination Sequence:
#
# PCOD8004407 Si02
#       8
#     2   2   2   2   2   2   2   2
#     4   9  20  38  58  83 117 152 191 241 290 343
#     4   9  18  36  56  78 111 148 188 235 284 343
#     4  10  21  38  58  83 117 152 191 245 291 341
#     4   9  19  35  58  82 109 147 187 231 283 343
#     4  10  20  38  58  82 114 151 190 237 291 346
#     4  11  22  38  62  88 117 156 195 241 295 351
#     4  11  21  36  58  85 114 150 191 240 291 343
#     4  11  22  39  60  87 118 154 196 242 294 352
#
# _framework density 19.890211000000001
#
# number of rings (size 3 to 8) (size 9 to 14) (size 15 to 20)
#    0.000    2.000    0.000    5.625    0.000    3.000 
#    0.000   19.375    0.000    1.500    0.000    0.000 
#    0.000    0.000    0.000    0.000    0.000    0.000 
#
# Total GULP energy -198229.420862 kJ/mol
# GULP energy per Si atom -12389.338804 kJ/mol
# Density = 1.984494 g / cm^3
# Si number density = 19.890211 Si / 1000 Ang^3
#
#
#
# Elastic Constant Matrix: (Units=GPa)
#
#
# Indices 1 2 3 4 5 6 
#
# 1 115.0742 38.3190 79.5691 4.1750 18.0506 11.3361
# 2 38.3190 103.2082 46.0456 7.2845 6.5396 11.8354
# 3 79.5691 46.0456 169.5076 5.0576 8.9747 4.9390
# 4 4.1750 7.2845 5.0576 34.2750 -4.8142 3.7770
# 5 18.0506 6.5396 8.9747 -4.8142 36.2917 4.1261
# 6 11.3361 11.8354 4.9390 3.7770 4.1261 36.9723
#
#
#
# Elastic Compliance Matrix: (Units=1/GPa)
#
#
# Indices 1 2 3 4 5 6 
#
# 1 0.014547 -0.002112 -0.005881 -0.000939 -0.005262 -0.002315
# 2 -0.002112 0.011855 -0.002074 -0.001737 -0.000503 -0.002637
# 3 -0.005881 -0.002074 0.009149 -0.000198 0.000877 0.001167
# 4 -0.000939 -0.001737 -0.000198 0.030738 0.005231 -0.002854
# 5 -0.005262 -0.000503 0.000877 0.005231 0.031005 -0.002337
# 6 -0.002315 -0.002637 0.001167 -0.002854 -0.002337 0.028998
#
#
# Mechanical properties :
#
#
# Convention : Reuss Voigt Hill
#
# Bulk Modulus (GPa) = 64.85900 79.51750 72.18825
# Shear Modulus (GPa) = 32.98923 36.43156 34.71040
#
# Velocity S-wave (km/s) = 4.07697 4.28440 4.18197
# Velocity P-wave (km/s) = 7.40551 8.03367 7.72597
#
# Compressibility (1/GPa) = 0.01541806
#
# Stress axis : x y z
#
# Youngs Moduli (GPa) = 68.74124 84.35018 109.30462
#
# Poissons Ratio (x) = 0.17816 0.64280
# Poissons Ratio (y) = 0.14519 0.22666
# Poissons Ratio (z) = 0.40426 0.17491
#
# Static dielectric constant tensor:
#      x y z
#    x 3.722650 0.157370 0.183030 
#    y 0.157370 3.750250 -0.228460 
#    z 0.183030 -0.228460 4.285540 
# 
# 
# High freq. dielectric constant tensor:
#      x y z
#    x 1.786430 0.011870 0.003190 
#    y 0.011870 1.772760 0.000420 
#    z 0.003190 0.000420 1.780190 
# 
# From -- ./inp_files/207276.got.cif
#   From: 2010.06.25/outbox.cif.g09.slc.cpg/sg2_104_cif.got.tgz:207276.got - 2010.06.27 13:26:56.
