data_PCOD8004264
_publ_section_title
;
Structure prediction by ZEFSAII (Michael W. Deem and Ramdas Pophale) SiO2 
 PCOD8004264
Probable space group: P -1
;
_chemical_formula_sum "Si O2"
_cell_formula_units_Z 14
_cell_length_a 20.091597
_cell_length_b 11.534529
_cell_length_c 13.790934
_cell_angle_alpha 41.051185
_cell_angle_beta 30.170264
_cell_angle_gamma 21.214403
_cell_volume 557.125473
_symmetry_space_group_name_H-M "P -1"
_symmetry_group_IT_number 2
_symmetry_cell_setting 'triclinic'
loop_
_space_group_symop_operation_xyz
x,y,z
-x,-y,-z
loop_
_atom_site_type_symbol
_atom_site_label
_atom_site_fract_x
_atom_site_fract_y
_atom_site_fract_z
Si Si1 0.535479 0.916640 0.879212
Si Si2 0.091452 0.182343 0.284837
Si Si3 0.591827 0.736414 0.453978
Si Si4 0.902135 0.238771 0.888542
Si Si5 0.519270 0.433947 0.156664
Si Si6 0.408738 0.795447 0.454471
Si Si7 0.317751 0.374966 0.331486
O O1 0.697686 0.619576 0.941963
O O2 0.664876 0.706423 0.748420
O O3 0.570235 0.089069 0.734911
O O4 0.244801 0.193207 0.081217
O O5 0.881789 0.428067 0.311109
O O6 0.967412 0.289227 0.480097
O O7 0.276549 0.813460 0.259892
O O8 0.441243 0.767295 0.688944
O O9 0.586556 0.675038 0.388689
O O10 0.451394 0.083631 0.419031
O O11 0.769935 0.270317 0.949453
O O12 0.122892 0.105044 0.651374
O O13 0.000000 0.000000 0.000000
O O14 0.462070 0.401954 0.144824
O O15 0.500000 0.500000 0.500000
#
# Coordination Sequence:
#
# PCOD8004264 Si02
#       7
#     2   2   2   2   2   2   2
#     4  10  25  45  66 100 133 170 225 278 328 389
#     4  10  21  38  66  98 132 169 211 273 338 390
#     4  10  20  38  63  94 136 165 215 271 332 395
#     4  11  23  45  67  88 137 181 217 266 323 398
#     4  10  20  37  66  95 129 170 221 265 328 394
#     4  11  25  42  65  96 133 175 223 274 323 392
#     4  10  21  38  66 101 129 171 208 278 340 380
#
# _framework density 25.128989000000001
#
# number of rings (size 3 to 8) (size 9 to 14) (size 15 to 20)
#    0.000    1.714    1.429    3.857    0.000   10.286 
#    0.000    0.714    0.000    0.000    0.000    0.000 
#    0.000    0.000    0.000    0.000    0.000    0.000 
#
# Total GULP energy -173523.118658 kJ/mol
# GULP energy per Si atom -12394.508476 kJ/mol
# Density = 2.507179 g / cm^3
# Si number density = 25.128989 Si / 1000 Ang^3
#
#
#
# Elastic Constant Matrix: (Units=GPa)
#
#
# Indices 1 2 3 4 5 6 
#
# 1 74.3820 20.5290 28.6492 8.7107 -10.6808 6.4432
# 2 20.5290 107.4443 42.7904 -21.2992 -27.4930 1.5777
# 3 28.6492 42.7904 148.9729 -0.6823 -41.2961 0.3185
# 4 8.7107 -21.2992 -0.6823 49.3723 9.6828 -13.2398
# 5 -10.6808 -27.4930 -41.2961 9.6828 34.5972 1.4030
# 6 6.4432 1.5777 0.3185 -13.2398 1.4030 36.2991
#
#
#
# Elastic Compliance Matrix: (Units=1/GPa)
#
#
# Indices 1 2 3 4 5 6 
#
# 1 0.016411 -0.002936 -0.001556 -0.006099 0.002789 -0.005104
# 2 -0.002936 0.013068 -0.001460 0.005380 0.006161 0.001690
# 3 -0.001556 -0.001460 0.010771 -0.002922 0.012086 -0.001288
# 4 -0.006099 0.005380 -0.002922 0.028623 -0.009580 0.011685
# 5 0.002789 0.006161 0.012086 -0.009580 0.052026 -0.006374
# 6 -0.005104 0.001690 -0.001288 0.011685 -0.006374 0.032901
#
#
# Mechanical properties :
#
#
# Convention : Reuss Voigt Hill
#
# Bulk Modulus (GPa) = 35.28019 57.19291 46.23655
# Shear Modulus (GPa) = 28.54637 39.97577 34.26107
#
# Velocity S-wave (km/s) = 3.37411 3.99284 3.69644
# Velocity P-wave (km/s) = 5.40829 6.63823 6.05457
#
# Compressibility (1/GPa) = 0.02834452
#
# Stress axis : x y z
#
# Youngs Moduli (GPa) = 60.93505 76.52384 92.84275
#
# Poissons Ratio (x) = 0.22468 0.14450
# Poissons Ratio (y) = 0.17891 0.13555
# Poissons Ratio (z) = 0.09484 0.11172
#
# Static dielectric constant tensor:
#      x y z
#    x 4.602760 -0.114510 -0.179260 
#    y -0.114510 5.033960 -0.485380 
#    z -0.179260 -0.485380 5.096780 
# 
# 
# High freq. dielectric constant tensor:
#      x y z
#    x 1.999590 -0.002140 -0.013590 
#    y -0.002140 2.015630 -0.022730 
#    z -0.013590 -0.022730 2.009530 
# 
# From -- ./inp_files/541091.got.cif
#   From: 2010.06.25/outbox.cif.g09.slc.cpg/sg2_271_cif.got.tgz:541091.got - 2010.06.27 13:26:56.
