data_PCOD8004654
_publ_section_title
;
Structure prediction by ZEFSAII (Michael W. Deem and Ramdas Pophale) SiO2 
 PCOD8004654
Probable space group: P -1
;
_chemical_formula_sum "Si O2"
_cell_formula_units_Z 16
_cell_length_a 15.737176
_cell_length_b 13.988659
_cell_length_c 8.546986
_cell_angle_alpha 31.347059
_cell_angle_beta 54.660875
_cell_angle_gamma 52.527236
_cell_volume 768.906400
_symmetry_space_group_name_H-M "P -1"
_symmetry_group_IT_number 2
_symmetry_cell_setting 'triclinic'
loop_
_space_group_symop_operation_xyz
x,y,z
-x,-y,-z
loop_
_atom_site_type_symbol
_atom_site_label
_atom_site_fract_x
_atom_site_fract_y
_atom_site_fract_z
Si Si1 0.704777 0.645158 0.870380
Si Si2 0.577512 0.993247 0.706785
Si Si3 0.691369 0.243272 0.405436
Si Si4 0.921833 0.030351 0.393102
Si Si5 0.086823 0.334902 0.225260
Si Si6 0.645862 0.913046 0.073949
Si Si7 0.013253 0.737562 0.244718
Si Si8 0.176265 0.374002 0.547025
O O1 0.622189 0.848070 0.720285
O O2 0.807873 0.594133 0.948668
O O3 0.745299 0.676011 0.613341
O O4 0.647768 0.470115 0.172284
O O5 0.633260 0.170632 0.417947
O O6 0.447483 0.077996 0.708678
O O7 0.600211 0.866638 0.019213
O O8 0.819095 0.208809 0.286209
O O9 0.673413 0.119129 0.748794
O O10 0.878888 0.843082 0.680743
O O11 0.976947 0.064962 0.119925
O O12 0.000000 0.000000 0.500000
O O13 0.039825 0.254781 0.540130
O O14 0.000000 0.500000 0.000000
O O15 0.754748 0.746338 0.218695
O O16 0.136145 0.598566 0.315832
O O17 0.936990 0.676766 0.282319
#
# Coordination Sequence:
#
# PCOD8004654 Si02
#       8
#     2   2   2   2   2   2   2   2
#     4  11  21  38  62  86 121 156 200 251 304 362
#     4   9  21  40  65  85 118 159 205 249 303 360
#     4  10  20  38  61  85 120 153 202 248 296 355
#     4  12  22  38  61  88 126 165 202 251 301 362
#     4  11  24  37  59  92 122 166 205 244 306 368
#     4   9  20  41  62  87 120 158 200 256 301 356
#     4  10  23  37  57  91 127 163 202 247 303 367
#     4  10  21  37  60  88 123 157 198 250 304 357
#
# _framework density 20.808775000000001
#
# number of rings (size 3 to 8) (size 9 to 14) (size 15 to 20)
#    0.750    1.000    2.500    1.875    7.000    1.000 
#    0.000    0.625    2.750    0.000    0.000    0.000 
#    0.000    0.000    0.000    0.000    0.000    0.000 
#
# Total GULP energy -198218.250983 kJ/mol
# GULP energy per Si atom -12388.640686 kJ/mol
# Density = 2.076141 g / cm^3
# Si number density = 20.808775 Si / 1000 Ang^3
#
#
#
# Elastic Constant Matrix: (Units=GPa)
#
#
# Indices 1 2 3 4 5 6 
#
# 1 62.8467 17.9927 28.4274 -9.8111 -2.7536 -8.3857
# 2 17.9927 82.7607 13.4266 -12.6555 -13.2993 0.6102
# 3 28.4274 13.4266 82.9948 -11.2424 -13.0535 4.4117
# 4 -9.8111 -12.6555 -11.2424 36.5098 3.9313 -7.8393
# 5 -2.7536 -13.2993 -13.0535 3.9313 29.8258 -3.7915
# 6 -8.3857 0.6102 4.4117 -7.8393 -3.7915 31.5148
#
#
#
# Elastic Compliance Matrix: (Units=1/GPa)
#
#
# Indices 1 2 3 4 5 6 
#
# 1 0.021645 -0.003298 -0.007032 0.004380 -0.002156 0.007638
# 2 -0.003298 0.014230 0.000188 0.003575 0.005702 0.000396
# 3 -0.007032 0.000188 0.015721 0.001769 0.005707 -0.002949
# 4 0.004380 0.003575 0.001769 0.032287 -0.000360 0.008837
# 5 -0.002156 0.005702 0.005707 -0.000360 0.038810 0.003097
# 6 0.007638 0.000396 -0.002949 0.008837 0.003097 0.036739
#
#
# Mechanical properties :
#
#
# Convention : Reuss Voigt Hill
#
# Bulk Modulus (GPa) = 31.93780 38.69952 35.31866
# Shear Modulus (GPa) = 26.29438 30.82043 28.55740
#
# Velocity S-wave (km/s) = 3.55860 3.85272 3.70857
# Velocity P-wave (km/s) = 5.68035 6.19914 5.94541
#
# Compressibility (1/GPa) = 0.03131086
#
# Stress axis : x y z
#
# Youngs Moduli (GPa) = 46.19942 70.27609 63.60836
#
# Poissons Ratio (x) = 0.23177 0.44731
# Poissons Ratio (y) = 0.15237 -0.01193
# Poissons Ratio (z) = 0.32489 -0.01318
#
# Static dielectric constant tensor:
#      x y z
#    x 3.619960 -0.062540 -0.101640 
#    y -0.062540 3.664170 -0.005670 
#    z -0.101640 -0.005670 3.606020 
# 
# 
# High freq. dielectric constant tensor:
#      x y z
#    x 1.798270 -0.008570 -0.005230 
#    y -0.008570 1.807140 0.001750 
#    z -0.005230 0.001750 1.803310 
# 
# From -- ./inp_files/312245.got.cif
#   From: 2010.06.25/outbox.cif.g09.slc.cpg/sg2_157_cif.got.tgz:312245.got - 2010.06.27 13:26:56.
