data_PCOD8004950
_publ_section_title
;
Structure prediction by ZEFSAII (Michael W. Deem and Ramdas Pophale) SiO2 
 PCOD8004950
Probable space group: P -1
;
_chemical_formula_sum "Si O2"
_cell_formula_units_Z 16
_cell_length_a 23.612060
_cell_length_b 6.429685
_cell_length_c 17.164929
_cell_angle_alpha 107.416297
_cell_angle_beta 22.088782
_cell_angle_gamma 92.658357
_cell_volume 715.549118
_symmetry_space_group_name_H-M "P -1"
_symmetry_group_IT_number 2
_symmetry_cell_setting 'triclinic'
loop_
_space_group_symop_operation_xyz
x,y,z
-x,-y,-z
loop_
_atom_site_type_symbol
_atom_site_label
_atom_site_fract_x
_atom_site_fract_y
_atom_site_fract_z
Si Si1 0.427763 0.059556 0.404517
Si Si2 0.546186 0.735702 0.369184
Si Si3 0.695537 0.397469 0.695460
Si Si4 0.236644 0.674328 0.737221
Si Si5 0.115021 0.369045 0.459241
Si Si6 0.791579 0.148762 0.382059
Si Si7 0.068232 0.799641 0.219615
Si Si8 0.786443 0.935898 0.850316
O O1 0.296879 0.369942 0.647324
O O2 0.545490 0.799650 0.286052
O O3 0.286324 0.027208 0.534312
O O4 0.576460 0.044943 0.157026
O O5 0.383353 0.707675 0.595130
O O6 0.500000 0.000000 0.500000
O O7 0.759765 0.436074 0.086021
O O8 0.719912 0.626347 0.714324
O O9 0.682636 0.383982 0.616672
O O10 0.500000 0.500000 0.000000
O O11 0.890304 0.084117 0.436051
O O12 0.248575 0.692778 0.630452
O O13 0.025355 0.921748 0.070888
O O14 0.211935 0.097688 0.248746
O O15 0.011116 0.347925 0.659984
O O16 0.959731 0.646949 0.638799
O O17 0.179449 0.842658 0.148097
#
# Coordination Sequence:
#
# PCOD8004950 Si02
#       8
#     2   2   2   2   2   2   2   2
#     4  11  21  40  66  91 124 166 214 256 319 373
#     4  11  25  39  64 100 130 160 210 263 324 379
#     4  11  26  44  64  96 130 168 215 261 317 380
#     4  10  23  43  65  93 124 171 215 262 316 370
#     4  10  22  39  63  91 126 163 210 258 319 368
#     4  10  24  42  63  92 128 168 217 259 307 386
#     4  11  23  41  63  97 128 168 207 259 325 375
#     4  10  20  38  63  93 124 161 209 263 308 384
#
# _framework density 22.360451000000001
#
# number of rings (size 3 to 8) (size 9 to 14) (size 15 to 20)
#    0.000    1.500    2.500    1.500    3.500    3.000 
#    0.000    0.000    0.000    0.000    0.000    0.000 
#    0.000    0.000    0.000    0.000    0.000    0.000 
#
# Total GULP energy -198394.354474 kJ/mol
# GULP energy per Si atom -12399.647155 kJ/mol
# Density = 2.230956 g / cm^3
# Si number density = 22.360451 Si / 1000 Ang^3
#
#
#
# Elastic Constant Matrix: (Units=GPa)
#
#
# Indices 1 2 3 4 5 6 
#
# 1 61.5323 19.5624 28.7245 -4.5041 5.9955 26.0116
# 2 19.5624 93.7199 29.3981 -12.2280 -12.9940 29.4441
# 3 28.7245 29.3981 138.1598 -12.2946 -2.7206 12.9022
# 4 -4.5041 -12.2280 -12.2946 45.0318 6.6051 -0.4824
# 5 5.9955 -12.9940 -2.7206 6.6051 30.6985 1.6888
# 6 26.0116 29.4441 12.9022 -0.4824 1.6888 32.9107
#
#
#
# Elastic Compliance Matrix: (Units=1/GPa)
#
#
# Indices 1 2 3 4 5 6 
#
# 1 0.027099 0.002096 -0.003923 0.002583 -0.004126 -0.021505
# 2 0.002096 0.017621 -0.002186 0.003175 0.007101 -0.016882
# 3 -0.003923 -0.002186 0.008477 0.001316 0.000213 0.001741
# 4 0.002583 0.003175 0.001316 0.024220 -0.003989 -0.004839
# 5 -0.004126 0.007101 0.000213 -0.003989 0.037547 -0.005161
# 6 -0.021505 -0.016882 0.001741 -0.004839 -0.005161 0.061997
#
#
# Mechanical properties :
#
#
# Convention : Reuss Voigt Hill
#
# Bulk Modulus (GPa) = 22.13857 49.86467 36.00162
# Shear Modulus (GPa) = 24.99425 36.11002 30.55213
#
# Velocity S-wave (km/s) = 3.34696 4.02295 3.70042
# Velocity P-wave (km/s) = 4.98583 6.62779 5.86456
#
# Compressibility (1/GPa) = 0.04517003
#
# Stress axis : x y z
#
# Youngs Moduli (GPa) = 36.90194 56.75000 117.95955
#
# Poissons Ratio (x) = -0.11892 0.46276
# Poissons Ratio (y) = -0.07733 0.25789
# Poissons Ratio (z) = 0.14477 0.12407
#
# Static dielectric constant tensor:
#      x y z
#    x 4.069980 0.201080 -0.057230 
#    y 0.201080 4.091450 -0.006480 
#    z -0.057230 -0.006480 4.094060 
# 
# 
# High freq. dielectric constant tensor:
#      x y z
#    x 1.870120 0.011950 -0.001310 
#    y 0.011950 1.886450 -0.004690 
#    z -0.001310 -0.004690 1.891100 
# 
# From -- ./inp_files/283302.got.cif
#   From: 2010.06.25/outbox.cif.g09.slc.cpg/sg2_142_cif.got.tgz:283302.got - 2010.06.27 13:26:56.
