data_PCOD8004600
_publ_section_title
;
Structure prediction by ZEFSAII (Michael W. Deem and Ramdas Pophale) SiO2 
 PCOD8004600
Probable space group: P -1
;
_chemical_formula_sum "Si O2"
_cell_formula_units_Z 14
_cell_length_a 26.902979
_cell_length_b 12.368910
_cell_length_c 11.997936
_cell_angle_alpha 23.678942
_cell_angle_beta 153.512526
_cell_angle_gamma 151.776665
_cell_volume 671.750333
_symmetry_space_group_name_H-M "P -1"
_symmetry_group_IT_number 2
_symmetry_cell_setting 'triclinic'
loop_
_space_group_symop_operation_xyz
x,y,z
-x,-y,-z
loop_
_atom_site_type_symbol
_atom_site_label
_atom_site_fract_x
_atom_site_fract_y
_atom_site_fract_z
Si Si1 0.418556 0.692205 0.652785
Si Si2 0.490838 0.402803 0.443401
Si Si3 0.281013 0.489903 0.349187
Si Si4 0.144022 0.872035 0.629463
Si Si5 0.883118 0.068168 0.724309
Si Si6 0.640522 0.243962 0.278259
Si Si7 0.878456 0.619787 0.298904
O O1 0.324106 0.617939 0.434967
O O2 0.358758 0.711900 0.630829
O O3 0.500000 0.000000 0.500000
O O4 0.500000 0.500000 0.000000
O O5 0.500000 0.500000 0.500000
O O6 0.617711 0.431247 0.617638
O O7 0.398529 0.081389 0.539441
O O8 0.448082 0.625554 0.080871
O O9 0.221981 0.157961 0.578637
O O10 0.178814 0.604469 0.992053
O O11 0.187670 0.964384 0.502278
O O12 0.003012 0.806831 0.430665
O O13 0.917054 0.399873 0.509011
O O14 0.819776 0.827717 0.918319
O O15 0.000000 0.000000 0.000000
O O16 0.777865 0.417874 0.366389
#
# Coordination Sequence:
#
# PCOD8004600 Si02
#       7
#     2   2   2   2   2   2   2
#     4  12  23  47  69  91 124 174 237 261 311 389
#     4  12  27  43  64 102 137 168 209 272 342 383
#     4  12  24  41  69  94 129 171 217 272 320 378
#     4  11  23  39  62  98 130 166 215 263 322 386
#     4  10  20  38  60  89 130 178 213 245 307 398
#     4  12  25  46  68  94 132 176 217 271 322 390
#     4  11  23  40  63  95 131 172 215 259 325 396
#
# _framework density 20.841076000000001
#
# number of rings (size 3 to 8) (size 9 to 14) (size 15 to 20)
#    0.000    0.571    2.857    7.286    6.000    0.000 
#    0.000    1.429    0.000    0.000    0.000    0.000 
#    0.000    0.000    0.000    0.000    0.000    0.000 
#
# Total GULP energy -173465.095420 kJ/mol
# GULP energy per Si atom -12390.363959 kJ/mol
# Density = 2.079364 g / cm^3
# Si number density = 20.841076 Si / 1000 Ang^3
#
#
#
# Elastic Constant Matrix: (Units=GPa)
#
#
# Indices 1 2 3 4 5 6 
#
# 1 123.0648 63.5251 15.9691 7.8867 -11.7123 -7.7855
# 2 63.5251 123.0136 18.0751 -10.3525 -0.3227 0.5075
# 3 15.9691 18.0751 100.5819 1.7149 -2.9134 -5.1703
# 4 7.8867 -10.3525 1.7149 42.7240 -2.1578 -5.0628
# 5 -11.7123 -0.3227 -2.9134 -2.1578 22.2130 0.7171
# 6 -7.7855 0.5075 -5.1703 -5.0628 0.7171 42.7308
#
#
#
# Elastic Compliance Matrix: (Units=1/GPa)
#
#
# Indices 1 2 3 4 5 6 
#
# 1 0.012549 -0.006690 -0.000464 -0.003398 0.006070 0.001805
# 2 -0.006690 0.012106 -0.001322 0.003946 -0.003109 -0.001003
# 3 -0.000464 -0.001322 0.010348 -0.000467 0.001012 0.001111
# 4 -0.003398 0.003946 -0.000467 0.025306 0.000589 0.002266
# 5 0.006070 -0.003109 0.001012 0.000589 0.048347 0.000524
# 6 0.001805 -0.001003 0.001111 0.002266 0.000524 0.024137
#
#
# Mechanical properties :
#
#
# Convention : Reuss Voigt Hill
#
# Bulk Modulus (GPa) = 55.39712 60.19988 57.79850
# Shear Modulus (GPa) = 32.10023 38.13963 35.11993
#
# Velocity S-wave (km/s) = 3.92884 4.28252 4.10949
# Velocity P-wave (km/s) = 6.87165 7.30761 7.09298
#
# Compressibility (1/GPa) = 0.01805148
#
# Stress axis : x y z
#
# Youngs Moduli (GPa) = 79.68870 82.60292 96.63912
#
# Poissons Ratio (x) = 0.55259 0.04480
# Poissons Ratio (y) = 0.53309 0.12779
# Poissons Ratio (z) = 0.03694 0.10923
#
# Static dielectric constant tensor:
#      x y z
#    x 7.778610 2.053060 -4.308910 
#    y 2.053060 4.981860 -2.483190 
#    z -4.308910 -2.483190 8.690200 
# 
# 
# High freq. dielectric constant tensor:
#      x y z
#    x 1.800330 0.005110 -0.002590 
#    y 0.005110 1.826590 -0.013480 
#    z -0.002590 -0.013480 1.839810 
# 
# From -- ./inp_files/476611.got.cif
#   From: 2010.06.25/outbox.cif.g09.slc.cpg/sg2_239_cif.got.tgz:476611.got - 2010.06.27 13:26:56.
