data_PCOD8004064
_publ_section_title
;
Structure prediction by ZEFSAII (Michael W. Deem and Ramdas Pophale) SiO2 
 PCOD8004064
Probable space group: P -1
;
_chemical_formula_sum "Si O2"
_cell_formula_units_Z 16
_cell_length_a 12.281490
_cell_length_b 12.058357
_cell_length_c 20.958489
_cell_angle_alpha 150.347440
_cell_angle_beta 31.432103
_cell_angle_gamma 137.034182
_cell_volume 800.219160
_symmetry_space_group_name_H-M "P -1"
_symmetry_group_IT_number 2
_symmetry_cell_setting 'triclinic'
loop_
_space_group_symop_operation_xyz
x,y,z
-x,-y,-z
loop_
_atom_site_type_symbol
_atom_site_label
_atom_site_fract_x
_atom_site_fract_y
_atom_site_fract_z
Si Si1 0.351679 0.791936 0.544594
Si Si2 0.062335 0.968978 0.130747
Si Si3 0.999999 0.500007 0.865354
Si Si4 0.499992 0.000001 0.124198
Si Si5 0.563734 0.470542 0.381412
Si Si6 0.563734 0.470544 0.025397
Si Si7 0.351693 0.791938 0.395657
Si Si8 0.937679 0.031034 0.724103
O O1 0.428738 0.595558 0.456009
O O2 0.351590 0.706102 0.427256
O O3 0.121731 0.868574 0.725423
O O4 0.499977 0.000012 0.580344
O O5 0.001546 0.972489 0.235471
O O6 0.292932 0.063225 0.052415
O O7 0.054061 0.711570 0.986470
O O8 0.201710 0.441284 0.692488
O O9 0.945940 0.288448 0.828973
O O10 0.798288 0.558724 0.952919
O O11 0.292910 0.063227 0.217894
O O12 0.556010 0.205813 0.243114
O O13 0.443979 0.794186 0.093317
O O14 0.500000 0.500000 0.500000
O O15 0.428732 0.595552 0.210810
O O16 0.500000 0.500000 0.000000
O O17 0.121756 0.868608 0.521423
#
# Coordination Sequence:
#
# PCOD8004064 Si02
#       8
#     2   2   2   2   2   2   2   2
#     4  10  21  39  65  94 121 162 216 263 303 364
#     4  10  20  37  63  92 127 164 206 259 315 371
#     4  10  21  38  60  90 121 168 214 254 304 378
#     4  10  25  40  56  94 129 164 206 258 324 370
#     4  11  25  42  64  90 128 169 211 259 315 377
#     4  11  25  42  64  90 128 169 211 259 315 377
#     4  10  21  39  65  94 121 162 216 263 303 364
#     4  10  20  37  63  92 127 164 206 259 315 371
#
# _framework density 19.994523000000001
#
# number of rings (size 3 to 8) (size 9 to 14) (size 15 to 20)
#    0.000    1.750    2.500    0.750    1.750    8.000 
#    0.000    7.500    0.000    0.000    0.000    0.000 
#    0.000    0.000    0.000    0.000    0.000    0.000 
#
# Total GULP energy -198275.739820 kJ/mol
# GULP energy per Si atom -12392.233739 kJ/mol
# Density = 1.994901 g / cm^3
# Si number density = 19.994523 Si / 1000 Ang^3
#
#
#
# Elastic Constant Matrix: (Units=GPa)
#
#
# Indices 1 2 3 4 5 6 
#
# 1 100.8506 32.4182 56.3887 -11.6431 -12.3278 -2.9898
# 2 32.4182 81.4473 36.6060 -11.8691 -9.0569 12.8888
# 3 56.3887 36.6060 123.5796 -22.9743 -16.4207 3.7194
# 4 -11.6431 -11.8691 -22.9743 36.9955 11.2800 -10.5108
# 5 -12.3278 -9.0569 -16.4207 11.2800 37.4883 -10.0376
# 6 -2.9898 12.8888 3.7194 -10.5108 -10.0376 31.4802
#
#
#
# Elastic Compliance Matrix: (Units=1/GPa)
#
#
# Indices 1 2 3 4 5 6 
#
# 1 0.014577 -0.003812 -0.005190 0.000648 0.002640 0.004617
# 2 -0.003812 0.016124 -0.002813 0.000501 -0.000516 -0.006629
# 3 -0.005190 -0.002813 0.012441 0.005017 0.001951 0.001486
# 4 0.000648 0.000501 0.005017 0.034777 -0.005489 0.009125
# 5 0.002640 -0.000516 0.001951 -0.005489 0.032250 0.008681
# 6 0.004617 -0.006629 0.001486 0.009125 0.008681 0.040558
#
#
# Mechanical properties :
#
#
# Convention : Reuss Voigt Hill
#
# Bulk Modulus (GPa) = 51.24943 61.85593 56.55268
# Shear Modulus (GPa) = 27.64582 33.22379 30.43481
#
# Velocity S-wave (km/s) = 3.72246 4.08075 3.90572
# Velocity P-wave (km/s) = 6.64552 7.29431 6.97746
#
# Compressibility (1/GPa) = 0.01951241
#
# Stress axis : x y z
#
# Youngs Moduli (GPa) = 68.59940 62.01988 80.38257
#
# Poissons Ratio (x) = 0.23643 0.41718
# Poissons Ratio (y) = 0.26151 0.22609
# Poissons Ratio (z) = 0.35603 0.17444
#
# Static dielectric constant tensor:
#      x y z
#    x 3.661970 0.208020 -0.331820 
#    y 0.208020 3.710890 -0.254860 
#    z -0.331820 -0.254860 3.994910 
# 
# 
# High freq. dielectric constant tensor:
#      x y z
#    x 1.771770 0.010820 -0.016370 
#    y 0.010820 1.781850 -0.007230 
#    z -0.016370 -0.007230 1.792490 
# 
# From -- ./inp_files/176404.got.cif
#   From: 2010.06.25/outbox.cif.g09.slc.cpg/sg2_89_cif.got.tgz:176404.got - 2010.06.27 13:26:56.
