data_PCOD8004772
_publ_section_title
;
Structure prediction by ZEFSAII (Michael W. Deem and Ramdas Pophale) SiO2 
 PCOD8004772
Probable space group: P -1
;
_chemical_formula_sum "Si O2"
_cell_formula_units_Z 16
_cell_length_a 8.917691
_cell_length_b 13.581557
_cell_length_c 8.972415
_cell_angle_alpha 60.128790
_cell_angle_beta 116.848919
_cell_angle_gamma 90.073757
_cell_volume 804.853485
_symmetry_space_group_name_H-M "P -1"
_symmetry_group_IT_number 2
_symmetry_cell_setting 'triclinic'
loop_
_space_group_symop_operation_xyz
x,y,z
-x,-y,-z
loop_
_atom_site_type_symbol
_atom_site_label
_atom_site_fract_x
_atom_site_fract_y
_atom_site_fract_z
Si Si1 0.471289 0.180679 0.143948
Si Si2 0.373472 0.610676 0.943576
Si Si3 0.620268 0.953185 0.229629
Si Si4 0.820200 0.531970 0.484605
Si Si5 0.812591 0.519523 0.829724
Si Si6 0.826785 0.779085 0.243438
Si Si7 0.771992 0.324142 0.473538
Si Si8 0.458372 0.226910 0.443582
O O1 0.518144 0.299569 0.025244
O O2 0.448325 0.173912 0.315280
O O3 0.630226 0.066718 0.245838
O O4 0.288420 0.173165 0.992359
O O5 0.226246 0.675529 0.706157
O O6 0.500000 0.500000 0.000000
O O7 0.282290 0.571123 0.073352
O O8 0.802234 0.875400 0.294304
O O9 0.543806 0.869916 0.362402
O O10 0.500000 0.000000 0.000000
O O11 0.843788 0.484232 0.698775
O O12 0.747305 0.674072 0.345228
O O13 0.701267 0.460921 0.399890
O O14 0.000000 0.500000 0.500000
O O15 0.701348 0.654745 0.701625
O O16 0.000000 0.500000 0.000000
O O17 0.032813 0.737010 0.329275
O O18 0.642740 0.254257 0.530593
#
# Coordination Sequence:
#
# PCOD8004772 Si02
#       8
#     2   2   2   2   2   2   2   2
#     4  10  22  39  68  85 125 165 207 251 312 366
#     4  11  21  41  62  93 130 160 199 258 318 371
#     4  10  22  42  63  88 120 167 217 255 298 364
#     4  10  21  35  58  88 125 161 203 244 310 365
#     4  12  24  37  64  96 130 161 206 252 316 381
#     4  10  20  38  62  87 121 166 204 251 306 359
#     4  10  22  38  61  91 130 160 202 253 315 371
#     4  11  23  41  63  93 123 163 206 257 310 369
#
# _framework density 19.879394999999999
#
# number of rings (size 3 to 8) (size 9 to 14) (size 15 to 20)
#    0.000    1.500    3.750    2.625    3.500    2.500 
#    0.000    5.000    2.750    0.000    0.000    0.000 
#    0.000    0.000    0.000    0.000    0.000    0.000 
#
# Total GULP energy -198308.656940 kJ/mol
# GULP energy per Si atom -12394.291059 kJ/mol
# Density = 1.983415 g / cm^3
# Si number density = 19.879395 Si / 1000 Ang^3
#
#
#
# Elastic Constant Matrix: (Units=GPa)
#
#
# Indices 1 2 3 4 5 6 
#
# 1 100.9499 49.5302 46.9333 1.8662 -9.0268 -3.1294
# 2 49.5302 124.9978 34.8674 -4.6707 3.9264 -14.7850
# 3 46.9333 34.8674 88.2059 2.1093 -12.7552 3.6275
# 4 1.8662 -4.6707 2.1093 36.5029 0.3016 -2.2151
# 5 -9.0268 3.9264 -12.7552 0.3016 41.1097 1.3586
# 6 -3.1294 -14.7850 3.6275 -2.2151 1.3586 30.5554
#
#
#
# Elastic Compliance Matrix: (Units=1/GPa)
#
#
# Indices 1 2 3 4 5 6 
#
# 1 0.015014 -0.004388 -0.005957 -0.001002 0.001876 -0.000034
# 2 -0.004388 0.011414 -0.002924 0.002227 -0.003166 0.005723
# 3 -0.005957 -0.002924 0.016482 -0.001316 0.004236 -0.004265
# 4 -0.001002 0.002227 -0.001316 0.028012 -0.001153 0.003213
# 5 0.001876 -0.003166 0.004236 -0.001153 0.026465 -0.003103
# 6 -0.000034 0.005723 -0.004265 0.003213 -0.003103 0.036370
#
#
# Mechanical properties :
#
#
# Convention : Reuss Voigt Hill
#
# Bulk Modulus (GPa) = 61.08044 64.09059 62.58552
# Shear Modulus (GPa) = 30.16561 33.82177 31.99369
#
# Velocity S-wave (km/s) = 3.89965 4.12921 4.01607
# Velocity P-wave (km/s) = 7.14623 7.41914 7.28396
#
# Compressibility (1/GPa) = 0.01637185
#
# Stress axis : x y z
#
# Youngs Moduli (GPa) = 66.60600 87.61235 60.67183
#
# Poissons Ratio (x) = 0.38442 0.36145
# Poissons Ratio (y) = 0.29225 0.17738
# Poissons Ratio (z) = 0.39680 0.25615
#
# Static dielectric constant tensor:
#      x y z
#    x 3.615390 -0.270320 -0.157580 
#    y -0.270320 4.240720 -0.052930 
#    z -0.157580 -0.052930 3.763230 
# 
# 
# High freq. dielectric constant tensor:
#      x y z
#    x 1.758830 -0.012130 -0.007470 
#    y -0.012130 1.782980 0.002700 
#    z -0.007470 0.002700 1.778680 
# 
# From -- ./inp_files/185348.got.cif
#   From: 2010.06.25/outbox.cif.g09.slc.cpg/sg2_93_cif.got.tgz:185348.got - 2010.06.27 13:26:56.
