data_PCOD8004927
_publ_section_title
;
Structure prediction by ZEFSAII (Michael W. Deem and Ramdas Pophale) SiO2 
 PCOD8004927
Probable space group: P -1
;
_chemical_formula_sum "Si O2"
_cell_formula_units_Z 14
_cell_length_a 9.015980
_cell_length_b 8.872728
_cell_length_c 7.909437
_cell_angle_alpha 90.252032
_cell_angle_beta 118.351752
_cell_angle_gamma 93.991047
_cell_volume 554.973736
_symmetry_space_group_name_H-M "P -1"
_symmetry_group_IT_number 2
_symmetry_cell_setting 'triclinic'
loop_
_space_group_symop_operation_xyz
x,y,z
-x,-y,-z
loop_
_atom_site_type_symbol
_atom_site_label
_atom_site_fract_x
_atom_site_fract_y
_atom_site_fract_z
Si Si1 0.075367 0.220451 0.255389
Si Si2 0.247930 0.775528 0.719633
Si Si3 0.866964 0.606182 0.060700
Si Si4 0.182305 0.520177 0.442531
Si Si5 0.551866 0.672010 0.064469
Si Si6 0.664926 0.339181 0.765304
Si Si7 0.696712 0.051697 0.594975
O O1 0.078089 0.304042 0.078139
O O2 0.155350 0.339354 0.441609
O O3 0.885285 0.170051 0.215467
O O4 0.186272 0.080326 0.300507
O O5 0.197181 0.598543 0.635134
O O6 0.432504 0.783168 0.903752
O O7 0.255284 0.885710 0.564597
O O8 0.743376 0.706018 0.104012
O O9 0.782609 0.437934 0.965389
O O10 0.031454 0.589348 0.258572
O O11 0.349456 0.569300 0.419110
O O12 0.500000 0.500000 0.000000
O O13 0.522519 0.692863 0.251520
O O14 0.739376 0.179645 0.760965
O O15 0.500000 0.000000 0.500000
#
# Coordination Sequence:
#
# PCOD8004927 Si02
#       7
#     2   2   2   2   2   2   2
#     4  11  21  38  62  88 121 163 201 244 300 367
#     4  11  23  41  63  92 125 158 201 255 305 358
#     4  10  20  39  65  95 121 154 203 254 302 360
#     4  10  21  39  65  96 121 153 203 256 303 357
#     4  10  20  38  63  91 120 158 201 248 301 358
#     4   9  20  39  61  86 121 158 198 246 299 358
#     4  11  25  42  58  88 128 166 204 249 303 360
#
# _framework density 25.226420999999998
#
# number of rings (size 3 to 8) (size 9 to 14) (size 15 to 20)
#    0.000    1.714    0.000    6.000    0.000    3.429 
#    0.000   24.286    0.000    0.000    0.000    0.000 
#    0.000    0.000    0.000    0.000    0.000    0.000 
#
# Total GULP energy -173515.069951 kJ/mol
# GULP energy per Si atom -12393.933568 kJ/mol
# Density = 2.516900 g / cm^3
# Si number density = 25.226421 Si / 1000 Ang^3
#
#
#
# Elastic Constant Matrix: (Units=GPa)
#
#
# Indices 1 2 3 4 5 6 
#
# 1 204.1851 51.8354 45.7882 -7.3876 -25.2826 -29.8902
# 2 51.8354 107.7011 12.9658 -1.9347 3.5191 -15.7678
# 3 45.7882 12.9658 55.9778 -5.1469 -5.1120 -5.3481
# 4 -7.3876 -1.9347 -5.1469 21.2705 -6.2827 3.3478
# 5 -25.2826 3.5191 -5.1120 -6.2827 35.2145 1.2281
# 6 -29.8902 -15.7678 -5.3481 3.3478 1.2281 37.9096
#
#
#
# Elastic Compliance Matrix: (Units=1/GPa)
#
#
# Indices 1 2 3 4 5 6 
#
# 1 0.008100 -0.002857 -0.004829 0.002417 0.005688 0.004120
# 2 -0.002857 0.011186 -0.000480 -0.001564 -0.003608 0.002588
# 3 -0.004829 -0.000480 0.022228 0.004022 0.000569 -0.001245
# 4 0.002417 -0.001564 0.004022 0.052734 0.011996 -0.003223
# 5 0.005688 -0.003608 0.000569 0.011996 0.035034 0.000870
# 6 0.004120 0.002588 -0.001245 -0.003223 0.000870 0.030784
#
#
# Mechanical properties :
#
#
# Convention : Reuss Voigt Hill
#
# Bulk Modulus (GPa) = 39.70960 65.44921 52.57941
# Shear Modulus (GPa) = 27.05725 36.03056 31.54391
#
# Velocity S-wave (km/s) = 3.27857 3.78337 3.53998
# Velocity P-wave (km/s) = 5.48703 6.71463 6.13163
#
# Compressibility (1/GPa) = 0.02518283
#
# Stress axis : x y z
#
# Youngs Moduli (GPa) = 123.45114 89.39537 44.98780
#
# Poissons Ratio (x) = 0.25536 0.21725
# Poissons Ratio (y) = 0.35265 0.02162
# Poissons Ratio (z) = 0.59615 0.04295
#
# Static dielectric constant tensor:
#      x y z
#    x 5.804480 -0.203390 -0.397700 
#    y -0.203390 4.576630 0.144010 
#    z -0.397700 0.144010 4.410400 
# 
# 
# High freq. dielectric constant tensor:
#      x y z
#    x 2.039680 -0.012070 -0.019830 
#    y -0.012070 1.982370 -0.009030 
#    z -0.019830 -0.009030 1.989090 
# 
# From -- ./inp_files/159380.got.cif
#   From: 2010.06.25/outbox.cif.g09.slc.cpg/sg2_80_cif.got.tgz:159380.got - 2010.06.27 13:26:56.
