data_PCOD8004249
_publ_section_title
;
Structure prediction by ZEFSAII (Michael W. Deem and Ramdas Pophale) SiO2 
 PCOD8004249
Probable space group: P -1
;
_chemical_formula_sum "Si O2"
_cell_formula_units_Z 16
_cell_length_a 9.350662
_cell_length_b 15.967622
_cell_length_c 13.245037
_cell_angle_alpha 151.811997
_cell_angle_beta 59.003194
_cell_angle_gamma 119.154595
_cell_volume 798.040931
_symmetry_space_group_name_H-M "P -1"
_symmetry_group_IT_number 2
_symmetry_cell_setting 'triclinic'
loop_
_space_group_symop_operation_xyz
x,y,z
-x,-y,-z
loop_
_atom_site_type_symbol
_atom_site_label
_atom_site_fract_x
_atom_site_fract_y
_atom_site_fract_z
Si Si1 0.338658 0.294069 0.255811
Si Si2 0.129504 0.302955 0.809376
Si Si3 0.377460 0.694781 0.679295
Si Si4 0.469191 0.147512 0.855329
Si Si5 0.364197 0.151161 0.405562
Si Si6 0.162380 0.998534 0.131708
Si Si7 0.198543 0.703884 0.195106
Si Si8 0.812996 0.959230 0.309075
O O1 0.289088 0.495786 0.497370
O O2 0.515829 0.270350 0.220294
O O3 0.192252 0.169740 0.230441
O O4 0.356551 0.239835 0.075813
O O5 0.246915 0.273805 0.640040
O O6 0.170863 0.181312 0.757617
O O7 0.937209 0.254998 0.796873
O O8 0.157591 0.508902 0.050541
O O9 0.499077 0.720345 0.566239
O O10 0.235198 0.831253 0.872308
O O11 0.620899 0.285989 0.912548
O O12 0.358383 0.093565 0.741586
O O13 0.541829 0.970620 0.682343
O O14 0.250669 0.030251 0.241130
O O15 0.965500 0.955416 0.171351
O O16 0.192685 0.843400 0.435938
#
# Coordination Sequence:
#
# PCOD8004249 Si02
#       8
#     2   2   2   2   2   2   2   2
#     4  10  21  38  62  93 119 156 207 256 301 359
#     4  11  24  42  68  93 120 158 211 262 298 358
#     4  10  20  37  66  92 115 157 208 260 300 347
#     4  12  23  41  64  90 130 167 198 247 318 369
#     4  11  19  40  66  90 120 159 207 255 305 357
#     4  11  21  40  63  88 121 159 211 251 299 356
#     4  11  24  43  66  92 121 161 211 254 306 359
#     4  12  26  41  60  93 130 167 199 249 309 373
#
# _framework density 20.049097
#
# number of rings (size 3 to 8) (size 9 to 14) (size 15 to 20)
#    0.000    1.000    5.000    3.000    0.000    2.000 
#    2.250    0.625    0.000    0.000    0.000    0.000 
#    0.000    0.000    0.000    0.000    0.000    0.000 
#
# Total GULP energy -198506.329545 kJ/mol
# GULP energy per Si atom -12406.645597 kJ/mol
# Density = 2.000346 g / cm^3
# Si number density = 20.049097 Si / 1000 Ang^3
#
#
#
# Elastic Constant Matrix: (Units=GPa)
#
#
# Indices 1 2 3 4 5 6 
#
# 1 95.6421 46.5446 43.4638 -6.2323 9.4287 10.7601
# 2 46.5446 99.2260 52.0249 -2.9904 2.1307 24.4298
# 3 43.4638 52.0249 103.0187 5.4505 5.0719 2.0824
# 4 -6.2323 -2.9904 5.4505 27.1534 0.1825 -3.8901
# 5 9.4287 2.1307 5.0719 0.1825 23.7982 -5.3097
# 6 10.7601 24.4298 2.0824 -3.8901 -5.3097 15.1997
#
#
#
# Elastic Compliance Matrix: (Units=1/GPa)
#
#
# Indices 1 2 3 4 5 6 
#
# 1 0.015750 -0.002593 -0.005021 0.003265 -0.006704 -0.007801
# 2 -0.002593 0.029874 -0.012448 -0.001662 -0.009760 -0.048309
# 3 -0.005021 -0.012448 0.017616 -0.002954 0.004253 0.021877
# 4 0.003265 -0.001662 -0.002954 0.039625 0.001751 0.011517
# 5 -0.006704 -0.009760 0.004253 0.001751 0.053314 0.038922
# 6 -0.007801 -0.048309 0.021877 0.011517 0.038922 0.162506
#
#
# Mechanical properties :
#
#
# Convention : Reuss Voigt Hill
#
# Bulk Modulus (GPa) = 43.25622 64.66148 53.95885
# Shear Modulus (GPa) = 13.64206 23.62050 18.63128
#
# Velocity S-wave (km/s) = 2.61134 3.43612 3.05172
# Velocity P-wave (km/s) = 5.54203 6.93283 6.27608
#
# Compressibility (1/GPa) = 0.02311806
#
# Stress axis : x y z
#
# Youngs Moduli (GPa) = 63.49094 33.47400 56.76648
#
# Poissons Ratio (x) = 0.08679 0.28501
# Poissons Ratio (y) = 0.16461 0.70661
# Poissons Ratio (z) = 0.31877 0.41667
#
# Static dielectric constant tensor:
#      x y z
#    x 3.469230 0.106660 -0.077720 
#    y 0.106660 3.739180 -0.021560 
#    z -0.077720 -0.021560 3.679570 
# 
# 
# High freq. dielectric constant tensor:
#      x y z
#    x 1.761860 0.007350 -0.006870 
#    y 0.007350 1.791850 0.000960 
#    z -0.006870 0.000960 1.789730 
# 
# From -- ./inp_files/242170.got.cif
#   From: 2010.06.25/outbox.cif.g09.slc.cpg/sg2_122_cif.got.tgz:242170.got - 2010.06.27 13:26:56.
