data_PCOD8004153
_publ_section_title
;
Structure prediction by ZEFSAII (Michael W. Deem and Ramdas Pophale) SiO2 
 PCOD8004153
Probable space group: P -1
;
_chemical_formula_sum "Si O2"
_cell_formula_units_Z 14
_cell_length_a 22.497473
_cell_length_b 9.788422
_cell_length_c 15.974470
_cell_angle_alpha 26.783480
_cell_angle_beta 27.965687
_cell_angle_gamma 45.622112
_cell_volume 674.081370
_symmetry_space_group_name_H-M "P -1"
_symmetry_group_IT_number 2
_symmetry_cell_setting 'triclinic'
loop_
_space_group_symop_operation_xyz
x,y,z
-x,-y,-z
loop_
_atom_site_type_symbol
_atom_site_label
_atom_site_fract_x
_atom_site_fract_y
_atom_site_fract_z
Si Si1 0.812847 0.697379 0.326312
Si Si2 0.896235 0.144054 0.584335
Si Si3 0.658842 0.327051 0.051824
Si Si4 0.056475 0.584659 0.291081
Si Si5 0.413295 0.217000 0.826483
Si Si6 0.542178 0.568925 0.638945
Si Si7 0.364039 0.543212 0.171386
O O1 0.883651 0.435435 0.383659
O O2 0.687001 0.560675 0.490577
O O3 0.749085 0.738351 0.474083
O O4 0.930423 0.056732 0.955181
O O5 0.948277 0.291682 0.530079
O O6 0.000000 0.000000 0.500000
O O7 0.746684 0.828781 0.950100
O O8 0.564020 0.504132 0.110164
O O9 0.566428 0.930378 0.374923
O O10 0.789196 0.409116 0.907074
O O11 0.713703 0.454363 0.820158
O O12 0.000000 0.500000 0.500000
O O13 0.500000 0.500000 0.500000
O O14 0.475800 0.294687 0.799443
O O15 0.416259 0.875840 0.979783
O O16 0.500000 0.500000 0.000000
#
# Coordination Sequence:
#
# PCOD8004153 Si02
#       7
#     2   2   2   2   2   2   2
#     4  10  23  41  70  92 130 169 222 266 323 386
#     4  11  25  43  63  95 132 173 214 264 330 388
#     4  10  20  37  64  94 126 166 218 260 320 381
#     4  11  23  42  67  89 128 177 218 262 317 391
#     4  11  23  40  66  92 131 170 214 267 325 380
#     4  10  20  38  65  94 125 167 213 270 319 376
#     4  11  21  38  61 102 129 162 214 269 326 385
#
# _framework density 20.769006999999998
#
# number of rings (size 3 to 8) (size 9 to 14) (size 15 to 20)
#    0.000    1.429    2.857    3.000    2.000    3.429 
#    2.571    0.714    0.000    0.000    0.000    0.000 
#    0.000    0.000    0.000    0.000    0.000    0.000 
#
# Total GULP energy -173588.232964 kJ/mol
# GULP energy per Si atom -12399.159497 kJ/mol
# Density = 2.072174 g / cm^3
# Si number density = 20.769007 Si / 1000 Ang^3
#
#
#
# Elastic Constant Matrix: (Units=GPa)
#
#
# Indices 1 2 3 4 5 6 
#
# 1 133.8907 50.6814 45.5993 -4.7181 -4.4009 21.1383
# 2 50.6814 125.1752 26.8181 17.4468 2.6511 -2.8250
# 3 45.5993 26.8181 105.3329 13.5477 13.6157 9.2726
# 4 -4.7181 17.4468 13.5477 20.2606 2.5780 -5.6448
# 5 -4.4009 2.6511 13.6157 2.5780 47.8593 0.5780
# 6 21.1383 -2.8250 9.2726 -5.6448 0.5780 40.5341
#
#
#
# Elastic Compliance Matrix: (Units=1/GPa)
#
#
# Indices 1 2 3 4 5 6 
#
# 1 0.012338 -0.005357 -0.005114 0.009380 0.002434 -0.004366
# 2 -0.005357 0.011609 0.000723 -0.011100 -0.000766 0.001903
# 3 -0.005114 0.000723 0.013580 -0.010932 -0.003762 -0.001858
# 4 0.009380 -0.011100 -0.010932 0.070155 0.000729 0.006595
# 5 0.002434 -0.000766 -0.003762 0.000729 0.022200 -0.000677
# 6 -0.004366 0.001903 -0.001858 0.006595 -0.000677 0.028433
#
#
# Mechanical properties :
#
#
# Convention : Reuss Voigt Hill
#
# Bulk Modulus (GPa) = 55.46319 67.84405 61.65362
# Shear Modulus (GPa) = 27.20015 37.81748 32.50882
#
# Velocity S-wave (km/s) = 3.62284 4.27178 3.96062
# Velocity P-wave (km/s) = 6.65302 7.55432 7.11795
#
# Compressibility (1/GPa) = 0.01802998
#
# Stress axis : x y z
#
# Youngs Moduli (GPa) = 81.04900 86.13720 73.64009
#
# Poissons Ratio (x) = 0.46147 0.37659
# Poissons Ratio (y) = 0.43421 -0.05322
# Poissons Ratio (z) = 0.41448 -0.06225
#
# Static dielectric constant tensor:
#      x y z
#    x 4.163570 0.025870 0.118480 
#    y 0.025870 3.700010 0.182220 
#    z 0.118480 0.182220 4.580990 
# 
# 
# High freq. dielectric constant tensor:
#      x y z
#    x 1.830800 -0.003270 -0.004480 
#    y -0.003270 1.798910 0.011500 
#    z -0.004480 0.011500 1.811030 
# 
# From -- ./inp_files/201866.got.cif
#   From: 2010.06.25/outbox.cif.g09.slc.cpg/sg2_101_cif.got.tgz:201866.got - 2010.06.27 13:26:56.
