data_PCOD8004621
_publ_section_title
;
Structure prediction by ZEFSAII (Michael W. Deem and Ramdas Pophale) SiO2 
 PCOD8004621
Probable space group: P -1
;
_chemical_formula_sum "Si O2"
_cell_formula_units_Z 16
_cell_length_a 9.881244
_cell_length_b 13.746635
_cell_length_c 13.012680
_cell_angle_alpha 44.819508
_cell_angle_beta 98.960083
_cell_angle_gamma 64.758789
_cell_volume 783.590800
_symmetry_space_group_name_H-M "P -1"
_symmetry_group_IT_number 2
_symmetry_cell_setting 'triclinic'
loop_
_space_group_symop_operation_xyz
x,y,z
-x,-y,-z
loop_
_atom_site_type_symbol
_atom_site_label
_atom_site_fract_x
_atom_site_fract_y
_atom_site_fract_z
Si Si1 0.293516 0.059773 0.050805
Si Si2 0.576597 0.594958 0.438386
Si Si3 0.374398 0.432151 0.764082
Si Si4 0.078870 0.267408 0.446984
Si Si5 0.781849 0.129934 0.318816
Si Si6 0.677266 0.950907 0.169492
Si Si7 0.840514 0.484549 0.750408
Si Si8 0.594830 0.484277 0.872033
O O1 0.090450 0.249546 0.954591
O O2 0.247540 0.143208 0.866024
O O3 0.502174 0.980819 0.171939
O O4 0.352990 0.853224 0.223044
O O5 0.500000 0.500000 0.500000
O O6 0.695977 0.526568 0.394467
O O7 0.733780 0.514629 0.609551
O O8 0.453656 0.522895 0.736517
O O9 0.180343 0.539276 0.737559
O O10 0.580478 0.177701 0.998759
O O11 0.173243 0.339872 0.364081
O O12 0.199928 0.046677 0.572108
O O13 0.113492 0.226103 0.603899
O O14 0.569362 0.310390 0.226592
O O15 0.747219 0.255838 0.121029
O O16 0.000000 0.000000 0.500000
O O17 0.740470 0.488413 0.834457
#
# Coordination Sequence:
#
# PCOD8004621 Si02
#       8
#     2   2   2   2   2   2   2   2
#     4  10  22  37  60  91 138 173 213 253 308 374
#     4  11  23  38  60  96 140 171 209 252 310 387
#     4  11  21  39  66  96 128 175 214 255 312 389
#     4  12  23  39  71  95 124 171 221 264 321 380
#     4  11  25  47  71  93 118 170 226 271 325 390
#     4  10  20  38  60  94 129 175 216 258 295 380
#     4  12  25  41  64 103 135 169 207 267 325 378
#     4  11  25  45  68  94 131 162 216 276 329 379
#
# _framework density 20.41882
#
# number of rings (size 3 to 8) (size 9 to 14) (size 15 to 20)
#    0.000    1.000    6.250    0.750    0.000    4.000 
#    0.000    0.625    0.000    0.000    0.000    0.000 
#    0.000    0.000    0.000    0.000    0.000    0.000 
#
# Total GULP energy -198350.612439 kJ/mol
# GULP energy per Si atom -12396.913277 kJ/mol
# Density = 2.037235 g / cm^3
# Si number density = 20.418820 Si / 1000 Ang^3
#
#
#
# Elastic Constant Matrix: (Units=GPa)
#
#
# Indices 1 2 3 4 5 6 
#
# 1 135.8179 49.3878 42.4206 -15.1969 -20.2753 1.1189
# 2 49.3878 87.9677 39.0143 -12.7266 -11.1113 0.4894
# 3 42.4206 39.0143 78.2860 -5.1181 -7.3314 -1.6647
# 4 -15.1969 -12.7266 -5.1181 31.1084 5.9211 -1.4613
# 5 -20.2753 -11.1113 -7.3314 5.9211 33.5388 -4.5148
# 6 1.1189 0.4894 -1.6647 -1.4613 -4.5148 38.3444
#
#
#
# Elastic Compliance Matrix: (Units=1/GPa)
#
#
# Indices 1 2 3 4 5 6 
#
# 1 0.010608 -0.003577 -0.003424 0.002386 0.004079 0.000159
# 2 -0.003577 0.016794 -0.006050 0.003860 0.001389 -0.000062
# 3 -0.003424 -0.006050 0.017593 -0.001232 0.000111 0.000907
# 4 0.002386 0.003860 -0.001232 0.035427 -0.003702 0.000742
# 5 0.004079 0.001389 0.000111 -0.003702 0.033921 0.003721
# 6 0.000159 -0.000062 0.000907 0.000742 0.003721 0.026581
#
#
# Mechanical properties :
#
#
# Convention : Reuss Voigt Hill
#
# Bulk Modulus (GPa) = 52.93059 62.63524 57.78291
# Shear Modulus (GPa) = 28.84786 32.01492 30.43139
#
# Velocity S-wave (km/s) = 3.76281 3.96398 3.86471
# Velocity P-wave (km/s) = 6.69754 7.18977 6.94801
#
# Compressibility (1/GPa) = 0.01889267
#
# Stress axis : x y z
#
# Youngs Moduli (GPa) = 94.27149 59.54670 56.84109
#
# Poissons Ratio (x) = 0.21303 0.19461
# Poissons Ratio (y) = 0.33725 0.34386
# Poissons Ratio (z) = 0.32276 0.36023
#
# Static dielectric constant tensor:
#      x y z
#    x 3.673040 0.147250 -0.105250 
#    y 0.147250 3.756010 0.004750 
#    z -0.105250 0.004750 3.809700 
# 
# 
# High freq. dielectric constant tensor:
#      x y z
#    x 1.796250 0.013920 -0.001740 
#    y 0.013920 1.789960 -0.009810 
#    z -0.001740 -0.009810 1.803370 
# 
# From -- ./inp_files/112500.got.cif
#   From: 2010.06.25/outbox.cif.g09.slc.cpg/sg2_57_cif.got.tgz:112500.got - 2010.06.27 13:26:56.
