data_PCOD8004435
_publ_section_title
;
Structure prediction by ZEFSAII (Michael W. Deem and Ramdas Pophale) SiO2 
 PCOD8004435
Probable space group: P -1
;
_chemical_formula_sum "Si O2"
_cell_formula_units_Z 16
_cell_length_a 7.811030
_cell_length_b 23.244199
_cell_length_c 14.506639
_cell_angle_alpha 159.014163
_cell_angle_beta 104.228609
_cell_angle_gamma 66.068265
_cell_volume 787.871399
_symmetry_space_group_name_H-M "P -1"
_symmetry_group_IT_number 2
_symmetry_cell_setting 'triclinic'
loop_
_space_group_symop_operation_xyz
x,y,z
-x,-y,-z
loop_
_atom_site_type_symbol
_atom_site_label
_atom_site_fract_x
_atom_site_fract_y
_atom_site_fract_z
Si Si1 0.311078 0.081290 0.323650
Si Si2 0.629045 0.483405 0.360734
Si Si3 0.733806 0.935089 0.915775
Si Si4 0.594172 0.691246 0.851125
Si Si5 0.333869 0.695718 0.484899
Si Si6 0.046670 0.491428 0.678161
Si Si7 0.924909 0.354741 0.758477
Si Si8 0.299082 0.438751 0.801555
O O1 0.237513 0.049410 0.166466
O O2 0.370770 0.240819 0.562976
O O3 0.125053 0.148009 0.473091
O O4 0.508554 0.900619 0.119030
O O5 0.653956 0.557821 0.572206
O O6 0.583727 0.315049 0.121339
O O7 0.421900 0.636890 0.511145
O O8 0.834315 0.429768 0.250330
O O9 0.876738 0.725713 0.661164
O O10 0.500000 0.000000 0.000000
O O11 0.779364 0.077940 0.192452
O O12 0.803617 0.622982 0.832674
O O13 0.178860 0.628286 0.330472
O O14 0.518651 0.585978 0.274111
O O15 0.098070 0.499137 0.803123
O O16 0.766076 0.395608 0.883017
O O17 0.000000 0.500000 0.000000
#
# Coordination Sequence:
#
# PCOD8004435 Si02
#       8
#     2   2   2   2   2   2   2   2
#     4  10  20  38  58  89 125 148 197 251 296 365
#     4  10  22  35  56  92 126 159 197 236 302 384
#     4  11  18  36  62  93 120 149 197 252 312 354
#     4  11  22  37  56  87 133 164 190 237 309 373
#     4  11  20  36  67  88 118 156 198 259 297 363
#     4  10  21  38  64  86 126 164 191 250 305 362
#     4  10  23  38  60  88 118 154 206 258 298 342
#     4   9  20  40  63  88 112 158 210 247 296 351
#
# _framework density 20.307883
#
# number of rings (size 3 to 8) (size 9 to 14) (size 15 to 20)
#    0.000    1.750    5.000    0.750    5.250    2.500 
#    2.250    0.625    0.000    1.500    0.000    0.000 
#    0.000    0.000    0.000    0.000    0.000    0.000 
#
# Total GULP energy -198217.975890 kJ/mol
# GULP energy per Si atom -12388.623493 kJ/mol
# Density = 2.026166 g / cm^3
# Si number density = 20.307883 Si / 1000 Ang^3
#
#
#
# Elastic Constant Matrix: (Units=GPa)
#
#
# Indices 1 2 3 4 5 6 
#
# 1 65.4658 25.1466 47.5890 11.2362 4.2841 -4.1589
# 2 25.1466 71.5042 38.8077 12.1158 6.7649 -12.4690
# 3 47.5890 38.8077 69.9347 -2.7068 -10.5317 -5.1797
# 4 11.2362 12.1158 -2.7068 36.3729 -4.3337 0.7441
# 5 4.2841 6.7649 -10.5317 -4.3337 31.1364 -5.3935
# 6 -4.1589 -12.4690 -5.1797 0.7441 -5.3935 36.7553
#
#
#
# Elastic Compliance Matrix: (Units=1/GPa)
#
#
# Indices 1 2 3 4 5 6 
#
# 1 0.055290 0.018750 -0.054380 -0.031478 -0.034361 0.000548
# 2 0.018750 0.033835 -0.035652 -0.022711 -0.024201 0.005484
# 3 -0.054380 -0.035652 0.079766 0.040308 0.047675 -0.000827
# 4 -0.031478 -0.022711 0.040308 0.051362 0.029654 -0.002274
# 5 -0.034361 -0.024201 0.047675 0.029654 0.062919 0.003253
# 6 0.000548 0.005484 -0.000827 -0.002274 0.003253 0.029536
#
#
# Mechanical properties :
#
#
# Convention : Reuss Voigt Hill
#
# Bulk Modulus (GPa) = 37.98512 47.77682 42.88097
# Shear Modulus (GPa) = 10.77476 27.21034 18.99255
#
# Velocity S-wave (km/s) = 2.30591 3.66442 3.06147
# Velocity P-wave (km/s) = 5.08280 6.44060 5.80156
#
# Compressibility (1/GPa) = 0.02632610
#
# Stress axis : x y z
#
# Youngs Moduli (GPa) = 18.08652 29.55536 12.53670
#
# Poissons Ratio (x) = -0.55416 0.68175
# Poissons Ratio (y) = -0.33912 0.44695
# Poissons Ratio (z) = 0.98355 1.05370
#
# Static dielectric constant tensor:
#      x y z
#    x 3.904350 0.225210 -0.200320 
#    y 0.225210 3.858140 -0.344410 
#    z -0.200320 -0.344410 4.062730 
# 
# 
# High freq. dielectric constant tensor:
#      x y z
#    x 1.799880 0.003010 -0.008580 
#    y 0.003010 1.780110 -0.012740 
#    z -0.008580 -0.012740 1.771210 
# 
# From -- ./inp_files/278578.got.cif
#   From: 2010.06.25/outbox.cif.g09.slc.cpg/sg2_140_cif.got.tgz:278578.got - 2010.06.27 13:26:56.
