data_PCOD8004651
_publ_section_title
;
Structure prediction by ZEFSAII (Michael W. Deem and Ramdas Pophale) SiO2 
 PCOD8004651
Probable space group: P -1
;
_chemical_formula_sum "Si O2"
_cell_formula_units_Z 10
_cell_length_a 8.931464
_cell_length_b 11.980713
_cell_length_c 14.582795
_cell_angle_alpha 151.090013
_cell_angle_beta 139.561124
_cell_angle_gamma 41.402047
_cell_volume 471.499092
_symmetry_space_group_name_H-M "P -1"
_symmetry_group_IT_number 2
_symmetry_cell_setting 'triclinic'
loop_
_space_group_symop_operation_xyz
x,y,z
-x,-y,-z
loop_
_atom_site_type_symbol
_atom_site_label
_atom_site_fract_x
_atom_site_fract_y
_atom_site_fract_z
Si Si1 0.897395 0.968348 0.673518
Si Si2 0.398118 0.334578 0.452686
Si Si3 0.538295 0.678755 0.324148
Si Si4 0.930637 0.226704 0.193578
Si Si5 0.597994 0.150494 0.229745
O O1 0.720770 0.804548 0.448247
O O2 0.041966 0.885021 0.773695
O O3 0.115384 0.949840 0.690823
O O4 0.721575 0.242253 0.790544
O O5 0.512442 0.228623 0.527200
O O6 0.477614 0.143671 0.269147
O O7 0.472579 0.575226 0.639189
O O8 0.110777 0.392678 0.377330
O O9 0.658737 0.391578 0.171057
O O10 0.000000 0.000000 0.000000
O O11 0.500000 0.000000 0.000000
#
# Coordination Sequence:
#
# PCOD8004651 Si02
#       5
#     2   2   2   2   2
#     4  10  20  38  61  85 116 152 196 243 290 349
#     4  10  21  37  59  87 120 154 194 242 289 348
#     4  10  20  38  62  86 114 153 196 244 296 338
#     4  11  20  37  63  87 119 153 194 246 293 344
#     4  11  21  37  61  87 117 160 196 232 295 350
#
# _framework density 21.208949
#
# number of rings (size 3 to 8) (size 9 to 14) (size 15 to 20)
#    0.000    1.600    4.000    2.400    0.000    1.600 
#    0.000    1.000    0.000    0.000    0.000    0.000 
#    0.000    0.000    0.000    0.000    0.000    0.000 
#
# Total GULP energy -123905.572241 kJ/mol
# GULP energy per Si atom -12390.557224 kJ/mol
# Density = 2.116068 g / cm^3
# Si number density = 21.208949 Si / 1000 Ang^3
#
#
#
# Elastic Constant Matrix: (Units=GPa)
#
#
# Indices 1 2 3 4 5 6 
#
# 1 119.9701 42.2808 20.3818 -0.7587 -13.0841 -15.8351
# 2 42.2808 162.1262 18.0114 14.7911 -5.1425 -31.4629
# 3 20.3818 18.0114 67.4467 8.3180 -18.2435 -0.1542
# 4 -0.7587 14.7911 8.3180 14.5200 -10.0216 4.9313
# 5 -13.0841 -5.1425 -18.2435 -10.0216 28.4049 5.3195
# 6 -15.8351 -31.4629 -0.1542 4.9313 5.3195 28.4888
#
#
#
# Elastic Compliance Matrix: (Units=1/GPa)
#
#
# Indices 1 2 3 4 5 6 
#
# 1 0.010522 -0.003482 -0.001624 0.010207 0.006976 -0.001076
# 2 -0.003482 0.014069 -0.003195 -0.031465 -0.016346 0.022083
# 3 -0.001624 -0.003195 0.019439 0.004450 0.014179 -0.007744
# 4 0.010207 -0.031465 0.004450 0.178764 0.078929 -0.074733
# 5 0.006976 -0.016346 0.014179 0.078929 0.080424 -0.042777
# 6 -0.001076 0.022083 -0.007744 -0.074733 -0.042777 0.079774
#
#
# Mechanical properties :
#
#
# Convention : Reuss Voigt Hill
#
# Bulk Modulus (GPa) = 36.46046 56.76567 46.61307
# Shear Modulus (GPa) = 12.23278 32.20733 22.22006
#
# Velocity S-wave (km/s) = 2.40422 3.90111 3.24029
# Velocity P-wave (km/s) = 4.99354 6.86401 6.00209
#
# Compressibility (1/GPa) = 0.02742697
#
# Stress axis : x y z
#
# Youngs Moduli (GPa) = 95.03911 71.07893 51.44227
#
# Poissons Ratio (x) = 0.24752 0.08355
# Poissons Ratio (y) = 0.33095 0.16436
# Poissons Ratio (z) = 0.15436 0.22711
#
# Static dielectric constant tensor:
#      x y z
#    x 2.909330 -0.091810 0.531790 
#    y -0.091810 3.884200 0.058370 
#    z 0.531790 0.058370 3.388420 
# 
# 
# High freq. dielectric constant tensor:
#      x y z
#    x 1.844480 -0.007760 0.000450 
#    y -0.007760 1.823080 0.010930 
#    z 0.000450 0.010930 1.798790 
# 
# From -- ./inp_files/144099.got.cif
#   From: 2010.06.25/outbox.cif.g09.slc.cpg/sg2_73_cif.got.tgz:144099.got - 2010.06.27 13:26:56.
