data_PCOD8004395
_publ_section_title
;
Structure prediction by ZEFSAII (Michael W. Deem and Ramdas Pophale) SiO2 
 PCOD8004395
Probable space group: P -1
;
_chemical_formula_sum "Si O2"
_cell_formula_units_Z 16
_cell_length_a 12.898294
_cell_length_b 11.541106
_cell_length_c 9.274490
_cell_angle_alpha 142.626816
_cell_angle_beta 101.429302
_cell_angle_gamma 86.142749
_cell_volume 811.919265
_symmetry_space_group_name_H-M "P -1"
_symmetry_group_IT_number 2
_symmetry_cell_setting 'triclinic'
loop_
_space_group_symop_operation_xyz
x,y,z
-x,-y,-z
loop_
_atom_site_type_symbol
_atom_site_label
_atom_site_fract_x
_atom_site_fract_y
_atom_site_fract_z
Si Si1 0.022145 0.984338 0.157032
Si Si2 0.438896 0.205143 0.334531
Si Si3 0.452971 0.467583 0.113775
Si Si4 0.160694 0.020111 0.681060
Si Si5 0.253518 0.108829 0.398052
Si Si6 0.229217 0.392599 0.902136
Si Si7 0.144120 0.760888 0.154096
Si Si8 0.596755 0.900776 0.097560
O O1 0.050940 0.779113 0.026275
O O2 0.917687 0.029418 0.254876
O O3 0.129821 0.138608 0.363284
O O4 0.000000 0.000000 0.000000
O O5 0.477104 0.408750 0.622749
O O6 0.326070 0.113378 0.282192
O O7 0.416019 0.222727 0.176510
O O8 0.529257 0.073504 0.252940
O O9 0.448809 0.242574 0.929084
O O10 0.500000 0.500000 0.000000
O O11 0.329953 0.513339 0.134332
O O12 0.156659 0.234538 0.825734
O O13 0.115870 0.855722 0.390984
O O14 0.280346 0.006479 0.752621
O O15 0.291853 0.283106 0.690536
O O16 0.253180 0.896716 0.261928
O O17 0.156395 0.538561 0.958042
#
# Coordination Sequence:
#
# PCOD8004395 Si02
#       8
#     2   2   2   2   2   2   2   2
#     4  10  21  39  62  85 117 151 186 240 292 337
#     4  11  21  40  59  85 120 156 194 237 291 349
#     4  11  22  35  57  86 117 152 192 244 281 337
#     4  10  20  41  59  84 118 151 191 242 282 339
#     4   9  21  35  59  86 114 148 187 243 282 337
#     4  10  20  38  57  89 112 151 198 231 292 334
#     4   9  21  36  61  84 111 150 192 234 284 345
#     4  10  24  37  60  86 116 160 194 233 295 347
#
# _framework density 19.706392999999998
#
# number of rings (size 3 to 8) (size 9 to 14) (size 15 to 20)
#    0.750    1.250    1.250    2.250    1.750    1.000 
#    0.000    0.625    5.500    0.000    0.000    0.000 
#    0.000    0.000    0.000    0.000    0.000    0.000 
#
# Total GULP energy -198220.600572 kJ/mol
# GULP energy per Si atom -12388.787536 kJ/mol
# Density = 1.966154 g / cm^3
# Si number density = 19.706393 Si / 1000 Ang^3
#
#
#
# Elastic Constant Matrix: (Units=GPa)
#
#
# Indices 1 2 3 4 5 6 
#
# 1 101.8235 46.3595 22.1436 -7.0999 -4.3030 10.0004
# 2 46.3595 108.2930 35.2060 -14.8858 -10.8856 -5.3897
# 3 22.1436 35.2060 60.1827 -8.8525 -1.2940 2.6263
# 4 -7.0999 -14.8858 -8.8525 31.5596 -0.6869 -3.6645
# 5 -4.3030 -10.8856 -1.2940 -0.6869 23.7122 -8.5990
# 6 10.0004 -5.3897 2.6263 -3.6645 -8.5990 33.8081
#
#
#
# Elastic Compliance Matrix: (Units=1/GPa)
#
#
# Indices 1 2 3 4 5 6 
#
# 1 0.013128 -0.005787 -0.001384 -0.000840 -0.002326 -0.005381
# 2 -0.005787 0.015813 -0.006466 0.005409 0.008750 0.007547
# 3 -0.001384 -0.006466 0.021292 0.002221 -0.003009 -0.002800
# 4 -0.000840 0.005409 0.002221 0.035522 0.005748 0.006251
# 5 -0.002326 0.008750 -0.003009 0.005748 0.051594 0.016062
# 6 -0.005381 0.007547 -0.002800 0.006251 0.016062 0.037354
#
#
# Mechanical properties :
#
#
# Convention : Reuss Voigt Hill
#
# Bulk Modulus (GPa) = 43.55706 53.07971 48.31838
# Shear Modulus (GPa) = 23.85145 28.92200 26.38672
#
# Velocity S-wave (km/s) = 3.48277 3.83514 3.66320
# Velocity P-wave (km/s) = 6.19063 6.82677 6.51647
#
# Compressibility (1/GPa) = 0.02295839
#
# Stress axis : x y z
#
# Youngs Moduli (GPa) = 76.17053 63.24076 46.96605
#
# Poissons Ratio (x) = 0.36600 0.06498
# Poissons Ratio (y) = 0.44083 0.30369
# Poissons Ratio (z) = 0.10539 0.40893
#
# Static dielectric constant tensor:
#      x y z
#    x 3.635030 -0.006870 0.219160 
#    y -0.006870 3.550770 -0.197470 
#    z 0.219160 -0.197470 3.416060 
# 
# 
# High freq. dielectric constant tensor:
#      x y z
#    x 1.771490 0.005070 0.010960 
#    y 0.005070 1.766030 -0.013690 
#    z 0.010960 -0.013690 1.748210 
# 
# From -- ./inp_files/261032.got.cif
#   From: 2010.06.25/outbox.cif.g09.slc.cpg/sg2_131_cif.got.tgz:261032.got - 2010.06.27 13:26:56.
