data_PCOD8004507
_publ_section_title
;
Structure prediction by ZEFSAII (Michael W. Deem and Ramdas Pophale) SiO2 
 PCOD8004507
Probable space group: P -1
;
_chemical_formula_sum "Si O2"
_cell_formula_units_Z 16
_cell_length_a 19.454748
_cell_length_b 7.894191
_cell_length_c 13.791867
_cell_angle_alpha 135.850527
_cell_angle_beta 39.673450
_cell_angle_gamma 147.622924
_cell_volume 709.865719
_symmetry_space_group_name_H-M "P -1"
_symmetry_group_IT_number 2
_symmetry_cell_setting 'triclinic'
loop_
_space_group_symop_operation_xyz
x,y,z
-x,-y,-z
loop_
_atom_site_type_symbol
_atom_site_label
_atom_site_fract_x
_atom_site_fract_y
_atom_site_fract_z
Si Si1 0.829083 0.886617 0.743763
Si Si2 0.192162 0.230757 0.969642
Si Si3 0.876861 0.826839 0.192019
Si Si4 0.150304 0.853572 0.481181
Si Si5 0.403302 0.123136 0.954327
Si Si6 0.669149 0.324257 0.834068
Si Si7 0.240610 0.766078 0.802629
Si Si8 0.154477 0.323098 0.552493
O O1 0.776904 0.681092 0.814294
O O2 0.795309 0.627620 0.593035
O O3 0.741956 0.015181 0.886605
O O4 0.996520 0.206762 0.691133
O O5 0.219440 0.301423 0.853598
O O6 0.187457 0.946412 0.896148
O O7 0.314753 0.575745 0.029440
O O8 0.040183 0.127512 0.114605
O O9 0.869675 0.553758 0.142029
O O10 0.817811 0.955482 0.376002
O O11 0.281001 0.870546 0.325131
O O12 0.000000 0.500000 0.500000
O O13 0.143807 0.027339 0.470844
O O14 0.501858 0.076088 0.884485
O O15 0.377493 0.997841 0.819558
O O16 0.500000 0.500000 0.000000
O O17 0.267986 0.645503 0.625742
#
# Coordination Sequence:
#
# PCOD8004507 Si02
#       8
#     2   2   2   2   2   2   2   2
#     4  10  20  38  59  92 122 152 209 248 305 376
#     4  11  21  38  61  90 129 158 204 258 322 365
#     4  10  24  36  59  99 121 158 207 259 320 369
#     4  11  20  39  60  85 126 159 193 258 313 365
#     4  10  22  40  64  85 124 171 213 249 303 382
#     4  11  21  41  62  86 122 170 203 248 309 377
#     4  11  22  40  62  91 126 163 206 265 309 365
#     4  10  23  36  62  98 119 154 206 262 320 359
#
# _framework density 22.539473999999998
#
# number of rings (size 3 to 8) (size 9 to 14) (size 15 to 20)
#    0.000    1.500    5.000    1.125    3.500    1.000 
#    0.000    8.750    0.000    0.000    0.000    0.000 
#    0.000    0.000    0.000    0.000    0.000    0.000 
#
# Total GULP energy -198257.753815 kJ/mol
# GULP energy per Si atom -12391.109613 kJ/mol
# Density = 2.248817 g / cm^3
# Si number density = 22.539474 Si / 1000 Ang^3
#
#
#
# Elastic Constant Matrix: (Units=GPa)
#
#
# Indices 1 2 3 4 5 6 
#
# 1 125.9579 14.0611 69.9367 5.0748 1.5258 21.3848
# 2 14.0611 24.3599 24.0970 11.0559 -0.9338 12.1247
# 3 69.9367 24.0970 132.1572 18.2827 -2.6011 16.2758
# 4 5.0748 11.0559 18.2827 29.9361 11.1308 6.2541
# 5 1.5258 -0.9338 -2.6011 11.1308 55.9958 6.1637
# 6 21.3848 12.1247 16.2758 6.2541 6.1637 40.1152
#
#
#
# Elastic Compliance Matrix: (Units=1/GPa)
#
#
# Indices 1 2 3 4 5 6 
#
# 1 0.012024 -0.000015 -0.006264 0.002948 -0.000742 -0.004209
# 2 -0.000015 0.063979 -0.007211 -0.018429 0.005986 -0.014450
# 3 -0.006264 -0.007211 0.012789 -0.004825 0.001510 0.000850
# 4 0.002948 -0.018429 -0.004825 0.046261 -0.009836 0.000255
# 5 -0.000742 0.005986 0.001510 -0.009836 0.020403 -0.003628
# 6 -0.004209 -0.014450 0.000850 0.000255 -0.003628 0.031713
#
#
# Mechanical properties :
#
#
# Convention : Reuss Voigt Hill
#
# Bulk Modulus (GPa) = 16.17823 55.40717 35.79270
# Shear Modulus (GPa) = 21.29903 36.83475 29.06689
#
# Velocity S-wave (km/s) = 3.07736 4.04695 3.59500
# Velocity P-wave (km/s) = 4.45199 6.81709 5.75730
#
# Compressibility (1/GPa) = 0.06181147
#
# Stress axis : x y z
#
# Youngs Moduli (GPa) = 83.16815 15.63018 78.19246
#
# Poissons Ratio (x) = 0.00024 0.48981
# Poissons Ratio (y) = 0.00127 0.56382
# Poissons Ratio (z) = 0.52098 0.11270
#
# Static dielectric constant tensor:
#      x y z
#    x 4.562830 0.178640 0.092130 
#    y 0.178640 3.687310 0.306420 
#    z 0.092130 0.306420 4.099130 
# 
# 
# High freq. dielectric constant tensor:
#      x y z
#    x 1.899710 0.002590 0.012870 
#    y 0.002590 1.854260 0.022680 
#    z 0.012870 0.022680 1.890390 
# 
# From -- ./inp_files/540584.got.cif
#   From: 2010.06.25/outbox.cif.g09.slc.cpg/sg2_271_cif.got.tgz:540584.got - 2010.06.27 13:26:56.
