data_PCOD8004173
_publ_section_title
;
Structure prediction by ZEFSAII (Michael W. Deem and Ramdas Pophale) SiO2 
 PCOD8004173
Probable space group: P -1
;
_chemical_formula_sum "Si O2"
_cell_formula_units_Z 14
_cell_length_a 10.588170
_cell_length_b 11.107366
_cell_length_c 12.273417
_cell_angle_alpha 91.527926
_cell_angle_beta 112.280804
_cell_angle_gamma 145.640552
_cell_volume 572.616626
_symmetry_space_group_name_H-M "P -1"
_symmetry_group_IT_number 2
_symmetry_cell_setting 'triclinic'
loop_
_space_group_symop_operation_xyz
x,y,z
-x,-y,-z
loop_
_atom_site_type_symbol
_atom_site_label
_atom_site_fract_x
_atom_site_fract_y
_atom_site_fract_z
Si Si1 0.407827 0.465190 0.346497
Si Si2 0.185449 0.621434 0.841912
Si Si3 0.426698 0.754510 0.329316
Si Si4 0.669251 0.827949 0.076693
Si Si5 0.765523 0.072943 0.653271
Si Si6 0.359417 0.412704 0.797445
Si Si7 0.310533 0.805648 0.662525
O O1 0.500000 0.500000 0.500000
O O2 0.515575 0.685722 0.354113
O O3 0.591121 0.532000 0.315877
O O4 0.032692 0.156254 0.203641
O O5 0.341548 0.825118 0.803151
O O6 0.940519 0.508876 0.829150
O O7 0.454237 0.777524 0.011314
O O8 0.998340 0.368497 0.708876
O O9 0.464251 0.827370 0.469043
O O10 0.670744 0.034562 0.349590
O O11 0.564244 0.663430 0.142150
O O12 0.598223 0.696650 0.939994
O O13 0.620372 0.979176 0.723464
O O14 0.992243 0.136981 0.711878
O O15 0.000000 0.500000 0.500000
#
# Coordination Sequence:
#
# PCOD8004173 Si02
#       7
#     2   2   2   2   2   2   2
#     4  12  28  46  70 103 144 187 231 289 359 414
#     4  10  21  39  67  99 136 180 236 291 337 413
#     4  11  23  38  62 103 139 175 230 286 356 407
#     4  10  24  46  71  98 136 191 241 281 351 412
#     4  10  20  37  65 102 133 177 236 285 346 404
#     4  10  24  47  72  98 140 186 241 289 333 426
#     4  11  19  38  68 101 139 182 231 288 342 409
#
# _framework density 24.449166000000002
#
# number of rings (size 3 to 8) (size 9 to 14) (size 15 to 20)
#    0.000    1.429    2.857    2.143    0.000   14.286 
#    0.000    1.429    0.000    0.000    0.000    0.000 
#    0.000    0.000    0.000    0.000    0.000    0.000 
#
# Total GULP energy -173487.823391 kJ/mol
# GULP energy per Si atom -12391.987385 kJ/mol
# Density = 2.439352 g / cm^3
# Si number density = 24.449166 Si / 1000 Ang^3
#
#
#
# Elastic Constant Matrix: (Units=GPa)
#
#
# Indices 1 2 3 4 5 6 
#
# 1 80.3024 43.7495 36.0189 -3.1271 22.5921 -5.7758
# 2 43.7495 117.6995 44.7026 -3.6066 4.4902 -7.8826
# 3 36.0189 44.7026 86.9729 4.5123 20.0630 2.0673
# 4 -3.1271 -3.6066 4.5123 43.4417 1.9129 0.5647
# 5 22.5921 4.4902 20.0630 1.9129 37.4277 -1.6947
# 6 -5.7758 -7.8826 2.0673 0.5647 -1.6947 42.4503
#
#
#
# Elastic Compliance Matrix: (Units=1/GPa)
#
#
# Indices 1 2 3 4 5 6 
#
# 1 0.019836 -0.005635 -0.003228 0.001699 -0.009591 0.001404
# 2 -0.005635 0.012603 -0.005349 0.000959 0.004799 0.002013
# 3 -0.003228 -0.005349 0.017297 -0.002146 -0.006686 -0.002513
# 4 0.001699 0.000959 -0.002146 0.023494 -0.001184 0.000154
# 5 -0.009591 0.004799 -0.006686 -0.001184 0.035637 0.001350
# 6 0.001404 0.002013 -0.002513 0.000154 0.001350 0.024296
#
#
# Mechanical properties :
#
#
# Convention : Reuss Voigt Hill
#
# Bulk Modulus (GPa) = 46.91901 59.32406 53.12154
# Shear Modulus (GPa) = 29.63972 35.36419 32.50196
#
# Velocity S-wave (km/s) = 3.48559 3.80733 3.65001
# Velocity P-wave (km/s) = 5.95241 6.60641 6.28792
#
# Compressibility (1/GPa) = 0.02131332
#
# Stress axis : x y z
#
# Youngs Moduli (GPa) = 50.41285 79.34305 57.81293
#
# Poissons Ratio (x) = 0.44713 0.18660
# Poissons Ratio (y) = 0.28409 0.30923
# Poissons Ratio (z) = 0.16271 0.42439
#
# Static dielectric constant tensor:
#      x y z
#    x 4.396440 -0.180750 0.219050 
#    y -0.180750 4.383300 0.038090 
#    z 0.219050 0.038090 4.417670 
# 
# 
# High freq. dielectric constant tensor:
#      x y z
#    x 1.966390 -0.008530 0.008750 
#    y -0.008530 1.972100 0.009010 
#    z 0.008750 0.009010 1.964550 
# 
# From -- ./inp_files/428287.got.cif
#   From: 2010.06.25/outbox.cif.g09.slc.cpg/sg2_215_cif.got.tgz:428287.got - 2010.06.27 13:26:56.
