data_PCOD8004957
_publ_section_title
;
Structure prediction by ZEFSAII (Michael W. Deem and Ramdas Pophale) SiO2 
 PCOD8004957
Probable space group: P -1
;
_chemical_formula_sum "Si O2"
_cell_formula_units_Z 10
_cell_length_a 15.190907
_cell_length_b 12.591492
_cell_length_c 15.100827
_cell_angle_alpha 152.602422
_cell_angle_beta 18.645075
_cell_angle_gamma 149.247899
_cell_volume 421.688440
_symmetry_space_group_name_H-M "P -1"
_symmetry_group_IT_number 2
_symmetry_cell_setting 'triclinic'
loop_
_space_group_symop_operation_xyz
x,y,z
-x,-y,-z
loop_
_atom_site_type_symbol
_atom_site_label
_atom_site_fract_x
_atom_site_fract_y
_atom_site_fract_z
Si Si1 0.469964 0.955631 0.290256
Si Si2 0.944851 0.915886 0.088991
Si Si3 0.551256 0.775165 0.659090
Si Si4 0.788414 0.856979 0.674467
Si Si5 0.698060 0.385374 0.939779
O O1 0.361414 0.135329 0.455986
O O2 0.280483 0.937082 0.544464
O O3 0.451668 0.700314 0.073749
O O4 0.782047 0.047811 0.086054
O O5 0.820494 0.648955 0.010820
O O6 0.000000 0.000000 0.000000
O O7 0.500000 0.500000 0.500000
O O8 0.796707 0.859655 0.559992
O O9 0.278802 0.895668 0.037548
O O10 0.065171 0.780679 0.394269
O O11 0.530054 0.658113 0.797335
#
# Coordination Sequence:
#
# PCOD8004957 Si02
#       5
#     2   2   2   2   2
#     4  11  25  42  65  95 125 167 211 255 320 374
#     4  12  26  44  67  93 122 164 217 268 318 368
#     4  10  20  38  63  93 129 165 207 249 300 377
#     4  10  23  38  62  96 129 169 201 246 314 368
#     4  11  23  44  65  92 134 163 205 264 308 375
#
# _framework density 23.714189999999999
#
# number of rings (size 3 to 8) (size 9 to 14) (size 15 to 20)
#    0.000    1.200    0.000    6.600    0.000   10.400 
#    0.000   12.000    0.000    0.000    0.000    0.000 
#    0.000    0.000    0.000    0.000    0.000    0.000 
#
# Total GULP energy -124001.386573 kJ/mol
# GULP energy per Si atom -12400.138657 kJ/mol
# Density = 2.366022 g / cm^3
# Si number density = 23.714190 Si / 1000 Ang^3
#
#
#
# Elastic Constant Matrix: (Units=GPa)
#
#
# Indices 1 2 3 4 5 6 
#
# 1 83.5548 65.6673 21.4813 15.5497 3.1480 46.7830
# 2 65.6673 83.5140 29.1256 -16.7512 -6.9113 -0.8536
# 3 21.4813 29.1256 63.4103 -14.5197 11.1747 -4.6885
# 4 15.5497 -16.7512 -14.5197 22.0228 2.9663 -13.5757
# 5 3.1480 -6.9113 11.1747 2.9663 34.6213 -1.9416
# 6 46.7830 -0.8536 -4.6885 -13.5757 -1.9416 -4.7664
#
#
#
# Elastic Compliance Matrix: (Units=1/GPa)
#
#
# Indices 1 2 3 4 5 6 
#
# 1 0.003652 -0.002462 0.002802 0.006762 -0.001473 0.014874
# 2 -0.002462 0.017299 -0.009713 -0.001735 0.006105 -0.015258
# 3 0.002802 -0.009713 0.021969 0.004942 -0.009845 -0.002437
# 4 0.006762 -0.001735 0.004942 0.030166 -0.006347 -0.021511
# 5 -0.001473 0.006105 -0.009845 -0.006347 0.033869 -0.001588
# 6 0.014874 -0.015258 -0.002437 -0.021511 -0.001588 0.003228
#
#
# Mechanical properties :
#
#
# Convention : Reuss Voigt Hill
#
# Bulk Modulus (GPa) = 41.36942 51.44752 46.40847
# Shear Modulus (GPa) = 36.49936 17.98920 27.24428
#
# Velocity S-wave (km/s) = 3.92744 2.75723 3.39316
# Velocity P-wave (km/s) = 6.16841 5.64609 5.91302
#
# Compressibility (1/GPa) = 0.02417244
#
# Stress axis : x y z
#
# Youngs Moduli (GPa) = 273.79407 57.80695 45.51910
#
# Poissons Ratio (x) = 0.14235 -0.12752
# Poissons Ratio (y) = 0.67420 0.44212
# Poissons Ratio (z) = -0.76704 0.56148
#
# Static dielectric constant tensor:
#      x y z
#    x 4.938310 -0.091250 0.131560 
#    y -0.091250 4.723170 -0.202230 
#    z 0.131560 -0.202230 4.361600 
# 
# 
# High freq. dielectric constant tensor:
#      x y z
#    x 1.949160 0.014500 0.010330 
#    y 0.014500 1.948780 -0.017570 
#    z 0.010330 -0.017570 1.937970 
# 
# From -- ./inp_files/21540.got.cif
#   From: 2010.06.25/outbox.cif.g09.slc.cpg/sg2_11_cif.got.tgz:21540.got - 2010.06.27 13:26:56.
