data_PCOD8004195
_publ_section_title
;
Structure prediction by ZEFSAII (Michael W. Deem and Ramdas Pophale) SiO2 
 PCOD8004195
Probable space group: P -1
;
_chemical_formula_sum "Si O2"
_cell_formula_units_Z 16
_cell_length_a 8.972690
_cell_length_b 15.309021
_cell_length_c 13.919146
_cell_angle_alpha 47.687784
_cell_angle_beta 147.120165
_cell_angle_gamma 134.710708
_cell_volume 720.657873
_symmetry_space_group_name_H-M "P -1"
_symmetry_group_IT_number 2
_symmetry_cell_setting 'triclinic'
loop_
_space_group_symop_operation_xyz
x,y,z
-x,-y,-z
loop_
_atom_site_type_symbol
_atom_site_label
_atom_site_fract_x
_atom_site_fract_y
_atom_site_fract_z
Si Si1 0.626562 0.075883 0.918714
Si Si2 0.642951 0.838918 0.021554
Si Si3 0.872426 0.299569 0.011137
Si Si4 0.464147 0.353351 0.383929
Si Si5 0.187722 0.192954 0.534420
Si Si6 0.540401 0.578152 0.368788
Si Si7 0.768442 0.178703 0.586888
Si Si8 0.562599 0.101235 0.321591
O O1 0.369258 0.099299 0.702434
O O2 0.765543 0.990784 0.994575
O O3 0.859473 0.207992 0.980802
O O4 0.500000 0.000000 0.000000
O O5 0.335192 0.771695 0.959400
O O6 0.599231 0.827542 0.889720
O O7 0.881817 0.782145 0.234743
O O8 0.216019 0.356224 0.173450
O O9 0.772384 0.414870 0.838340
O O10 0.277448 0.280214 0.426674
O O11 0.648755 0.498855 0.405859
O O12 0.680976 0.287182 0.510516
O O13 0.242327 0.279455 0.598022
O O14 0.851510 0.105513 0.416326
O O15 0.500000 0.500000 0.500000
O O16 0.657399 0.172398 0.421679
O O17 0.622596 0.044369 0.657271
#
# Coordination Sequence:
#
# PCOD8004195 Si02
#       8
#     2   2   2   2   2   2   2   2
#     4   9  19  31  57  89 120 152 199 249 292 357
#     4  11  22  41  60  88 133 169 197 247 311 371
#     4  10  20  37  65  91 118 158 211 249 305 372
#     4  11  22  39  63  92 119 158 206 259 303 356
#     4  10  20  39  63  91 116 161 210 251 302 370
#     4   9  20  39  63  92 122 151 201 270 310 345
#     4  11  26  38  59  94 131 162 201 255 306 364
#     4  11  23  40  62  87 132 168 203 243 312 371
#
# _framework density 22.201936
#
# number of rings (size 3 to 8) (size 9 to 14) (size 15 to 20)
#    0.000    1.750    1.250    3.750    7.000    1.000 
#    4.500    2.500    0.000    1.500    0.000    0.000 
#    0.000    0.000    0.000    0.000    0.000    0.000 
#
# Total GULP energy -198252.496283 kJ/mol
# GULP energy per Si atom -12390.781018 kJ/mol
# Density = 2.215140 g / cm^3
# Si number density = 22.201936 Si / 1000 Ang^3
#
#
#
# Elastic Constant Matrix: (Units=GPa)
#
#
# Indices 1 2 3 4 5 6 
#
# 1 66.7448 19.5563 35.1661 -0.1894 -5.1666 -19.0691
# 2 19.5563 52.4562 26.8024 -12.3328 11.0984 -24.6912
# 3 35.1661 26.8024 128.1747 -6.5142 -10.2773 -18.6686
# 4 -0.1894 -12.3328 -6.5142 29.6590 -1.6395 4.3025
# 5 -5.1666 11.0984 -10.2773 -1.6395 40.5011 -5.5479
# 6 -19.0691 -24.6912 -18.6686 4.3025 -5.5479 34.6537
#
#
#
# Elastic Compliance Matrix: (Units=1/GPa)
#
#
# Indices 1 2 3 4 5 6 
#
# 1 0.020401 -0.003669 -0.003583 -0.003091 0.003621 0.007645
# 2 -0.003669 0.035292 -0.003795 0.010691 -0.008142 0.018451
# 3 -0.003583 -0.003795 0.010050 0.000617 0.003322 0.001193
# 4 -0.003091 0.010691 0.000617 0.038010 -0.001451 0.001297
# 5 0.003621 -0.008142 0.003322 -0.001451 0.028542 0.002730
# 6 0.007645 0.018451 0.001193 0.001297 0.002730 0.047130
#
#
# Mechanical properties :
#
#
# Convention : Reuss Voigt Hill
#
# Bulk Modulus (GPa) = 22.91076 45.60281 34.25678
# Shear Modulus (GPa) = 23.14079 32.01950 27.58014
#
# Velocity S-wave (km/s) = 3.23195 3.80174 3.52837
# Velocity P-wave (km/s) = 4.92636 6.31313 5.66236
#
# Compressibility (1/GPa) = 0.04364761
#
# Stress axis : x y z
#
# Youngs Moduli (GPa) = 49.01674 28.33512 99.50186
#
# Poissons Ratio (x) = 0.10397 0.35655
# Poissons Ratio (y) = 0.17986 0.37762
# Poissons Ratio (z) = 0.17564 0.10753
#
# Static dielectric constant tensor:
#      x y z
#    x 3.941930 -0.494390 -0.244740 
#    y -0.494390 4.454560 -0.004230 
#    z -0.244740 -0.004230 4.125840 
# 
# 
# High freq. dielectric constant tensor:
#      x y z
#    x 1.853770 -0.014340 -0.022510 
#    y -0.014340 1.862590 -0.002700 
#    z -0.022510 -0.002700 1.885130 
# 
# From -- ./inp_files/186091.got.cif
#   From: 2010.06.25/outbox.cif.g09.slc.cpg/sg2_94_cif.got.tgz:186091.got - 2010.06.27 13:26:56.
