data_PCOD8004643
_publ_section_title
;
Structure prediction by ZEFSAII (Michael W. Deem and Ramdas Pophale) SiO2 
 PCOD8004643
Probable space group: P -1
;
_chemical_formula_sum "Si O2"
_cell_formula_units_Z 16
_cell_length_a 20.738509
_cell_length_b 8.361572
_cell_length_c 25.771571
_cell_angle_alpha 126.894708
_cell_angle_beta 167.790040
_cell_angle_gamma 56.138994
_cell_volume 744.229696
_symmetry_space_group_name_H-M "P -1"
_symmetry_group_IT_number 2
_symmetry_cell_setting 'triclinic'
loop_
_space_group_symop_operation_xyz
x,y,z
-x,-y,-z
loop_
_atom_site_type_symbol
_atom_site_label
_atom_site_fract_x
_atom_site_fract_y
_atom_site_fract_z
Si Si1 0.973189 0.707406 0.320507
Si Si2 0.402195 0.416665 0.626248
Si Si3 0.156501 0.340339 0.061433
Si Si4 0.284322 0.274402 0.613968
Si Si5 0.460833 0.090113 0.811809
Si Si6 0.276765 0.823357 0.483513
Si Si7 0.417587 0.695996 0.947180
Si Si8 0.885647 0.019846 0.716511
O O1 0.079081 0.503925 0.386893
O O2 0.009746 0.693410 0.284143
O O3 0.184294 0.905223 0.549274
O O4 0.623574 0.730880 0.063773
O O5 0.678325 0.560041 0.841886
O O6 0.475417 0.408153 0.744254
O O7 0.353222 0.192913 0.516815
O O8 0.406025 0.264776 0.280104
O O9 0.000000 0.500000 0.000000
O O10 0.888055 0.148485 0.797012
O O11 0.419678 0.290972 0.782870
O O12 0.935585 0.316329 0.349561
O O13 0.313059 0.048467 0.577350
O O14 0.479298 0.129038 0.895260
O O15 0.771226 0.020949 0.025343
O O16 0.180912 0.819613 0.347883
O O17 0.500000 0.500000 0.000000
#
# Coordination Sequence:
#
# PCOD8004643 Si02
#       8
#     2   2   2   2   2   2   2   2
#     4  10  20  39  57  91 124 162 213 254 297 356
#     4  10  20  42  64  90 124 161 204 246 309 376
#     4  11  24  44  67  96 125 150 201 261 304 378
#     4  10  20  38  61  84 121 164 206 251 298 363
#     4  11  21  38  62  84 121 175 202 249 309 350
#     4   9  20  40  64  88 123 162 205 247 308 370
#     4  12  22  37  55  89 129 157 215 264 284 348
#     4  11  20  42  67  87 126 167 198 252 310 366
#
# _framework density 21.498737999999999
#
# number of rings (size 3 to 8) (size 9 to 14) (size 15 to 20)
#    0.000    1.500    7.500    0.375    0.000    3.500 
#    9.000    2.500    0.000    0.000    0.000    0.000 
#    0.000    0.000    0.000    0.000    0.000    0.000 
#
# Total GULP energy -198227.602266 kJ/mol
# GULP energy per Si atom -12389.225142 kJ/mol
# Density = 2.144981 g / cm^3
# Si number density = 21.498738 Si / 1000 Ang^3
#
#
#
# Elastic Constant Matrix: (Units=GPa)
#
#
# Indices 1 2 3 4 5 6 
#
# 1 78.8761 65.0173 65.9338 -23.6227 -14.8106 5.5590
# 2 65.0173 213.6544 145.5918 -35.4375 -8.6417 -6.9530
# 3 65.9338 145.5918 188.6742 -37.0379 -12.9304 -3.8862
# 4 -23.6227 -35.4375 -37.0379 41.6509 0.1797 -4.4181
# 5 -14.8106 -8.6417 -12.9304 0.1797 27.7120 -6.1015
# 6 5.5590 -6.9530 -3.8862 -4.4181 -6.1015 42.2106
#
#
#
# Elastic Compliance Matrix: (Units=1/GPa)
#
#
# Indices 1 2 3 4 5 6 
#
# 1 0.021654 -0.002762 -0.003603 0.006508 0.008611 -0.001713
# 2 -0.002762 0.010419 -0.006855 0.001359 -0.001120 0.001429
# 3 -0.003603 -0.006855 0.012715 0.003548 0.002109 0.001192
# 4 0.006508 0.001359 0.003548 0.032407 0.006224 0.003985
# 5 0.008611 -0.001120 0.002109 0.006224 0.042531 0.005675
# 6 -0.001713 0.001429 0.001192 0.003985 0.005675 0.025499
#
#
# Mechanical properties :
#
#
# Convention : Reuss Voigt Hill
#
# Bulk Modulus (GPa) = 54.50748 114.92118 84.71433
# Shear Modulus (GPa) = 28.12461 35.95881 32.04171
#
# Velocity S-wave (km/s) = 3.62083 4.09418 3.86476
# Velocity P-wave (km/s) = 6.54900 8.71325 7.70746
#
# Compressibility (1/GPa) = 0.01834611
#
# Stress axis : x y z
#
# Youngs Moduli (GPa) = 46.18190 95.97920 78.64893
#
# Poissons Ratio (x) = 0.26509 0.28339
# Poissons Ratio (y) = 0.12755 0.53916
# Poissons Ratio (z) = 0.16641 0.65796
#
# Static dielectric constant tensor:
#      x y z
#    x 4.625650 0.412310 -0.197280 
#    y 0.412310 4.334970 -0.216230 
#    z -0.197280 -0.216230 3.569210 
# 
# 
# High freq. dielectric constant tensor:
#      x y z
#    x 1.837490 0.008040 -0.013440 
#    y 0.008040 1.852810 -0.008790 
#    z -0.013440 -0.008790 1.822430 
# 
# From -- ./inp_files/349931.got.cif
#   From: 2010.06.25/outbox.cif.g09.slc.cpg/sg2_175_cif.got.tgz:349931.got - 2010.06.27 13:26:56.
