data_PCOD8005585
_publ_section_title
;
Structure prediction by ZEFSAII (Michael W. Deem and Ramdas Pophale) SiO2 
 PCOD8005585
Probable space group: P -1
;
_chemical_formula_sum "Si O2"
_cell_formula_units_Z 16
_cell_length_a 4.736245
_cell_length_b 24.053103
_cell_length_c 5.499952
_cell_angle_alpha 89.110221
_cell_angle_beta 94.248243
_cell_angle_gamma 93.849592
_cell_volume 623.395774
_symmetry_space_group_name_H-M "P -1"
_symmetry_group_IT_number 2
_symmetry_cell_setting 'triclinic'
loop_
_space_group_symop_operation_xyz
x,y,z
-x,-y,-z
loop_
_atom_site_type_symbol
_atom_site_label
_atom_site_fract_x
_atom_site_fract_y
_atom_site_fract_z
Si Si1 0.954026 0.796278 0.782114
Si Si2 0.956219 0.407622 0.593617
Si Si3 0.483962 0.608030 0.034173
Si Si4 0.985133 0.665909 0.803314
Si Si5 0.525206 0.935059 0.521305
Si Si6 0.009629 0.125980 0.642264
Si Si7 0.316426 0.506969 0.724467
Si Si8 0.488927 0.857214 0.945248
O O1 0.050406 0.818721 0.519639
O O2 0.174668 0.827883 0.998566
O O3 0.981095 0.731450 0.809583
O O4 0.627358 0.810526 0.786625
O O5 0.927295 0.452706 0.371688
O O6 0.105690 0.356713 0.471991
O O7 0.182148 0.442955 0.787518
O O8 0.657302 0.389559 0.705999
O O9 0.802079 0.638504 0.020636
O O10 0.466493 0.541826 0.957873
O O11 0.305204 0.646715 0.845653
O O12 0.304557 0.903532 0.304738
O O13 0.429484 0.912603 0.783968
O O14 0.851460 0.920734 0.515639
O O15 0.500000 0.000000 0.500000
O O16 0.259924 0.134566 0.848763
O O17 0.500000 0.500000 0.500000
#
# Coordination Sequence:
#
# PCOD8005585 Si02
#       8
#     2   2   2   2   2   2   2   2
#     4  10  22  41  61  85 123 161 212 275 317 378
#     4  10  23  39  60  89 121 160 201 255 318 394
#     4  11  24  39  63  90 121 159 206 256 326 394
#     4  11  24  42  60  89 122 157 209 269 325 381
#     4  10  21  36  58  94 132 164 207 264 316 375
#     4  10  21  38  62  88 121 171 212 254 320 379
#     4  10  20  39  60  87 123 159 200 252 314 394
#     4  10  21  39  62  89 121 167 220 260 317 390
#
# _framework density 25.665880000000001
#
# number of rings (size 3 to 8) (size 9 to 14) (size 15 to 20)
#    0.000    1.750    1.250    2.250    1.750    2.500 
#    0.000    6.250    0.000    0.000    0.000    0.000 
#    0.000    0.000    0.000    0.000    0.000    0.000 
#
# Total GULP energy -198234.041494 kJ/mol
# GULP energy per Si atom -12389.627593 kJ/mol
# Density = 2.560746 g / cm^3
# Si number density = 25.665880 Si / 1000 Ang^3
#
#
#
# Elastic Constant Matrix: (Units=GPa)
#
#
# Indices 1 2 3 4 5 6 
#
# 1 145.5839 39.1760 19.8281 -8.4959 6.6971 13.9523
# 2 39.1760 190.5198 23.6317 -28.2764 17.6300 -0.0305
# 3 19.8281 23.6317 66.6095 -8.7827 17.0285 15.7487
# 4 -8.4959 -28.2764 -8.7827 28.6510 4.7514 6.5759
# 5 6.6971 17.6300 17.0285 4.7514 53.0102 -0.1087
# 6 13.9523 -0.0305 15.7487 6.5759 -0.1087 35.8720
#
#
#
# Elastic Compliance Matrix: (Units=1/GPa)
#
#
# Indices 1 2 3 4 5 6 
#
# 1 0.007700 -0.001203 -0.000856 0.001576 -0.000445 -0.002911
# 2 -0.001203 0.006792 -0.000333 0.006825 -0.002613 -0.000639
# 3 -0.000856 -0.000333 0.021075 0.009566 -0.007431 -0.010696
# 4 0.001576 0.006825 0.009566 0.049914 -0.010044 -0.013987
# 5 -0.000445 -0.002613 -0.007431 -0.010044 0.023088 0.005344
# 6 -0.002911 -0.000639 -0.010696 -0.013987 0.005344 0.036285
#
#
# Mechanical properties :
#
#
# Convention : Reuss Voigt Hill
#
# Bulk Modulus (GPa) = 32.48245 63.10943 47.79594
# Shear Modulus (GPa) = 31.26995 44.84513 38.05754
#
# Velocity S-wave (km/s) = 3.49427 4.18457 3.85490
# Velocity P-wave (km/s) = 5.38175 6.92746 6.20294
#
# Compressibility (1/GPa) = 0.03078585
#
# Stress axis : x y z
#
# Youngs Moduli (GPa) = 129.86218 147.23309 47.44867
#
# Poissons Ratio (x) = 0.17707 0.04061
# Poissons Ratio (y) = 0.15618 0.01578
# Poissons Ratio (z) = 0.11114 0.04897
#
# Static dielectric constant tensor:
#      x y z
#    x 5.919400 -0.209900 -0.083000 
#    y -0.209900 4.481130 0.160810 
#    z -0.083000 0.160810 5.006340 
# 
# 
# High freq. dielectric constant tensor:
#      x y z
#    x 2.065130 -0.014960 0.017780 
#    y -0.014960 2.009390 -0.005230 
#    z 0.017780 -0.005230 2.035240 
# 
# From -- ./inp_files/13300.got.cif
#   From: 2010.06.25/outbox.cif.g09.slc.cpg/sg2_7_cif.got.tgz:13300.got - 2010.06.27 13:26:56.
