data_PCOD8005381
_publ_section_title
;
Structure prediction by ZEFSAII (Michael W. Deem and Ramdas Pophale) SiO2 
 PCOD8005381
Probable space group: P -1
;
_chemical_formula_sum "Si O2"
_cell_formula_units_Z 16
_cell_length_a 9.174178
_cell_length_b 14.260617
_cell_length_c 11.806571
_cell_angle_alpha 134.964630
_cell_angle_beta 64.746968
_cell_angle_gamma 135.249908
_cell_volume 760.591907
_symmetry_space_group_name_H-M "P -1"
_symmetry_group_IT_number 2
_symmetry_cell_setting 'triclinic'
loop_
_space_group_symop_operation_xyz
x,y,z
-x,-y,-z
loop_
_atom_site_type_symbol
_atom_site_label
_atom_site_fract_x
_atom_site_fract_y
_atom_site_fract_z
Si Si1 0.279376 0.681403 0.516542
Si Si2 0.785442 0.710536 0.587188
Si Si3 0.600302 0.061052 0.682014
Si Si4 0.067864 0.648760 0.019504
Si Si5 0.099550 0.520439 0.666830
Si Si6 0.755008 0.978236 0.360586
Si Si7 0.515103 0.472152 0.655364
Si Si8 0.318433 0.366993 0.860751
O O1 0.169482 0.647736 0.645677
O O2 0.325005 0.551660 0.368902
O O3 0.137804 0.650649 0.429565
O O4 0.486153 0.874715 0.610505
O O5 0.769433 0.544954 0.422577
O O6 0.660414 0.661380 0.706611
O O7 0.643619 0.691922 0.516166
O O8 0.018799 0.894360 0.669098
O O9 0.437289 0.088155 0.716516
O O10 0.727925 0.180770 0.847946
O O11 0.753944 0.087641 0.554537
O O12 0.893766 0.668137 0.068781
O O13 0.000000 0.500000 0.000000
O O14 0.127723 0.618083 0.853721
O O15 0.722861 0.812894 0.277431
O O16 0.385390 0.458560 0.793381
O O17 0.500000 0.500000 0.000000
#
# Coordination Sequence:
#
# PCOD8005381 Si02
#       8
#     2   2   2   2   2   2   2   2
#     4  10  20  38  68  90 120 168 210 254 302 373
#     4  10  21  39  66  92 120 163 203 264 301 369
#     4  11  23  39  65  94 126 165 207 262 310 369
#     4  12  26  40  63  93 130 164 206 261 317 366
#     4  10  21  41  63  92 125 166 212 249 309 374
#     4  11  23  40  64  93 127 161 217 252 312 377
#     4  10  21  38  63  92 123 156 211 251 310 365
#     4  12  25  41  64  91 127 166 205 259 314 371
#
# _framework density 21.036248000000001
#
# number of rings (size 3 to 8) (size 9 to 14) (size 15 to 20)
#    0.000    1.250    2.500    3.750    3.500    1.500 
#    0.000    0.625    2.750    0.000    0.000    0.000 
#    0.000    0.000    0.000    0.000    0.000    0.000 
#
# Total GULP energy -198339.663218 kJ/mol
# GULP energy per Si atom -12396.228951 kJ/mol
# Density = 2.098837 g / cm^3
# Si number density = 21.036248 Si / 1000 Ang^3
#
#
#
# Elastic Constant Matrix: (Units=GPa)
#
#
# Indices 1 2 3 4 5 6 
#
# 1 76.4253 8.3637 15.7202 2.6878 8.4828 3.3345
# 2 8.3637 102.8740 27.8951 4.7468 13.9154 4.4003
# 3 15.7202 27.8951 91.2543 -5.0167 22.3024 -0.6137
# 4 2.6878 4.7468 -5.0167 29.3320 2.3543 6.4503
# 5 8.4828 13.9154 22.3024 2.3543 35.0042 3.0085
# 6 3.3345 4.4003 -0.6137 6.4503 3.0085 31.2790
#
#
#
# Elastic Compliance Matrix: (Units=1/GPa)
#
#
# Indices 1 2 3 4 5 6 
#
# 1 0.013800 -0.000252 -0.001919 -0.001172 -0.001852 -0.001054
# 2 -0.000252 0.010949 -0.002858 -0.001842 -0.002263 -0.000972
# 3 -0.001919 -0.002858 0.014269 0.003504 -0.007804 0.000915
# 4 -0.001172 -0.001842 0.003504 0.036852 -0.003106 -0.006848
# 5 -0.001852 -0.002263 -0.007804 -0.003106 0.035303 -0.002392
# 6 -0.001054 -0.000972 0.000915 -0.006848 -0.002392 0.033880
#
#
# Mechanical properties :
#
#
# Convention : Reuss Voigt Hill
#
# Bulk Modulus (GPa) = 34.53181 41.61239 38.07210
# Shear Modulus (GPa) = 30.34643 33.69470 32.02056
#
# Velocity S-wave (km/s) = 3.80225 4.00652 3.90572
# Velocity P-wave (km/s) = 5.97722 6.42084 6.20300
#
# Compressibility (1/GPa) = 0.02895881
#
# Stress axis : x y z
#
# Youngs Moduli (GPa) = 72.46520 91.33402 70.08294
#
# Poissons Ratio (x) = 0.02301 0.13450
# Poissons Ratio (y) = 0.01825 0.20031
# Poissons Ratio (z) = 0.13907 0.26106
#
# Static dielectric constant tensor:
#      x y z
#    x 3.986420 0.030640 -0.025430 
#    y 0.030640 3.960900 -0.179640 
#    z -0.025430 -0.179640 3.004190 
# 
# 
# High freq. dielectric constant tensor:
#      x y z
#    x 1.846700 0.002790 0.009400 
#    y 0.002790 1.834520 -0.007740 
#    z 0.009400 -0.007740 1.789070 
# 
# From -- ./inp_files/189561.got.cif
#   From: 2010.06.25/outbox.cif.g09.slc.cpg/sg2_95_cif.got.tgz:189561.got - 2010.06.27 13:26:56.
