data_PCOD8005526
_publ_section_title
;
Structure prediction by ZEFSAII (Michael W. Deem and Ramdas Pophale) SiO2 
 PCOD8005526
Probable space group: P -1
;
_chemical_formula_sum "Si O2"
_cell_formula_units_Z 16
_cell_length_a 17.715897
_cell_length_b 8.401721
_cell_length_c 13.500328
_cell_angle_alpha 34.493070
_cell_angle_beta 47.952835
_cell_angle_gamma 44.277093
_cell_volume 778.157501
_symmetry_space_group_name_H-M "P -1"
_symmetry_group_IT_number 2
_symmetry_cell_setting 'triclinic'
loop_
_space_group_symop_operation_xyz
x,y,z
-x,-y,-z
loop_
_atom_site_type_symbol
_atom_site_label
_atom_site_fract_x
_atom_site_fract_y
_atom_site_fract_z
Si Si1 0.622086 0.503571 0.098721
Si Si2 0.753347 0.766111 0.956785
Si Si3 0.839005 0.823970 0.057887
Si Si4 0.945283 0.207172 0.038190
Si Si5 0.258251 0.208060 0.642354
Si Si6 0.117288 0.273706 0.553875
Si Si7 0.377560 0.552267 0.273098
Si Si8 0.719421 0.533362 0.794546
O O1 0.644492 0.690749 0.074837
O O2 0.495064 0.561881 0.182275
O O3 0.699602 0.152239 0.226591
O O4 0.651956 0.636762 0.902569
O O5 0.802628 0.691830 0.061544
O O6 0.848077 0.527574 0.923967
O O7 0.720240 0.121937 0.781842
O O8 0.783419 0.707252 0.253991
O O9 0.969722 0.689416 0.029558
O O10 0.805585 0.186006 0.902301
O O11 0.892845 0.043113 0.246785
O O12 0.000000 0.000000 0.000000
O O13 0.158491 0.384609 0.562087
O O14 0.360152 0.310977 0.486139
O O15 0.212101 0.252891 0.400102
O O16 0.000000 0.500000 0.500000
O O17 0.370003 0.446265 0.221931
#
# Coordination Sequence:
#
# PCOD8005526 Si02
#       8
#     2   2   2   2   2   2   2   2
#     4  11  20  40  66  87 119 167 207 242 302 357
#     4  11  24  39  59  90 125 161 198 249 309 361
#     4  10  20  39  59  85 126 162 189 246 309 358
#     4  12  21  40  65  87 119 165 203 239 307 370
#     4  10  21  40  62  91 119 159 208 248 290 361
#     4  11  20  34  62  94 118 146 204 253 289 352
#     4  10  22  40  61  91 124 156 203 262 298 344
#     4   9  20  36  63  91 119 154 204 250 291 358
#
# _framework density 20.561391
#
# number of rings (size 3 to 8) (size 9 to 14) (size 15 to 20)
#    0.000    1.500    3.750    2.250    0.000    0.000 
#    2.250    1.250    0.000    0.000    0.000    0.000 
#    0.000    0.000    0.000    0.000    0.000    0.000 
#
# Total GULP energy -198290.033839 kJ/mol
# GULP energy per Si atom -12393.127115 kJ/mol
# Density = 2.051459 g / cm^3
# Si number density = 20.561391 Si / 1000 Ang^3
#
#
#
# Elastic Constant Matrix: (Units=GPa)
#
#
# Indices 1 2 3 4 5 6 
#
# 1 130.6878 33.5130 48.5523 14.1387 -19.4381 -2.7639
# 2 33.5130 57.8438 29.8176 7.9733 -2.0584 5.4789
# 3 48.5523 29.8176 132.0002 24.9815 -6.9508 8.2392
# 4 14.1387 7.9733 24.9815 23.6957 -6.1161 -4.5794
# 5 -19.4381 -2.0584 -6.9508 -6.1161 29.7483 -0.6723
# 6 -2.7639 5.4789 8.2392 -4.5794 -0.6723 27.1572
#
#
#
# Elastic Compliance Matrix: (Units=1/GPa)
#
#
# Indices 1 2 3 4 5 6 
#
# 1 0.010956 -0.005018 -0.002839 0.000391 0.006301 0.003211
# 2 -0.005018 0.022282 -0.002310 -0.003864 -0.003185 -0.005036
# 3 -0.002839 -0.002310 0.011473 -0.011078 -0.001730 -0.005215
# 4 0.000391 -0.003864 -0.011078 0.060391 0.010146 0.014615
# 5 0.006301 -0.003185 -0.001730 0.010146 0.039296 0.004492
# 6 0.003211 -0.005036 -0.005215 0.014615 0.004492 0.042323
#
#
# Mechanical properties :
#
#
# Convention : Reuss Voigt Hill
#
# Bulk Modulus (GPa) = 41.02156 60.47749 50.74953
# Shear Modulus (GPa) = 23.23631 30.03017 26.63324
#
# Velocity S-wave (km/s) = 3.36533 3.82581 3.60294
# Velocity P-wave (km/s) = 5.92408 6.99948 6.48411
#
# Compressibility (1/GPa) = 0.02437742
#
# Stress axis : x y z
#
# Youngs Moduli (GPa) = 91.27265 44.87915 87.16292
#
# Poissons Ratio (x) = 0.22520 0.24746
# Poissons Ratio (y) = 0.45801 0.20133
# Poissons Ratio (z) = 0.25912 0.10366
#
# Static dielectric constant tensor:
#      x y z
#    x 3.930990 -0.107580 0.024830 
#    y -0.107580 3.457940 0.035360 
#    z 0.024830 0.035360 3.868910 
# 
# 
# High freq. dielectric constant tensor:
#      x y z
#    x 1.823030 -0.013630 -0.006370 
#    y -0.013630 1.772600 0.003310 
#    z -0.006370 0.003310 1.802430 
# 
# From -- ./inp_files/220317.got.cif
#   From: 2010.06.25/outbox.cif.g09.slc.cpg/sg2_111_cif.got.tgz:220317.got - 2010.06.27 13:26:56.
