data_PCOD8005132
_publ_section_title
;
Structure prediction by ZEFSAII (Michael W. Deem and Ramdas Pophale) SiO2 
 PCOD8005132
Probable space group: P -1
;
_chemical_formula_sum "Si O2"
_cell_formula_units_Z 16
_cell_length_a 21.253691
_cell_length_b 9.883112
_cell_length_c 8.764853
_cell_angle_alpha 42.851821
_cell_angle_beta 37.101233
_cell_angle_gamma 47.698430
_cell_volume 737.603660
_symmetry_space_group_name_H-M "P -1"
_symmetry_group_IT_number 2
_symmetry_cell_setting 'triclinic'
loop_
_space_group_symop_operation_xyz
x,y,z
-x,-y,-z
loop_
_atom_site_type_symbol
_atom_site_label
_atom_site_fract_x
_atom_site_fract_y
_atom_site_fract_z
Si Si1 0.689245 0.499065 0.726726
Si Si2 0.418524 0.607832 0.697061
Si Si3 0.274436 0.670948 0.660857
Si Si4 0.600349 0.723466 0.415604
Si Si5 0.956923 0.182877 0.041000
Si Si6 0.935746 0.909809 0.575859
Si Si7 0.706797 0.080319 0.877444
Si Si8 0.064039 0.491328 0.724315
O O1 0.619995 0.652610 0.612185
O O2 0.691281 0.265692 0.872580
O O3 0.811118 0.527481 0.473409
O O4 0.631354 0.540883 0.969674
O O5 0.500000 0.500000 0.500000
O O6 0.321338 0.734232 0.678973
O O7 0.477975 0.738240 0.586588
O O8 0.323597 0.440093 0.704653
O O9 0.150390 0.670123 0.935817
O O10 0.296259 0.832631 0.360249
O O11 0.614889 0.953340 0.176525
O O12 0.914680 0.081880 0.349108
O O13 0.049476 0.300326 0.808542
O O14 0.000000 0.000000 0.000000
O O15 0.006078 0.689710 0.575351
O O16 0.813986 0.911117 0.857802
O O17 0.000000 0.000000 0.500000
O O18 0.000000 0.500000 0.000000
#
# Coordination Sequence:
#
# PCOD8005132 Si02
#       8
#     2   2   2   2   2   2   2   2
#     4  11  23  39  66  97 127 162 220 269 316 386
#     4  10  23  45  65  86 128 174 214 271 325 375
#     4   9  21  43  62  88 134 170 211 259 324 393
#     4  10  21  41  69  92 120 166 218 274 325 367
#     4  11  25  40  60  96 138 168 207 266 319 390
#     4  11  20  37  63  92 131 171 210 253 318 390
#     4  10  20  38  64  97 125 164 214 269 316 383
#     4  12  22  40  68  97 132 176 212 258 325 393
#
# _framework density 21.691866000000001
#
# number of rings (size 3 to 8) (size 9 to 14) (size 15 to 20)
#    0.000    1.500    2.500    3.375    1.750    1.500 
#    9.000    0.000    0.000    0.000    0.000    0.000 
#    0.000    0.000    0.000    0.000    0.000    0.000 
#
# Total GULP energy -198246.921276 kJ/mol
# GULP energy per Si atom -12390.432580 kJ/mol
# Density = 2.164249 g / cm^3
# Si number density = 21.691866 Si / 1000 Ang^3
#
#
#
# Elastic Constant Matrix: (Units=GPa)
#
#
# Indices 1 2 3 4 5 6 
#
# 1 155.6874 35.8264 64.7508 0.8055 -12.6362 9.5451
# 2 35.8264 75.0447 34.1094 -15.3222 -4.3458 16.1959
# 3 64.7508 34.1094 124.5737 -4.1366 -16.7960 16.5462
# 4 0.8055 -15.3222 -4.1366 38.1396 3.9042 0.4300
# 5 -12.6362 -4.3458 -16.7960 3.9042 32.3553 -5.5136
# 6 9.5451 16.1959 16.5462 0.4300 -5.5136 20.9860
#
#
#
# Elastic Compliance Matrix: (Units=1/GPa)
#
#
# Indices 1 2 3 4 5 6 
#
# 1 0.008757 -0.003210 -0.003783 -0.002071 0.001606 0.001941
# 2 -0.003210 0.020322 -0.002236 0.008447 -0.002991 -0.013419
# 3 -0.003783 -0.002236 0.011727 0.000155 0.003457 -0.004895
# 4 -0.002071 0.008447 0.000155 0.030221 -0.004520 -0.007505
# 5 0.001606 -0.002991 0.003457 -0.004520 0.034853 0.008101
# 6 0.001941 -0.013419 -0.004895 -0.007505 0.008101 0.063266
#
#
# Mechanical properties :
#
#
# Convention : Reuss Voigt Hill
#
# Bulk Modulus (GPa) = 44.74694 69.40875 57.07784
# Shear Modulus (GPa) = 25.63404 33.00413 29.31908
#
# Velocity S-wave (km/s) = 3.44137 3.90487 3.68042
# Velocity P-wave (km/s) = 6.03853 7.23863 6.66564
#
# Compressibility (1/GPa) = 0.02234790
#
# Stress axis : x y z
#
# Youngs Moduli (GPa) = 114.19163 49.20832 85.27052
#
# Poissons Ratio (x) = 0.15796 0.32258
# Poissons Ratio (y) = 0.36657 0.19068
# Poissons Ratio (z) = 0.43198 0.11004
#
# Static dielectric constant tensor:
#      x y z
#    x 4.391500 -0.011770 -0.216400 
#    y -0.011770 3.485380 0.232290 
#    z -0.216400 0.232290 3.681480 
# 
# 
# High freq. dielectric constant tensor:
#      x y z
#    x 1.872040 -0.005930 -0.011220 
#    y -0.005930 1.828990 0.004180 
#    z -0.011220 0.004180 1.851570 
# 
# From -- ./inp_files/272902.got.cif
#   From: 2010.06.25/outbox.cif.g09.slc.cpg/sg2_137_cif.got.tgz:272902.got - 2010.06.27 13:26:56.
