data_PCOD8005159
_publ_section_title
;
Structure prediction by ZEFSAII (Michael W. Deem and Ramdas Pophale) SiO2 
 PCOD8005159
Probable space group: P -1
;
_chemical_formula_sum "Si O2"
_cell_formula_units_Z 16
_cell_length_a 7.341964
_cell_length_b 9.680360
_cell_length_c 19.943758
_cell_angle_alpha 41.801163
_cell_angle_beta 54.292750
_cell_angle_gamma 66.343655
_cell_volume 765.689847
_symmetry_space_group_name_H-M "P -1"
_symmetry_group_IT_number 2
_symmetry_cell_setting 'triclinic'
loop_
_space_group_symop_operation_xyz
x,y,z
-x,-y,-z
loop_
_atom_site_type_symbol
_atom_site_label
_atom_site_fract_x
_atom_site_fract_y
_atom_site_fract_z
Si Si1 0.776652 0.627228 0.773980
Si Si2 0.377731 0.984944 0.268448
Si Si3 0.882279 0.771764 0.462096
Si Si4 0.704242 0.456862 0.716394
Si Si5 0.827522 0.106212 0.449611
Si Si6 0.450337 0.272023 0.563794
Si Si7 0.655897 0.851540 0.140767
Si Si8 0.130649 0.799358 0.115078
O O1 0.675927 0.630671 0.717733
O O2 0.779460 0.386605 0.884461
O O3 0.638646 0.770991 0.800170
O O4 0.036221 0.710390 0.686025
O O5 0.142834 0.849774 0.375702
O O6 0.554236 0.892526 0.315375
O O7 0.470884 0.970559 0.178938
O O8 0.849552 0.550880 0.588420
O O9 0.739398 0.935658 0.475089
O O10 0.788479 0.743095 0.417453
O O11 0.456796 0.370882 0.777068
O O12 0.831892 0.264174 0.792113
O O13 0.634582 0.213522 0.491310
O O14 0.000000 0.000000 0.500000
O O15 0.500000 0.500000 0.500000
O O16 0.867621 0.819861 0.153731
O O17 0.729112 0.987452 0.010641
#
# Coordination Sequence:
#
# PCOD8005159 Si02
#       8
#     2   2   2   2   2   2   2   2
#     4   9  20  38  64  81 125 155 199 246 297 352
#     4  11  24  42  55  95 129 158 194 256 295 364
#     4  11  23  39  63  90 126 167 202 231 313 369
#     4  10  20  38  65  89 117 161 197 248 294 368
#     4  11  18  41  61  85 126 168 199 243 291 374
#     4  12  25  36  58  91 129 163 200 247 295 354
#     4  11  23  40  68  86 118 155 208 249 312 344
#     4   9  23  43  63  89 113 158 207 256 292 363
#
# _framework density 20.896190000000001
#
# number of rings (size 3 to 8) (size 9 to 14) (size 15 to 20)
#    0.750    0.750    3.750    1.500    3.500    4.500 
#    2.250    0.000    0.000    1.500    0.000    0.000 
#    0.000    0.000    0.000    0.000    0.000    0.000 
#
# Total GULP energy -198286.206660 kJ/mol
# GULP energy per Si atom -12392.887916 kJ/mol
# Density = 2.084863 g / cm^3
# Si number density = 20.896190 Si / 1000 Ang^3
#
#
#
# Elastic Constant Matrix: (Units=GPa)
#
#
# Indices 1 2 3 4 5 6 
#
# 1 89.9053 20.1196 34.8340 6.4060 -4.1450 10.9537
# 2 20.1196 82.2320 9.9498 -5.1621 -7.8686 0.2855
# 3 34.8340 9.9498 76.5729 -1.6075 -10.9977 -4.6421
# 4 6.4060 -5.1621 -1.6075 24.8750 2.9371 -1.5026
# 5 -4.1450 -7.8686 -10.9977 2.9371 24.1830 -5.6693
# 6 10.9537 0.2855 -4.6421 -1.5026 -5.6693 28.2109
#
#
#
# Elastic Compliance Matrix: (Units=1/GPa)
#
#
# Indices 1 2 3 4 5 6 
#
# 1 0.016384 -0.003678 -0.008109 -0.005625 -0.003420 -0.008646
# 2 -0.003678 0.013589 0.000745 0.003458 0.004286 0.002459
# 3 -0.008109 0.000745 0.018467 0.002887 0.008799 0.008102
# 4 -0.005625 0.003458 0.002887 0.043141 -0.002741 0.004371
# 5 -0.003420 0.004286 0.008799 -0.002741 0.049430 0.012520
# 6 -0.008646 0.002459 0.008102 0.004371 0.012520 0.042861
#
#
# Mechanical properties :
#
#
# Convention : Reuss Voigt Hill
#
# Bulk Modulus (GPa) = 37.94175 42.05744 39.99960
# Shear Modulus (GPa) = 23.28372 27.70756 25.49564
#
# Velocity S-wave (km/s) = 3.34167 3.64533 3.49680
# Velocity P-wave (km/s) = 5.75202 6.15536 5.95710
#
# Compressibility (1/GPa) = 0.02635619
#
# Stress axis : x y z
#
# Youngs Moduli (GPa) = 61.03461 73.58811 54.15040
#
# Poissons Ratio (x) = 0.27065 0.43910
# Poissons Ratio (y) = 0.22448 -0.04032
# Poissons Ratio (z) = 0.49492 -0.05479
#
# Static dielectric constant tensor:
#      x y z
#    x 3.855330 0.125120 -0.087820 
#    y 0.125120 3.785500 -0.180470 
#    z -0.087820 -0.180470 3.686530 
# 
# 
# High freq. dielectric constant tensor:
#      x y z
#    x 1.813190 0.008370 -0.003830 
#    y 0.008370 1.812580 -0.015350 
#    z -0.003830 -0.015350 1.803280 
# 
# From -- ./inp_files/606328.got.cif
#   From: 2010.06.25/outbox.cif.g09.slc.cpg/sg2_304_cif.got.tgz:606328.got - 2010.06.27 13:26:56.
