data_PCOD8005475
_publ_section_title
;
Structure prediction by ZEFSAII (Michael W. Deem and Ramdas Pophale) SiO2 
 PCOD8005475
Probable space group: P -1
;
_chemical_formula_sum "Si O2"
_cell_formula_units_Z 14
_cell_length_a 20.377762
_cell_length_b 10.162651
_cell_length_c 17.539762
_cell_angle_alpha 61.418042
_cell_angle_beta 19.374259
_cell_angle_gamma 48.911147
_cell_volume 748.514128
_symmetry_space_group_name_H-M "P -1"
_symmetry_group_IT_number 2
_symmetry_cell_setting 'triclinic'
loop_
_space_group_symop_operation_xyz
x,y,z
-x,-y,-z
loop_
_atom_site_type_symbol
_atom_site_label
_atom_site_fract_x
_atom_site_fract_y
_atom_site_fract_z
Si Si1 0.688944 0.984581 0.996695
Si Si2 0.779322 0.441022 0.191800
Si Si3 0.617929 0.361212 0.984076
Si Si4 0.092884 0.556690 0.591904
Si Si5 0.274274 0.182673 0.837614
Si Si6 0.870471 0.757017 0.281596
Si Si7 0.056366 0.297363 0.617475
O O1 0.872667 0.803649 0.782162
O O2 0.743985 0.131997 0.888655
O O3 0.774023 0.889330 0.014361
O O4 0.369976 0.113411 0.293263
O O5 0.500000 0.500000 0.500000
O O6 0.703663 0.655342 0.210190
O O7 0.011775 0.286541 0.043480
O O8 0.904989 0.317125 0.007738
O O9 0.859947 0.335825 0.758511
O O10 0.500000 0.500000 0.000000
O O11 0.385184 0.476922 0.272703
O O12 0.141792 0.418902 0.648720
O O13 0.989773 0.510346 0.645567
O O14 0.561998 0.981865 0.535569
O O15 0.963454 0.775070 0.257543
#
# Coordination Sequence:
#
# PCOD8005475 Si02
#       7
#     2   2   2   2   2   2   2
#     4  10  20  40  63  84 119 162 192 235 296 351
#     4  11  23  35  57  90 117 149 200 247 276 337
#     4  11  23  39  61  93 117 146 198 248 292 349
#     4   9  20  39  61  83 116 158 192 236 294 349
#     4  10  20  39  57  83 121 156 191 239 292 335
#     4   9  19  41  58  80 118 157 194 230 293 346
#     4   8  20  38  59  84 115 153 193 239 290 351
#
# _framework density 18.703720000000001
#
# number of rings (size 3 to 8) (size 9 to 14) (size 15 to 20)
#    0.857    1.429    2.857    0.429    0.000    8.000 
#    0.000    1.429    0.000    0.000    0.000    0.000 
#    0.000    0.000    0.000    0.000    0.000    0.000 
#
# Total GULP energy -173523.346926 kJ/mol
# GULP energy per Si atom -12394.524780 kJ/mol
# Density = 1.866115 g / cm^3
# Si number density = 18.703720 Si / 1000 Ang^3
#
#
#
# Elastic Constant Matrix: (Units=GPa)
#
#
# Indices 1 2 3 4 5 6 
#
# 1 66.9730 34.9681 26.6537 11.3875 -21.5824 2.5479
# 2 34.9681 110.3752 34.9556 24.7383 -2.4978 4.1390
# 3 26.6537 34.9556 87.8730 25.2135 1.5282 16.4363
# 4 11.3875 24.7383 25.2135 32.6119 5.9313 9.2604
# 5 -21.5824 -2.4978 1.5282 5.9313 25.7750 -3.7450
# 6 2.5479 4.1390 16.4363 9.2604 -3.7450 25.5590
#
#
#
# Elastic Compliance Matrix: (Units=1/GPa)
#
#
# Indices 1 2 3 4 5 6 
#
# 1 0.031417 -0.005199 -0.007045 -0.009942 0.029996 0.010238
# 2 -0.005199 0.012708 -0.001900 -0.006688 -0.001189 0.001931
# 3 -0.007045 -0.001900 0.017854 -0.005947 -0.007134 -0.009362
# 4 -0.009942 -0.006688 -0.005947 0.052734 -0.023168 -0.016603
# 5 0.029996 -0.001189 -0.007134 -0.023168 0.072578 0.020819
# 6 0.010238 0.001931 -0.009362 -0.016603 0.020819 0.052878
#
#
# Mechanical properties :
#
#
# Convention : Reuss Voigt Hill
#
# Bulk Modulus (GPa) = 29.68090 50.93065 40.30577
# Shear Modulus (GPa) = 17.87703 28.03212 22.95458
#
# Velocity S-wave (km/s) = 3.09496 3.87556 3.50705
# Velocity P-wave (km/s) = 5.35491 6.87866 6.16405
#
# Compressibility (1/GPa) = 0.03369170
#
# Stress axis : x y z
#
# Youngs Moduli (GPa) = 31.82996 78.68831 56.00880
#
# Poissons Ratio (x) = 0.40908 0.39459
# Poissons Ratio (y) = 0.16548 0.10642
# Poissons Ratio (z) = 0.22425 0.14951
#
# Static dielectric constant tensor:
#      x y z
#    x 3.160250 -0.025450 0.094690 
#    y -0.025450 3.510520 0.143810 
#    z 0.094690 0.143810 3.364480 
# 
# 
# High freq. dielectric constant tensor:
#      x y z
#    x 1.709160 -0.002410 0.007650 
#    y -0.002410 1.726130 0.011580 
#    z 0.007650 0.011580 1.726280 
# 
# From -- ./inp_files/577292.got.cif
#   From: 2010.06.25/outbox.cif.g09.slc.cpg/sg2_289_cif.got.tgz:577292.got - 2010.06.27 13:26:56.
