data_PCOD8005686
_publ_section_title
;
Structure prediction by ZEFSAII (Michael W. Deem and Ramdas Pophale) SiO2 
 PCOD8005686
Probable space group: P -1
;
_chemical_formula_sum "Si O2"
_cell_formula_units_Z 16
_cell_length_a 13.955907
_cell_length_b 8.604267
_cell_length_c 29.009848
_cell_angle_alpha 39.257883
_cell_angle_beta 158.292175
_cell_angle_gamma 131.260700
_cell_volume 788.193620
_symmetry_space_group_name_H-M "P -1"
_symmetry_group_IT_number 2
_symmetry_cell_setting 'triclinic'
loop_
_space_group_symop_operation_xyz
x,y,z
-x,-y,-z
loop_
_atom_site_type_symbol
_atom_site_label
_atom_site_fract_x
_atom_site_fract_y
_atom_site_fract_z
Si Si1 0.066246 0.479734 0.730352
Si Si2 0.211459 0.168876 0.139358
Si Si3 0.381926 0.547660 0.986676
Si Si4 0.003785 0.019051 0.749098
Si Si5 0.071209 0.660136 0.197302
Si Si6 0.417273 0.569945 0.580868
Si Si7 0.219826 0.146990 0.554117
Si Si8 0.188479 0.368902 0.183528
O O1 0.357617 0.542351 0.843609
O O2 0.965555 0.445159 0.744477
O O3 0.844677 0.715176 0.555995
O O4 0.103197 0.227041 0.774589
O O5 0.265603 0.283460 0.185883
O O6 0.042358 0.959941 0.118082
O O7 0.498223 0.055330 0.271716
O O8 0.054906 0.378652 0.985266
O O9 0.500000 0.500000 0.000000
O O10 0.244503 0.846447 0.865950
O O11 0.157307 0.389204 0.928376
O O12 0.898827 0.845306 0.777934
O O13 0.765718 0.151175 0.577341
O O14 0.360049 0.511896 0.341084
O O15 0.233825 0.367447 0.546832
O O16 0.551770 0.571865 0.690297
O O17 0.000000 0.000000 0.500000
#
# Coordination Sequence:
#
# PCOD8005686 Si02
#       8
#     2   2   2   2   2   2   2   2
#     4  10  22  38  62  88 123 160 199 246 297 354
#     4  10  24  40  61  89 120 160 200 244 304 354
#     4  10  22  36  57  91 121 155 196 246 300 349
#     4  11  21  38  62  89 123 156 201 252 293 357
#     4  10  20  39  61  94 116 156 203 250 297 349
#     4  10  23  38  66  92 115 157 204 250 298 348
#     4  10  24  41  60  87 122 161 197 241 304 362
#     4  11  22  39  62  90 120 157 198 253 298 351
#
# _framework density 20.299579999999999
#
# number of rings (size 3 to 8) (size 9 to 14) (size 15 to 20)
#    0.000    1.750    2.500    0.750    3.500    5.500 
#    0.000    0.625    0.000    0.000    0.000    0.000 
#    0.000    0.000    0.000    0.000    0.000    0.000 
#
# Total GULP energy -198361.723210 kJ/mol
# GULP energy per Si atom -12397.607701 kJ/mol
# Density = 2.025338 g / cm^3
# Si number density = 20.299580 Si / 1000 Ang^3
#
#
#
# Elastic Constant Matrix: (Units=GPa)
#
#
# Indices 1 2 3 4 5 6 
#
# 1 45.1853 25.7553 10.5675 2.9660 -8.2844 -4.3301
# 2 25.7553 112.6143 44.6270 21.1914 -15.0743 9.8118
# 3 10.5675 44.6270 113.4706 7.0664 -20.0339 0.3774
# 4 2.9660 21.1914 7.0664 38.8063 -3.4978 0.4032
# 5 -8.2844 -15.0743 -20.0339 -3.4978 32.3260 1.9089
# 6 -4.3301 9.8118 0.3774 0.4032 1.9089 34.6141
#
#
#
# Elastic Compliance Matrix: (Units=1/GPa)
#
#
# Indices 1 2 3 4 5 6 
#
# 1 0.026869 -0.006641 0.000712 0.001763 0.004126 0.004988
# 2 -0.006641 0.013826 -0.004102 -0.006082 0.001824 -0.004735
# 3 0.000712 -0.004102 0.011248 0.000603 0.005256 0.000832
# 4 0.001763 -0.006082 0.000603 0.028922 0.001028 0.001544
# 5 0.004126 0.001824 0.005256 0.001028 0.036334 -0.002074
# 6 0.004988 -0.004735 0.000832 0.001544 -0.002074 0.030943
#
#
# Mechanical properties :
#
#
# Convention : Reuss Voigt Hill
#
# Bulk Modulus (GPa) = 31.36917 48.12996 39.74957
# Shear Modulus (GPa) = 27.95928 33.83731 30.89829
#
# Velocity S-wave (km/s) = 3.71527 4.08719 3.90566
# Velocity P-wave (km/s) = 5.82159 6.78490 6.32162
#
# Compressibility (1/GPa) = 0.03187843
#
# Stress axis : x y z
#
# Youngs Moduli (GPa) = 37.21797 72.32970 88.90695
#
# Poissons Ratio (x) = 0.48035 -0.06328
# Poissons Ratio (y) = 0.24717 0.36473
# Poissons Ratio (z) = -0.02649 0.29673
#
# Static dielectric constant tensor:
#      x y z
#    x 3.381460 -0.124710 0.002970 
#    y -0.124710 4.223090 0.220270 
#    z 0.002970 0.220270 4.015930 
# 
# 
# High freq. dielectric constant tensor:
#      x y z
#    x 1.769340 -0.013260 -0.001910 
#    y -0.013260 1.808620 0.008290 
#    z -0.001910 0.008290 1.805380 
# 
# From -- ./inp_files/354595.got.cif
#   From: 2010.06.25/outbox.cif.g09.slc.cpg/sg2_178_cif.got.tgz:354595.got - 2010.06.27 13:26:56.
