data_PCOD8005992
_publ_section_title
;
Structure prediction by ZEFSAII (Michael W. Deem and Ramdas Pophale) SiO2 
 PCOD8005992
Probable space group: P -1
;
_chemical_formula_sum "Si O2"
_cell_formula_units_Z 16
_cell_length_a 11.821601
_cell_length_b 12.137835
_cell_length_c 6.810036
_cell_angle_alpha 129.749902
_cell_angle_beta 93.240413
_cell_angle_gamma 80.886534
_cell_volume 740.510706
_symmetry_space_group_name_H-M "P -1"
_symmetry_group_IT_number 2
_symmetry_cell_setting 'triclinic'
loop_
_space_group_symop_operation_xyz
x,y,z
-x,-y,-z
loop_
_atom_site_type_symbol
_atom_site_label
_atom_site_fract_x
_atom_site_fract_y
_atom_site_fract_z
Si Si1 0.803261 0.039624 0.555399
Si Si2 0.496316 0.159702 0.088114
Si Si3 0.701874 0.285997 0.079576
Si Si4 0.338915 0.379259 0.591169
Si Si5 0.925972 0.316679 0.373606
Si Si6 0.142350 0.358217 0.252037
Si Si7 0.973342 0.047109 0.271782
Si Si8 0.682155 0.783888 0.205014
O O1 0.734389 0.200356 0.779797
O O2 0.850919 0.013740 0.307436
O O3 0.717714 0.926967 0.470750
O O4 0.917517 0.019299 0.671120
O O5 0.441094 0.282476 0.374440
O O6 0.621384 0.196655 0.096465
O O7 0.428491 0.169285 0.887141
O O8 0.500000 0.000000 0.000000
O O9 0.643714 0.451720 0.217794
O O10 0.814286 0.280875 0.214650
O O11 0.218664 0.359617 0.457770
O O12 0.344021 0.327152 0.757178
O O13 0.912410 0.480268 0.631166
O O14 0.953696 0.222801 0.466789
O O15 0.035768 0.274401 0.189529
O O16 0.211776 0.290151 0.996744
O O17 0.000000 0.000000 0.000000
#
# Coordination Sequence:
#
# PCOD8005992 Si02
#       8
#     2   2   2   2   2   2   2   2
#     4  11  25  38  62  99 128 168 222 259 324 387
#     4  11  26  46  69  94 129 172 219 273 329 385
#     4  11  24  43  66  99 129 169 224 267 324 386
#     4  10  23  45  69  94 130 169 219 273 321 389
#     4  10  20  39  64  91 131 172 211 265 325 383
#     4   9  21  40  63  95 129 170 213 261 331 387
#     4  11  22  39  60  91 134 171 209 264 316 381
#     4  11  24  43  66  92 130 172 216 270 323 385
#
# _framework density 21.606708999999999
#
# number of rings (size 3 to 8) (size 9 to 14) (size 15 to 20)
#    0.000    1.500    1.250    2.625    5.250    4.500 
#    0.000    2.500    0.000    0.000    0.000    0.000 
#    0.000    0.000    0.000    0.000    0.000    0.000 
#
# Total GULP energy -198351.052299 kJ/mol
# GULP energy per Si atom -12396.940769 kJ/mol
# Density = 2.155753 g / cm^3
# Si number density = 21.606709 Si / 1000 Ang^3
#
#
#
# Elastic Constant Matrix: (Units=GPa)
#
#
# Indices 1 2 3 4 5 6 
#
# 1 116.9957 43.1282 37.0398 1.2070 -11.9552 20.3342
# 2 43.1282 148.3042 46.1640 2.8163 -14.5194 9.0158
# 3 37.0398 46.1640 91.6414 8.3545 -19.6065 2.6627
# 4 1.2070 2.8163 8.3545 31.5133 -0.8462 -2.0296
# 5 -11.9552 -14.5194 -19.6065 -0.8462 21.2491 7.9812
# 6 20.3342 9.0158 2.6627 -2.0296 7.9812 36.8114
#
#
#
# Elastic Compliance Matrix: (Units=1/GPa)
#
#
# Indices 1 2 3 4 5 6 
#
# 1 0.011796 -0.001643 -0.002458 0.000042 0.005961 -0.007226
# 2 -0.001643 0.008514 -0.003009 0.000073 0.002698 -0.001541
# 3 -0.002458 -0.003009 0.016468 -0.003799 0.012349 -0.001983
# 4 0.000042 0.000073 -0.003799 0.032823 -0.003149 0.002726
# 5 0.005961 0.002698 0.012349 -0.003149 0.071212 -0.020460
# 6 -0.007226 -0.001541 -0.001983 0.002726 -0.020460 0.036264
#
#
# Mechanical properties :
#
#
# Convention : Reuss Voigt Hill
#
# Bulk Modulus (GPa) = 44.33475 67.73393 56.03434
# Shear Modulus (GPa) = 25.14882 33.28871 29.21876
#
# Velocity S-wave (km/s) = 3.41535 3.92939 3.68135
# Velocity P-wave (km/s) = 6.00969 7.21134 6.63776
#
# Compressibility (1/GPa) = 0.02255567
#
# Stress axis : x y z
#
# Youngs Moduli (GPa) = 84.77514 117.45507 60.72519
#
# Poissons Ratio (x) = 0.19297 0.14929
# Poissons Ratio (y) = 0.13928 0.18275
# Poissons Ratio (z) = 0.20842 0.35347
#
# Static dielectric constant tensor:
#      x y z
#    x 3.990310 0.087250 -0.259610 
#    y 0.087250 4.891490 -0.012300 
#    z -0.259610 -0.012300 3.945060 
# 
# 
# High freq. dielectric constant tensor:
#      x y z
#    x 1.855350 0.002830 -0.014330 
#    y 0.002830 1.861020 0.014290 
#    z -0.014330 0.014290 1.843710 
# 
# From -- ./inp_files/72303.got.cif
#   From: 2010.06.25/outbox.cif.g09.slc.cpg/sg2_37_cif.got.tgz:72303.got - 2010.06.27 13:26:56.
