data_PCOD8005554
_publ_section_title
;
Structure prediction by ZEFSAII (Michael W. Deem and Ramdas Pophale) SiO2 
 PCOD8005554
Probable space group: P -1
;
_chemical_formula_sum "Si O2"
_cell_formula_units_Z 14
_cell_length_a 14.782346
_cell_length_b 25.380104
_cell_length_c 11.782087
_cell_angle_alpha 152.858802
_cell_angle_beta 152.020960
_cell_angle_gamma 17.929092
_cell_volume 599.488040
_symmetry_space_group_name_H-M "P -1"
_symmetry_group_IT_number 2
_symmetry_cell_setting 'triclinic'
loop_
_space_group_symop_operation_xyz
x,y,z
-x,-y,-z
loop_
_atom_site_type_symbol
_atom_site_label
_atom_site_fract_x
_atom_site_fract_y
_atom_site_fract_z
Si Si1 0.840304 0.036917 0.709061
Si Si2 0.250779 0.480358 0.098915
Si Si3 0.285673 0.956227 0.905850
Si Si4 0.102877 0.784803 0.709992
Si Si5 0.270138 0.239244 0.768084
Si Si6 0.808922 0.640412 0.721670
Si Si7 0.812245 0.737445 0.665093
O O1 0.495548 0.166591 0.547741
O O2 0.869750 0.123655 0.998841
O O3 0.007624 0.997858 0.703437
O O4 0.007093 0.852827 0.602384
O O5 0.549096 0.423758 0.310832
O O6 0.062610 0.592889 0.219687
O O7 0.354615 0.297175 0.880495
O O8 0.056018 0.585903 0.972206
O O9 0.481723 0.802135 0.730012
O O10 0.473434 0.887690 0.097314
O O11 0.151206 0.142197 0.076158
O O12 0.821757 0.836110 0.546199
O O13 0.805356 0.716730 0.751043
O O14 0.902190 0.463452 0.460563
#
# Coordination Sequence:
#
# PCOD8005554 Si02
#       7
#     2   2   2   2   2   2   2
#     4  11  24  37  63  96 128 160 219 259 312 380
#     4  10  20  39  59  94 128 159 210 262 308 389
#     4  11  23  43  66  98 124 168 213 263 315 376
#     4  11  21  37  58  93 128 164 204 262 312 379
#     4  10  21  35  63  92 127 163 205 260 324 366
#     4  10  24  44  68  91 129 169 215 257 315 379
#     4  11  23  47  67  90 128 173 208 266 314 369
#
# _framework density 23.353259000000001
#
# number of rings (size 3 to 8) (size 9 to 14) (size 15 to 20)
#    0.000    1.429    4.286    0.857    2.000    1.143 
#    0.000    5.714    0.000    0.000    0.000    0.000 
#    0.000    0.000    0.000    0.000    0.000    0.000 
#
# Total GULP energy -173496.426119 kJ/mol
# GULP energy per Si atom -12392.601866 kJ/mol
# Density = 2.330011 g / cm^3
# Si number density = 23.353259 Si / 1000 Ang^3
#
#
#
# Elastic Constant Matrix: (Units=GPa)
#
#
# Indices 1 2 3 4 5 6 
#
# 1 90.7939 30.9645 22.8501 6.0823 -5.7673 -5.8621
# 2 30.9645 71.7098 4.3801 14.9576 -2.1740 5.2693
# 3 22.8501 4.3801 49.3732 3.8106 1.0029 1.2454
# 4 6.0823 14.9576 3.8106 27.6827 1.1174 -5.9376
# 5 -5.7673 -2.1740 1.0029 1.1174 36.6676 -2.8590
# 6 -5.8621 5.2693 1.2454 -5.9376 -2.8590 42.6765
#
#
#
# Elastic Compliance Matrix: (Units=1/GPa)
#
#
# Indices 1 2 3 4 5 6 
#
# 1 0.015278 -0.006768 -0.006755 0.001896 0.002406 0.003556
# 2 -0.006768 0.019212 0.002341 -0.010243 -0.000051 -0.004799
# 3 -0.006755 0.002341 0.023539 -0.003490 -0.001656 -0.002500
# 4 0.001896 -0.010243 -0.003490 0.043390 -0.000943 0.007601
# 5 0.002406 -0.000051 -0.001656 -0.000943 0.027887 0.002122
# 6 0.003556 -0.004799 -0.002500 0.007601 0.002122 0.025786
#
#
# Mechanical properties :
#
#
# Convention : Reuss Voigt Hill
#
# Bulk Modulus (GPa) = 28.04003 36.47406 32.25704
# Shear Modulus (GPa) = 26.40688 31.65083 29.02886
#
# Velocity S-wave (km/s) = 3.36632 3.68544 3.52949
# Velocity P-wave (km/s) = 5.20984 5.81053 5.51837
#
# Compressibility (1/GPa) = 0.03566330
#
# Stress axis : x y z
#
# Youngs Moduli (GPa) = 65.45498 52.05007 42.48344
#
# Poissons Ratio (x) = 0.35228 0.28698
# Poissons Ratio (y) = 0.44301 -0.09944
# Poissons Ratio (z) = 0.44215 -0.12183
#
# Static dielectric constant tensor:
#      x y z
#    x 4.537310 -0.240840 0.143140 
#    y -0.240840 4.587960 0.129460 
#    z 0.143140 0.129460 4.380540 
# 
# 
# High freq. dielectric constant tensor:
#      x y z
#    x 1.927190 -0.012850 -0.005220 
#    y -0.012850 1.931300 0.005560 
#    z -0.005220 0.005560 1.917020 
# 
# From -- ./inp_files/447255.got.cif
#   From: 2010.06.25/outbox.cif.g09.slc.cpg/sg2_224_cif.got.tgz:447255.got - 2010.06.27 13:26:56.
