data_PCOD8005787
_publ_section_title
;
Structure prediction by ZEFSAII (Michael W. Deem and Ramdas Pophale) SiO2 
 PCOD8005787
Probable space group: P -1
;
_chemical_formula_sum "Si O2"
_cell_formula_units_Z 14
_cell_length_a 8.500176
_cell_length_b 9.057368
_cell_length_c 17.929434
_cell_angle_alpha 38.020955
_cell_angle_beta 118.312660
_cell_angle_gamma 129.019776
_cell_volume 659.896769
_symmetry_space_group_name_H-M "P -1"
_symmetry_group_IT_number 2
_symmetry_cell_setting 'triclinic'
loop_
_space_group_symop_operation_xyz
x,y,z
-x,-y,-z
loop_
_atom_site_type_symbol
_atom_site_label
_atom_site_fract_x
_atom_site_fract_y
_atom_site_fract_z
Si Si1 0.527119 0.220633 0.335740
Si Si2 0.226084 0.200966 0.049231
Si Si3 0.408826 0.770223 0.812159
Si Si4 0.592807 0.370047 0.801505
Si Si5 0.566510 0.684985 0.367582
Si Si6 0.768701 0.377003 0.473104
Si Si7 0.772113 0.009809 0.027325
O O1 0.647245 0.355029 0.233693
O O2 0.373632 0.334911 0.281795
O O3 0.709635 0.289456 0.408125
O O4 0.386319 0.902305 0.409243
O O5 0.348112 0.110032 0.170281
O O6 0.295618 0.523665 0.942707
O O7 0.284826 0.142470 0.003816
O O8 0.993590 0.051880 0.080817
O O9 0.337546 0.998732 0.715276
O O10 0.602787 0.372020 0.712133
O O11 0.373772 0.154920 0.871920
O O12 0.762495 0.294455 0.901016
O O13 0.500000 0.500000 0.500000
O O14 0.731033 0.627779 0.385870
O O15 0.000000 0.500000 0.500000
#
# Coordination Sequence:
#
# PCOD8005787 Si02
#       7
#     2   2   2   2   2   2   2
#     4  10  21  40  64  85 130 164 205 260 318 370
#     4  10  22  37  63  94 124 162 212 264 320 375
#     4  11  21  40  61  92 127 168 203 266 316 379
#     4  10  21  39  64  90 129 164 206 267 319 376
#     4  11  22  40  62  90 127 169 207 258 322 379
#     4  10  23  42  63  91 120 167 218 258 309 374
#     4  10  20  39  62  95 121 165 215 260 321 379
#
# _framework density 21.215437999999999
#
# number of rings (size 3 to 8) (size 9 to 14) (size 15 to 20)
#    0.000    1.714    4.286    0.000    0.000    3.429 
#    2.571    2.143    0.000    0.000    0.000    0.000 
#    0.000    0.000    0.000    0.000    0.000    0.000 
#
# Total GULP energy -173434.681155 kJ/mol
# GULP energy per Si atom -12388.191511 kJ/mol
# Density = 2.116715 g / cm^3
# Si number density = 21.215438 Si / 1000 Ang^3
#
#
#
# Elastic Constant Matrix: (Units=GPa)
#
#
# Indices 1 2 3 4 5 6 
#
# 1 57.4086 32.7744 24.7723 4.9086 8.7283 1.1966
# 2 32.7744 87.6061 28.0169 4.5217 7.4097 1.2114
# 3 24.7723 28.0169 101.4676 0.7130 9.6664 -4.5580
# 4 4.9086 4.5217 0.7130 34.8349 -11.9955 7.9501
# 5 8.7283 7.4097 9.6664 -11.9955 31.7311 2.0556
# 6 1.1966 1.2114 -4.5580 7.9501 2.0556 37.3358
#
#
#
# Elastic Compliance Matrix: (Units=1/GPa)
#
#
# Indices 1 2 3 4 5 6 
#
# 1 0.024254 -0.007311 -0.003321 -0.004413 -0.005641 0.000305
# 2 -0.007311 0.015046 -0.002246 -0.001279 -0.001290 -0.000185
# 3 -0.003321 -0.002246 0.011617 -0.000780 -0.002519 0.001902
# 4 -0.004413 -0.001279 -0.000780 0.037131 0.016352 -0.008719
# 5 -0.005641 -0.001290 -0.002519 0.016352 0.040693 -0.005807
# 6 0.000305 -0.000185 0.001902 -0.008719 -0.005807 0.029189
#
#
# Mechanical properties :
#
#
# Convention : Reuss Voigt Hill
#
# Bulk Modulus (GPa) = 39.74284 46.40104 43.07194
# Shear Modulus (GPa) = 26.03177 31.50827 28.77002
#
# Velocity S-wave (km/s) = 3.50668 3.85796 3.68651
# Velocity P-wave (km/s) = 5.93038 6.46250 6.20215
#
# Compressibility (1/GPa) = 0.02516176
#
# Stress axis : x y z
#
# Youngs Moduli (GPa) = 41.22968 66.46369 86.07980
#
# Poissons Ratio (x) = 0.48593 0.28584
# Poissons Ratio (y) = 0.30144 0.19333
# Poissons Ratio (z) = 0.13691 0.14927
#
# Static dielectric constant tensor:
#      x y z
#    x 3.591710 -0.311560 0.238010 
#    y -0.311560 3.770800 0.071900 
#    z 0.238010 0.071900 4.227990 
# 
# 
# High freq. dielectric constant tensor:
#      x y z
#    x 1.805500 -0.029570 0.016630 
#    y -0.029570 1.817060 0.004020 
#    z 0.016630 0.004020 1.855400 
# 
# From -- ./inp_files/215476.got.cif
#   From: 2010.06.25/outbox.cif.g09.slc.cpg/sg2_108_cif.got.tgz:215476.got - 2010.06.27 13:26:56.
