data_PCOD8005697
_publ_section_title
;
Structure prediction by ZEFSAII (Michael W. Deem and Ramdas Pophale) SiO2 
 PCOD8005697
Probable space group: P -1
;
_chemical_formula_sum "Si O2"
_cell_formula_units_Z 16
_cell_length_a 15.846600
_cell_length_b 8.867664
_cell_length_c 9.233688
_cell_angle_alpha 47.746692
_cell_angle_beta 116.606272
_cell_angle_gamma 85.036725
_cell_volume 695.965265
_symmetry_space_group_name_H-M "P -1"
_symmetry_group_IT_number 2
_symmetry_cell_setting 'triclinic'
loop_
_space_group_symop_operation_xyz
x,y,z
-x,-y,-z
loop_
_atom_site_type_symbol
_atom_site_label
_atom_site_fract_x
_atom_site_fract_y
_atom_site_fract_z
Si Si1 0.160119 0.423626 0.847329
Si Si2 0.968894 0.157304 0.019619
Si Si3 0.939720 0.632128 0.717814
Si Si4 0.798470 0.065070 0.920234
Si Si5 0.788389 0.241535 0.487981
Si Si6 0.316620 0.908596 0.710454
Si Si7 0.619087 0.817183 0.619478
Si Si8 0.397796 0.611970 0.236995
O O1 0.267379 0.284027 0.131453
O O2 0.142944 0.221770 0.895320
O O3 0.191707 0.545473 0.668385
O O4 0.037050 0.631665 0.698015
O O5 0.911581 0.445182 0.749785
O O6 0.879654 0.110719 0.052960
O O7 0.089730 0.030192 0.283624
O O8 0.000000 0.000000 0.000000
O O9 0.815552 0.900696 0.454621
O O10 0.000000 0.500000 0.000000
O O11 0.755607 0.245662 0.628127
O O12 0.697684 0.147686 0.899661
O O13 0.687510 0.272196 0.291596
O O14 0.374268 0.032420 0.603788
O O15 0.407394 0.730187 0.020838
O O16 0.626264 0.589200 0.697109
O O17 0.500000 0.000000 0.500000
O O18 0.500000 0.500000 0.500000
#
# Coordination Sequence:
#
# PCOD8005697 Si02
#       8
#     2   2   2   2   2   2   2   2
#     4  12  24  42  72 110 141 198 240 283 357 435
#     4  10  20  39  62 101 146 189 218 288 345 411
#     4  12  21  41  73 105 156 185 235 292 352 439
#     4  11  24  46  67 102 156 183 237 298 353 418
#     4  11  23  42  72 103 144 196 239 275 358 434
#     4  12  26  47  76 110 139 194 241 294 363 429
#     4  12  26  49  79 104 140 187 247 300 355 432
#     4  12  30  49  73 108 141 182 244 314 358 412
#
# _framework density 22.989654000000002
#
# number of rings (size 3 to 8) (size 9 to 14) (size 15 to 20)
#    0.000    0.500    7.500    1.500    1.750    6.000 
#    0.000    0.000    0.000    0.000    0.000    0.000 
#    0.000    0.000    0.000    0.000    0.000    0.000 
#
# Total GULP energy -198225.349434 kJ/mol
# GULP energy per Si atom -12389.084340 kJ/mol
# Density = 2.293733 g / cm^3
# Si number density = 22.989654 Si / 1000 Ang^3
#
#
#
# Elastic Constant Matrix: (Units=GPa)
#
#
# Indices 1 2 3 4 5 6 
#
# 1 101.0616 24.6430 31.7285 -6.4519 -19.3195 -5.9064
# 2 24.6430 79.1817 20.2247 -0.8600 -8.3897 6.5540
# 3 31.7285 20.2247 100.3662 15.3639 -19.9918 3.0812
# 4 -6.4519 -0.8600 15.3639 28.1646 1.2598 -0.8390
# 5 -19.3195 -8.3897 -19.9918 1.2598 53.9915 -4.7671
# 6 -5.9064 6.5540 3.0812 -0.8390 -4.7671 39.5448
#
#
#
# Elastic Compliance Matrix: (Units=1/GPa)
#
#
# Indices 1 2 3 4 5 6 
#
# 1 0.012832 -0.002942 -0.003719 0.004842 0.002922 0.003149
# 2 -0.002942 0.014286 -0.001941 0.000734 0.000200 -0.002616
# 3 -0.003719 -0.001941 0.013559 -0.008495 0.003494 -0.001049
# 4 0.004842 0.000734 -0.008495 0.041421 -0.002099 0.001889
# 5 0.002922 0.000200 0.003494 -0.002099 0.021174 0.002639
# 6 0.003149 -0.002616 -0.001049 0.001889 0.002639 0.026632
#
#
# Mechanical properties :
#
#
# Convention : Reuss Voigt Hill
#
# Bulk Modulus (GPa) = 42.60302 48.20021 45.40162
# Shear Modulus (GPa) = 32.27207 37.94108 35.10658
#
# Velocity S-wave (km/s) = 3.75075 4.06686 3.91200
# Velocity P-wave (km/s) = 6.10976 6.56232 6.34008
#
# Compressibility (1/GPa) = 0.02347251
#
# Stress axis : x y z
#
# Youngs Moduli (GPa) = 77.93143 69.99715 73.75185
#
# Poissons Ratio (x) = 0.20593 0.27431
# Poissons Ratio (y) = 0.22927 0.14315
# Poissons Ratio (z) = 0.28986 0.13586
#
# Static dielectric constant tensor:
#      x y z
#    x 4.271840 0.386190 0.013910 
#    y 0.386190 6.089160 -1.120260 
#    z 0.013910 -1.120260 5.340860 
# 
# 
# High freq. dielectric constant tensor:
#      x y z
#    x 1.911870 0.010020 -0.006610 
#    y 0.010020 1.915600 0.003710 
#    z -0.006610 0.003710 1.899360 
# 
# From -- ./inp_files/297539.got.cif
#   From: 2010.06.25/outbox.cif.g09.slc.cpg/sg2_149_cif.got.tgz:297539.got - 2010.06.27 13:26:56.
