data_PCOD8005330
_publ_section_title
;
Structure prediction by ZEFSAII (Michael W. Deem and Ramdas Pophale) SiO2 
 PCOD8005330
Probable space group: P -1
;
_chemical_formula_sum "Si O2"
_cell_formula_units_Z 16
_cell_length_a 18.789460
_cell_length_b 12.177302
_cell_length_c 8.852433
_cell_angle_alpha 111.435659
_cell_angle_beta 143.934986
_cell_angle_gamma 43.688866
_cell_volume 693.912934
_symmetry_space_group_name_H-M "P -1"
_symmetry_group_IT_number 2
_symmetry_cell_setting 'triclinic'
loop_
_space_group_symop_operation_xyz
x,y,z
-x,-y,-z
loop_
_atom_site_type_symbol
_atom_site_label
_atom_site_fract_x
_atom_site_fract_y
_atom_site_fract_z
Si Si1 0.419119 0.538827 0.623534
Si Si2 0.074294 0.738610 0.333120
Si Si3 0.696058 0.564466 0.843734
Si Si4 0.280899 0.126130 0.671614
Si Si5 0.312160 0.855563 0.457611
Si Si6 0.987183 0.606396 0.905181
Si Si7 0.152105 0.865417 0.904349
Si Si8 0.973632 0.290597 0.436130
O O1 0.328529 0.549328 0.322228
O O2 0.404013 0.690720 0.649376
O O3 0.295852 0.596693 0.590265
O O4 0.641772 0.325294 0.915733
O O5 0.072608 0.658750 0.440430
O O6 0.956446 0.946999 0.277772
O O7 0.964388 0.751586 0.018289
O O8 0.484625 0.780101 0.613098
O O9 0.810137 0.557823 0.917755
O O10 0.799485 0.481706 0.140883
O O11 0.185867 0.280008 0.455117
O O12 0.168098 0.216075 0.684442
O O13 0.231429 0.028591 0.494613
O O14 0.500000 0.000000 0.000000
O O15 0.160668 0.906138 0.112571
O O16 0.000000 0.500000 0.000000
O O17 0.013582 0.857639 0.660371
#
# Coordination Sequence:
#
# PCOD8005330 Si02
#       8
#     2   2   2   2   2   2   2   2
#     4  10  20  38  67 100 132 166 215 261 329 405
#     4  11  24  39  63 101 134 174 207 268 340 381
#     4   9  19  38  66  93 125 165 216 264 325 400
#     4  11  26  45  66  95 128 173 231 275 320 391
#     4  11  19  39  69  96 124 171 214 267 329 389
#     4  10  23  46  67  89 126 178 229 272 322 390
#     4  11  20  39  67 101 134 166 212 266 329 404
#     4  11  22  41  63  95 137 165 211 267 330 398
#
# _framework density 23.057648
#
# number of rings (size 3 to 8) (size 9 to 14) (size 15 to 20)
#    0.000    1.500    3.750    1.875    0.000    3.500 
#    9.000    3.750    0.000    0.000    0.000    0.000 
#    0.000    0.000    0.000    0.000    0.000    0.000 
#
# Total GULP energy -198305.068261 kJ/mol
# GULP energy per Si atom -12394.066766 kJ/mol
# Density = 2.300517 g / cm^3
# Si number density = 23.057648 Si / 1000 Ang^3
#
#
#
# Elastic Constant Matrix: (Units=GPa)
#
#
# Indices 1 2 3 4 5 6 
#
# 1 158.8927 8.1682 58.0283 -8.2159 -0.8347 -5.2870
# 2 8.1682 34.5819 -2.6008 -7.2922 -4.7401 -0.5418
# 3 58.0283 -2.6008 79.3298 -1.2168 14.8397 -2.4397
# 4 -8.2159 -7.2922 -1.2168 30.1478 1.4683 -5.2827
# 5 -0.8347 -4.7401 14.8397 1.4683 29.2618 1.7725
# 6 -5.2870 -0.5418 -2.4397 -5.2827 1.7725 26.8941
#
#
#
# Elastic Compliance Matrix: (Units=1/GPa)
#
#
# Indices 1 2 3 4 5 6 
#
# 1 0.009257 -0.001854 -0.007434 0.001816 0.003568 0.001230
# 2 -0.001854 0.031563 0.001872 0.007314 0.003644 0.001638
# 3 -0.007434 0.001872 0.020030 -0.000089 -0.010125 0.001043
# 4 0.001816 0.007314 -0.000089 0.036848 -0.001040 0.007803
# 5 0.003568 0.003644 -0.010125 -0.001040 0.040235 -0.003000
# 6 0.001230 0.001638 0.001043 0.007803 -0.003000 0.039283
#
#
# Mechanical properties :
#
#
# Convention : Reuss Voigt Hill
#
# Bulk Modulus (GPa) = 21.73098 44.44398 33.08748
# Shear Modulus (GPa) = 24.10928 31.20800 27.65864
#
# Velocity S-wave (km/s) = 3.23710 3.68295 3.46720
# Velocity P-wave (km/s) = 4.83909 6.11576 5.51450
#
# Compressibility (1/GPa) = 0.04601724
#
# Stress axis : x y z
#
# Youngs Moduli (GPa) = 108.02077 31.68247 49.92551
#
# Poissons Ratio (x) = 0.05875 0.37116
# Poissons Ratio (y) = 0.20032 -0.09346
# Poissons Ratio (z) = 0.80306 -0.05931
#
# Static dielectric constant tensor:
#      x y z
#    x 4.208410 -0.136290 0.123080 
#    y -0.136290 4.027750 0.075730 
#    z 0.123080 0.075730 3.993730 
# 
# 
# High freq. dielectric constant tensor:
#      x y z
#    x 1.915370 -0.008640 0.007580 
#    y -0.008640 1.898340 0.002830 
#    z 0.007580 0.002830 1.898340 
# 
# From -- ./inp_files/257496.got.cif
#   From: 2010.06.25/outbox.cif.g09.slc.cpg/sg2_129_cif.got.tgz:257496.got - 2010.06.27 13:26:56.
