data_PCOD8005236
_publ_section_title
;
Structure prediction by ZEFSAII (Michael W. Deem and Ramdas Pophale) SiO2 
 PCOD8005236
Probable space group: P -1
;
_chemical_formula_sum "Si O2"
_cell_formula_units_Z 14
_cell_length_a 13.177336
_cell_length_b 8.460774
_cell_length_c 6.715198
_cell_angle_alpha 104.525505
_cell_angle_beta 47.069975
_cell_angle_gamma 93.970024
_cell_volume 525.172236
_symmetry_space_group_name_H-M "P -1"
_symmetry_group_IT_number 2
_symmetry_cell_setting 'triclinic'
loop_
_space_group_symop_operation_xyz
x,y,z
-x,-y,-z
loop_
_atom_site_type_symbol
_atom_site_label
_atom_site_fract_x
_atom_site_fract_y
_atom_site_fract_z
Si Si1 0.577179 0.118507 0.576398
Si Si2 0.135117 0.435889 0.055941
Si Si3 0.653929 0.316283 0.179135
Si Si4 0.839822 0.997293 0.746136
Si Si5 0.145242 0.076270 0.850474
Si Si6 0.857328 0.650903 0.520180
Si Si7 0.559934 0.640911 0.852086
O O1 0.624234 0.266509 0.428264
O O2 0.500000 0.000000 0.500000
O O3 0.471776 0.192399 0.916708
O O4 0.718136 0.026231 0.471773
O O5 0.132468 0.270890 0.871087
O O6 0.125232 0.379665 0.277504
O O7 0.001427 0.564609 0.203342
O O8 0.275041 0.517741 0.861647
O O9 0.505136 0.341820 0.275190
O O10 0.751924 0.175199 0.875447
O O11 0.803575 0.944812 0.997872
O O12 0.819041 0.846657 0.578308
O O13 0.000000 0.000000 0.500000
O O14 0.000000 0.000000 0.000000
O O15 0.725132 0.576201 0.586358
O O16 0.500000 0.500000 0.000000
#
# Coordination Sequence:
#
# PCOD8005236 Si02
#       7
#     2   2   2   2   2   2   2
#     4  11  27  49  69 103 151 189 231 291 362 429
#     4  10  20  41  72  99 136 184 233 297 354 405
#     4  11  24  45  74 103 140 189 239 294 357 417
#     4  10  20  38  65  97 132 177 226 285 354 410
#     4  10  24  42  67  97 138 182 233 290 351 413
#     4  10  21  39  68 101 135 178 233 290 350 415
#     4  12  26  44  74 105 139 186 243 290 353 430
#
# _framework density 26.657920000000001
#
# number of rings (size 3 to 8) (size 9 to 14) (size 15 to 20)
#    0.000    1.429    2.857    2.571    4.000    2.857 
#    0.000    2.857    0.000    0.000    0.000    0.000 
#    0.000    0.000    0.000    0.000    0.000    0.000 
#
# Total GULP energy -173546.697467 kJ/mol
# GULP energy per Si atom -12396.192676 kJ/mol
# Density = 2.659725 g / cm^3
# Si number density = 26.657920 Si / 1000 Ang^3
#
#
#
# Elastic Constant Matrix: (Units=GPa)
#
#
# Indices 1 2 3 4 5 6 
#
# 1 108.8130 31.1852 40.4676 20.0809 -35.5709 19.4188
# 2 31.1852 127.9409 -1.9144 13.0785 -6.7536 19.2855
# 3 40.4676 -1.9144 67.7494 12.2447 -19.7364 8.9897
# 4 20.0809 13.0785 12.2447 31.1955 3.7906 -9.5756
# 5 -35.5709 -6.7536 -19.7364 3.7906 56.8334 1.9883
# 6 19.4188 19.2855 8.9897 -9.5756 1.9883 44.9972
#
#
#
# Elastic Compliance Matrix: (Units=1/GPa)
#
#
# Indices 1 2 3 4 5 6 
#
# 1 0.019968 -0.000922 -0.003925 -0.015937 0.012486 -0.011381
# 2 -0.000922 0.009921 0.003734 -0.007270 0.002603 -0.006262
# 3 -0.003925 0.003734 0.021924 -0.010531 0.006541 -0.006817
# 4 -0.015937 -0.007270 -0.010531 0.059729 -0.019377 0.025664
# 5 0.012486 0.002603 0.006541 -0.019377 0.029747 -0.013249
# 6 -0.011381 -0.006262 -0.006817 0.025664 -0.013249 0.037228
#
#
# Mechanical properties :
#
#
# Convention : Reuss Voigt Hill
#
# Bulk Modulus (GPa) = 20.16665 49.33112 34.74889
# Shear Modulus (GPa) = 25.34569 42.25623 33.80096
#
# Velocity S-wave (km/s) = 3.08681 3.98569 3.56469
# Velocity P-wave (km/s) = 4.50399 6.30288 5.47779
#
# Compressibility (1/GPa) = 0.04958681
#
# Stress axis : x y z
#
# Youngs Moduli (GPa) = 50.08000 100.79355 45.61228
#
# Poissons Ratio (x) = 0.09294 0.17904
# Poissons Ratio (y) = 0.04618 -0.17033
# Poissons Ratio (z) = 0.19658 -0.37638
#
# Static dielectric constant tensor:
#      x y z
#    x 4.675020 -0.389650 -0.066630 
#    y -0.389650 5.070840 1.082560 
#    z -0.066630 1.082560 5.123760 
# 
# 
# High freq. dielectric constant tensor:
#      x y z
#    x 2.074030 -0.001620 -0.003770 
#    y -0.001620 2.078360 0.006780 
#    z -0.003770 0.006780 2.084390 
# 
# From -- ./inp_files/295922.got.cif
#   From: 2010.06.25/outbox.cif.g09.slc.cpg/sg2_148_cif.got.tgz:295922.got - 2010.06.27 13:26:56.
