data_PCOD8005950
_publ_section_title
;
Structure prediction by ZEFSAII (Michael W. Deem and Ramdas Pophale) SiO2 
 PCOD8005950
Probable space group: P -1
;
_chemical_formula_sum "Si O2"
_cell_formula_units_Z 16
_cell_length_a 7.830612
_cell_length_b 17.584605
_cell_length_c 11.187099
_cell_angle_alpha 50.369742
_cell_angle_beta 137.067700
_cell_angle_gamma 119.777216
_cell_volume 806.815736
_symmetry_space_group_name_H-M "P -1"
_symmetry_group_IT_number 2
_symmetry_cell_setting 'triclinic'
loop_
_space_group_symop_operation_xyz
x,y,z
-x,-y,-z
loop_
_atom_site_type_symbol
_atom_site_label
_atom_site_fract_x
_atom_site_fract_y
_atom_site_fract_z
Si Si1 0.279080 0.609376 0.184391
Si Si2 0.703370 0.117483 0.880609
Si Si3 0.869157 0.738246 0.958455
Si Si4 0.281176 0.386027 0.405240
Si Si5 0.956697 0.201933 0.430142
Si Si6 0.476522 0.252984 0.021899
Si Si7 0.367083 0.226047 0.438996
Si Si8 0.277967 0.109751 0.865338
O O1 0.200047 0.495935 0.226498
O O2 0.517173 0.616406 0.384247
O O3 0.352397 0.664912 0.043467
O O4 0.040125 0.654921 0.077596
O O5 0.611538 0.167500 0.660448
O O6 0.506119 0.137153 0.864629
O O7 0.967918 0.165245 0.011734
O O8 0.731243 0.002751 0.984074
O O9 0.711328 0.695554 0.034501
O O10 0.670035 0.772001 0.723800
O O11 0.039017 0.316593 0.392276
O O12 0.399883 0.338905 0.393931
O O13 0.119819 0.171190 0.428605
O O14 0.017666 0.131463 0.643598
O O15 0.664616 0.188948 0.260659
O O16 0.312164 0.179099 0.927949
#
# Coordination Sequence:
#
# PCOD8005950 Si02
#       8
#     2   2   2   2   2   2   2   2
#     4  11  19  43  63  89 119 152 205 240 292 360
#     4  10  20  39  64  88 117 157 200 245 296 347
#     4  12  23  37  62  89 121 159 194 243 293 350
#     4   9  19  37  73  81 115 168 185 246 306 334
#     4   9  18  38  60  87 116 157 194 240 294 345
#     4  12  23  37  62  89 121 159 194 243 293 350
#     4   9  18  38  60  87 116 157 194 240 294 345
#     4  10  20  39  64  88 117 157 200 245 296 347
#
# _framework density 19.831045
#
# number of rings (size 3 to 8) (size 9 to 14) (size 15 to 20)
#    0.750    1.000    5.000    0.000    0.000    4.500 
#    0.000   10.000    0.000    0.000    0.000    0.000 
#    0.000    0.000    0.000    0.000    0.000    0.000 
#
# Total GULP energy -198340.650041 kJ/mol
# GULP energy per Si atom -12396.290628 kJ/mol
# Density = 1.978591 g / cm^3
# Si number density = 19.831045 Si / 1000 Ang^3
#
#
#
# Elastic Constant Matrix: (Units=GPa)
#
#
# Indices 1 2 3 4 5 6 
#
# 1 93.8409 24.0615 35.7414 -9.0826 -7.2183 -17.2818
# 2 24.0615 56.9110 40.7388 -17.6399 -9.8319 -11.3571
# 3 35.7414 40.7388 125.3141 -0.6930 -9.9384 -17.4473
# 4 -9.0826 -17.6399 -0.6930 31.3540 -1.3478 2.4452
# 5 -7.2183 -9.8319 -9.9384 -1.3478 8.1274 6.0978
# 6 -17.2818 -11.3571 -17.4473 2.4452 6.0978 10.0951
#
#
#
# Elastic Compliance Matrix: (Units=1/GPa)
#
#
# Indices 1 2 3 4 5 6 
#
# 1 0.016453 -0.002276 -0.000441 0.000360 -0.013157 0.032704
# 2 -0.002276 0.038124 -0.009448 0.023136 0.043125 -0.008987
# 3 -0.000441 -0.009448 0.012980 -0.007270 -0.012373 0.020283
# 4 0.000360 0.023136 -0.007270 0.048942 0.047300 -0.026347
# 5 -0.013157 0.043125 -0.012373 0.047300 0.295125 -0.185115
# 6 0.032704 -0.008987 0.020283 -0.026347 -0.185115 0.298187
#
#
# Mechanical properties :
#
#
# Convention : Reuss Voigt Hill
#
# Bulk Modulus (GPa) = 23.13310 53.01660 38.07485
# Shear Modulus (GPa) = 6.67958 21.61694 14.14826
#
# Velocity S-wave (km/s) = 1.83727 3.30518 2.67393
# Velocity P-wave (km/s) = 4.02382 6.43100 5.36419
#
# Compressibility (1/GPa) = 0.04322811
#
# Stress axis : x y z
#
# Youngs Moduli (GPa) = 60.77744 26.22993 77.04255
#
# Poissons Ratio (x) = 0.05969 0.03398
# Poissons Ratio (y) = 0.13830 0.72791
# Poissons Ratio (z) = 0.02681 0.24783
#
# Static dielectric constant tensor:
#      x y z
#    x 3.300360 -0.068240 -0.041650 
#    y -0.068240 3.515660 0.001970 
#    z -0.041650 0.001970 3.756970 
# 
# 
# High freq. dielectric constant tensor:
#      x y z
#    x 1.739920 -0.007420 -0.001870 
#    y -0.007420 1.759660 0.011590 
#    z -0.001870 0.011590 1.788720 
# 
# From -- ./inp_files/401988.got.cif
#   From: 2010.06.25/outbox.cif.g09.slc.cpg/sg2_201_cif.got.tgz:401988.got - 2010.06.27 13:26:56.
