data_PCOD8005665
_publ_section_title
;
Structure prediction by ZEFSAII (Michael W. Deem and Ramdas Pophale) SiO2 
 PCOD8005665
Probable space group: P -1
;
_chemical_formula_sum "Si O2"
_cell_formula_units_Z 16
_cell_length_a 20.149322
_cell_length_b 19.191333
_cell_length_c 8.374445
_cell_angle_alpha 124.468000
_cell_angle_beta 42.997288
_cell_angle_gamma 157.623228
_cell_volume 760.987345
_symmetry_space_group_name_H-M "P -1"
_symmetry_group_IT_number 2
_symmetry_cell_setting 'triclinic'
loop_
_space_group_symop_operation_xyz
x,y,z
-x,-y,-z
loop_
_atom_site_type_symbol
_atom_site_label
_atom_site_fract_x
_atom_site_fract_y
_atom_site_fract_z
Si Si1 0.652740 0.457587 0.009817
Si Si2 0.827039 0.525207 0.483826
Si Si3 0.568023 0.222848 0.005770
Si Si4 0.547814 0.864932 0.535027
Si Si5 0.976228 0.126826 0.974760
Si Si6 0.862898 0.913922 0.473210
Si Si7 0.078221 0.858689 0.273201
Si Si8 0.279209 0.830792 0.282847
O O1 0.712085 0.418832 0.953452
O O2 0.411299 0.307584 0.295301
O O3 0.854640 0.683517 0.971373
O O4 0.647335 0.429602 0.795634
O O5 0.699143 0.344434 0.390814
O O6 0.897611 0.647131 0.380181
O O7 0.048946 0.667424 0.375078
O O8 0.483987 0.169594 0.265344
O O9 0.341527 0.031445 0.043769
O O10 0.735878 0.274091 0.747116
O O11 0.663512 0.048825 0.535065
O O12 0.721926 0.930911 0.247322
O O13 0.980272 0.164006 0.834831
O O14 0.064844 0.099685 0.800851
O O15 0.932122 0.064458 0.497691
O O16 0.000000 0.000000 0.500000
O O17 0.500000 0.000000 0.000000
#
# Coordination Sequence:
#
# PCOD8005665 Si02
#       8
#     2   2   2   2   2   2   2   2
#     4  11  22  40  62  91 124 160 202 251 300 359
#     4  12  22  40  64  89 125 164 199 251 304 356
#     4  10  21  41  62  87 125 158 201 255 301 354
#     4  11  22  40  63  91 121 164 201 250 303 356
#     4  11  21  41  61  91 123 161 202 249 303 362
#     4   9  20  38  62  87 121 159 200 250 301 359
#     4  10  20  39  61  89 122 160 199 252 301 356
#     4  10  21  41  63  86 126 155 207 250 302 357
#
# _framework density 21.025316
#
# number of rings (size 3 to 8) (size 9 to 14) (size 15 to 20)
#    0.000    1.500    3.750    3.375    0.000    2.500 
#    2.250   13.750    0.000    0.000    0.000    0.000 
#    0.000    0.000    0.000    0.000    0.000    0.000 
#
# Total GULP energy -198327.573687 kJ/mol
# GULP energy per Si atom -12395.473355 kJ/mol
# Density = 2.097746 g / cm^3
# Si number density = 21.025316 Si / 1000 Ang^3
#
#
#
# Elastic Constant Matrix: (Units=GPa)
#
#
# Indices 1 2 3 4 5 6 
#
# 1 61.3715 25.3123 12.1907 4.7130 -9.8614 -0.9936
# 2 25.3123 131.0297 22.7891 4.3841 -15.2713 5.8287
# 3 12.1907 22.7891 82.1739 2.9275 -11.6876 0.9769
# 4 4.7130 4.3841 2.9275 24.9644 2.1555 0.1000
# 5 -9.8614 -15.2713 -11.6876 2.1555 31.9503 -0.3570
# 6 -0.9936 5.8287 0.9769 0.1000 -0.3570 25.9800
#
#
#
# Elastic Compliance Matrix: (Units=1/GPa)
#
#
# Indices 1 2 3 4 5 6 
#
# 1 0.018669 -0.002855 -0.001288 -0.003237 0.004161 0.001472
# 2 -0.002855 0.008916 -0.001581 -0.001080 0.002853 -0.002007
# 3 -0.001288 -0.001581 0.013396 -0.001381 0.003838 -0.000140
# 4 -0.003237 -0.001080 -0.001381 0.041436 -0.004816 -0.000055
# 5 0.004161 0.002853 0.003838 -0.004816 0.035674 -0.000116
# 6 0.001472 -0.002007 -0.000140 -0.000055 -0.000116 0.039002
#
#
# Mechanical properties :
#
#
# Convention : Reuss Voigt Hill
#
# Bulk Modulus (GPa) = 33.86087 43.90658 38.88373
# Shear Modulus (GPa) = 28.02942 30.86448 29.44695
#
# Velocity S-wave (km/s) = 3.65516 3.83556 3.74645
# Velocity P-wave (km/s) = 5.82695 6.36737 6.10315
#
# Compressibility (1/GPa) = 0.02953261
#
# Stress axis : x y z
#
# Youngs Moduli (GPa) = 53.56613 112.15585 74.65061
#
# Poissons Ratio (x) = 0.32015 0.09617
# Poissons Ratio (y) = 0.15291 0.11803
# Poissons Ratio (z) = 0.06900 0.17734
#
# Static dielectric constant tensor:
#      x y z
#    x 3.900720 -0.360550 -0.208660 
#    y -0.360550 4.126070 0.362140 
#    z -0.208660 0.362140 3.577190 
# 
# 
# High freq. dielectric constant tensor:
#      x y z
#    x 1.807000 -0.003520 -0.013270 
#    y -0.003520 1.835310 0.002830 
#    z -0.013270 0.002830 1.822880 
# 
# From -- ./inp_files/328049.got.cif
#   From: 2010.06.25/outbox.cif.g09.slc.cpg/sg2_165_cif.got.tgz:328049.got - 2010.06.27 13:26:56.
