data_PCOD8005335
_publ_section_title
;
Structure prediction by ZEFSAII (Michael W. Deem and Ramdas Pophale) SiO2 
 PCOD8005335
Probable space group: P -1
;
_chemical_formula_sum "Si O2"
_cell_formula_units_Z 14
_cell_length_a 15.657082
_cell_length_b 8.359790
_cell_length_c 15.240744
_cell_angle_alpha 111.305018
_cell_angle_beta 148.270344
_cell_angle_gamma 46.219323
_cell_volume 609.922359
_symmetry_space_group_name_H-M "P -1"
_symmetry_group_IT_number 2
_symmetry_cell_setting 'triclinic'
loop_
_space_group_symop_operation_xyz
x,y,z
-x,-y,-z
loop_
_atom_site_type_symbol
_atom_site_label
_atom_site_fract_x
_atom_site_fract_y
_atom_site_fract_z
Si Si1 0.325925 0.475348 0.854913
Si Si2 0.597908 0.197863 0.563282
Si Si3 0.909854 0.377180 0.135939
Si Si4 0.342522 0.740429 0.176044
Si Si5 0.795455 0.851477 0.135497
Si Si6 0.919509 0.245239 0.797564
Si Si7 0.120099 0.712544 0.543727
O O1 0.163309 0.623086 0.830778
O O2 0.126799 0.626195 0.629625
O O3 0.500000 0.500000 0.000000
O O4 0.501958 0.159116 0.950664
O O5 0.569133 0.287359 0.655459
O O6 0.756043 0.203894 0.643494
O O7 0.300135 0.423007 0.312182
O O8 0.771258 0.880800 0.645102
O O9 0.791964 0.657435 0.062020
O O10 0.804916 0.321570 0.964562
O O11 0.587636 0.522832 0.283404
O O12 0.143042 0.052683 0.028713
O O13 0.945729 0.846438 0.197032
O O14 0.940509 0.738574 0.333219
O O15 0.000000 0.000000 0.500000
#
# Coordination Sequence:
#
# PCOD8005335 Si02
#       7
#     2   2   2   2   2   2   2
#     4  12  22  44  68  92 127 168 217 256 313 384
#     4  10  22  41  67  93 122 170 224 252 302 386
#     4  11  24  40  66  96 133 165 203 272 322 364
#     4  11  21  44  65  93 122 170 224 251 303 387
#     4  12  24  42  62 100 133 161 207 268 328 364
#     4  10  20  38  67  87 125 168 211 255 309 368
#     4  12  24  38  70  95 119 169 215 260 309 385
#
# _framework density 22.953742999999999
#
# number of rings (size 3 to 8) (size 9 to 14) (size 15 to 20)
#    0.000    0.857    5.714    3.000    0.000    1.143 
#    0.000   10.000    0.000    0.000    0.000    0.000 
#    0.000    0.000    0.000    0.000    0.000    0.000 
#
# Total GULP energy -173593.542197 kJ/mol
# GULP energy per Si atom -12399.538728 kJ/mol
# Density = 2.290150 g / cm^3
# Si number density = 22.953743 Si / 1000 Ang^3
#
#
#
# Elastic Constant Matrix: (Units=GPa)
#
#
# Indices 1 2 3 4 5 6 
#
# 1 73.8977 12.7708 20.7024 2.1503 -15.0817 -16.4721
# 2 12.7708 112.0727 41.0914 -35.4595 -5.4117 0.3768
# 3 20.7024 41.0914 116.3154 -36.8546 -14.9458 1.5783
# 4 2.1503 -35.4595 -36.8546 42.4490 -8.0630 5.2309
# 5 -15.0817 -5.4117 -14.9458 -8.0630 32.6610 -12.4083
# 6 -16.4721 0.3768 1.5783 5.2309 -12.4083 25.9328
#
#
#
# Elastic Compliance Matrix: (Units=1/GPa)
#
#
# Indices 1 2 3 4 5 6 
#
# 1 0.024297 -0.002780 -0.003539 -0.006479 0.017106 0.025180
# 2 -0.002780 0.013194 0.000073 0.012131 0.002757 -0.003089
# 3 -0.003539 0.000073 0.015086 0.015172 0.008141 -0.002332
# 4 -0.006479 0.012131 0.015172 0.051136 0.015503 -0.008112
# 5 0.017106 0.002757 0.008141 0.015503 0.060207 0.036011
# 6 0.025180 -0.003089 -0.002332 -0.008112 0.036011 0.073609
#
#
# Mechanical properties :
#
#
# Convention : Reuss Voigt Hill
#
# Bulk Modulus (GPa) = 24.94593 50.15722 37.55158
# Shear Modulus (GPa) = 18.98379 35.38996 27.18687
#
# Velocity S-wave (km/s) = 2.87896 3.93083 3.44527
# Velocity P-wave (km/s) = 4.68431 6.51926 5.67642
#
# Compressibility (1/GPa) = 0.04008670
#
# Stress axis : x y z
#
# Youngs Moduli (GPa) = 41.15803 75.79042 66.28474
#
# Poissons Ratio (x) = 0.21067 0.23458
# Poissons Ratio (y) = 0.11441 -0.00486
# Poissons Ratio (z) = 0.14566 -0.00556
#
# Static dielectric constant tensor:
#      x y z
#    x 4.154290 -0.154260 -0.073260 
#    y -0.154260 4.139670 -0.564120 
#    z -0.073260 -0.564120 4.494580 
# 
# 
# High freq. dielectric constant tensor:
#      x y z
#    x 1.911080 -0.016450 -0.006390 
#    y -0.016450 1.892280 -0.040150 
#    z -0.006390 -0.040150 1.905250 
# 
# From -- ./inp_files/214856.got.cif
#   From: 2010.06.25/outbox.cif.g09.slc.cpg/sg2_108_cif.got.tgz:214856.got - 2010.06.27 13:26:56.
