data_PCOD8005570
_publ_section_title
;
Structure prediction by ZEFSAII (Michael W. Deem and Ramdas Pophale) SiO2 
 PCOD8005570
Probable space group: P -1
;
_chemical_formula_sum "Si O2"
_cell_formula_units_Z 16
_cell_length_a 15.809324
_cell_length_b 15.542784
_cell_length_c 12.081108
_cell_angle_alpha 134.957499
_cell_angle_beta 144.449598
_cell_angle_gamma 27.670432
_cell_volume 800.449446
_symmetry_space_group_name_H-M "P -1"
_symmetry_group_IT_number 2
_symmetry_cell_setting 'triclinic'
loop_
_space_group_symop_operation_xyz
x,y,z
-x,-y,-z
loop_
_atom_site_type_symbol
_atom_site_label
_atom_site_fract_x
_atom_site_fract_y
_atom_site_fract_z
Si Si1 0.273587 0.214577 0.788656
Si Si2 0.353744 0.904626 0.549606
Si Si3 0.429524 0.145144 0.470036
Si Si4 0.966942 0.075303 0.863332
Si Si5 0.240027 0.694976 0.926455
Si Si6 0.738890 0.915821 0.930934
Si Si7 0.239454 0.295711 0.069567
Si Si8 0.097412 0.529509 0.542910
O O1 0.044483 0.395779 0.652069
O O2 0.258369 0.079208 0.674548
O O3 0.479602 0.122169 0.843503
O O4 0.318471 0.249391 0.985059
O O5 0.366179 0.942589 0.469118
O O6 0.196691 0.887295 0.364099
O O7 0.594307 0.725138 0.697997
O O8 0.236096 0.205988 0.245279
O O9 0.345301 0.324089 0.596734
O O10 0.500000 0.000000 0.500000
O O11 0.819441 0.238998 0.947925
O O12 0.151580 0.867338 0.920688
O O13 0.093674 0.084705 0.923668
O O14 0.100308 0.665191 0.713607
O O15 0.500000 0.500000 0.000000
O O16 0.780849 0.828958 0.016875
O O17 0.000000 0.500000 0.000000
O O18 0.000000 0.500000 0.500000
#
# Coordination Sequence:
#
# PCOD8005570 Si02
#       8
#     2   2   2   2   2   2   2   2
#     4  10  20  39  63  89 119 158 211 260 309 369
#     4  10  20  39  60  85 119 165 201 255 317 370
#     4  10  21  34  59  86 120 159 209 263 309 362
#     4  11  24  43  61  89 140 168 206 256 325 379
#     4  11  26  40  61  92 132 179 207 253 317 387
#     4  10  22  38  61  90 120 166 205 258 315 373
#     4  10  21  41  66  91 118 156 214 269 314 364
#     4  12  22  36  61  95 121 157 217 257 306 379
#
# _framework density 19.988771
#
# number of rings (size 3 to 8) (size 9 to 14) (size 15 to 20)
#    0.000    1.750    1.250    6.000    7.000    0.000 
#    0.000    3.125    0.000    0.000    0.000    0.000 
#    0.000    0.000    0.000    0.000    0.000    0.000 
#
# Total GULP energy -198236.234305 kJ/mol
# GULP energy per Si atom -12389.764644 kJ/mol
# Density = 1.994328 g / cm^3
# Si number density = 19.988771 Si / 1000 Ang^3
#
#
#
# Elastic Constant Matrix: (Units=GPa)
#
#
# Indices 1 2 3 4 5 6 
#
# 1 90.8239 21.2460 56.3529 2.0269 11.5682 -2.1950
# 2 21.2460 106.7040 31.8610 -8.0551 -1.3883 -11.2114
# 3 56.3529 31.8610 114.9283 -3.8276 10.1925 -3.2596
# 4 2.0269 -8.0551 -3.8276 31.5120 2.8140 -5.1748
# 5 11.5682 -1.3883 10.1925 2.8140 38.0663 1.0582
# 6 -2.1950 -11.2114 -3.2596 -5.1748 1.0582 26.3483
#
#
#
# Elastic Compliance Matrix: (Units=1/GPa)
#
#
# Indices 1 2 3 4 5 6 
#
# 1 0.016357 -0.001254 -0.007502 -0.002095 -0.002842 -0.000396
# 2 -0.001254 0.011095 -0.002299 0.003360 0.001015 0.004951
# 3 -0.007502 -0.002299 0.013217 0.001702 -0.001481 0.000426
# 4 -0.002095 0.003360 0.001702 0.034527 -0.002481 0.008346
# 5 -0.002842 0.001015 -0.001481 -0.002481 0.027795 -0.001592
# 6 -0.000396 0.004951 0.000426 0.008346 -0.001592 0.041783
#
#
# Mechanical properties :
#
#
# Convention : Reuss Voigt Hill
#
# Bulk Modulus (GPa) = 53.87827 59.04177 56.46002
# Shear Modulus (GPa) = 28.89024 32.71839 30.80432
#
# Velocity S-wave (km/s) = 3.80587 4.05018 3.92992
# Velocity P-wave (km/s) = 6.80629 7.17450 6.99282
#
# Compressibility (1/GPa) = 0.01856036
#
# Stress axis : x y z
#
# Youngs Moduli (GPa) = 61.13411 90.13232 75.66082
#
# Poissons Ratio (x) = 0.11300 0.56761
# Poissons Ratio (y) = 0.07664 0.17392
# Poissons Ratio (z) = 0.45863 0.20719
#
# Static dielectric constant tensor:
#      x y z
#    x 3.644780 -0.095330 -0.337680 
#    y -0.095330 3.244070 0.166450 
#    z -0.337680 0.166450 4.154900 
# 
# 
# High freq. dielectric constant tensor:
#      x y z
#    x 1.767180 -0.008880 -0.008280 
#    y -0.008880 1.783940 -0.001890 
#    z -0.008280 -0.001890 1.775710 
# 
# From -- ./inp_files/455890.got.cif
#   From: 2010.06.25/outbox.cif.g09.slc.cpg/sg2_228_cif.got.tgz:455890.got - 2010.06.27 13:26:56.
