data_PCOD8005696
_publ_section_title
;
Structure prediction by ZEFSAII (Michael W. Deem and Ramdas Pophale) SiO2 
 PCOD8005696
Probable space group: P -1
;
_chemical_formula_sum "Si O2"
_cell_formula_units_Z 14
_cell_length_a 15.821214
_cell_length_b 5.119694
_cell_length_c 9.423286
_cell_angle_alpha 103.810114
_cell_angle_beta 116.714913
_cell_angle_gamma 68.054918
_cell_volume 630.098205
_symmetry_space_group_name_H-M "P -1"
_symmetry_group_IT_number 2
_symmetry_cell_setting 'triclinic'
loop_
_space_group_symop_operation_xyz
x,y,z
-x,-y,-z
loop_
_atom_site_type_symbol
_atom_site_label
_atom_site_fract_x
_atom_site_fract_y
_atom_site_fract_z
Si Si1 0.583466 0.240928 0.702094
Si Si2 0.914305 0.431581 0.512069
Si Si3 0.806813 0.149697 0.206628
Si Si4 0.463686 0.863468 0.662510
Si Si5 0.190160 0.916978 0.114355
Si Si6 0.272940 0.238583 0.723212
Si Si7 0.909877 0.463680 0.836093
O O1 0.509465 0.551528 0.720136
O O2 0.584011 0.158276 0.527756
O O3 0.692870 0.240550 0.826016
O O4 0.548949 0.015524 0.738712
O O5 0.893809 0.160287 0.384820
O O6 0.944700 0.363991 0.689764
O O7 0.000000 0.500000 0.500000
O O8 0.812594 0.699239 0.455816
O O9 0.758768 0.911504 0.185201
O O10 0.721163 0.457298 0.179341
O O11 0.854523 0.078856 0.077147
O O12 0.377492 0.043041 0.722131
O O13 0.134159 0.765418 0.157761
O O14 0.174444 0.234606 0.196533
O O15 0.000000 0.500000 0.000000
#
# Coordination Sequence:
#
# PCOD8005696 Si02
#       7
#     2   2   2   2   2   2   2
#     4  10  22  36  67  91 132 169 211 272 324 383
#     4  10  25  43  69  95 129 173 220 264 329 389
#     4  10  24  41  67  90 135 174 214 264 330 383
#     4  10  20  39  61  99 125 167 221 265 323 388
#     4  12  25  47  65  99 137 171 220 268 335 378
#     4  10  22  41  66  92 130 174 217 266 320 393
#     4  12  27  43  70 100 133 172 219 274 321 391
#
# _framework density 22.218755999999999
#
# number of rings (size 3 to 8) (size 9 to 14) (size 15 to 20)
#    0.857    0.571    0.000    4.714    6.000    1.714 
#    0.000    4.286    0.000    0.000    0.000    0.000 
#    0.000    0.000    0.000    0.000    0.000    0.000 
#
# Total GULP energy -173593.241376 kJ/mol
# GULP energy per Si atom -12399.517241 kJ/mol
# Density = 2.216819 g / cm^3
# Si number density = 22.218756 Si / 1000 Ang^3
#
#
#
# Elastic Constant Matrix: (Units=GPa)
#
#
# Indices 1 2 3 4 5 6 
#
# 1 83.7182 -5.8757 40.6074 -11.8790 -3.9705 17.5441
# 2 -5.8757 77.2385 9.5588 -5.8181 -7.8399 25.0162
# 3 40.6074 9.5588 118.7614 -5.6843 -15.7355 14.0894
# 4 -11.8790 -5.8181 -5.6843 22.8494 2.5215 -5.4562
# 5 -3.9705 -7.8399 -15.7355 2.5215 37.2512 -4.8162
# 6 17.5441 25.0162 14.0894 -5.4562 -4.8162 33.2232
#
#
#
# Elastic Compliance Matrix: (Units=1/GPa)
#
#
# Indices 1 2 3 4 5 6 
#
# 1 0.018111 0.005972 -0.005163 0.007165 -0.000878 -0.010822
# 2 0.005972 0.019289 -0.001248 0.003615 0.001818 -0.016291
# 3 -0.005163 -0.001248 0.010802 -0.000850 0.003741 -0.000512
# 4 0.007165 0.003615 -0.000850 0.048791 -0.001932 0.001588
# 5 -0.000878 0.001818 0.003741 -0.001932 0.029026 0.001398
# 6 -0.010822 -0.016291 -0.000512 0.001588 0.001398 0.048762
#
#
# Mechanical properties :
#
#
# Convention : Reuss Voigt Hill
#
# Bulk Modulus (GPa) = 21.13045 40.92211 31.02628
# Shear Modulus (GPa) = 26.11891 34.35994 30.23943
#
# Velocity S-wave (km/s) = 3.43233 3.93674 3.69316
# Velocity P-wave (km/s) = 5.02381 6.25474 5.67276
#
# Compressibility (1/GPa) = 0.04732506
#
# Stress axis : x y z
#
# Youngs Moduli (GPa) = 55.21489 51.84293 92.57762
#
# Poissons Ratio (x) = -0.30962 0.47796
# Poissons Ratio (y) = -0.32976 0.11553
# Poissons Ratio (z) = 0.28506 0.06470
#
# Static dielectric constant tensor:
#      x y z
#    x 3.784770 0.028000 0.001830 
#    y 0.028000 4.172550 -0.001970 
#    z 0.001830 -0.001970 3.923120 
# 
# 
# High freq. dielectric constant tensor:
#      x y z
#    x 1.872220 0.001570 -0.004860 
#    y 0.001570 1.889280 -0.000270 
#    z -0.004860 -0.000270 1.863380 
# 
# From -- ./inp_files/289055.got.cif
#   From: 2010.06.25/outbox.cif.g09.slc.cpg/sg2_145_cif.got.tgz:289055.got - 2010.06.27 13:26:56.
