data_PCOD8006350
_publ_section_title
;
Structure prediction by ZEFSAII (Michael W. Deem and Ramdas Pophale) SiO2 
 PCOD8006350
Probable space group: P -1
;
_chemical_formula_sum "Si O2"
_cell_formula_units_Z 16
_cell_length_a 11.703105
_cell_length_b 9.763088
_cell_length_c 9.441502
_cell_angle_alpha 83.883398
_cell_angle_beta 94.015094
_cell_angle_gamma 135.011193
_cell_volume 758.293890
_symmetry_space_group_name_H-M "P -1"
_symmetry_group_IT_number 2
_symmetry_cell_setting 'triclinic'
loop_
_space_group_symop_operation_xyz
x,y,z
-x,-y,-z
loop_
_atom_site_type_symbol
_atom_site_label
_atom_site_fract_x
_atom_site_fract_y
_atom_site_fract_z
Si Si1 0.564592 0.690815 0.561623
Si Si2 0.203736 0.703425 0.877377
Si Si3 0.151404 0.492873 0.149578
Si Si4 0.687713 0.727745 0.127397
Si Si5 0.754080 0.511153 0.297831
Si Si6 0.253070 0.991030 0.690958
Si Si7 0.949112 0.597236 0.557301
Si Si8 0.681383 0.648878 0.829678
O O1 0.500000 0.500000 0.500000
O O2 0.429713 0.655569 0.645375
O O3 0.704593 0.760967 0.677267
O O4 0.625333 0.852203 0.434886
O O5 0.187057 0.572357 0.771714
O O6 0.324363 0.921583 0.796911
O O7 0.034597 0.639313 0.895321
O O8 0.260572 0.683184 0.033817
O O9 0.177606 0.550831 0.311530
O O10 0.191703 0.366833 0.146540
O O11 0.772838 0.655692 0.179558
O O12 0.498732 0.568354 0.169089
O O13 0.782186 0.921097 0.205913
O O14 0.704945 0.766813 0.956103
O O15 0.865937 0.625957 0.432800
O O16 0.092020 0.805283 0.617927
O O17 0.000000 0.500000 0.500000
#
# Coordination Sequence:
#
# PCOD8006350 Si02
#       8
#     2   2   2   2   2   2   2   2
#     4  11  22  41  67  97 132 170 213 269 326 380
#     4  10  22  41  63  90 130 168 215 263 322 381
#     4  10  20  39  68  87 122 176 213 255 326 388
#     4  10  22  39  65  92 129 167 218 265 320 380
#     4  11  20  42  67  90 131 178 206 271 333 373
#     4  11  23  44  61 100 132 168 224 266 315 396
#     4  11  23  42  64  94 132 171 214 267 327 384
#     4  10  20  40  67  93 125 174 212 259 330 382
#
# _framework density 21.099999
#
# number of rings (size 3 to 8) (size 9 to 14) (size 15 to 20)
#    0.000    1.500    6.250    0.750    0.000    1.000 
#    4.500    3.125    0.000    0.000    0.000    0.000 
#    0.000    0.000    0.000    0.000    0.000    0.000 
#
# Total GULP energy -198250.982858 kJ/mol
# GULP energy per Si atom -12390.686429 kJ/mol
# Density = 2.105197 g / cm^3
# Si number density = 21.099999 Si / 1000 Ang^3
#
#
#
# Elastic Constant Matrix: (Units=GPa)
#
#
# Indices 1 2 3 4 5 6 
#
# 1 76.1224 22.6148 20.1698 15.7761 -6.0387 -5.0845
# 2 22.6148 96.4344 55.2870 1.2432 -0.4857 -17.8410
# 3 20.1698 55.2870 165.1274 -2.4183 -0.0394 -4.6713
# 4 15.7761 1.2432 -2.4183 35.4400 -4.7910 -2.3390
# 5 -6.0387 -0.4857 -0.0394 -4.7910 29.7860 5.7842
# 6 -5.0845 -17.8410 -4.6713 -2.3390 5.7842 15.1658
#
#
#
# Elastic Compliance Matrix: (Units=1/GPa)
#
#
# Indices 1 2 3 4 5 6 
#
# 1 0.015877 -0.003162 -0.000996 -0.006767 0.002191 -0.000583
# 2 -0.003162 0.017555 -0.004915 0.001221 -0.004009 0.019795
# 3 -0.000996 -0.004915 0.007729 0.000976 0.000628 -0.003823
# 4 -0.006767 0.001221 0.000976 0.031890 0.003161 0.003181
# 5 0.002191 -0.004009 0.000628 0.003161 0.037910 -0.017759
# 6 -0.000583 0.019795 -0.003823 0.003181 -0.017759 0.095116
#
#
# Mechanical properties :
#
#
# Convention : Reuss Voigt Hill
#
# Bulk Modulus (GPa) = 43.44597 59.31412 51.38005
# Shear Modulus (GPa) = 21.56152 32.05252 26.80702
#
# Velocity S-wave (km/s) = 3.20014 3.90176 3.56824
# Velocity P-wave (km/s) = 5.85575 6.96206 6.43273
#
# Compressibility (1/GPa) = 0.02301709
#
# Stress axis : x y z
#
# Youngs Moduli (GPa) = 62.98306 56.96320 129.37784
#
# Poissons Ratio (x) = 0.18012 0.12883
# Poissons Ratio (y) = 0.19915 0.63584
# Poissons Ratio (z) = 0.06271 0.27995
#
# Static dielectric constant tensor:
#      x y z
#    x 3.804110 -0.200360 0.188120 
#    y -0.200360 3.631620 -0.434610 
#    z 0.188120 -0.434610 4.733320 
# 
# 
# High freq. dielectric constant tensor:
#      x y z
#    x 1.824400 -0.023040 0.003300 
#    y -0.023040 1.777350 -0.008220 
#    z 0.003300 -0.008220 1.863780 
# 
# From -- ./inp_files/244070.got.cif
#   From: 2010.06.25/outbox.cif.g09.slc.cpg/sg2_123_cif.got.tgz:244070.got - 2010.06.27 13:26:56.
