data_PCOD8006801
_publ_section_title
;
Structure prediction by ZEFSAII (Michael W. Deem and Ramdas Pophale) SiO2 
 PCOD8006801
Probable space group: P -1
;
_chemical_formula_sum "Si O2"
_cell_formula_units_Z 16
_cell_length_a 19.526850
_cell_length_b 25.079113
_cell_length_c 8.629083
_cell_angle_alpha 30.497207
_cell_angle_beta 139.972882
_cell_angle_gamma 159.336547
_cell_volume 737.185208
_symmetry_space_group_name_H-M "P -1"
_symmetry_group_IT_number 2
_symmetry_cell_setting 'triclinic'
loop_
_space_group_symop_operation_xyz
x,y,z
-x,-y,-z
loop_
_atom_site_type_symbol
_atom_site_label
_atom_site_fract_x
_atom_site_fract_y
_atom_site_fract_z
Si Si1 0.227086 0.910090 0.628330
Si Si2 0.530730 0.256326 0.503812
Si Si3 0.542239 0.116389 0.419775
Si Si4 0.086016 0.222746 0.743135
Si Si5 0.462122 0.396559 0.872610
Si Si6 0.621063 0.360786 0.733748
Si Si7 0.309695 0.212643 0.762864
Si Si8 0.218166 0.700287 0.328021
O O1 0.021989 0.802653 0.518396
O O2 0.321759 0.041973 0.613480
O O3 0.343242 0.006373 0.421796
O O4 0.214713 0.778068 0.985190
O O5 0.560974 0.251139 0.747484
O O6 0.702205 0.345076 0.478091
O O7 0.532465 0.384992 0.168394
O O8 0.655421 0.156437 0.660693
O O9 0.500000 0.000000 0.500000
O O10 0.675465 0.319751 0.061886
O O11 0.255947 0.287459 0.812908
O O12 0.196838 0.407602 0.568826
O O13 0.922832 0.017074 0.070117
O O14 0.411437 0.270412 0.961675
O O15 0.651194 0.628423 0.579145
O O16 0.423706 0.257543 0.704251
O O17 0.000000 0.500000 0.500000
#
# Coordination Sequence:
#
# PCOD8006801 Si02
#       8
#     2   2   2   2   2   2   2   2
#     4  11  22  41  68  91 130 170 215 263 323 391
#     4  11  23  44  62  94 134 170 214 267 327 382
#     4  11  21  40  67  91 128 173 215 264 325 380
#     4  11  22  40  68  97 126 169 227 260 318 392
#     4  10  22  40  70  93 127 175 217 270 320 383
#     4  11  23  40  64  93 135 172 209 273 323 377
#     4  10  20  40  64  91 127 168 221 262 320 378
#     4  11  24  42  64  97 130 166 216 268 322 389
#
# _framework density 21.704180000000001
#
# number of rings (size 3 to 8) (size 9 to 14) (size 15 to 20)
#    0.000    1.250    2.500    4.875    0.000    5.000 
#    2.250    3.750    0.000    0.000    0.000    0.000 
#    0.000    0.000    0.000    0.000    0.000    0.000 
#
# Total GULP energy -198250.630430 kJ/mol
# GULP energy per Si atom -12390.664402 kJ/mol
# Density = 2.165478 g / cm^3
# Si number density = 21.704180 Si / 1000 Ang^3
#
#
#
# Elastic Constant Matrix: (Units=GPa)
#
#
# Indices 1 2 3 4 5 6 
#
# 1 105.6906 56.8384 29.9769 -1.6950 0.1114 -14.9251
# 2 56.8384 102.6029 53.3598 -6.4376 -1.2174 13.3684
# 3 29.9769 53.3598 109.2633 -9.8038 -1.2575 13.0251
# 4 -1.6950 -6.4376 -9.8038 49.7639 1.3337 3.9763
# 5 0.1114 -1.2174 -1.2575 1.3337 29.0513 5.9810
# 6 -14.9251 13.3684 13.0251 3.9763 5.9810 30.7980
#
#
#
# Elastic Compliance Matrix: (Units=1/GPa)
#
#
# Indices 1 2 3 4 5 6 
#
# 1 0.018242 -0.011554 -0.001458 -0.002299 -0.003700 0.015487
# 2 -0.011554 0.020733 -0.005120 0.002259 0.003341 -0.013374
# 3 -0.001458 -0.005120 0.012779 0.002125 0.001150 -0.004386
# 4 -0.002299 0.002259 0.002125 0.021180 0.000419 -0.005809
# 5 -0.003700 0.003341 0.001150 0.000419 0.036859 -0.010942
# 6 0.015487 -0.013374 -0.004386 -0.005809 -0.010942 0.050510
#
#
# Mechanical properties :
#
#
# Convention : Reuss Voigt Hill
#
# Bulk Modulus (GPa) = 64.54805 66.43411 65.49108
# Shear Modulus (GPa) = 24.78539 33.74808 29.26673
#
# Velocity S-wave (km/s) = 3.38296 3.94751 3.67609
# Velocity P-wave (km/s) = 6.71295 7.17304 6.94681
#
# Compressibility (1/GPa) = 0.01549233
#
# Stress axis : x y z
#
# Youngs Moduli (GPa) = 54.81727 48.23165 78.25110
#
# Poissons Ratio (x) = 0.55725 0.11406
# Poissons Ratio (y) = 0.63334 0.40065
# Poissons Ratio (z) = 0.07990 0.24695
#
# Static dielectric constant tensor:
#      x y z
#    x 3.785980 -0.067600 0.037980 
#    y -0.067600 3.704800 -0.183590 
#    z 0.037980 -0.183590 3.761640 
# 
# 
# High freq. dielectric constant tensor:
#      x y z
#    x 1.845170 -0.000610 0.010520 
#    y -0.000610 1.832240 -0.002550 
#    z 0.010520 -0.002550 1.871790 
# 
# From -- ./inp_files/350239.got.cif
#   From: 2010.06.25/outbox.cif.g09.slc.cpg/sg2_176_cif.got.tgz:350239.got - 2010.06.27 13:26:56.
