data_PCOD8006367
_publ_section_title
;
Structure prediction by ZEFSAII (Michael W. Deem and Ramdas Pophale) SiO2 
 PCOD8006367
Probable space group: P -1
;
_chemical_formula_sum "Si O2"
_cell_formula_units_Z 14
_cell_length_a 11.409711
_cell_length_b 11.484836
_cell_length_c 11.652008
_cell_angle_alpha 70.173837
_cell_angle_beta 103.433536
_cell_angle_gamma 41.801560
_cell_volume 606.552716
_symmetry_space_group_name_H-M "P -1"
_symmetry_group_IT_number 2
_symmetry_cell_setting 'triclinic'
loop_
_space_group_symop_operation_xyz
x,y,z
-x,-y,-z
loop_
_atom_site_type_symbol
_atom_site_label
_atom_site_fract_x
_atom_site_fract_y
_atom_site_fract_z
Si Si1 0.244142 0.607581 0.635364
Si Si2 0.599780 0.962009 0.717030
Si Si3 0.969846 0.601297 0.573622
Si Si4 0.972184 0.588822 0.130052
Si Si5 0.795493 0.178512 0.789692
Si Si6 0.039542 0.037117 0.347311
Si Si7 0.596658 0.630309 0.602461
O O1 0.544363 0.334675 0.737092
O O2 0.040725 0.893056 0.431866
O O3 0.123150 0.585968 0.595198
O O4 0.231188 0.649758 0.757776
O O5 0.871715 0.672191 0.805326
O O6 0.364886 0.076522 0.593110
O O7 0.474360 0.210769 0.570534
O O8 0.693998 0.881744 0.898756
O O9 0.118676 0.380462 0.778522
O O10 0.000000 0.500000 0.500000
O O11 0.174391 0.521977 0.209398
O O12 0.939496 0.972497 0.784213
O O13 0.704595 0.399615 0.650751
O O14 0.000000 0.000000 0.000000
O O15 0.306598 0.863520 0.521006
#
# Coordination Sequence:
#
# PCOD8006367 Si02
#       7
#     2   2   2   2   2   2   2
#     4  10  22  44  65  96 133 176 221 274 336 397
#     4  10  22  41  67  96 132 173 224 270 326 396
#     4  11  24  39  64  96 138 174 214 272 334 394
#     4  10  22  40  67 100 126 174 227 268 323 402
#     4  11  26  42  68 104 129 174 228 276 340 404
#     4  10  22  41  71  93 129 179 220 274 339 395
#     4  10  20  39  68  94 133 174 219 274 337 392
#
# _framework density 23.081261000000001
#
# number of rings (size 3 to 8) (size 9 to 14) (size 15 to 20)
#    0.000    1.714    0.000    5.143   10.000    1.143 
#    2.571    0.000    0.000    0.000    0.000    0.000 
#    0.000    0.000    0.000    0.000    0.000    0.000 
#
# Total GULP energy -173470.844689 kJ/mol
# GULP energy per Si atom -12390.774621 kJ/mol
# Density = 2.302873 g / cm^3
# Si number density = 23.081261 Si / 1000 Ang^3
#
#
#
# Elastic Constant Matrix: (Units=GPa)
#
#
# Indices 1 2 3 4 5 6 
#
# 1 171.7537 41.9783 50.4820 10.9031 -2.3304 3.7155
# 2 41.9783 136.3841 25.8594 26.9140 -5.8820 -15.0691
# 3 50.4820 25.8594 117.6179 19.8683 -6.3948 -3.1675
# 4 10.9031 26.9140 19.8683 30.9834 1.9161 -1.4121
# 5 -2.3304 -5.8820 -6.3948 1.9161 17.1286 6.1386
# 6 3.7155 -15.0691 -3.1675 -1.4121 6.1386 29.5005
#
#
#
# Elastic Compliance Matrix: (Units=1/GPa)
#
#
# Indices 1 2 3 4 5 6 
#
# 1 0.007158 -0.002123 -0.002852 0.001062 -0.000147 -0.002211
# 2 -0.002123 0.010167 0.000335 -0.008254 0.002618 0.004557
# 3 -0.002852 0.000335 0.011021 -0.006605 0.004408 0.000480
# 4 0.001062 -0.008254 -0.006605 0.043866 -0.009728 -0.000935
# 5 -0.000147 0.002618 0.004408 -0.009728 0.066463 -0.012466
# 6 -0.002211 0.004557 0.000480 -0.000935 -0.012466 0.039105
#
#
# Mechanical properties :
#
#
# Convention : Reuss Voigt Hill
#
# Bulk Modulus (GPa) = 52.44879 73.59946 63.02412
# Shear Modulus (GPa) = 25.85108 36.01822 30.93465
#
# Velocity S-wave (km/s) = 3.35028 3.95460 3.66491
# Velocity P-wave (km/s) = 6.14318 7.26692 6.72855
#
# Compressibility (1/GPa) = 0.01906622
#
# Stress axis : x y z
#
# Youngs Moduli (GPa) = 139.70661 98.35470 90.73455
#
# Poissons Ratio (x) = 0.20876 0.25882
# Poissons Ratio (y) = 0.29653 -0.03039
# Poissons Ratio (z) = 0.39851 -0.03295
#
# Static dielectric constant tensor:
#      x y z
#    x 4.164580 -0.112720 0.142620 
#    y -0.112720 4.374990 -0.119510 
#    z 0.142620 -0.119510 4.648320 
# 
# 
# High freq. dielectric constant tensor:
#      x y z
#    x 1.924340 -0.000390 0.002340 
#    y -0.000390 1.918280 0.011110 
#    z 0.002340 0.011110 1.884260 
# 
# From -- ./inp_files/425666.got.cif
#   From: 2010.06.25/outbox.cif.g09.slc.cpg/sg2_213_cif.got.tgz:425666.got - 2010.06.27 13:26:56.
