data_PCOD8006472
_publ_section_title
;
Structure prediction by ZEFSAII (Michael W. Deem and Ramdas Pophale) SiO2 
 PCOD8006472
Probable space group: P -1
;
_chemical_formula_sum "Si O2"
_cell_formula_units_Z 14
_cell_length_a 16.803769
_cell_length_b 8.284130
_cell_length_c 11.068431
_cell_angle_alpha 42.564683
_cell_angle_beta 41.755277
_cell_angle_gamma 73.502831
_cell_volume 560.732174
_symmetry_space_group_name_H-M "P -1"
_symmetry_group_IT_number 2
_symmetry_cell_setting 'triclinic'
loop_
_space_group_symop_operation_xyz
x,y,z
-x,-y,-z
loop_
_atom_site_type_symbol
_atom_site_label
_atom_site_fract_x
_atom_site_fract_y
_atom_site_fract_z
Si Si1 0.670699 0.180265 0.307517
Si Si2 0.412270 0.187865 0.624800
Si Si3 0.155106 0.249195 0.368551
Si Si4 0.619129 0.339320 0.646767
Si Si5 0.897217 0.251335 0.655661
Si Si6 0.829541 0.253341 0.318448
Si Si7 0.142667 0.320997 0.623455
O O1 0.539604 0.157399 0.546054
O O2 0.783169 0.178943 0.270878
O O3 0.609977 0.904531 0.440201
O O4 0.742215 0.470649 0.985379
O O5 0.462146 0.525065 0.394063
O O6 0.264678 0.988815 0.979189
O O7 0.182961 0.335437 0.430135
O O8 0.982725 0.104982 0.606439
O O9 0.199794 0.026456 0.420701
O O10 0.741727 0.373390 0.402623
O O11 0.710110 0.563092 0.531942
O O12 0.500000 0.000000 0.000000
O O13 0.889671 0.431850 0.453809
O O14 0.000000 0.500000 0.500000
O O15 0.000000 0.500000 0.000000
O O16 0.000000 0.000000 0.000000
#
# Coordination Sequence:
#
# PCOD8006472 Si02
#       7
#     2   2   2   2   2   2   2
#     4  11  26  46  75 106 143 188 247 312 361 430
#     4  11  23  48  72 104 142 190 248 303 362 433
#     4  11  24  46  75 108 135 187 259 304 353 426
#     4  12  28  46  70 109 153 196 238 296 381 450
#     4  10  20  39  73 107 131 178 249 301 350 414
#     4  12  28  47  68 105 154 195 237 300 378 441
#     4  11  23  43  78 106 141 191 253 306 349 436
#
# _framework density 24.967358999999998
#
# number of rings (size 3 to 8) (size 9 to 14) (size 15 to 20)
#    0.000    0.857    2.857    5.143    6.000    1.143 
#    5.143    3.571    0.000    0.000    0.000    0.000 
#    0.000    0.000    0.000    0.000    0.000    0.000 
#
# Total GULP energy -173542.911848 kJ/mol
# GULP energy per Si atom -12395.922275 kJ/mol
# Density = 2.491053 g / cm^3
# Si number density = 24.967359 Si / 1000 Ang^3
#
#
#
# Elastic Constant Matrix: (Units=GPa)
#
#
# Indices 1 2 3 4 5 6 
#
# 1 78.5515 12.7620 26.5078 -4.5716 -7.4893 -35.7803
# 2 12.7620 108.6401 33.9698 -3.8049 3.0175 -44.8557
# 3 26.5078 33.9698 155.3528 -10.0093 -6.6341 -15.0811
# 4 -4.5716 -3.8049 -10.0093 42.0038 -10.6905 6.0544
# 5 -7.4893 3.0175 -6.6341 -10.6905 41.0317 -8.8735
# 6 -35.7803 -44.8557 -15.0811 6.0544 -8.8735 33.2599
#
#
#
# Elastic Compliance Matrix: (Units=1/GPa)
#
#
# Indices 1 2 3 4 5 6 
#
# 1 -0.353299 -0.312075 0.038100 0.009043 -0.215274 -0.842754
# 2 -0.312075 -0.253429 0.031832 0.006233 -0.185923 -0.713814
# 3 0.038100 0.031832 0.003028 0.000929 0.025208 0.091847
# 4 0.009043 0.006233 0.000929 0.026142 0.011819 0.016950
# 5 -0.215274 -0.185923 0.025208 0.011819 -0.102298 -0.500346
# 6 -0.842754 -0.713814 0.091847 0.016950 -0.500346 -1.934161
#
#
# Mechanical properties :
#
#
# Convention : Reuss Voigt Hill
#
# Bulk Modulus (GPa) = -0.91913 54.33595 26.70841
# Shear Modulus (GPa) = -2.00610 41.21272 19.60331
#
# Velocity S-wave (km/s) = -0.89735 4.06724 2.80511
# Velocity P-wave (km/s) = 1.20107 6.62319 4.60565
#
# Compressibility (1/GPa) = -1.08798527
#
# Stress axis : x y z
#
# Youngs Moduli (GPa) = -2.83046 -3.94588 330.26345
#
# Poissons Ratio (x) = -1.23141 -12.58319
# Poissons Ratio (y) = -0.88332 -10.51299
# Poissons Ratio (z) = 0.10784 0.12561
#
# Static dielectric constant tensor:
#      x y z
#    x 5.359660 -0.333130 0.134540 
#    y -0.333130 4.501870 -0.285190 
#    z 0.134540 -0.285190 4.195420 
# 
# 
# High freq. dielectric constant tensor:
#      x y z
#    x 2.004880 -0.023420 -0.001520 
#    y -0.023420 2.000400 -0.003140 
#    z -0.001520 -0.003140 1.987620 
# 
# From -- ./inp_files/461802.got.cif
#   From: 2010.06.25/outbox.cif.g09.slc.cpg/sg2_231_cif.got.tgz:461802.got - 2010.06.27 13:26:56.
