data_PCOD8006009
_publ_section_title
;
Structure prediction by ZEFSAII (Michael W. Deem and Ramdas Pophale) SiO2 
 PCOD8006009
Probable space group: P -1
;
_chemical_formula_sum "Si O2"
_cell_formula_units_Z 16
_cell_length_a 10.126639
_cell_length_b 11.547974
_cell_length_c 10.867421
_cell_angle_alpha 131.411690
_cell_angle_beta 55.439323
_cell_angle_gamma 123.290163
_cell_volume 753.254304
_symmetry_space_group_name_H-M "P -1"
_symmetry_group_IT_number 2
_symmetry_cell_setting 'triclinic'
loop_
_space_group_symop_operation_xyz
x,y,z
-x,-y,-z
loop_
_atom_site_type_symbol
_atom_site_label
_atom_site_fract_x
_atom_site_fract_y
_atom_site_fract_z
Si Si1 0.197096 0.523031 0.416883
Si Si2 0.801543 0.952914 0.586041
Si Si3 0.436563 0.868599 0.109018
Si Si4 0.707534 0.149772 0.289823
Si Si5 0.718999 0.901679 0.314239
Si Si6 0.959708 0.074754 0.949407
Si Si7 0.710346 0.786507 0.747794
Si Si8 0.423847 0.640874 0.170787
O O1 0.301208 0.672296 0.549600
O O2 0.258926 0.373765 0.326081
O O3 0.250614 0.561664 0.274942
O O4 0.000000 0.500000 0.500000
O O5 0.719017 0.935992 0.483064
O O6 0.729138 0.789174 0.590352
O O7 0.738572 0.088486 0.793579
O O8 0.000000 0.000000 0.500000
O O9 0.389341 0.716586 0.115652
O O10 0.544928 0.030625 0.232121
O O11 0.533563 0.818191 0.905906
O O12 0.747059 0.067007 0.337721
O O13 0.849572 0.187371 0.134044
O O14 0.544132 0.775245 0.288361
O O15 0.871165 0.828034 0.142633
O O16 0.862108 0.933008 0.813339
O O17 0.000000 0.000000 0.000000
O O18 0.500000 0.500000 0.000000
#
# Coordination Sequence:
#
# PCOD8006009 Si02
#       8
#     2   2   2   2   2   2   2   2
#     4  12  24  36  61  99 134 154 202 269 327 370
#     4  12  24  39  65  93 129 170 216 257 302 385
#     4  10  22  44  67  90 125 166 221 259 305 384
#     4   9  20  37  65  94 119 162 212 265 322 357
#     4  10  20  39  64  93 127 162 216 260 309 378
#     4   9  17  34  63  89 120 157 207 264 307 360
#     4  11  23  41  60  96 127 172 207 251 323 376
#     4  11  23  40  68  97 122 164 209 270 329 357
#
# _framework density 21.241166
#
# number of rings (size 3 to 8) (size 9 to 14) (size 15 to 20)
#    0.000    1.500    2.500    4.125    3.500    2.000 
#    0.000    2.500    2.750    1.500    0.000    0.000 
#    0.000    0.000    0.000    0.000    0.000    0.000 
#
# Total GULP energy -198211.910779 kJ/mol
# GULP energy per Si atom -12388.244424 kJ/mol
# Density = 2.119282 g / cm^3
# Si number density = 21.241166 Si / 1000 Ang^3
#
#
#
# Elastic Constant Matrix: (Units=GPa)
#
#
# Indices 1 2 3 4 5 6 
#
# 1 55.0290 29.2418 32.0871 -6.5313 -17.0687 -3.0000
# 2 29.2418 101.7689 53.4268 -24.1404 -12.4903 -7.5730
# 3 32.0871 53.4268 120.2961 -26.2229 -22.5173 -1.6320
# 4 -6.5313 -24.1404 -26.2229 47.2546 3.3637 -4.9732
# 5 -17.0687 -12.4903 -22.5173 3.3637 44.5994 -8.0535
# 6 -3.0000 -7.5730 -1.6320 -4.9732 -8.0535 17.0642
#
#
#
# Elastic Compliance Matrix: (Units=1/GPa)
#
#
# Indices 1 2 3 4 5 6 
#
# 1 0.025026 -0.004132 -0.003414 -0.000493 0.007775 0.005765
# 2 -0.004132 0.015302 -0.004004 0.005762 0.001724 0.008174
# 3 -0.003414 -0.004004 0.012769 0.004497 0.004053 0.002067
# 4 -0.000493 0.005762 0.004497 0.027600 0.003924 0.012796
# 5 0.007775 0.001724 0.004053 0.003924 0.030928 0.018260
# 6 0.005765 0.008174 0.002067 0.012796 0.018260 0.075788
#
#
# Mechanical properties :
#
#
# Convention : Reuss Voigt Hill
#
# Bulk Modulus (GPa) = 33.33797 56.28950 44.81374
# Shear Modulus (GPa) = 22.67431 32.60620 27.64026
#
# Velocity S-wave (km/s) = 3.27076 3.92222 3.61121
# Velocity P-wave (km/s) = 5.47658 6.86072 6.20735
#
# Compressibility (1/GPa) = 0.02999583
#
# Stress axis : x y z
#
# Youngs Moduli (GPa) = 39.95811 65.34941 78.31479
#
# Poissons Ratio (x) = 0.27005 0.26737
# Poissons Ratio (y) = 0.16512 0.31361
# Poissons Ratio (z) = 0.13642 0.26169
#
# Static dielectric constant tensor:
#      x y z
#    x 3.660200 0.669580 -0.573840 
#    y 0.669580 0.701500 -0.200060 
#    z -0.573840 -0.200060 4.217980 
# 
# 
# High freq. dielectric constant tensor:
#      x y z
#    x 1.817600 -0.002490 -0.017270 
#    y -0.002490 1.818260 -0.029390 
#    z -0.017270 -0.029390 1.853630 
# 
# From -- ./inp_files/424209.got.cif
#   From: 2010.06.25/outbox.cif.g09.slc.cpg/sg2_213_cif.got.tgz:424209.got - 2010.06.27 13:26:56.
