data_PCOD8006751
_publ_section_title
;
Structure prediction by ZEFSAII (Michael W. Deem and Ramdas Pophale) SiO2 
 PCOD8006751
Probable space group: P -1
;
_chemical_formula_sum "Si O2"
_cell_formula_units_Z 16
_cell_length_a 9.015884
_cell_length_b 17.395655
_cell_length_c 8.963904
_cell_angle_alpha 109.762516
_cell_angle_beta 125.719906
_cell_angle_gamma 40.520441
_cell_volume 726.554080
_symmetry_space_group_name_H-M "P -1"
_symmetry_group_IT_number 2
_symmetry_cell_setting 'triclinic'
loop_
_space_group_symop_operation_xyz
x,y,z
-x,-y,-z
loop_
_atom_site_type_symbol
_atom_site_label
_atom_site_fract_x
_atom_site_fract_y
_atom_site_fract_z
Si Si1 0.992616 0.214371 0.817251
Si Si2 0.203328 0.141539 0.580183
Si Si3 0.081569 0.355218 0.564837
Si Si4 0.413695 0.369038 0.584270
Si Si5 0.775294 0.985952 0.969433
Si Si6 0.566813 0.641175 0.750715
Si Si7 0.087750 0.879093 0.794638
Si Si8 0.988842 0.612564 0.115914
O O1 0.701075 0.297530 0.777481
O O2 0.994865 0.195512 0.628648
O O3 0.076517 0.280012 0.927466
O O4 0.215909 0.086501 0.947763
O O5 0.096384 0.252055 0.485925
O O6 0.497151 0.068210 0.768970
O O7 0.179945 0.065105 0.418150
O O8 0.309797 0.322827 0.577491
O O9 0.139214 0.353686 0.771685
O O10 0.793269 0.487029 0.431020
O O11 0.499639 0.319786 0.433711
O O12 0.818466 0.057700 0.130755
O O13 0.024484 0.890815 0.939888
O O14 0.328289 0.740871 0.790140
O O15 0.683517 0.510575 0.762744
O O16 0.839816 0.601627 0.910241
#
# Coordination Sequence:
#
# PCOD8006751 Si02
#       8
#     2   2   2   2   2   2   2   2
#     4  11  23  41  65  96 126 169 210 263 320 388
#     4  11  23  44  69  94 124 173 217 267 318 378
#     4   9  21  38  66  95 131 163 203 264 322 381
#     4  10  21  38  64  98 129 163 206 259 324 384
#     4  11  27  44  62  94 133 168 220 270 317 370
#     4  10  20  40  63  96 127 163 216 256 324 379
#     4  11  24  43  67  93 123 178 215 269 318 377
#     4   9  21  38  67  91 132 167 199 267 323 380
#
# _framework density 22.021758999999999
#
# number of rings (size 3 to 8) (size 9 to 14) (size 15 to 20)
#    0.000    1.750    1.250    2.250    7.000    3.000 
#    2.250    0.625    0.000    0.000    0.000    0.000 
#    0.000    0.000    0.000    0.000    0.000    0.000 
#
# Total GULP energy -198236.276269 kJ/mol
# GULP energy per Si atom -12389.767267 kJ/mol
# Density = 2.197164 g / cm^3
# Si number density = 22.021759 Si / 1000 Ang^3
#
#
#
# Elastic Constant Matrix: (Units=GPa)
#
#
# Indices 1 2 3 4 5 6 
#
# 1 105.6263 51.7161 35.5982 -14.0009 -2.2837 6.2664
# 2 51.7161 92.6715 34.3695 -1.5653 -6.2890 10.0771
# 3 35.5982 34.3695 75.9714 -2.6570 18.4969 21.7506
# 4 -14.0009 -1.5653 -2.6570 27.7374 6.0490 -1.1321
# 5 -2.2837 -6.2890 18.4969 6.0490 28.7014 -3.0934
# 6 6.2664 10.0771 21.7506 -1.1321 -3.0934 40.6002
#
#
#
# Elastic Compliance Matrix: (Units=1/GPa)
#
#
# Indices 1 2 3 4 5 6 
#
# 1 0.015154 -0.006623 -0.004985 0.006489 0.001847 0.002297
# 2 -0.006623 0.017847 -0.007936 -0.005161 0.009741 0.001442
# 3 -0.004985 -0.007936 0.029074 0.004321 -0.023345 -0.014495
# 4 0.006489 -0.005161 0.004321 0.042095 -0.012466 -0.001811
# 5 0.001847 0.009741 -0.023345 -0.012466 0.056277 0.013744
# 6 0.002297 0.001442 -0.014495 -0.001811 0.013744 0.032680
#
#
# Mechanical properties :
#
#
# Convention : Reuss Voigt Hill
#
# Bulk Modulus (GPa) = 43.50261 57.51518 50.50889
# Shear Modulus (GPa) = 20.84419 29.58018 25.21218
#
# Velocity S-wave (km/s) = 3.07991 3.66898 3.38727
# Velocity P-wave (km/s) = 5.69605 6.64249 6.18739
#
# Compressibility (1/GPa) = 0.02298713
#
# Stress axis : x y z
#
# Youngs Moduli (GPa) = 65.99061 56.03214 34.39538
#
# Poissons Ratio (x) = 0.37108 0.17146
# Poissons Ratio (y) = 0.43703 0.27296
# Poissons Ratio (z) = 0.32896 0.44467
#
# Static dielectric constant tensor:
#      x y z
#    x 3.973390 -0.038040 0.065660 
#    y -0.038040 4.156280 -0.012860 
#    z 0.065660 -0.012860 3.846810 
# 
# 
# High freq. dielectric constant tensor:
#      x y z
#    x 1.867960 -0.006800 0.008920 
#    y -0.006800 1.867650 -0.005070 
#    z 0.008920 -0.005070 1.855490 
# 
# From -- ./inp_files/217912.got.cif
#   From: 2010.06.25/outbox.cif.g09.slc.cpg/sg2_109_cif.got.tgz:217912.got - 2010.06.27 13:26:56.
