data_PCOD8006240
_publ_section_title
;
Structure prediction by ZEFSAII (Michael W. Deem and Ramdas Pophale) SiO2 
 PCOD8006240
Probable space group: P -1
;
_chemical_formula_sum "Si O2"
_cell_formula_units_Z 16
_cell_length_a 13.953102
_cell_length_b 8.362796
_cell_length_c 9.497713
_cell_angle_alpha 106.166686
_cell_angle_beta 138.093795
_cell_angle_gamma 79.754828
_cell_volume 710.204372
_symmetry_space_group_name_H-M "P -1"
_symmetry_group_IT_number 2
_symmetry_cell_setting 'triclinic'
loop_
_space_group_symop_operation_xyz
x,y,z
-x,-y,-z
loop_
_atom_site_type_symbol
_atom_site_label
_atom_site_fract_x
_atom_site_fract_y
_atom_site_fract_z
Si Si1 0.292328 0.295838 0.369537
Si Si2 0.160352 0.009673 0.734485
Si Si3 0.500337 0.479096 0.162827
Si Si4 0.283077 0.777650 0.604020
Si Si5 0.948219 0.511107 0.722101
Si Si6 0.190782 0.950636 0.282138
Si Si7 0.948046 0.163695 0.171543
Si Si8 0.245351 0.363982 0.029150
O O1 0.405081 0.374709 0.623056
O O2 0.137469 0.378406 0.232654
O O3 0.284280 0.099396 0.346436
O O4 0.334757 0.325971 0.259987
O O5 0.272058 0.939982 0.728075
O O6 0.167998 0.895552 0.854250
O O7 0.209282 0.197438 0.862996
O O8 0.000000 0.000000 0.500000
O O9 0.564600 0.301105 0.224427
O O10 0.341852 0.481333 0.058361
O O11 0.500000 0.500000 0.000000
O O12 0.153795 0.645366 0.475930
O O13 0.280659 0.831670 0.450870
O O14 0.986598 0.649184 0.674653
O O15 0.097890 0.449064 0.929899
O O16 0.069367 0.026465 0.267314
O O17 0.124898 0.829549 0.060274
#
# Coordination Sequence:
#
# PCOD8006240 Si02
#       8
#     2   2   2   2   2   2   2   2
#     4  10  23  46  70 100 133 174 227 279 335 399
#     4  12  23  40  66 102 138 171 225 275 333 398
#     4  11  29  49  67  95 138 181 226 277 340 401
#     4  11  25  44  66  98 136 180 223 274 336 400
#     4  10  23  37  72 102 135 167 225 276 338 390
#     4  10  20  39  66  96 136 170 220 272 334 393
#     4  10  21  35  62 104 135 171 213 279 333 392
#     4  12  24  45  70  99 135 183 222 278 332 399
#
# _framework density 22.528728000000001
#
# number of rings (size 3 to 8) (size 9 to 14) (size 15 to 20)
#    0.000    1.250    3.750    0.750   10.500    2.000 
#    0.000    0.625    0.000    0.000    0.000    0.000 
#    0.000    0.000    0.000    0.000    0.000    0.000 
#
# Total GULP energy -198362.188822 kJ/mol
# GULP energy per Si atom -12397.636801 kJ/mol
# Density = 2.247745 g / cm^3
# Si number density = 22.528728 Si / 1000 Ang^3
#
#
#
# Elastic Constant Matrix: (Units=GPa)
#
#
# Indices 1 2 3 4 5 6 
#
# 1 74.3280 20.2103 31.7747 -2.0722 3.8373 23.4214
# 2 20.2103 103.8025 37.1786 2.6271 -1.1952 10.6681
# 3 31.7747 37.1786 105.6299 -0.5387 -4.5879 6.7755
# 4 -2.0722 2.6271 -0.5387 39.4455 5.5029 1.2588
# 5 3.8373 -1.1952 -4.5879 5.5029 26.5437 -3.1080
# 6 23.4214 10.6681 6.7755 1.2588 -3.1080 33.0264
#
#
#
# Elastic Compliance Matrix: (Units=1/GPa)
#
#
# Indices 1 2 3 4 5 6 
#
# 1 0.020743 -0.000829 -0.005301 0.002369 -0.006085 -0.014018
# 2 -0.000829 0.011342 -0.003602 -0.000759 -0.000106 -0.002317
# 3 -0.005301 -0.003602 0.012289 -0.000393 0.003127 0.002711
# 4 0.002369 -0.000759 -0.000393 0.026492 -0.006283 -0.002955
# 5 -0.006085 -0.000106 0.003127 -0.006283 0.041309 0.007835
# 6 -0.014018 -0.002317 0.002711 -0.002955 0.007835 0.041262
#
#
# Mechanical properties :
#
#
# Convention : Reuss Voigt Hill
#
# Bulk Modulus (GPa) = 40.14649 51.34306 45.74477
# Shear Modulus (GPa) = 27.59320 32.77624 30.18472
#
# Velocity S-wave (km/s) = 3.50351 3.81841 3.66434
# Velocity P-wave (km/s) = 5.85021 6.50229 6.18485
#
# Compressibility (1/GPa) = 0.02490878
#
# Stress axis : x y z
#
# Youngs Moduli (GPa) = 48.20979 88.17162 81.37120
#
# Poissons Ratio (x) = 0.07313 0.43133
# Poissons Ratio (y) = 0.03998 0.29312
# Poissons Ratio (z) = 0.25555 0.31761
#
# Static dielectric constant tensor:
#      x y z
#    x 4.056820 0.046470 -0.049640 
#    y 0.046470 4.143720 0.059710 
#    z -0.049640 0.059710 3.850620 
# 
# 
# High freq. dielectric constant tensor:
#      x y z
#    x 1.875290 0.010140 -0.010600 
#    y 0.010140 1.897690 0.007770 
#    z -0.010600 0.007770 1.874430 
# 
# From -- ./inp_files/299405.got.cif
#   From: 2010.06.25/outbox.cif.g09.slc.cpg/sg2_150_cif.got.tgz:299405.got - 2010.06.27 13:26:56.
