data_PCOD8006033
_publ_section_title
;
Structure prediction by ZEFSAII (Michael W. Deem and Ramdas Pophale) SiO2 
 PCOD8006033
Probable space group: P -1
;
_chemical_formula_sum "Si O2"
_cell_formula_units_Z 16
_cell_length_a 8.898909
_cell_length_b 13.908727
_cell_length_c 11.229990
_cell_angle_alpha 138.444780
_cell_angle_beta 127.133053
_cell_angle_gamma 72.392126
_cell_volume 705.193478
_symmetry_space_group_name_H-M "P -1"
_symmetry_group_IT_number 2
_symmetry_cell_setting 'triclinic'
loop_
_space_group_symop_operation_xyz
x,y,z
-x,-y,-z
loop_
_atom_site_type_symbol
_atom_site_label
_atom_site_fract_x
_atom_site_fract_y
_atom_site_fract_z
Si Si1 0.581877 0.183409 0.547492
Si Si2 0.181677 0.694910 0.804298
Si Si3 0.503218 0.332959 0.886212
Si Si4 0.605364 0.390250 0.550687
Si Si5 0.769197 0.922964 0.341022
Si Si6 0.213715 0.021225 0.079308
Si Si7 0.405182 0.132529 0.051675
Si Si8 0.208276 0.449979 0.416001
O O1 0.577120 0.249636 0.736387
O O2 0.697901 0.312920 0.628576
O O3 0.684998 0.050351 0.478169
O O4 0.361944 0.129178 0.341461
O O5 0.145696 0.588900 0.573715
O O6 0.977967 0.691923 0.772714
O O7 0.332241 0.644688 0.914532
O O8 0.274224 0.864514 0.957824
O O9 0.293051 0.224205 0.736360
O O10 0.500000 0.500000 0.000000
O O11 0.413192 0.430728 0.548099
O O12 0.769454 0.532729 0.703108
O O13 0.552262 0.290638 0.310728
O O14 0.666814 0.862105 0.111123
O O15 0.000000 0.000000 0.500000
O O16 0.223470 0.098730 0.026383
O O17 0.000000 0.000000 0.000000
O O18 0.500000 0.000000 0.000000
#
# Coordination Sequence:
#
# PCOD8006033 Si02
#       8
#     2   2   2   2   2   2   2   2
#     4  11  24  44  68  95 137 180 233 286 342 412
#     4  11  22  41  64  95 136 175 225 277 343 404
#     4  12  27  48  69  94 143 192 226 280 356 425
#     4  10  20  39  64  96 130 171 225 279 340 398
#     4  12  27  45  70 103 138 186 235 291 346 413
#     4  11  23  38  71 102 127 170 229 285 342 401
#     4  11  20  41  67  92 130 171 221 288 338 390
#     4  10  22  37  63  98 135 170 217 286 341 411
#
# _framework density 22.68881
#
# number of rings (size 3 to 8) (size 9 to 14) (size 15 to 20)
#    0.000    1.000    3.750    4.125    1.750    4.000 
#    0.000    1.250    0.000    0.000    0.000    0.000 
#    0.000    0.000    0.000    0.000    0.000    0.000 
#
# Total GULP energy -198282.560256 kJ/mol
# GULP energy per Si atom -12392.660016 kJ/mol
# Density = 2.263717 g / cm^3
# Si number density = 22.688810 Si / 1000 Ang^3
#
#
#
# Elastic Constant Matrix: (Units=GPa)
#
#
# Indices 1 2 3 4 5 6 
#
# 1 125.8898 27.6989 33.1758 4.9054 20.4540 10.9562
# 2 27.6989 106.7760 10.7676 13.7489 10.6096 22.7442
# 3 33.1758 10.7676 46.1246 -0.0893 -7.0438 11.1114
# 4 4.9054 13.7489 -0.0893 29.6521 4.5547 1.7956
# 5 20.4540 10.6096 -7.0438 4.5547 38.3262 10.8023
# 6 10.9562 22.7442 11.1114 1.7956 10.8023 40.1620
#
#
#
# Elastic Compliance Matrix: (Units=1/GPa)
#
#
# Indices 1 2 3 4 5 6 
#
# 1 0.012284 -0.001891 -0.010454 -0.000017 -0.008791 0.002977
# 2 -0.001891 0.011727 0.000042 -0.004767 0.000007 -0.005926
# 3 -0.010454 0.000042 0.033988 0.000183 0.014767 -0.010555
# 4 -0.000017 -0.004767 0.000183 0.036358 -0.003515 0.001973
# 5 -0.008791 0.000007 0.014767 -0.003515 0.037163 -0.011530
# 6 0.002977 -0.005926 -0.010555 0.001973 -0.011530 0.033376
#
#
# Mechanical properties :
#
#
# Convention : Reuss Voigt Hill
#
# Bulk Modulus (GPa) = 29.94615 46.89723 38.42169
# Shear Modulus (GPa) = 24.92104 35.43793 30.17949
#
# Velocity S-wave (km/s) = 3.31778 3.95639 3.65108
# Velocity P-wave (km/s) = 5.28244 6.44867 5.89447
#
# Compressibility (1/GPa) = 0.03339327
#
# Stress axis : x y z
#
# Youngs Moduli (GPa) = 81.40488 85.27303 29.42217
#
# Poissons Ratio (x) = 0.16125 0.30758
# Poissons Ratio (y) = 0.15394 -0.00123
# Poissons Ratio (z) = 0.85100 -0.00357
#
# Static dielectric constant tensor:
#      x y z
#    x 4.582750 0.277400 -0.101290 
#    y 0.277400 4.408200 0.520330 
#    z -0.101290 0.520330 4.202920 
# 
# 
# High freq. dielectric constant tensor:
#      x y z
#    x 1.919780 0.017010 -0.005430 
#    y 0.017010 1.899010 0.032050 
#    z -0.005430 0.032050 1.870680 
# 
# From -- ./inp_files/399872.got.cif
#   From: 2010.06.25/outbox.cif.g09.slc.cpg/sg2_200_cif.got.tgz:399872.got - 2010.06.27 13:26:56.
