data_PCOD8006829
_publ_section_title
;
Structure prediction by ZEFSAII (Michael W. Deem and Ramdas Pophale) SiO2 
 PCOD8006829
Probable space group: P -1
;
_chemical_formula_sum "Si O2"
_cell_formula_units_Z 12
_cell_length_a 9.238410
_cell_length_b 20.428492
_cell_length_c 12.094505
_cell_angle_alpha 24.465358
_cell_angle_beta 36.247768
_cell_angle_gamma 31.851546
_cell_volume 493.025881
_symmetry_space_group_name_H-M "P -1"
_symmetry_group_IT_number 2
_symmetry_cell_setting 'triclinic'
loop_
_space_group_symop_operation_xyz
x,y,z
-x,-y,-z
loop_
_atom_site_type_symbol
_atom_site_label
_atom_site_fract_x
_atom_site_fract_y
_atom_site_fract_z
Si Si1 0.834796 0.173300 0.083374
Si Si2 0.211921 0.509697 0.705381
Si Si3 0.643555 0.801342 0.263477
Si Si4 0.224623 0.787718 0.401144
Si Si5 0.392266 0.859398 0.952382
Si Si6 0.354134 0.230233 0.437098
O O1 0.758984 0.192676 0.971047
O O2 0.566876 0.274927 0.169371
O O3 0.996853 0.959857 0.343582
O O4 0.025190 0.271097 0.837395
O O5 0.500000 0.500000 0.500000
O O6 0.136766 0.630798 0.678211
O O7 0.953583 0.602690 0.638706
O O8 0.286351 0.302054 0.996812
O O9 0.523015 0.697119 0.420914
O O10 0.551866 0.800317 0.447302
O O11 0.500000 0.000000 0.000000
O O12 0.241197 0.869097 0.146068
O O13 0.375499 0.050223 0.645290
#
# Coordination Sequence:
#
# PCOD8006829 Si02
#       6
#     2   2   2   2   2   2
#     4  11  22  38  66  94 123 165 205 259 306 369
#     4  10  23  38  66  94 121 165 208 256 308 366
#     4  10  21  39  66  91 125 169 204 251 311 374
#     4  10  20  40  64  95 121 167 210 248 315 367
#     4  11  21  41  64  92 127 158 207 260 306 363
#     4  12  23  42  65  95 124 162 212 250 316 367
#
# _framework density 24.339493999999998
#
# number of rings (size 3 to 8) (size 9 to 14) (size 15 to 20)
#    0.000    1.333    5.000    3.000    0.000    3.333 
#    0.000    7.500    0.000    5.000    0.000    0.000 
#    0.000    0.000    0.000    0.000    0.000    0.000 
#
# Total GULP energy -148722.778497 kJ/mol
# GULP energy per Si atom -12393.564875 kJ/mol
# Density = 2.428410 g / cm^3
# Si number density = 24.339494 Si / 1000 Ang^3
#
#
#
# Elastic Constant Matrix: (Units=GPa)
#
#
# Indices 1 2 3 4 5 6 
#
# 1 124.4906 20.6641 23.0880 20.5246 33.3533 -23.3059
# 2 20.6641 116.1711 30.6203 2.9090 18.5421 -22.9141
# 3 23.0880 30.6203 31.4508 -5.5487 9.9892 -8.8885
# 4 20.5246 2.9090 -5.5487 48.5229 1.0751 4.7942
# 5 33.3533 18.5421 9.9892 1.0751 23.2611 -5.6287
# 6 -23.3059 -22.9141 -8.8885 4.7942 -5.6287 26.8981
#
#
#
# Elastic Compliance Matrix: (Units=1/GPa)
#
#
# Indices 1 2 3 4 5 6 
#
# 1 0.021270 0.007165 -0.011332 -0.011846 -0.026602 0.017333
# 2 0.007165 0.015989 -0.013873 -0.006622 -0.013462 0.013607
# 3 -0.011332 -0.013873 0.053407 0.012237 0.002438 -0.005660
# 4 -0.011846 -0.006622 0.012237 0.028568 0.012204 -0.014399
# 5 -0.026602 -0.013462 0.002438 0.012204 0.085921 -0.017907
# 6 0.017333 0.013607 -0.005660 -0.014399 -0.017907 0.060736
#
#
# Mechanical properties :
#
#
# Convention : Reuss Voigt Hill
#
# Bulk Modulus (GPa) = 18.32023 46.76190 32.54107
# Shear Modulus (GPa) = 15.61692 32.91910 24.26801
#
# Velocity S-wave (km/s) = 2.53579 3.68162 3.16106
# Velocity P-wave (km/s) = 4.01459 6.10954 5.16931
#
# Compressibility (1/GPa) = 0.05458447
#
# Stress axis : x y z
#
# Youngs Moduli (GPa) = 47.01447 62.54448 18.72429
#
# Poissons Ratio (x) = -0.44812 0.21219
# Poissons Ratio (y) = -0.33685 0.25976
# Poissons Ratio (z) = 0.53278 0.86768
#
# Static dielectric constant tensor:
#      x y z
#    x 5.088040 -0.165790 -0.250300 
#    y -0.165790 4.658790 -0.466330 
#    z -0.250300 -0.466330 4.271910 
# 
# 
# High freq. dielectric constant tensor:
#      x y z
#    x 1.966520 -0.015630 0.009010 
#    y -0.015630 1.964690 -0.011190 
#    z 0.009010 -0.011190 1.936470 
# 
# From -- ./inp_files/231801.got.cif
#   From: 2010.06.25/outbox.cif.g09.slc.cpg/sg2_116_cif.got.tgz:231801.got - 2010.06.27 13:26:56.
