data_PCOD8006731
_publ_section_title
;
Structure prediction by ZEFSAII (Michael W. Deem and Ramdas Pophale) SiO2 
 PCOD8006731
Probable space group: P -1
;
_chemical_formula_sum "Si O2"
_cell_formula_units_Z 16
_cell_length_a 9.055273
_cell_length_b 11.282773
_cell_length_c 15.034723
_cell_angle_alpha 80.025282
_cell_angle_beta 117.667246
_cell_angle_gamma 142.484618
_cell_volume 772.373840
_symmetry_space_group_name_H-M "P -1"
_symmetry_group_IT_number 2
_symmetry_cell_setting 'triclinic'
loop_
_space_group_symop_operation_xyz
x,y,z
-x,-y,-z
loop_
_atom_site_type_symbol
_atom_site_label
_atom_site_fract_x
_atom_site_fract_y
_atom_site_fract_z
Si Si1 0.527410 0.437659 0.858986
Si Si2 0.925305 0.526603 0.630575
Si Si3 0.311861 0.658323 0.219910
Si Si4 0.889957 0.607279 0.102077
Si Si5 0.098539 0.899463 0.601320
Si Si6 0.295607 0.127064 0.447609
Si Si7 0.586526 0.365349 0.214203
Si Si8 0.083339 0.942126 0.219298
O O1 0.692369 0.458086 0.830025
O O2 0.418713 0.497572 0.775230
O O3 0.244323 0.199848 0.847364
O O4 0.740491 0.590205 0.981650
O O5 0.831023 0.471365 0.713215
O O6 0.643346 0.333549 0.517952
O O7 0.060646 0.734970 0.618734
O O8 0.165600 0.564914 0.674010
O O9 0.116073 0.645131 0.120993
O O10 0.631040 0.897739 0.291388
O O11 0.645411 0.395184 0.120560
O O12 0.067777 0.797811 0.194569
O O13 0.820622 0.805541 0.576273
O O14 0.150972 0.958464 0.504483
O O15 0.219060 0.025307 0.344564
O O16 0.269528 0.128276 0.177697
#
# Coordination Sequence:
#
# PCOD8006731 Si02
#       8
#     2   2   2   2   2   2   2   2
#     4  11  23  40  65  89 120 160 204 250 300 355
#     4  10  22  39  62  90 125 158 199 247 298 357
#     4  10  21  40  65  92 120 156 202 250 300 354
#     4  10  23  42  62  90 122 158 201 252 301 354
#     4  10  20  40  63  92 124 155 197 251 301 354
#     4  10  22  37  63  93 119 160 200 244 301 359
#     4  10  23  40  59  89 124 161 197 245 301 357
#     4  11  22  40  62  89 122 160 199 246 300 359
#
# _framework density 20.715357000000001
#
# number of rings (size 3 to 8) (size 9 to 14) (size 15 to 20)
#    0.000    1.750    1.250    3.000    1.750    5.500 
#    0.000   13.125    0.000    6.000    0.000    0.000 
#    0.000    0.000    0.000    0.000    0.000    0.000 
#
# Total GULP energy -198357.650550 kJ/mol
# GULP energy per Si atom -12397.353159 kJ/mol
# Density = 2.066821 g / cm^3
# Si number density = 20.715357 Si / 1000 Ang^3
#
#
#
# Elastic Constant Matrix: (Units=GPa)
#
#
# Indices 1 2 3 4 5 6 
#
# 1 142.6992 42.5126 57.0746 0.9968 4.6780 -13.7559
# 2 42.5126 108.8988 42.5873 -2.2235 2.0126 -5.5161
# 3 57.0746 42.5873 111.2414 6.6064 -2.2621 -17.0529
# 4 0.9968 -2.2235 6.6064 16.4739 -6.3401 3.6991
# 5 4.6780 2.0126 -2.2621 -6.3401 31.4684 0.8928
# 6 -13.7559 -5.5161 -17.0529 3.6991 0.8928 26.4830
#
#
#
# Elastic Compliance Matrix: (Units=1/GPa)
#
#
# Indices 1 2 3 4 5 6 
#
# 1 0.009371 -0.002089 -0.003675 -0.000519 -0.001690 0.002195
# 2 -0.002089 0.011465 -0.003779 0.003585 0.000074 -0.001634
# 3 -0.003675 -0.003779 0.013883 -0.007461 0.000076 0.007283
# 4 -0.000519 0.003585 -0.007461 0.073157 0.014477 -0.015034
# 5 -0.001690 0.000074 0.000076 0.014477 0.035061 -0.004018
# 6 0.002195 -0.001634 0.007283 -0.015034 -0.004018 0.045485
#
#
# Mechanical properties :
#
#
# Convention : Reuss Voigt Hill
#
# Bulk Modulus (GPa) = 63.97139 71.90983 67.94061
# Shear Modulus (GPa) = 23.50510 29.59604 26.55057
#
# Velocity S-wave (km/s) = 3.37214 3.78392 3.58395
# Velocity P-wave (km/s) = 6.79043 7.34026 7.07069
#
# Compressibility (1/GPa) = 0.01563199
#
# Stress axis : x y z
#
# Youngs Moduli (GPa) = 106.71580 87.21819 72.03042
#
# Poissons Ratio (x) = 0.18221 0.26472
# Poissons Ratio (y) = 0.22294 0.27223
# Poissons Ratio (z) = 0.39219 0.32963
#
# Static dielectric constant tensor:
#      x y z
#    x 3.847320 0.203520 0.215830 
#    y 0.203520 3.787610 0.034290 
#    z 0.215830 0.034290 3.693110 
# 
# 
# High freq. dielectric constant tensor:
#      x y z
#    x 1.819520 0.011710 0.009550 
#    y 0.011710 1.805600 0.002810 
#    z 0.009550 0.002810 1.803420 
# 
# From -- ./inp_files/258811.got.cif
#   From: 2010.06.25/outbox.cif.g09.slc.cpg/sg2_130_cif.got.tgz:258811.got - 2010.06.27 13:26:56.
