data_PCOD8006553
_publ_section_title
;
Structure prediction by ZEFSAII (Michael W. Deem and Ramdas Pophale) SiO2 
 PCOD8006553
Probable space group: P -1
;
_chemical_formula_sum "Si O2"
_cell_formula_units_Z 16
_cell_length_a 14.353557
_cell_length_b 8.428984
_cell_length_c 6.985074
_cell_angle_alpha 75.566298
_cell_angle_beta 71.434537
_cell_angle_gamma 96.620267
_cell_volume 758.191694
_symmetry_space_group_name_H-M "P -1"
_symmetry_group_IT_number 2
_symmetry_cell_setting 'triclinic'
loop_
_space_group_symop_operation_xyz
x,y,z
-x,-y,-z
loop_
_atom_site_type_symbol
_atom_site_label
_atom_site_fract_x
_atom_site_fract_y
_atom_site_fract_z
Si Si1 0.485120 0.773959 0.441698
Si Si2 0.646135 0.095641 0.226649
Si Si3 0.286904 0.563109 0.087504
Si Si4 0.981018 0.914740 0.337338
Si Si5 0.104334 0.456262 0.499975
Si Si6 0.853822 0.994928 0.074712
Si Si7 0.599802 0.545792 0.631943
Si Si8 0.784103 0.610501 0.212036
O O1 0.390600 0.844705 0.562126
O O2 0.525869 0.675534 0.622167
O O3 0.454591 0.644458 0.327756
O O4 0.568541 0.928604 0.258714
O O5 0.756014 0.057903 0.184715
O O6 0.652134 0.245298 0.025560
O O7 0.189842 0.564615 0.279671
O O8 0.359247 0.455627 0.177133
O O9 0.252157 0.489707 0.925696
O O10 0.905374 0.739233 0.477712
O O11 0.925963 0.025647 0.203058
O O12 0.000000 0.000000 0.500000
O O13 0.086426 0.897105 0.172737
O O14 0.137006 0.479942 0.696796
O O15 0.000000 0.500000 0.500000
O O16 0.832832 0.802521 0.074249
O O17 0.689388 0.611450 0.407509
#
# Coordination Sequence:
#
# PCOD8006553 Si02
#       8
#     2   2   2   2   2   2   2   2
#     4  10  22  42  65  87 127 163 204 264 308 357
#     4  11  22  39  62  96 124 160 204 260 314 352
#     4  11  23  38  65  90 119 164 208 247 311 370
#     4  10  21  39  62  90 119 163 206 244 303 368
#     4  10  22  38  60  90 124 157 203 254 304 365
#     4  10  21  39  62  87 127 161 200 251 306 367
#     4  10  21  43  64  85 122 166 206 252 301 376
#     4  10  20  40  61  86 123 165 202 247 305 370
#
# _framework density 21.102843
#
# number of rings (size 3 to 8) (size 9 to 14) (size 15 to 20)
#    0.000    1.750    2.500    1.500    0.000    2.500 
#    2.250    1.250    0.000    0.000    0.000    0.000 
#    0.000    0.000    0.000    0.000    0.000    0.000 
#
# Total GULP energy -198351.966004 kJ/mol
# GULP energy per Si atom -12396.997875 kJ/mol
# Density = 2.105481 g / cm^3
# Si number density = 21.102843 Si / 1000 Ang^3
#
#
#
# Elastic Constant Matrix: (Units=GPa)
#
#
# Indices 1 2 3 4 5 6 
#
# 1 121.6786 31.2915 51.6155 10.2927 4.3827 -6.1489
# 2 31.2915 79.5931 41.8779 -7.5814 0.8972 14.8739
# 3 51.6155 41.8779 106.5561 -2.2191 9.7146 9.3766
# 4 10.2927 -7.5814 -2.2191 27.1175 9.7815 -8.0571
# 5 4.3827 0.8972 9.7146 9.7815 44.7548 1.8738
# 6 -6.1489 14.8739 9.3766 -8.0571 1.8738 39.5400
#
#
#
# Elastic Compliance Matrix: (Units=1/GPa)
#
#
# Indices 1 2 3 4 5 6 
#
# 1 0.011634 -0.003065 -0.004894 -0.005125 0.000977 0.003032
# 2 -0.003065 0.017735 -0.004980 0.004053 0.000356 -0.005158
# 3 -0.004894 -0.004980 0.014169 0.002176 -0.002902 -0.001667
# 4 -0.005125 0.004053 0.002176 0.045968 -0.010392 0.007022
# 5 0.000977 0.000356 -0.002902 -0.010392 0.025252 -0.002608
# 6 0.003032 -0.005158 -0.001667 0.007022 -0.002608 0.029652
#
#
# Mechanical properties :
#
#
# Convention : Reuss Voigt Hill
#
# Bulk Modulus (GPa) = 56.61985 61.93307 59.27646
# Shear Modulus (GPa) = 28.38133 34.48533 31.43333
#
# Velocity S-wave (km/s) = 3.67127 4.04685 3.86363
# Velocity P-wave (km/s) = 6.69774 7.15877 6.93209
#
# Compressibility (1/GPa) = 0.01766165
#
# Stress axis : x y z
#
# Youngs Moduli (GPa) = 85.95585 56.38643 70.57774
#
# Poissons Ratio (x) = 0.17281 0.34538
# Poissons Ratio (y) = 0.26344 0.35144
# Poissons Ratio (z) = 0.42063 0.28078
#
# Static dielectric constant tensor:
#      x y z
#    x 4.191570 0.175020 -0.053450 
#    y 0.175020 3.813970 -0.363910 
#    z -0.053450 -0.363910 3.874510 
# 
# 
# High freq. dielectric constant tensor:
#      x y z
#    x 1.837950 0.010840 -0.010850 
#    y 0.010840 1.819040 -0.021900 
#    z -0.010850 -0.021900 1.819290 
# 
# From -- ./inp_files/37768.got.cif
#   From: 2010.06.25/outbox.cif.g09.slc.cpg/sg2_19_cif.got.tgz:37768.got - 2010.06.27 13:26:56.
