data_PCOD8006792
_publ_section_title
;
Structure prediction by ZEFSAII (Michael W. Deem and Ramdas Pophale) SiO2 
 PCOD8006792
Probable space group: P -1
;
_chemical_formula_sum "Si O2"
_cell_formula_units_Z 16
_cell_length_a 6.693941
_cell_length_b 22.344777
_cell_length_c 8.002121
_cell_angle_alpha 133.404189
_cell_angle_beta 59.548608
_cell_angle_gamma 98.375906
_cell_volume 709.338832
_symmetry_space_group_name_H-M "P -1"
_symmetry_group_IT_number 2
_symmetry_cell_setting 'triclinic'
loop_
_space_group_symop_operation_xyz
x,y,z
-x,-y,-z
loop_
_atom_site_type_symbol
_atom_site_label
_atom_site_fract_x
_atom_site_fract_y
_atom_site_fract_z
Si Si1 0.465846 0.163003 0.328269
Si Si2 0.749775 0.586954 0.915818
Si Si3 0.707972 0.443466 0.425804
Si Si4 0.510817 0.757618 0.170167
Si Si5 0.922294 0.814448 0.986847
Si Si6 0.026815 0.848748 0.385745
Si Si7 0.966489 0.027690 0.876873
Si Si8 0.411945 0.683563 0.532121
O O1 0.513592 0.194177 0.551028
O O2 0.211652 0.144137 0.387408
O O3 0.464662 0.239963 0.344694
O O4 0.685502 0.074452 0.029223
O O5 0.742966 0.494462 0.675694
O O6 0.027285 0.586809 0.837598
O O7 0.638998 0.655058 0.944624
O O8 0.584376 0.610684 0.196905
O O9 0.500000 0.500000 0.500000
O O10 0.626778 0.361892 0.366163
O O11 0.671339 0.793284 0.041921
O O12 0.248303 0.773428 0.230103
O O13 0.998632 0.821498 0.159029
O O14 0.880122 0.906174 0.089089
O O15 0.144768 0.734804 0.660771
O O16 0.072505 0.941879 0.552817
O O17 0.000000 0.000000 0.000000
#
# Coordination Sequence:
#
# PCOD8006792 Si02
#       8
#     2   2   2   2   2   2   2   2
#     4   9  21  40  62  89 127 166 208 263 308 373
#     4  10  23  42  67  94 131 166 203 260 319 376
#     4  11  24  42  67  98 128 164 208 260 316 377
#     4  10  20  40  64  90 122 166 210 260 313 374
#     4  10  23  41  62  90 127 164 212 264 307 375
#     4  11  22  39  64  90 124 169 214 260 318 367
#     4  11  21  41  60  90 128 168 213 264 317 369
#     4  10  21  44  66  91 132 167 206 259 315 374
#
# _framework density 22.556218000000001
#
# number of rings (size 3 to 8) (size 9 to 14) (size 15 to 20)
#    0.000    1.750    2.500    1.125    1.750    1.000 
#    6.750    6.250    0.000    0.000    0.000    0.000 
#    0.000    0.000    0.000    0.000    0.000    0.000 
#
# Total GULP energy -198386.964726 kJ/mol
# GULP energy per Si atom -12399.185295 kJ/mol
# Density = 2.250488 g / cm^3
# Si number density = 22.556218 Si / 1000 Ang^3
#
#
#
# Elastic Constant Matrix: (Units=GPa)
#
#
# Indices 1 2 3 4 5 6 
#
# 1 61.5759 30.6875 15.0440 -2.5071 -22.8204 -6.5791
# 2 30.6875 134.1737 9.5294 7.0565 -20.7407 12.3574
# 3 15.0440 9.5294 92.1044 1.3001 -16.9274 0.8831
# 4 -2.5071 7.0565 1.3001 34.2083 2.1680 -9.3850
# 5 -22.8204 -20.7407 -16.9274 2.1680 33.3274 -0.8032
# 6 -6.5791 12.3574 0.8831 -9.3850 -0.8032 25.6507
#
#
#
# Elastic Compliance Matrix: (Units=1/GPa)
#
#
# Indices 1 2 3 4 5 6 
#
# 1 0.025500 -0.004939 -0.001327 0.005169 0.013649 0.011285
# 2 -0.004939 0.010012 0.000506 -0.004779 0.003229 -0.007755
# 3 -0.001327 0.000506 0.012083 -0.001381 0.005602 -0.001330
# 4 0.005169 -0.004779 -0.001381 0.035314 -0.002035 0.016532
# 5 0.013649 0.003229 0.005602 -0.002035 0.044396 0.002398
# 6 0.011285 -0.007755 -0.001330 0.016532 0.002398 0.051785
#
#
# Mechanical properties :
#
#
# Convention : Reuss Voigt Hill
#
# Bulk Modulus (GPa) = 27.71968 44.26398 35.99183
# Shear Modulus (GPa) = 24.67479 34.14349 29.40914
#
# Velocity S-wave (km/s) = 3.31104 3.89486 3.61476
# Velocity P-wave (km/s) = 5.18972 6.31609 5.78041
#
# Compressibility (1/GPa) = 0.03607545
#
# Stress axis : x y z
#
# Youngs Moduli (GPa) = 39.21501 99.88499 82.75877
#
# Poissons Ratio (x) = 0.49337 0.10980
# Poissons Ratio (y) = 0.19370 -0.04190
# Poissons Ratio (z) = 0.05203 -0.05057
#
# Static dielectric constant tensor:
#      x y z
#    x 3.777780 0.400760 -0.198910 
#    y 0.400760 4.322150 0.052360 
#    z -0.198910 0.052360 4.254660 
# 
# 
# High freq. dielectric constant tensor:
#      x y z
#    x 1.862780 0.017490 -0.014090 
#    y 0.017490 1.894600 0.006010 
#    z -0.014090 0.006010 1.900410 
# 
# From -- ./inp_files/49177.got.cif
#   From: 2010.06.25/outbox.cif.g09.slc.cpg/sg2_25_cif.got.tgz:49177.got - 2010.06.27 13:26:56.
