data_PCOD8006765
_publ_section_title
;
Structure prediction by ZEFSAII (Michael W. Deem and Ramdas Pophale) SiO2 
 PCOD8006765
Probable space group: P -1
;
_chemical_formula_sum "Si O2"
_cell_formula_units_Z 16
_cell_length_a 13.668180
_cell_length_b 11.424413
_cell_length_c 12.436769
_cell_angle_alpha 100.098161
_cell_angle_beta 98.413933
_cell_angle_gamma 20.634736
_cell_volume 672.897486
_symmetry_space_group_name_H-M "P -1"
_symmetry_group_IT_number 2
_symmetry_cell_setting 'triclinic'
loop_
_space_group_symop_operation_xyz
x,y,z
-x,-y,-z
loop_
_atom_site_type_symbol
_atom_site_label
_atom_site_fract_x
_atom_site_fract_y
_atom_site_fract_z
Si Si1 0.488479 0.886347 0.535019
Si Si2 0.134472 0.060897 0.173968
Si Si3 0.639244 0.544730 0.314665
Si Si4 0.313415 0.373324 0.960250
Si Si5 0.246372 0.672212 0.113506
Si Si6 0.181766 0.342875 0.101711
Si Si7 0.747198 0.160116 0.253833
Si Si8 0.986067 0.677213 0.332802
O O1 0.544484 0.721814 0.431410
O O2 0.708399 0.636407 0.626279
O O3 0.500000 0.000000 0.500000
O O4 0.185476 0.202698 0.586624
O O5 0.929830 0.270245 0.275625
O O6 0.973792 0.326363 0.105063
O O7 0.413585 0.808590 0.223539
O O8 0.200664 0.858849 0.095855
O O9 0.679479 0.363463 0.328848
O O10 0.574702 0.022487 0.883294
O O11 0.352826 0.471914 0.997697
O O12 0.309811 0.321363 0.071135
O O13 0.467375 0.418802 0.203606
O O14 0.963847 0.931440 0.154375
O O15 0.999884 0.577591 0.214126
O O16 0.000000 0.500000 0.000000
O O17 0.846917 0.959988 0.330667
#
# Coordination Sequence:
#
# PCOD8006765 Si02
#       8
#     2   2   2   2   2   2   2   2
#     4  12  29  48  72 100 135 181 230 288 338 416
#     4  10  23  40  72  99 138 181 217 283 338 402
#     4  10  24  46  67 104 135 174 231 283 345 392
#     4  11  24  40  65 100 139 184 230 267 336 408
#     4  10  20  40  64 104 141 174 222 273 337 401
#     4  11  27  42  66 100 138 185 227 281 322 409
#     4  10  21  41  72  99 138 174 222 287 335 413
#     4  12  26  47  73 100 136 183 227 281 353 387
#
# _framework density 23.777767999999998
#
# number of rings (size 3 to 8) (size 9 to 14) (size 15 to 20)
#    0.000    1.250    1.250    3.000    7.000    1.000 
#    0.000    3.750    0.000    0.000    0.000    0.000 
#    0.000    0.000    0.000    0.000    0.000    0.000 
#
# Total GULP energy -198480.191397 kJ/mol
# GULP energy per Si atom -12405.011962 kJ/mol
# Density = 2.372365 g / cm^3
# Si number density = 23.777768 Si / 1000 Ang^3
#
#
#
# Elastic Constant Matrix: (Units=GPa)
#
#
# Indices 1 2 3 4 5 6 
#
# 1 67.5530 34.3329 31.3624 6.6775 6.9680 11.8067
# 2 34.3329 128.4838 36.4776 -7.6574 11.8834 25.3809
# 3 31.3624 36.4776 102.3201 16.0635 19.3745 31.0140
# 4 6.6775 -7.6574 16.0635 44.2638 7.1332 -1.1996
# 5 6.9680 11.8834 19.3745 7.1332 36.8879 0.2219
# 6 11.8067 25.3809 31.0140 -1.1996 0.2219 36.1054
#
#
#
# Elastic Compliance Matrix: (Units=1/GPa)
#
#
# Indices 1 2 3 4 5 6 
#
# 1 0.018939 -0.004072 -0.004122 -0.002111 0.000307 0.000138
# 2 -0.004072 0.010597 -0.000917 0.003079 -0.002727 -0.005210
# 3 -0.004122 -0.000917 0.017486 -0.005104 -0.007044 -0.013153
# 4 -0.002111 0.003079 -0.005104 0.025871 -0.002938 0.003788
# 5 0.000307 -0.002727 -0.007044 -0.002938 0.032152 0.007572
# 6 0.000138 -0.005210 -0.013153 0.003788 0.007572 0.042692
#
#
# Mechanical properties :
#
#
# Convention : Reuss Voigt Hill
#
# Bulk Modulus (GPa) = 34.72301 55.85585 45.28943
# Shear Modulus (GPa) = 28.48047 36.53035 32.50541
#
# Velocity S-wave (km/s) = 3.46465 3.92385 3.70138
# Velocity P-wave (km/s) = 5.53533 6.63857 6.11189
#
# Compressibility (1/GPa) = 0.02879934
#
# Stress axis : x y z
#
# Youngs Moduli (GPa) = 52.80003 94.37007 57.19009
#
# Poissons Ratio (x) = 0.38428 0.23572
# Poissons Ratio (y) = 0.21501 0.05246
# Poissons Ratio (z) = 0.21763 0.08656
#
# Static dielectric constant tensor:
#      x y z
#    x 4.527170 0.161270 -0.000130 
#    y 0.161270 4.639490 -0.009630 
#    z -0.000130 -0.009630 3.953540 
# 
# 
# High freq. dielectric constant tensor:
#      x y z
#    x 1.952590 0.004880 0.002290 
#    y 0.004880 1.964760 -0.000450 
#    z 0.002290 -0.000450 1.920940 
# 
# From -- ./inp_files/433635.got.cif
#   From: 2010.06.25/outbox.cif.g09.slc.cpg/sg2_217_cif.got.tgz:433635.got - 2010.06.27 13:26:56.
