data_PCOD8006114
_publ_section_title
;
Structure prediction by ZEFSAII (Michael W. Deem and Ramdas Pophale) SiO2 
 PCOD8006114
Probable space group: P -1
;
_chemical_formula_sum "Si O2"
_cell_formula_units_Z 16
_cell_length_a 12.774953
_cell_length_b 8.515647
_cell_length_c 8.885372
_cell_angle_alpha 50.270762
_cell_angle_beta 103.212644
_cell_angle_gamma 83.186693
_cell_volume 676.970625
_symmetry_space_group_name_H-M "P -1"
_symmetry_group_IT_number 2
_symmetry_cell_setting 'triclinic'
loop_
_space_group_symop_operation_xyz
x,y,z
-x,-y,-z
loop_
_atom_site_type_symbol
_atom_site_label
_atom_site_fract_x
_atom_site_fract_y
_atom_site_fract_z
Si Si1 0.841317 0.631187 0.895895
Si Si2 0.746177 0.729882 0.489444
Si Si3 0.489746 0.923168 0.708871
Si Si4 0.399839 0.837498 0.206865
Si Si5 0.658269 0.498716 0.053561
Si Si6 0.995211 0.162039 0.259248
Si Si7 0.787097 0.092020 0.135110
Si Si8 0.621586 0.512161 0.369494
O O1 0.806671 0.589603 0.739156
O O2 0.882740 0.845234 0.770717
O O3 0.728686 0.663831 0.938870
O O4 0.940106 0.418678 0.130344
O O5 0.714555 0.568855 0.466245
O O6 0.637468 0.946591 0.358478
O O7 0.826186 0.847276 0.367021
O O8 0.500000 0.000000 0.500000
O O9 0.578393 0.956178 0.841300
O O10 0.524367 0.657064 0.878283
O O11 0.501776 0.717952 0.194585
O O12 0.406411 0.683907 0.444856
O O13 0.277047 0.907625 0.042525
O O14 0.704894 0.283505 0.099185
O O15 0.675877 0.430702 0.274972
O O16 0.908981 0.123866 0.130041
O O17 0.000000 0.000000 0.500000
#
# Coordination Sequence:
#
# PCOD8006114 Si02
#       8
#     2   2   2   2   2   2   2   2
#     4  10  21  38  64  94 126 156 213 268 312 372
#     4  11  21  39  62  92 126 171 206 249 312 379
#     4  11  23  37  60  90 130 166 202 251 309 371
#     4  10  23  40  58  89 127 172 211 250 303 380
#     4  11  23  37  59  95 128 165 210 258 310 368
#     4  10  20  39  65  94 117 163 215 264 318 374
#     4  11  23  38  66  91 122 164 217 259 314 371
#     4  10  22  38  60  87 129 169 208 249 309 377
#
# _framework density 23.634703999999999
#
# number of rings (size 3 to 8) (size 9 to 14) (size 15 to 20)
#    0.000    1.500    2.500    3.000    5.250    3.000 
#    0.000    0.000    0.000   15.000    0.000    0.000 
#    0.000    0.000    0.000    0.000    0.000    0.000 
#
# Total GULP energy -198232.961943 kJ/mol
# GULP energy per Si atom -12389.560121 kJ/mol
# Density = 2.358091 g / cm^3
# Si number density = 23.634704 Si / 1000 Ang^3
#
#
#
# Elastic Constant Matrix: (Units=GPa)
#
#
# Indices 1 2 3 4 5 6 
#
# 1 16.6140 10.8488 17.2458 15.0059 -3.0281 17.6980
# 2 10.8488 39.3095 31.3508 5.4723 -1.4308 13.6514
# 3 17.2458 31.3508 117.6668 6.0948 -3.8801 3.7813
# 4 15.0059 5.4723 6.0948 42.7078 6.6580 1.9175
# 5 -3.0281 -1.4308 -3.8801 6.6580 38.4945 1.9858
# 6 17.6980 13.6514 3.7813 1.9175 1.9858 31.7701
#
#
#
# Elastic Compliance Matrix: (Units=1/GPa)
#
#
# Indices 1 2 3 4 5 6 
#
# 1 -3.161306 -0.228302 0.394668 1.081204 -0.496102 1.777926
# 2 -0.228302 0.022595 0.018816 0.074869 -0.033993 0.112836
# 3 0.394668 0.018816 -0.038231 -0.135553 0.062640 -0.219124
# 4 1.081204 0.074869 -0.135553 -0.345195 0.165230 -0.607830
# 5 -0.496102 -0.033993 0.062640 0.165230 -0.050849 0.276717
# 6 1.777926 0.112836 -0.219124 -0.607830 0.276717 -0.961956
#
#
# Mechanical properties :
#
#
# Convention : Reuss Voigt Hill
#
# Bulk Modulus (GPa) = -0.35631 32.49790 16.07080
# Shear Modulus (GPa) = -0.85604 30.20416 14.67406
#
# Velocity S-wave (km/s) = -0.60248 3.57873 2.49443
# Velocity P-wave (km/s) = 0.79691 5.55485 3.88724
#
# Compressibility (1/GPa) = -2.80657707
#
# Stress axis : x y z
#
# Youngs Moduli (GPa) = -0.31632 44.25823 -26.15690
#
# Poissons Ratio (x) = 10.10424 10.32330
# Poissons Ratio (y) = -0.07222 0.49217
# Poissons Ratio (z) = 0.12484 -0.83277
#
# Static dielectric constant tensor:
#      x y z
#    x 4.486060 0.326960 -0.045630 
#    y 0.326960 3.949400 -0.125310 
#    z -0.045630 -0.125310 4.270660 
# 
# 
# High freq. dielectric constant tensor:
#      x y z
#    x 1.932060 0.035920 -0.012660 
#    y 0.035920 1.908590 -0.009790 
#    z -0.012660 -0.009790 1.951490 
# 
# From -- ./inp_files/294198.got.cif
#   From: 2010.06.25/outbox.cif.g09.slc.cpg/sg2_148_cif.got.tgz:294198.got - 2010.06.27 13:26:56.
