data_PCOD8006892
_publ_section_title
;
Structure prediction by ZEFSAII (Michael W. Deem and Ramdas Pophale) SiO2 
 PCOD8006892
Probable space group: P -1
;
_chemical_formula_sum "Si O2"
_cell_formula_units_Z 16
_cell_length_a 9.310653
_cell_length_b 8.685946
_cell_length_c 12.169364
_cell_angle_alpha 97.813025
_cell_angle_beta 58.883089
_cell_angle_gamma 114.971994
_cell_volume 759.486166
_symmetry_space_group_name_H-M "P -1"
_symmetry_group_IT_number 2
_symmetry_cell_setting 'triclinic'
loop_
_space_group_symop_operation_xyz
x,y,z
-x,-y,-z
loop_
_atom_site_type_symbol
_atom_site_label
_atom_site_fract_x
_atom_site_fract_y
_atom_site_fract_z
Si Si1 0.125278 0.577421 0.350606
Si Si2 0.904848 0.885464 0.884006
Si Si3 0.393855 0.703408 0.789434
Si Si4 0.254223 0.966156 0.361224
Si Si5 0.102423 0.076264 0.630878
Si Si6 0.389840 0.412618 0.143493
Si Si7 0.063802 0.777548 0.005379
Si Si8 0.849458 0.578826 0.282001
O O1 0.247727 0.778170 0.339304
O O2 0.271555 0.499820 0.259342
O O3 0.000000 0.500000 0.500000
O O4 0.992841 0.536880 0.293869
O O5 0.742256 0.778291 0.856266
O O6 0.845488 0.021142 0.981584
O O7 0.086429 0.990909 0.748689
O O8 0.944318 0.759784 0.940369
O O9 0.466884 0.591959 0.824121
O O10 0.327719 0.597853 0.690440
O O11 0.542959 0.895723 0.733536
O O12 0.220393 0.712300 0.918455
O O13 0.103703 0.980647 0.340620
O O14 0.218113 0.005536 0.503663
O O15 0.204153 0.283306 0.618423
O O16 0.500000 0.500000 0.000000
O O17 0.937774 0.661097 0.139259
#
# Coordination Sequence:
#
# PCOD8006892 Si02
#       8
#     2   2   2   2   2   2   2   2
#     4  11  25  46  69  91 129 181 220 256 327 409
#     4  10  20  40  65  90 125 176 214 256 319 398
#     4  12  24  39  65 100 132 161 217 276 324 371
#     4  10  22  40  66  94 127 166 218 268 317 384
#     4   9  19  41  65  88 124 175 216 251 327 393
#     4  12  25  39  65  98 134 165 219 276 322 373
#     4  10  22  39  65  93 132 170 212 260 330 393
#     4  10  22  42  66  91 128 174 208 262 328 395
#
# _framework density 21.066873999999999
#
# number of rings (size 3 to 8) (size 9 to 14) (size 15 to 20)
#    0.000    1.500    1.250    3.375    5.250    1.000 
#    0.000    1.250    0.000    0.000    0.000    0.000 
#    0.000    0.000    0.000    0.000    0.000    0.000 
#
# Total GULP energy -198385.859846 kJ/mol
# GULP energy per Si atom -12399.116240 kJ/mol
# Density = 2.101892 g / cm^3
# Si number density = 21.066874 Si / 1000 Ang^3
#
#
#
# Elastic Constant Matrix: (Units=GPa)
#
#
# Indices 1 2 3 4 5 6 
#
# 1 106.9098 45.7441 33.9717 13.1482 8.6859 -10.3771
# 2 45.7441 124.2862 27.9297 9.2270 0.6112 17.4406
# 3 33.9717 27.9297 87.6993 8.1881 9.4939 -4.5823
# 4 13.1482 9.2270 8.1881 39.8081 -5.0408 3.7694
# 5 8.6859 0.6112 9.4939 -5.0408 28.6038 -3.1211
# 6 -10.3771 17.4406 -4.5823 3.7694 -3.1211 30.9452
#
#
#
# Elastic Compliance Matrix: (Units=1/GPa)
#
#
# Indices 1 2 3 4 5 6 
#
# 1 0.013887 -0.005254 -0.002615 -0.003926 -0.003122 0.007394
# 2 -0.005254 0.011665 -0.002311 0.000482 0.001259 -0.008610
# 3 -0.002615 -0.002311 0.013900 -0.002176 -0.003896 0.002356
# 4 -0.003926 0.000482 -0.002176 0.027998 0.006327 -0.004682
# 5 -0.003122 0.001259 -0.003896 0.006327 0.038373 0.000766
# 6 0.007394 -0.008610 0.002356 -0.004682 0.000766 0.040644
#
#
# Mechanical properties :
#
#
# Convention : Reuss Voigt Hill
#
# Bulk Modulus (GPa) = 52.37922 59.35402 55.86662
# Shear Modulus (GPa) = 28.86966 33.95474 31.41220
#
# Velocity S-wave (km/s) = 3.70588 4.01903 3.86563
# Velocity P-wave (km/s) = 6.57485 7.05493 6.81912
#
# Compressibility (1/GPa) = 0.01909154
#
# Stress axis : x y z
#
# Youngs Moduli (GPa) = 72.00927 85.72314 71.94440
#
# Poissons Ratio (x) = 0.45042 0.18814
# Poissons Ratio (y) = 0.37836 0.16626
# Poissons Ratio (z) = 0.18831 0.19810
#
# Static dielectric constant tensor:
#      x y z
#    x 3.724500 -0.068280 0.277600 
#    y -0.068280 4.635360 -0.105560 
#    z 0.277600 -0.105560 3.951570 
# 
# 
# High freq. dielectric constant tensor:
#      x y z
#    x 1.812080 -0.002330 0.016090 
#    y -0.002330 1.843990 0.009530 
#    z 0.016090 0.009530 1.826370 
# 
# From -- ./inp_files/224340.got.cif
#   From: 2010.06.25/outbox.cif.g09.slc.cpg/sg2_113_cif.got.tgz:224340.got - 2010.06.27 13:26:56.
