data_PCOD8006995
_publ_section_title
;
Structure prediction by ZEFSAII (Michael W. Deem and Ramdas Pophale) SiO2 
 PCOD8006995
Probable space group: P -1
;
_chemical_formula_sum "Si O2"
_cell_formula_units_Z 12
_cell_length_a 7.653458
_cell_length_b 9.795760
_cell_length_c 16.859686
_cell_angle_alpha 33.264796
_cell_angle_beta 49.198120
_cell_angle_gamma 51.843598
_cell_volume 516.993712
_symmetry_space_group_name_H-M "P -1"
_symmetry_group_IT_number 2
_symmetry_cell_setting 'triclinic'
loop_
_space_group_symop_operation_xyz
x,y,z
-x,-y,-z
loop_
_atom_site_type_symbol
_atom_site_label
_atom_site_fract_x
_atom_site_fract_y
_atom_site_fract_z
Si Si1 0.379247 0.219276 0.858215
Si Si2 0.844284 0.935840 0.857365
Si Si3 0.785599 0.963040 0.680374
Si Si4 0.666459 0.218200 0.150617
Si Si5 0.086005 0.592039 0.654570
Si Si6 0.680319 0.331001 0.916396
O O1 0.660242 0.199419 0.800765
O O2 0.308331 0.415072 0.714085
O O3 0.233061 0.275132 0.956580
O O4 0.351682 0.938224 0.974689
O O5 0.808909 0.863219 0.811952
O O6 0.115753 0.951207 0.785784
O O7 0.827708 0.253205 0.519411
O O8 0.526969 0.955257 0.727059
O O9 0.981314 0.786230 0.658960
O O10 0.554932 0.456491 0.123189
O O11 0.758731 0.318492 0.992080
O O12 0.897039 0.424632 0.761223
#
# Coordination Sequence:
#
# PCOD8006995 Si02
#       6
#     2   2   2   2   2   2
#     4  11  23  38  62  98 127 160 206 262 311 359
#     4  11  24  39  64  96 125 163 210 258 305 367
#     4  10  23  45  65  90 126 167 209 250 312 374
#     4  10  21  41  67  90 121 168 210 254 303 367
#     4  10  22  42  68  89 127 170 199 257 319 364
#     4  10  20  40  66  91 121 167 207 253 309 366
#
# _framework density 23.211114999999999
#
# number of rings (size 3 to 8) (size 9 to 14) (size 15 to 20)
#    0.000    1.667    3.333    0.500    0.000    4.667 
#    0.000   12.500    0.000    0.000    0.000    0.000 
#    0.000    0.000    0.000    0.000    0.000    0.000 
#
# Total GULP energy -148692.782934 kJ/mol
# GULP energy per Si atom -12391.065245 kJ/mol
# Density = 2.315829 g / cm^3
# Si number density = 23.211115 Si / 1000 Ang^3
#
#
#
# Elastic Constant Matrix: (Units=GPa)
#
#
# Indices 1 2 3 4 5 6 
#
# 1 147.7818 58.1294 40.0311 -10.9454 4.9627 -37.2954
# 2 58.1294 57.6592 41.8605 0.6192 5.5787 -21.1851
# 3 40.0311 41.8605 95.0001 -11.7508 -8.7183 -6.7357
# 4 -10.9454 0.6192 -11.7508 25.5279 3.9307 8.2492
# 5 4.9627 5.5787 -8.7183 3.9307 30.4011 -0.0429
# 6 -37.2954 -21.1851 -6.7357 8.2492 -0.0429 38.4975
#
#
#
# Elastic Compliance Matrix: (Units=1/GPa)
#
#
# Indices 1 2 3 4 5 6 
#
# 1 0.012728 -0.011190 0.000433 0.004274 -0.000445 0.005332
# 2 -0.011190 0.050655 -0.019697 -0.019174 -0.010613 0.017685
# 3 0.000433 -0.019697 0.020559 0.011942 0.007882 -0.009373
# 4 0.004274 -0.019174 0.011942 0.052046 -0.000505 -0.015475
# 5 -0.000445 -0.010613 0.007882 -0.000505 0.037233 -0.004743
# 6 0.005332 0.017685 -0.009373 -0.015475 -0.004743 0.042544
#
#
# Mechanical properties :
#
#
# Convention : Reuss Voigt Hill
#
# Bulk Modulus (GPa) = 43.41298 64.49813 53.95555
# Shear Modulus (GPa) = 17.58389 29.57998 23.58194
#
# Velocity S-wave (km/s) = 2.75537 3.57373 3.19090
# Velocity P-wave (km/s) = 5.37279 6.69900 6.07221
#
# Compressibility (1/GPa) = 0.02303459
#
# Stress axis : x y z
#
# Youngs Moduli (GPa) = 78.56596 19.74132 48.64062
#
# Poissons Ratio (x) = 0.22091 -0.02107
# Poissons Ratio (y) = 0.87915 0.95807
# Poissons Ratio (z) = -0.03403 0.38884
#
# Static dielectric constant tensor:
#      x y z
#    x 4.147500 -0.278630 0.039210 
#    y -0.278630 4.424160 0.263150 
#    z 0.039210 0.263150 4.378730 
# 
# 
# High freq. dielectric constant tensor:
#      x y z
#    x 1.914820 -0.016700 0.004270 
#    y -0.016700 1.920150 0.013390 
#    z 0.004270 0.013390 1.890020 
# 
# From -- ./inp_files/196252.got.cif
#   From: 2010.06.25/outbox.cif.g09.slc.cpg/sg2_99_cif.got.tgz:196252.got - 2010.06.27 13:26:56.
