data_PCOD8006081
_publ_section_title
;
Structure prediction by ZEFSAII (Michael W. Deem and Ramdas Pophale) SiO2 
 PCOD8006081
Probable space group: P -1
;
_chemical_formula_sum "Si O2"
_cell_formula_units_Z 16
_cell_length_a 13.717557
_cell_length_b 5.170536
_cell_length_c 14.782689
_cell_angle_alpha 114.828328
_cell_angle_beta 127.179245
_cell_angle_gamma 52.913478
_cell_volume 663.864502
_symmetry_space_group_name_H-M "P -1"
_symmetry_group_IT_number 2
_symmetry_cell_setting 'triclinic'
loop_
_space_group_symop_operation_xyz
x,y,z
-x,-y,-z
loop_
_atom_site_type_symbol
_atom_site_label
_atom_site_fract_x
_atom_site_fract_y
_atom_site_fract_z
Si Si1 0.409339 0.827000 0.944288
Si Si2 0.773214 0.203403 0.539667
Si Si3 0.507424 0.705464 0.407222
Si Si4 0.389463 0.355596 0.739740
Si Si5 0.697637 0.887033 0.899744
Si Si6 0.225643 0.830712 0.182228
Si Si7 0.118403 0.294041 0.608188
Si Si8 0.901925 0.654569 0.677823
O O1 0.365366 0.713086 0.811137
O O2 0.500000 0.500000 0.000000
O O3 0.500000 0.000000 0.000000
O O4 0.280785 0.052803 0.973303
O O5 0.603677 0.377160 0.470436
O O6 0.821513 0.461555 0.636831
O O7 0.831098 0.076890 0.450905
O O8 0.820615 0.901905 0.588140
O O9 0.597689 0.664445 0.362628
O O10 0.356619 0.750511 0.308455
O O11 0.500000 0.000000 0.500000
O O12 0.252021 0.346979 0.692202
O O13 0.529945 0.046382 0.813904
O O14 0.784553 0.498788 0.874984
O O15 0.757986 0.063467 0.893780
O O16 0.093111 0.131294 0.202035
O O17 0.000000 0.500000 0.500000
O O18 0.054947 0.385903 0.687991
#
# Coordination Sequence:
#
# PCOD8006081 Si02
#       8
#     2   2   2   2   2   2   2   2
#     4  10  20  39  65  91 119 150 197 258 318 362
#     4  11  22  39  55  82 117 166 213 248 291 341
#     4  11  21  34  56  86 124 155 192 247 301 367
#     4  10  22  39  61  92 121 160 204 247 310 362
#     4  10  21  39  61  89 117 148 196 264 312 363
#     4  11  22  36  57  87 119 156 198 239 317 362
#     4  10  22  39  59  83 124 168 214 247 282 350
#     4  11  23  38  57  81 117 168 208 247 288 354
#
# _framework density 24.101303000000001
#
# number of rings (size 3 to 8) (size 9 to 14) (size 15 to 20)
#    0.000    1.500    1.250    5.625    1.750    3.500 
#    0.000    0.000    0.000    1.500    0.000    0.000 
#    0.000    0.000    0.000    0.000    0.000    0.000 
#
# Total GULP energy -198263.286864 kJ/mol
# GULP energy per Si atom -12391.455429 kJ/mol
# Density = 2.404645 g / cm^3
# Si number density = 24.101303 Si / 1000 Ang^3
#
#
#
# Elastic Constant Matrix: (Units=GPa)
#
#
# Indices 1 2 3 4 5 6 
#
# 1 61.5479 10.6016 13.1719 4.8235 -5.0169 -4.0488
# 2 10.6016 98.6353 25.2104 38.1785 -2.7000 4.7716
# 3 13.1719 25.2104 87.1986 41.5369 -20.2009 -3.9754
# 4 4.8235 38.1785 41.5369 42.4446 -8.8246 -6.1565
# 5 -5.0169 -2.7000 -20.2009 -8.8246 26.1410 14.1662
# 6 -4.0488 4.7716 -3.9754 -6.1565 14.1662 44.8538
#
#
#
# Elastic Compliance Matrix: (Units=1/GPa)
#
#
# Indices 1 2 3 4 5 6 
#
# 1 0.017355 -0.002777 -0.003813 0.004669 0.000604 0.001974
# 2 -0.002777 0.017576 0.005551 -0.021430 0.000983 -0.004880
# 3 -0.003813 0.005551 0.027744 -0.029602 0.015279 -0.007364
# 4 0.004669 -0.021430 -0.029602 0.071661 -0.006483 0.011961
# 5 0.000604 0.000983 0.015279 -0.006483 0.057749 -0.017825
# 6 0.001974 -0.004880 -0.007364 0.011961 -0.017825 0.029611
#
#
# Mechanical properties :
#
#
# Convention : Reuss Voigt Hill
#
# Bulk Modulus (GPa) = 16.50239 38.37219 27.43729
# Shear Modulus (GPa) = 20.49418 35.91439 28.20428
#
# Velocity S-wave (km/s) = 2.91921 3.86442 3.42459
# Velocity P-wave (km/s) = 4.26900 5.98895 5.20057
#
# Compressibility (1/GPa) = 0.06059729
#
# Stress axis : x y z
#
# Youngs Moduli (GPa) = 57.62023 56.89696 36.04413
#
# Poissons Ratio (x) = 0.15800 0.13743
# Poissons Ratio (y) = 0.16001 -0.20009
# Poissons Ratio (z) = 0.21969 -0.31584
#
# Static dielectric constant tensor:
#      x y z
#    x 3.412070 -0.735180 -4.887930 
#    y -0.735180 4.724130 -0.454630 
#    z -4.887930 -0.454630 -14.215260 
# 
# 
# High freq. dielectric constant tensor:
#      x y z
#    x 1.943250 -0.004210 -0.031990 
#    y -0.004210 1.966410 0.034120 
#    z -0.031990 0.034120 1.941340 
# 
# From -- ./inp_files/526006.got.cif
#   From: 2010.06.25/outbox.cif.g09.slc.cpg/sg2_264_cif.got.tgz:526006.got - 2010.06.27 13:26:56.
