data_PCOD8006261
_publ_section_title
;
Structure prediction by ZEFSAII (Michael W. Deem and Ramdas Pophale) SiO2 
 PCOD8006261
Probable space group: P -1
;
_chemical_formula_sum "Si O2"
_cell_formula_units_Z 14
_cell_length_a 20.809338
_cell_length_b 11.765758
_cell_length_c 15.426801
_cell_angle_alpha 139.560886
_cell_angle_beta 159.994876
_cell_angle_gamma 29.885846
_cell_volume 611.173418
_symmetry_space_group_name_H-M "P -1"
_symmetry_group_IT_number 2
_symmetry_cell_setting 'triclinic'
loop_
_space_group_symop_operation_xyz
x,y,z
-x,-y,-z
loop_
_atom_site_type_symbol
_atom_site_label
_atom_site_fract_x
_atom_site_fract_y
_atom_site_fract_z
Si Si1 0.892424 0.294264 0.814213
Si Si2 0.726610 0.718431 0.609159
Si Si3 0.038489 0.678106 0.648029
Si Si4 0.922507 0.786131 0.747815
Si Si5 0.629658 0.377806 0.258796
Si Si6 0.329683 0.715449 0.302053
Si Si7 0.978573 0.969182 0.594827
O O1 0.635048 0.533851 0.583787
O O2 0.804809 0.217990 0.735171
O O3 0.050579 0.081657 0.818698
O O4 0.051268 0.360893 0.088344
O O5 0.821498 0.678003 0.605740
O O6 0.666083 0.551615 0.443937
O O7 0.500000 0.000000 0.500000
O O8 0.000000 0.500000 0.500000
O O9 0.867601 0.837253 0.606576
O O10 0.915745 0.839810 0.499733
O O11 0.334879 0.541434 0.955773
O O12 0.762479 0.056039 0.736920
O O13 0.228243 0.614311 0.057972
O O14 0.784509 0.233578 0.283818
O O15 0.728758 0.180714 0.344241
#
# Coordination Sequence:
#
# PCOD8006261 Si02
#       7
#     2   2   2   2   2   2   2
#     4  10  20  39  67 101 131 173 228 276 332 402
#     4  11  25  43  68 100 141 185 221 277 349 407
#     4  12  25  45  72  98 129 182 235 281 338 409
#     4  10  21  40  66  98 130 175 223 275 340 387
#     4  11  27  48  66  98 148 178 224 287 343 411
#     4   9  19  37  66  97 133 166 219 287 327 388
#     4  11  24  46  71 100 136 186 221 281 347 406
#
# _framework density 22.906756000000001
#
# number of rings (size 3 to 8) (size 9 to 14) (size 15 to 20)
#    0.000    1.429    1.429    3.000    6.000    2.286 
#    7.714    0.000    0.000    0.000    0.000    0.000 
#    0.000    0.000    0.000    0.000    0.000    0.000 
#
# Total GULP energy -173437.636693 kJ/mol
# GULP energy per Si atom -12388.402621 kJ/mol
# Density = 2.285462 g / cm^3
# Si number density = 22.906756 Si / 1000 Ang^3
#
#
#
# Elastic Constant Matrix: (Units=GPa)
#
#
# Indices 1 2 3 4 5 6 
#
# 1 119.4872 43.9009 29.1862 5.7235 -23.8541 9.5583
# 2 43.9009 110.9266 58.0177 9.1014 -0.7560 8.4085
# 3 29.1862 58.0177 106.0957 5.4899 9.1483 15.7855
# 4 5.7235 9.1014 5.4899 34.7733 3.7916 -4.5383
# 5 -23.8541 -0.7560 9.1483 3.7916 26.4912 1.9196
# 6 9.5583 8.4085 15.7855 -4.5383 1.9196 49.8707
#
#
#
# Elastic Compliance Matrix: (Units=1/GPa)
#
#
# Indices 1 2 3 4 5 6 
#
# 1 0.013118 -0.003489 -0.002412 -0.002535 0.013045 -0.001895
# 2 -0.003489 0.013998 -0.006609 -0.001996 -0.000191 0.000226
# 3 -0.002412 -0.006609 0.014733 0.000231 -0.007280 -0.002786
# 4 -0.002535 -0.001996 0.000231 0.030939 -0.007126 0.003839
# 5 0.013045 -0.000191 -0.007280 -0.007126 0.053231 -0.002861
# 6 -0.001895 0.000226 -0.002786 0.003839 -0.002861 0.021718
#
#
# Mechanical properties :
#
#
# Convention : Reuss Voigt Hill
#
# Bulk Modulus (GPa) = 59.42379 66.52433 62.97406
# Shear Modulus (GPa) = 28.03228 35.92069 31.97648
#
# Velocity S-wave (km/s) = 3.50202 3.96425 3.74028
# Velocity P-wave (km/s) = 6.50769 7.07518 6.79736
#
# Compressibility (1/GPa) = 0.01682828
#
# Stress axis : x y z
#
# Youngs Moduli (GPa) = 76.23288 71.44045 67.87446
#
# Poissons Ratio (x) = 0.24928 0.16373
# Poissons Ratio (y) = 0.26600 0.44855
# Poissons Ratio (z) = 0.18389 0.47212
#
# Static dielectric constant tensor:
#      x y z
#    x 4.404850 0.063630 -0.198740 
#    y 0.063630 4.018410 -0.045100 
#    z -0.198740 -0.045100 4.181670 
# 
# 
# High freq. dielectric constant tensor:
#      x y z
#    x 1.927450 0.001050 -0.014260 
#    y 0.001050 1.903210 -0.005290 
#    z -0.014260 -0.005290 1.886640 
# 
# From -- ./inp_files/524142.got.cif
#   From: 2010.06.25/outbox.cif.g09.slc.cpg/sg2_263_cif.got.tgz:524142.got - 2010.06.27 13:26:56.
