data_PCOD8006419
_publ_section_title
;
Structure prediction by ZEFSAII (Michael W. Deem and Ramdas Pophale) SiO2 
 PCOD8006419
Probable space group: P -1
;
_chemical_formula_sum "Si O2"
_cell_formula_units_Z 16
_cell_length_a 11.979758
_cell_length_b 9.275639
_cell_length_c 19.915311
_cell_angle_alpha 147.465313
_cell_angle_beta 140.411561
_cell_angle_gamma 49.184112
_cell_volume 758.406162
_symmetry_space_group_name_H-M "P -1"
_symmetry_group_IT_number 2
_symmetry_cell_setting 'triclinic'
loop_
_space_group_symop_operation_xyz
x,y,z
-x,-y,-z
loop_
_atom_site_type_symbol
_atom_site_label
_atom_site_fract_x
_atom_site_fract_y
_atom_site_fract_z
Si Si1 0.616072 0.724900 0.608650
Si Si2 0.498984 0.946946 0.138211
Si Si3 0.191280 0.901813 0.066632
Si Si4 0.209436 0.758204 0.533221
Si Si5 0.917815 0.039000 0.586504
Si Si6 0.566775 0.861630 0.408514
Si Si7 0.424192 0.265047 0.104902
Si Si8 0.794404 0.644313 0.077196
O O1 0.500000 0.500000 0.500000
O O2 0.743492 0.552978 0.550654
O O3 0.726526 0.831873 0.762816
O O4 0.520936 0.972237 0.626803
O O5 0.625936 0.053239 0.298034
O O6 0.423031 0.195720 0.155954
O O7 0.322835 0.805708 0.029471
O O8 0.612810 0.736074 0.065003
O O9 0.178209 0.669668 0.023898
O O10 0.000000 0.000000 0.000000
O O11 0.167420 0.790142 0.446774
O O12 0.040884 0.812880 0.521851
O O13 0.034270 0.214903 0.759681
O O14 0.775116 0.896606 0.511021
O O15 0.529472 0.545401 0.258339
O O16 0.500000 0.000000 0.500000
O O17 0.233920 0.309328 0.998156
O O18 0.500000 0.000000 0.000000
#
# Coordination Sequence:
#
# PCOD8006419 Si02
#       8
#     2   2   2   2   2   2   2   2
#     4  12  22  41  64  93 134 168 215 279 335 396
#     4  10  21  42  67  89 128 178 220 270 328 395
#     4  12  24  38  62  98 131 165 219 274 335 393
#     4  10  20  39  69  95 131 168 221 278 332 383
#     4  10  22  42  68 100 132 170 227 281 328 406
#     4  12  25  43  72  99 132 181 227 271 342 406
#     4  10  23  46  66  95 135 182 223 271 335 408
#     4  10  22  43  66  94 131 171 222 275 337 397
#
# _framework density 21.096875000000001
#
# number of rings (size 3 to 8) (size 9 to 14) (size 15 to 20)
#    0.000    1.250    3.750    1.875    0.000    0.000 
#   13.500   10.000    0.000    0.000    0.000    0.000 
#    0.000    0.000    0.000    0.000    0.000    0.000 
#
# Total GULP energy -198211.655008 kJ/mol
# GULP energy per Si atom -12388.228438 kJ/mol
# Density = 2.104886 g / cm^3
# Si number density = 21.096875 Si / 1000 Ang^3
#
#
#
# Elastic Constant Matrix: (Units=GPa)
#
#
# Indices 1 2 3 4 5 6 
#
# 1 86.0653 30.0312 41.7267 -8.9720 14.0619 -10.4959
# 2 30.0312 138.5084 56.6134 -6.5846 9.4390 3.9859
# 3 41.7267 56.6134 132.0010 -3.7627 3.4661 1.3058
# 4 -8.9720 -6.5846 -3.7627 50.6603 -3.2836 -5.2832
# 5 14.0619 9.4390 3.4661 -3.2836 24.7117 -2.0159
# 6 -10.4959 3.9859 1.3058 -5.2832 -2.0159 34.8242
#
#
#
# Elastic Compliance Matrix: (Units=1/GPa)
#
#
# Indices 1 2 3 4 5 6 
#
# 1 0.016287 -0.001262 -0.004394 0.002451 -0.007423 0.005160
# 2 -0.001262 0.009110 -0.003422 0.000412 -0.002339 -0.001367
# 3 -0.004394 -0.003422 0.010375 -0.000442 0.002190 -0.001262
# 4 0.002451 0.000412 -0.000442 0.020708 0.001583 0.003941
# 5 -0.007423 -0.002339 0.002190 0.001583 0.045554 0.000825
# 6 0.005160 -0.001367 -0.001262 0.003941 0.000825 0.031120
#
#
# Mechanical properties :
#
#
# Convention : Reuss Voigt Hill
#
# Bulk Modulus (GPa) = 56.76078 68.14639 62.45359
# Shear Modulus (GPa) = 31.81038 37.25279 34.53159
#
# Velocity S-wave (km/s) = 3.88728 4.20670 4.05014
# Velocity P-wave (km/s) = 6.86376 7.48110 7.17907
#
# Compressibility (1/GPa) = 0.01761780
#
# Stress axis : x y z
#
# Youngs Moduli (GPa) = 61.39808 109.76650 96.39012
#
# Poissons Ratio (x) = 0.13848 0.42351
# Poissons Ratio (y) = 0.07746 0.32982
# Poissons Ratio (z) = 0.26976 0.37560
#
# Static dielectric constant tensor:
#      x y z
#    x 3.937110 -0.186540 -0.223380 
#    y -0.186540 4.546020 -0.039840 
#    z -0.223380 -0.039840 3.832900 
# 
# 
# High freq. dielectric constant tensor:
#      x y z
#    x 1.808170 -0.007770 -0.012010 
#    y -0.007770 1.846120 -0.005390 
#    z -0.012010 -0.005390 1.831650 
# 
# From -- ./inp_files/208673.got.cif
#   From: 2010.06.25/outbox.cif.g09.slc.cpg/sg2_105_cif.got.tgz:208673.got - 2010.06.27 13:26:56.
