data_PCOD8006816
_publ_section_title
;
Structure prediction by ZEFSAII (Michael W. Deem and Ramdas Pophale) SiO2 
 PCOD8006816
Probable space group: P -1
;
_chemical_formula_sum "Si O2"
_cell_formula_units_Z 16
_cell_length_a 16.772557
_cell_length_b 11.950931
_cell_length_c 10.700553
_cell_angle_alpha 56.677037
_cell_angle_beta 148.007505
_cell_angle_gamma 103.854831
_cell_volume 815.912167
_symmetry_space_group_name_H-M "P -1"
_symmetry_group_IT_number 2
_symmetry_cell_setting 'triclinic'
loop_
_space_group_symop_operation_xyz
x,y,z
-x,-y,-z
loop_
_atom_site_type_symbol
_atom_site_label
_atom_site_fract_x
_atom_site_fract_y
_atom_site_fract_z
Si Si1 0.096725 0.713619 0.573615
Si Si2 0.702990 0.882443 0.324151
Si Si3 0.296884 0.550025 0.690432
Si Si4 0.752765 0.353509 0.702172
Si Si5 0.592559 0.527219 0.719883
Si Si6 0.190007 0.415366 0.193638
Si Si7 0.976065 0.974216 0.627201
Si Si8 0.143996 0.350782 0.542697
O O1 0.174243 0.647970 0.581535
O O2 0.951903 0.671602 0.451127
O O3 0.014079 0.899001 0.350981
O O4 0.254824 0.640607 0.927594
O O5 0.780786 0.744892 0.614522
O O6 0.791383 0.986045 0.397366
O O7 0.744551 0.811590 0.283254
O O8 0.500000 0.000000 0.000000
O O9 0.205333 0.658013 0.381499
O O10 0.281735 0.396413 0.750109
O O11 0.500000 0.500000 0.000000
O O12 0.553237 0.386011 0.421201
O O13 0.768907 0.491606 0.703592
O O14 0.872085 0.195497 0.029389
O O15 0.500000 0.500000 0.500000
O O16 0.678749 0.626440 0.724700
O O17 0.991785 0.520870 0.815818
O O18 0.000000 0.000000 0.500000
#
# Coordination Sequence:
#
# PCOD8006816 Si02
#       8
#     2   2   2   2   2   2   2   2
#     4  11  24  42  63  96 131 172 214 260 323 389
#     4  12  25  35  63 100 130 161 201 278 335 371
#     4  12  25  41  68  93 129 176 225 261 303 396
#     4  11  21  39  67  92 130 171 215 266 323 376
#     4   9  19  34  64  91 122 163 210 271 312 369
#     4  10  20  40  64  93 125 164 224 264 323 376
#     4  12  24  41  66  99 133 161 212 272 340 378
#     4  11  22  45  67  92 128 173 217 265 321 381
#
# _framework density 19.609953999999998
#
# number of rings (size 3 to 8) (size 9 to 14) (size 15 to 20)
#    0.000    1.000    5.000    3.000    7.000    0.500 
#    0.000    0.000    0.000    0.750    0.000    0.000 
#    0.000    0.000    0.000    0.000    0.000    0.000 
#
# Total GULP energy -198361.261665 kJ/mol
# GULP energy per Si atom -12397.578854 kJ/mol
# Density = 1.956532 g / cm^3
# Si number density = 19.609954 Si / 1000 Ang^3
#
#
#
# Elastic Constant Matrix: (Units=GPa)
#
#
# Indices 1 2 3 4 5 6 
#
# 1 144.3172 48.5297 42.1574 -4.8039 7.0532 6.8247
# 2 48.5297 97.2553 35.1755 5.3751 2.0325 12.2072
# 3 42.1574 35.1755 77.6539 0.0382 9.9364 15.9117
# 4 -4.8039 5.3751 0.0382 27.8590 6.6807 2.7244
# 5 7.0532 2.0325 9.9364 6.6807 37.5662 2.4533
# 6 6.8247 12.2072 15.9117 2.7244 2.4533 35.6019
#
#
#
# Elastic Compliance Matrix: (Units=1/GPa)
#
#
# Indices 1 2 3 4 5 6 
#
# 1 0.009233 -0.003593 -0.003422 0.002475 -0.001132 0.000880
# 2 -0.003593 0.014014 -0.004196 -0.003543 0.001793 -0.002093
# 3 -0.003422 -0.004196 0.018358 0.001714 -0.003901 -0.005973
# 4 0.002475 -0.003543 0.001714 0.039048 -0.007508 -0.002496
# 5 -0.001132 0.001793 -0.003901 -0.007508 0.029108 -0.000086
# 6 0.000880 -0.002093 -0.005973 -0.002496 -0.000086 0.031504
#
#
# Mechanical properties :
#
#
# Convention : Reuss Voigt Hill
#
# Bulk Modulus (GPa) = 52.12853 63.43907 57.78380
# Shear Modulus (GPa) = 29.39787 33.09633 31.24710
#
# Velocity S-wave (km/s) = 3.87606 4.11266 3.99611
# Velocity P-wave (km/s) = 6.83170 7.41435 7.12898
#
# Compressibility (1/GPa) = 0.01918335
#
# Stress axis : x y z
#
# Youngs Moduli (GPa) = 108.30586 71.35731 54.47222
#
# Poissons Ratio (x) = 0.25641 0.18638
# Poissons Ratio (y) = 0.38918 0.22856
# Poissons Ratio (z) = 0.37057 0.29941
#
# Static dielectric constant tensor:
#      x y z
#    x 4.528450 0.225880 0.478460 
#    y 0.225880 3.637030 0.039670 
#    z 0.478460 0.039670 3.730560 
# 
# 
# High freq. dielectric constant tensor:
#      x y z
#    x 1.790660 0.021890 0.009180 
#    y 0.021890 1.746440 0.008380 
#    z 0.009180 0.008380 1.752110 
# 
# From -- ./inp_files/259112.got.cif
#   From: 2010.06.25/outbox.cif.g09.slc.cpg/sg2_130_cif.got.tgz:259112.got - 2010.06.27 13:26:56.
