data_PCOD8006251
_publ_section_title
;
Structure prediction by ZEFSAII (Michael W. Deem and Ramdas Pophale) SiO2 
 PCOD8006251
Probable space group: P -1
;
_chemical_formula_sum "Si O2"
_cell_formula_units_Z 14
_cell_length_a 14.507993
_cell_length_b 14.791358
_cell_length_c 9.123063
_cell_angle_alpha 40.209052
_cell_angle_beta 141.077323
_cell_angle_gamma 152.963235
_cell_volume 541.694006
_symmetry_space_group_name_H-M "P -1"
_symmetry_group_IT_number 2
_symmetry_cell_setting 'triclinic'
loop_
_space_group_symop_operation_xyz
x,y,z
-x,-y,-z
loop_
_atom_site_type_symbol
_atom_site_label
_atom_site_fract_x
_atom_site_fract_y
_atom_site_fract_z
Si Si1 0.963669 0.110882 0.009904
Si Si2 0.492853 0.856467 0.761148
Si Si3 0.349705 0.565288 0.385102
Si Si4 0.899878 0.089344 0.642117
Si Si5 0.458824 0.631771 0.755308
Si Si6 0.306347 0.810676 0.892808
Si Si7 0.210538 0.226345 0.429866
O O1 0.009802 0.215630 0.777638
O O2 0.733320 0.985328 0.947321
O O3 0.149580 0.281879 0.144397
O O4 0.957978 0.936578 0.212652
O O5 0.373213 0.651050 0.771595
O O6 0.369145 0.799373 0.825963
O O7 0.500000 0.000000 0.500000
O O8 0.303543 0.528696 0.548382
O O9 0.278492 0.369775 0.470531
O O10 0.604166 0.753174 0.421431
O O11 0.216793 0.608458 0.111868
O O12 0.871886 0.192381 0.356512
O O13 0.671043 0.867252 0.683706
O O14 0.500000 0.500000 0.000000
O O15 0.500000 0.000000 0.000000
O O16 0.000000 0.000000 0.500000
#
# Coordination Sequence:
#
# PCOD8006251 Si02
#       7
#     2   2   2   2   2   2   2
#     4  10  20  39  66  98 140 176 247 284 361 431
#     4  11  22  40  71 107 136 196 244 294 375 436
#     4  11  25  43  70 106 144 191 245 302 371 439
#     4  10  21  39  67 102 137 194 229 302 369 428
#     4  11  23  41  68 107 144 188 250 296 358 445
#     4  12  21  42  71 104 147 189 245 304 371 441
#     4  11  24  42  69 104 143 191 243 307 367 434
#
# _framework density 25.844850000000001
#
# number of rings (size 3 to 8) (size 9 to 14) (size 15 to 20)
#    0.000    1.143    5.714    0.857    8.000    0.000 
#    0.000    0.714    9.429    6.857    0.000    0.000 
#    0.000    0.000    0.000    0.000    0.000    0.000 
#
# Total GULP energy -173501.274720 kJ/mol
# GULP energy per Si atom -12392.948194 kJ/mol
# Density = 2.578603 g / cm^3
# Si number density = 25.844850 Si / 1000 Ang^3
#
#
#
# Elastic Constant Matrix: (Units=GPa)
#
#
# Indices 1 2 3 4 5 6 
#
# 1 99.2836 16.6154 32.6286 3.7383 -7.3343 -37.3953
# 2 16.6154 37.5714 21.4222 14.4232 -8.3677 -25.0326
# 3 32.6286 21.4222 202.0384 2.5281 -4.7802 -14.2107
# 4 3.7383 14.4232 2.5281 43.9689 -3.2218 -3.1064
# 5 -7.3343 -8.3677 -4.7802 -3.2218 53.1144 11.9025
# 6 -37.3953 -25.0326 -14.2107 -3.1064 11.9025 44.5332
#
#
#
# Elastic Compliance Matrix: (Units=1/GPa)
#
#
# Indices 1 2 3 4 5 6 
#
# 1 0.015721 0.005008 -0.001978 -0.001831 -0.000796 0.015470
# 2 0.005008 0.054350 -0.004096 -0.015694 0.000727 0.032161
# 3 -0.001978 -0.004096 0.005542 0.001050 0.000127 -0.002156
# 4 -0.001831 -0.015694 0.001050 0.027463 0.000906 -0.008351
# 5 -0.000796 0.000727 0.000127 0.000906 0.020139 -0.005539
# 6 0.015470 0.032161 -0.002156 -0.008351 -0.005539 0.053734
#
#
# Mechanical properties :
#
#
# Convention : Reuss Voigt Hill
#
# Bulk Modulus (GPa) = 13.60874 53.35844 33.48359
# Shear Modulus (GPa) = 24.56105 46.20511 35.38308
#
# Velocity S-wave (km/s) = 3.08608 4.23281 3.70409
# Velocity P-wave (km/s) = 4.23975 6.67678 5.59263
#
# Compressibility (1/GPa) = 0.07348218
#
# Stress axis : x y z
#
# Youngs Moduli (GPa) = 63.60891 18.39912 180.45641
#
# Poissons Ratio (x) = -0.09215 0.35689
# Poissons Ratio (y) = -0.31857 0.73915
# Poissons Ratio (z) = 0.12580 0.07536
#
# Static dielectric constant tensor:
#      x y z
#    x 4.519480 -0.513940 0.535340 
#    y -0.513940 4.826500 0.502190 
#    z 0.535340 0.502190 4.568180 
# 
# 
# High freq. dielectric constant tensor:
#      x y z
#    x 2.040500 -0.015980 -0.013880 
#    y -0.015980 2.017380 0.014540 
#    z -0.013880 0.014540 2.051240 
# 
# From -- ./inp_files/314525.got.cif
#   From: 2010.06.25/outbox.cif.g09.slc.cpg/sg2_158_cif.got.tgz:314525.got - 2010.06.27 13:26:56.
