data_PCOD8006855
_publ_section_title
;
Structure prediction by ZEFSAII (Michael W. Deem and Ramdas Pophale) SiO2 
 PCOD8006855
Probable space group: P -1
;
_chemical_formula_sum "Si O2"
_cell_formula_units_Z 16
_cell_length_a 13.977214
_cell_length_b 14.077020
_cell_length_c 10.202031
_cell_angle_alpha 126.866422
_cell_angle_beta 110.316319
_cell_angle_gamma 31.138512
_cell_volume 760.388155
_symmetry_space_group_name_H-M "P -1"
_symmetry_group_IT_number 2
_symmetry_cell_setting 'triclinic'
loop_
_space_group_symop_operation_xyz
x,y,z
-x,-y,-z
loop_
_atom_site_type_symbol
_atom_site_label
_atom_site_fract_x
_atom_site_fract_y
_atom_site_fract_z
Si Si1 0.881610 0.065522 0.725421
Si Si2 0.856513 0.993852 0.933049
Si Si3 0.741086 0.880535 0.201553
Si Si4 0.452160 0.777052 0.835692
Si Si5 0.791148 0.560385 0.957966
Si Si6 0.241001 0.564477 0.915679
Si Si7 0.304373 0.675719 0.668580
Si Si8 0.437031 0.755470 0.411387
O O1 0.762474 0.126283 0.598587
O O2 0.852875 0.006308 0.786284
O O3 0.781664 0.293755 0.892121
O O4 0.121139 0.834736 0.610649
O O5 0.063241 0.726873 0.860121
O O6 0.670812 0.098135 0.981760
O O7 0.822901 0.157666 0.121326
O O8 0.695045 0.787893 0.095054
O O9 0.664211 0.019655 0.148579
O O10 0.622977 0.052550 0.412796
O O11 0.975979 0.671484 0.162558
O O12 0.449502 0.641737 0.665055
O O13 0.677906 0.593460 0.822318
O O14 0.762920 0.541914 0.075970
O O15 0.452633 0.351910 0.764354
O O16 0.427796 0.434600 0.564033
#
# Coordination Sequence:
#
# PCOD8006855 Si02
#       8
#     2   2   2   2   2   2   2   2
#     4  11  18  34  59  94 124 153 186 225 299 363
#     4   9  17  34  63  91 113 152 192 232 285 352
#     4  11  26  42  57  87 117 153 204 248 284 339
#     4  10  20  40  65  84 107 156 204 233 289 350
#     4  11  23  44  66  76 111 164 205 242 285 344
#     4  11  18  38  65  87 119 154 194 238 285 347
#     4   9  19  34  57  91 118 148 187 240 283 347
#     4  12  23  34  60  93 125 151 184 243 299 341
#
# _framework density 21.041886000000002
#
# number of rings (size 3 to 8) (size 9 to 14) (size 15 to 20)
#    0.750    0.750    3.750    3.000    0.000    2.000 
#    0.000    4.375    0.000    1.500    0.000    0.000 
#    0.000    0.000    0.000    0.000    0.000    0.000 
#
# Total GULP energy -198399.817890 kJ/mol
# GULP energy per Si atom -12399.988618 kJ/mol
# Density = 2.099399 g / cm^3
# Si number density = 21.041886 Si / 1000 Ang^3
#
#
#
# Elastic Constant Matrix: (Units=GPa)
#
#
# Indices 1 2 3 4 5 6 
#
# 1 85.5435 22.9882 20.3206 9.4605 19.4967 5.2682
# 2 22.9882 65.3818 18.0304 20.9466 15.9824 -10.0097
# 3 20.3206 18.0304 56.5989 13.2106 22.6686 1.3972
# 4 9.4605 20.9466 13.2106 17.8473 5.2241 2.4191
# 5 19.4967 15.9824 22.6686 5.2241 17.9423 6.6514
# 6 5.2682 -10.0097 1.3972 2.4191 6.6514 45.8692
#
#
#
# Elastic Compliance Matrix: (Units=1/GPa)
#
#
# Indices 1 2 3 4 5 6 
#
# 1 0.016224 0.001321 0.004797 -0.007082 -0.023572 0.002070
# 2 0.001321 0.043213 0.020941 -0.052498 -0.058473 0.019888
# 3 0.004797 0.020941 0.052732 -0.043861 -0.083986 0.016905
# 4 -0.007082 -0.052498 -0.043861 0.133875 0.081334 -0.028161
# 5 -0.023572 -0.058473 -0.083986 0.081334 0.232742 -0.045534
# 6 0.002070 0.019888 0.016905 -0.028161 -0.045534 0.033476
#
#
# Mechanical properties :
#
#
# Convention : Reuss Voigt Hill
#
# Bulk Modulus (GPa) = 6.01369 36.68919 21.35144
# Shear Modulus (GPa) = 9.73573 26.07741 17.90657
#
# Velocity S-wave (km/s) = 2.15334 3.52420 2.92035
# Velocity P-wave (km/s) = 3.00777 5.83388 4.64116
#
# Compressibility (1/GPa) = 0.16628728
#
# Stress axis : x y z
#
# Youngs Moduli (GPa) = 61.63866 23.14140 18.96369
#
# Poissons Ratio (x) = -0.03056 -0.09097
# Poissons Ratio (y) = -0.08141 -0.39713
# Poissons Ratio (z) = -0.29570 -0.48461
#
# Static dielectric constant tensor:
#      x y z
#    x 3.800950 -0.098960 -0.118400 
#    y -0.098960 3.810000 0.224280 
#    z -0.118400 0.224280 3.509640 
# 
# 
# High freq. dielectric constant tensor:
#      x y z
#    x 1.817550 -0.002410 -0.018090 
#    y -0.002410 1.836880 0.013630 
#    z -0.018090 0.013630 1.797890 
# 
# From -- ./inp_files/398708.got.cif
#   From: 2010.06.25/outbox.cif.g09.slc.cpg/sg2_200_cif.got.tgz:398708.got - 2010.06.27 13:26:56.
