data_PCOD8006582
_publ_section_title
;
Structure prediction by ZEFSAII (Michael W. Deem and Ramdas Pophale) SiO2 
 PCOD8006582
Probable space group: P -1
;
_chemical_formula_sum "Si O2"
_cell_formula_units_Z 16
_cell_length_a 10.777425
_cell_length_b 14.848946
_cell_length_c 11.109108
_cell_angle_alpha 81.886934
_cell_angle_beta 25.849615
_cell_angle_gamma 80.514542
_cell_volume 764.447047
_symmetry_space_group_name_H-M "P -1"
_symmetry_group_IT_number 2
_symmetry_cell_setting 'triclinic'
loop_
_space_group_symop_operation_xyz
x,y,z
-x,-y,-z
loop_
_atom_site_type_symbol
_atom_site_label
_atom_site_fract_x
_atom_site_fract_y
_atom_site_fract_z
Si Si1 0.808868 0.043473 0.053342
Si Si2 0.717751 0.184694 0.646270
Si Si3 0.194289 0.342938 0.660831
Si Si4 0.054545 0.537407 0.813736
Si Si5 0.653302 0.246741 0.118500
Si Si6 0.762871 0.996189 0.523606
Si Si7 0.692173 0.823146 0.776715
Si Si8 0.436916 0.343712 0.703955
O O1 0.978262 0.042091 0.780067
O O2 0.700361 0.147801 0.159071
O O3 0.532886 0.986064 0.295687
O O4 0.000000 0.000000 0.000000
O O5 0.597700 0.253859 0.635831
O O6 0.988809 0.224088 0.468059
O O7 0.840363 0.090608 0.494788
O O8 0.472688 0.164337 0.956443
O O9 0.488821 0.318373 0.338458
O O10 0.245723 0.318177 0.761474
O O11 0.092358 0.450181 0.708413
O O12 0.960612 0.282474 0.818298
O O13 0.340801 0.588125 0.550338
O O14 0.774080 0.607256 0.018375
O O15 0.000000 0.500000 0.000000
O O16 0.476027 0.241410 0.150893
O O17 0.717407 0.922471 0.679771
#
# Coordination Sequence:
#
# PCOD8006582 Si02
#       8
#     2   2   2   2   2   2   2   2
#     4  11  24  38  59  87 136 160 191 259 312 358
#     4  12  24  39  67  89 124 163 211 268 290 361
#     4  11  21  38  66  90 120 156 201 245 302 395
#     4  10  20  40  61  91 128 157 189 250 318 377
#     4  11  23  38  62  88 118 165 208 241 294 372
#     4  11  23  41  61  89 118 172 216 244 301 357
#     4  11  23  43  60  87 125 168 218 250 298 343
#     4  11  23  37  63  98 125 150 198 257 327 352
#
# _framework density 20.930160999999998
#
# number of rings (size 3 to 8) (size 9 to 14) (size 15 to 20)
#    0.000    1.000    0.000   10.125    3.500    0.000 
#    0.000    0.000    0.000   15.000    0.000    0.000 
#    0.000    0.000    0.000    0.000    0.000    0.000 
#
# Total GULP energy -198452.619130 kJ/mol
# GULP energy per Si atom -12403.288696 kJ/mol
# Density = 2.088252 g / cm^3
# Si number density = 20.930161 Si / 1000 Ang^3
#
#
#
# Elastic Constant Matrix: (Units=GPa)
#
#
# Indices 1 2 3 4 5 6 
#
# 1 78.2288 39.8758 15.3896 -0.3389 -18.1288 0.2090
# 2 39.8758 88.5604 27.6173 5.3818 2.3401 9.4877
# 3 15.3896 27.6173 101.8461 7.8950 -10.5296 4.9364
# 4 -0.3389 5.3818 7.8950 34.8543 5.9521 -5.6046
# 5 -18.1288 2.3401 -10.5296 5.9521 40.9098 -0.3847
# 6 0.2090 9.4877 4.9364 -5.6046 -0.3847 21.5546
#
#
#
# Elastic Compliance Matrix: (Units=1/GPa)
#
#
# Indices 1 2 3 4 5 6 
#
# 1 0.019899 -0.009839 0.000363 0.000733 0.009409 0.004413
# 2 -0.009839 0.017919 -0.003442 -0.002296 -0.006009 -0.007708
# 3 0.000363 -0.003442 0.011398 -0.002970 0.003707 -0.001805
# 4 0.000733 -0.002296 -0.002970 0.032163 -0.004894 0.009959
# 5 0.009409 -0.006009 0.003707 -0.004894 0.030633 0.000979
# 6 0.004413 -0.007708 -0.001805 0.009959 0.000979 0.052764
#
#
# Mechanical properties :
#
#
# Convention : Reuss Voigt Hill
#
# Bulk Modulus (GPa) = 42.77066 48.26675 45.51870
# Shear Modulus (GPa) = 25.20098 31.84725 28.52411
#
# Velocity S-wave (km/s) = 3.47371 3.90500 3.69565
# Velocity P-wave (km/s) = 6.04716 6.59112 6.32499
#
# Compressibility (1/GPa) = 0.02338052
#
# Stress axis : x y z
#
# Youngs Moduli (GPa) = 50.25473 55.80539 87.73315
#
# Poissons Ratio (x) = 0.54907 -0.03187
# Poissons Ratio (y) = 0.49445 0.30199
# Poissons Ratio (z) = -0.01825 0.19209
#
# Static dielectric constant tensor:
#      x y z
#    x 3.722420 0.064430 -0.250090 
#    y 0.064430 3.881720 0.255350 
#    z -0.250090 0.255350 4.127750 
# 
# 
# High freq. dielectric constant tensor:
#      x y z
#    x 1.803150 0.006570 -0.016480 
#    y 0.006570 1.813540 0.009150 
#    z -0.016480 0.009150 1.843900 
# 
# From -- ./inp_files/433912.got.cif
#   From: 2010.06.25/outbox.cif.g09.slc.cpg/sg2_217_cif.got.tgz:433912.got - 2010.06.27 13:26:56.
