data_PCOD8006230
_publ_section_title
;
Structure prediction by ZEFSAII (Michael W. Deem and Ramdas Pophale) SiO2 
 PCOD8006230
Probable space group: P -1
;
_chemical_formula_sum "Si O2"
_cell_formula_units_Z 16
_cell_length_a 18.889196
_cell_length_b 8.868661
_cell_length_c 10.940868
_cell_angle_alpha 121.671978
_cell_angle_beta 149.325818
_cell_angle_gamma 54.188841
_cell_volume 757.208700
_symmetry_space_group_name_H-M "P -1"
_symmetry_group_IT_number 2
_symmetry_cell_setting 'triclinic'
loop_
_space_group_symop_operation_xyz
x,y,z
-x,-y,-z
loop_
_atom_site_type_symbol
_atom_site_label
_atom_site_fract_x
_atom_site_fract_y
_atom_site_fract_z
Si Si1 0.630148 0.263832 0.025499
Si Si2 0.156272 0.803067 0.471160
Si Si3 0.685804 0.209435 0.536527
Si Si4 0.824226 0.382624 0.020099
Si Si5 0.590601 0.611563 0.950764
Si Si6 0.082579 0.826019 0.702928
Si Si7 0.641893 0.820000 0.327802
Si Si8 0.926868 0.479723 0.636392
O O1 0.579747 0.474027 0.987212
O O2 0.492336 0.186925 0.787235
O O3 0.691616 0.258500 0.253425
O O4 0.762118 0.138712 0.082311
O O5 0.180037 0.831672 0.376317
O O6 0.076920 0.643906 0.301756
O O7 0.052176 0.995629 0.455224
O O8 0.546819 0.348405 0.324147
O O9 0.658632 0.020993 0.458119
O O10 0.719028 0.309455 0.748004
O O11 0.925856 0.214711 0.182395
O O12 0.923481 0.469970 0.121322
O O13 0.730703 0.534392 0.040523
O O14 0.604918 0.794650 0.119185
O O15 0.081157 0.644187 0.546621
O O16 0.791050 0.665575 0.520260
#
# Coordination Sequence:
#
# PCOD8006230 Si02
#       8
#     2   2   2   2   2   2   2   2
#     4  10  20  39  66  95 120 157 213 267 304 356
#     4  11  22  39  63  97 127 157 213 263 312 363
#     4  12  27  39  61  98 131 165 207 258 311 374
#     4  11  25  44  62  89 136 168 203 255 316 374
#     4  11  22  43  67  91 124 168 211 257 310 372
#     4  10  22  39  66  95 126 160 211 262 310 369
#     4  12  22  39  68  97 122 164 211 260 309 366
#     4  11  22  40  68  93 118 173 210 256 313 371
#
# _framework density 21.130239
#
# number of rings (size 3 to 8) (size 9 to 14) (size 15 to 20)
#    0.000    1.000    5.000    4.500    1.750    3.500 
#    0.000    3.750    0.000    0.000    0.000    0.000 
#    0.000    0.000    0.000    0.000    0.000    0.000 
#
# Total GULP energy -198396.900623 kJ/mol
# GULP energy per Si atom -12399.806289 kJ/mol
# Density = 2.108215 g / cm^3
# Si number density = 21.130239 Si / 1000 Ang^3
#
#
#
# Elastic Constant Matrix: (Units=GPa)
#
#
# Indices 1 2 3 4 5 6 
#
# 1 72.3390 22.4160 17.6433 14.2108 30.7101 7.7550
# 2 22.4160 97.0839 41.8616 -10.8735 15.3870 3.5603
# 3 17.6433 41.8616 85.4238 7.5181 20.6478 2.0500
# 4 14.2108 -10.8735 7.5181 28.1092 6.9648 7.2610
# 5 30.7101 15.3870 20.6478 6.9648 33.9151 1.9329
# 6 7.7550 3.5603 2.0500 7.2610 1.9329 27.2053
#
#
#
# Elastic Compliance Matrix: (Units=1/GPa)
#
#
# Indices 1 2 3 4 5 6 
#
# 1 0.025600 -0.004967 0.003062 -0.009857 -0.020609 -0.002783
# 2 -0.004967 0.016348 -0.007858 0.011878 -0.000388 -0.003274
# 3 0.003062 -0.007858 0.017599 -0.007577 -0.008449 0.001452
# 4 -0.009857 0.011878 -0.007577 0.050555 -0.001574 -0.011555
# 5 -0.020609 -0.000388 -0.008449 -0.001574 0.053609 0.003173
# 6 -0.002783 -0.003274 0.001452 -0.011555 0.003173 0.040728
#
#
# Mechanical properties :
#
#
# Convention : Reuss Voigt Hill
#
# Bulk Modulus (GPa) = 24.98722 46.52096 35.75409
# Shear Modulus (GPa) = 21.06999 29.37430 25.22214
#
# Velocity S-wave (km/s) = 3.16119 3.73252 3.45867
# Velocity P-wave (km/s) = 5.01749 6.37493 5.73650
#
# Compressibility (1/GPa) = 0.04002046
#
# Stress axis : x y z
#
# Youngs Moduli (GPa) = 39.06279 61.17140 56.82158
#
# Poissons Ratio (x) = 0.30383 -0.17400
# Poissons Ratio (y) = 0.19402 0.44652
# Poissons Ratio (z) = -0.11962 0.48070
#
# Static dielectric constant tensor:
#      x y z
#    x 3.973940 0.079640 0.216950 
#    y 0.079640 3.750300 -0.183910 
#    z 0.216950 -0.183910 3.603600 
# 
# 
# High freq. dielectric constant tensor:
#      x y z
#    x 1.838060 0.002910 0.019690 
#    y 0.002910 1.827150 -0.020970 
#    z 0.019690 -0.020970 1.804970 
# 
# From -- ./inp_files/470170.got.cif
#   From: 2010.06.25/outbox.cif.g09.slc.cpg/sg2_236_cif.got.tgz:470170.got - 2010.06.27 13:26:56.
