data_PCOD8006277
_publ_section_title
;
Structure prediction by ZEFSAII (Michael W. Deem and Ramdas Pophale) SiO2 
 PCOD8006277
Probable space group: P -1
;
_chemical_formula_sum "Si O2"
_cell_formula_units_Z 16
_cell_length_a 16.758582
_cell_length_b 9.188314
_cell_length_c 10.319595
_cell_angle_alpha 108.275925
_cell_angle_beta 119.655795
_cell_angle_gamma 121.391233
_cell_volume 751.882815
_symmetry_space_group_name_H-M "P -1"
_symmetry_group_IT_number 2
_symmetry_cell_setting 'triclinic'
loop_
_space_group_symop_operation_xyz
x,y,z
-x,-y,-z
loop_
_atom_site_type_symbol
_atom_site_label
_atom_site_fract_x
_atom_site_fract_y
_atom_site_fract_z
Si Si1 0.440844 0.959689 0.271628
Si Si2 0.796766 0.657622 0.485462
Si Si3 0.910947 0.826138 0.009756
Si Si4 0.794415 0.425507 0.646467
Si Si5 0.871695 0.261210 0.503665
Si Si6 0.574883 0.356928 0.693492
Si Si7 0.205002 0.639954 0.767467
Si Si8 0.610252 0.691023 0.261559
O O1 0.350161 0.692770 0.190899
O O2 0.615480 0.118729 0.438033
O O3 0.455940 0.133896 0.420851
O O4 0.354609 0.884222 0.047591
O O5 0.765497 0.533031 0.561379
O O6 0.780531 0.511829 0.317419
O O7 0.665929 0.609637 0.348419
O O8 0.974705 0.978810 0.721902
O O9 0.879024 0.600067 0.895569
O O10 0.734041 0.659374 0.847373
O O11 0.000000 0.000000 0.000000
O O12 0.906601 0.449958 0.681565
O O13 0.789286 0.220187 0.297894
O O14 0.040146 0.415505 0.651065
O O15 0.760944 0.987580 0.408517
O O16 0.483233 0.344052 0.712805
O O17 0.500000 0.500000 0.000000
#
# Coordination Sequence:
#
# PCOD8006277 Si02
#       8
#     2   2   2   2   2   2   2   2
#     4  10  20  39  67  88 120 159 213 255 304 366
#     4  10  23  38  62  91 125 164 206 248 317 367
#     4   9  20  41  64  91 127 164 200 253 313 376
#     4   9  19  41  64  87 119 165 204 254 303 367
#     4  10  23  41  61  90 125 161 218 250 308 358
#     4  10  22  40  63  96 122 162 205 259 311 361
#     4  10  23  41  64  91 119 172 207 258 300 372
#     4  12  26  40  59  95 132 163 201 264 308 366
#
# _framework density 21.279910999999998
#
# number of rings (size 3 to 8) (size 9 to 14) (size 15 to 20)
#    0.000    2.000    1.250    0.750    5.250    2.500 
#    0.000    8.125    0.000    0.000    0.000    0.000 
#    0.000    0.000    0.000    0.000    0.000    0.000 
#
# Total GULP energy -198252.633874 kJ/mol
# GULP energy per Si atom -12390.789617 kJ/mol
# Density = 2.123148 g / cm^3
# Si number density = 21.279911 Si / 1000 Ang^3
#
#
#
# Elastic Constant Matrix: (Units=GPa)
#
#
# Indices 1 2 3 4 5 6 
#
# 1 154.5162 28.9528 41.6193 4.1801 -10.4993 7.7567
# 2 28.9528 57.0274 9.0372 12.8111 2.8247 -1.2533
# 3 41.6193 9.0372 109.5712 -2.7546 -22.6592 -2.5778
# 4 4.1801 12.8111 -2.7546 23.0182 11.2341 7.0579
# 5 -10.4993 2.8247 -22.6592 11.2341 31.7424 2.3892
# 6 7.7567 -1.2533 -2.5778 7.0579 2.3892 31.9248
#
#
#
# Elastic Compliance Matrix: (Units=1/GPa)
#
#
# Indices 1 2 3 4 5 6 
#
# 1 0.008091 -0.003963 -0.002547 0.000641 0.001176 -0.002557
# 2 -0.003963 0.022812 -0.000419 -0.013971 0.000940 0.004843
# 3 -0.002547 -0.000419 0.011838 -0.002436 0.008397 0.001468
# 4 0.000641 -0.013971 -0.002436 0.066096 -0.022636 -0.013820
# 5 0.001176 0.000940 0.008397 -0.022636 0.045663 0.002016
# 6 -0.002557 0.004843 0.001468 -0.013820 0.002016 0.035158
#
#
# Mechanical properties :
#
#
# Convention : Reuss Voigt Hill
#
# Bulk Modulus (GPa) = 34.62231 53.37040 43.99636
# Shear Modulus (GPa) = 23.45817 33.43745 28.44781
#
# Velocity S-wave (km/s) = 3.32379 3.96828 3.66025
# Velocity P-wave (km/s) = 5.57094 6.79198 6.21153
#
# Compressibility (1/GPa) = 0.02888311
#
# Stress axis : x y z
#
# Youngs Moduli (GPa) = 123.58745 43.83632 84.47024
#
# Poissons Ratio (x) = 0.17372 0.21518
# Poissons Ratio (y) = 0.48976 0.03541
# Poissons Ratio (z) = 0.31483 0.01838
#
# Static dielectric constant tensor:
#      x y z
#    x 3.945400 0.035720 -0.253380 
#    y 0.035720 4.129030 0.325430 
#    z -0.253380 0.325430 4.177710 
# 
# 
# High freq. dielectric constant tensor:
#      x y z
#    x 1.839960 0.018180 -0.013850 
#    y 0.018180 1.824160 0.017330 
#    z -0.013850 0.017330 1.836370 
# 
# From -- ./inp_files/262761.got.cif
#   From: 2010.06.25/outbox.cif.g09.slc.cpg/sg2_132_cif.got.tgz:262761.got - 2010.06.27 13:26:56.
