data_PCOD8006632
_publ_section_title
;
Structure prediction by ZEFSAII (Michael W. Deem and Ramdas Pophale) SiO2 
 PCOD8006632
Probable space group: P -1
;
_chemical_formula_sum "Si O2"
_cell_formula_units_Z 16
_cell_length_a 9.341830
_cell_length_b 21.980393
_cell_length_c 16.340471
_cell_angle_alpha 154.741277
_cell_angle_beta 35.550959
_cell_angle_gamma 143.007172
_cell_volume 805.248466
_symmetry_space_group_name_H-M "P -1"
_symmetry_group_IT_number 2
_symmetry_cell_setting 'triclinic'
loop_
_space_group_symop_operation_xyz
x,y,z
-x,-y,-z
loop_
_atom_site_type_symbol
_atom_site_label
_atom_site_fract_x
_atom_site_fract_y
_atom_site_fract_z
Si Si1 0.494638 0.844954 0.116414
Si Si2 0.145744 0.902185 0.654071
Si Si3 0.237333 0.442744 0.005462
Si Si4 0.974163 0.129701 0.726559
Si Si5 0.971017 0.851946 0.093264
Si Si6 0.227968 0.617648 0.729512
Si Si7 0.722423 0.688760 0.693290
Si Si8 0.617635 0.270230 0.799007
O O1 0.296580 0.840478 0.130650
O O2 0.343456 0.757841 0.157897
O O3 0.631413 0.009628 0.282540
O O4 0.698726 0.766212 0.885495
O O5 0.269478 0.838267 0.442334
O O6 0.972024 0.775080 0.633918
O O7 0.989797 0.017099 0.832040
O O8 0.233839 0.560265 0.078795
O O9 0.997625 0.435099 0.165178
O O10 0.500000 0.500000 0.000000
O O11 0.203135 0.277714 0.784453
O O12 0.967353 0.077336 0.759629
O O13 0.000000 0.000000 0.500000
O O14 0.681113 0.754817 0.110243
O O15 0.156491 0.742705 0.856591
O O16 0.490041 0.684763 0.735726
O O17 0.251944 0.474487 0.493504
#
# Coordination Sequence:
#
# PCOD8006632 Si02
#       8
#     2   2   2   2   2   2   2   2
#     4  11  23  39  59  94 130 155 201 271 311 355
#     4  11  23  38  66  91 124 168 209 245 318 383
#     4  11  20  38  67  91 116 167 216 249 302 383
#     4  11  21  37  59  91 130 157 197 265 320 347
#     4  10  20  40  62  90 123 161 210 260 303 370
#     4  10  21  39  63  85 120 164 211 253 308 361
#     4  11  22  41  61  88 123 170 207 249 310 377
#     4  11  21  39  65  95 119 161 212 257 308 374
#
# _framework density 19.869644000000001
#
# number of rings (size 3 to 8) (size 9 to 14) (size 15 to 20)
#    0.000    1.250    6.250    3.375    0.000    1.000 
#    0.000    3.750    0.000    0.000    0.000    0.000 
#    0.000    0.000    0.000    0.000    0.000    0.000 
#
# Total GULP energy -198327.206648 kJ/mol
# GULP energy per Si atom -12395.450415 kJ/mol
# Density = 1.982442 g / cm^3
# Si number density = 19.869644 Si / 1000 Ang^3
#
#
#
# Elastic Constant Matrix: (Units=GPa)
#
#
# Indices 1 2 3 4 5 6 
#
# 1 64.2551 13.0379 6.3798 13.0434 0.6351 7.2900
# 2 13.0379 71.1974 24.0661 12.1386 9.4001 9.1805
# 3 6.3798 24.0661 116.1866 20.8389 3.4796 -3.4856
# 4 13.0434 12.1386 20.8389 34.4639 -1.4908 1.2200
# 5 0.6351 9.4001 3.4796 -1.4908 33.7753 -0.1845
# 6 7.2900 9.1805 -3.4856 1.2200 -0.1845 22.8218
#
#
#
# Elastic Compliance Matrix: (Units=1/GPa)
#
#
# Indices 1 2 3 4 5 6 
#
# 1 0.017638 -0.001686 0.000350 -0.006140 -0.000195 -0.004576
# 2 -0.001686 0.017474 -0.002922 -0.003714 -0.004731 -0.006777
# 3 0.000350 -0.002922 0.010270 -0.005437 -0.000475 0.002919
# 4 -0.006140 -0.003714 -0.005437 0.036053 0.003305 0.000724
# 5 -0.000195 -0.004731 -0.000475 0.003305 0.031133 0.001968
# 6 -0.004576 -0.006777 0.002919 0.000724 0.001968 0.048428
#
#
# Mechanical properties :
#
#
# Convention : Reuss Voigt Hill
#
# Bulk Modulus (GPa) = 27.12526 37.62296 32.37411
# Shear Modulus (GPa) = 27.50282 32.08922 29.79602
#
# Velocity S-wave (km/s) = 3.72447 4.02305 3.87664
# Velocity P-wave (km/s) = 5.67246 6.36835 6.03045
#
# Compressibility (1/GPa) = 0.03686601
#
# Stress axis : x y z
#
# Youngs Moduli (GPa) = 56.69691 57.22893 97.37225
#
# Poissons Ratio (x) = 0.09648 -0.03413
# Poissons Ratio (y) = 0.09558 0.28454
# Poissons Ratio (z) = -0.01987 0.16724
#
# Static dielectric constant tensor:
#      x y z
#    x 3.760360 0.010060 -0.295150 
#    y 0.010060 3.829010 0.309360 
#    z -0.295150 0.309360 4.021260 
# 
# 
# High freq. dielectric constant tensor:
#      x y z
#    x 1.770140 0.008530 -0.007860 
#    y 0.008530 1.765820 0.014570 
#    z -0.007860 0.014570 1.781990 
# 
# From -- ./inp_files/507946.got.cif
#   From: 2010.06.25/outbox.cif.g09.slc.cpg/sg2_254_cif.got.tgz:507946.got - 2010.06.27 13:26:56.
