data_PCOD8006106
_publ_section_title
;
Structure prediction by ZEFSAII (Michael W. Deem and Ramdas Pophale) SiO2 
 PCOD8006106
Probable space group: P -1
;
_chemical_formula_sum "Si O2"
_cell_formula_units_Z 14
_cell_length_a 17.354721
_cell_length_b 17.906083
_cell_length_c 8.678054
_cell_angle_alpha 151.597564
_cell_angle_beta 139.241195
_cell_angle_gamma 29.670151
_cell_volume 634.696547
_symmetry_space_group_name_H-M "P -1"
_symmetry_group_IT_number 2
_symmetry_cell_setting 'triclinic'
loop_
_space_group_symop_operation_xyz
x,y,z
-x,-y,-z
loop_
_atom_site_type_symbol
_atom_site_label
_atom_site_fract_x
_atom_site_fract_y
_atom_site_fract_z
Si Si1 0.593860 0.374577 0.255660
Si Si2 0.842509 0.725875 0.134483
Si Si3 0.099019 0.048901 0.153098
Si Si4 0.661455 0.627249 0.167975
Si Si5 0.729494 0.880775 0.914121
Si Si6 0.405009 0.287333 0.133365
Si Si7 0.989848 0.321490 0.199233
O O1 0.500000 0.500000 0.500000
O O2 0.640571 0.502197 0.486969
O O3 0.470502 0.377814 0.976664
O O4 0.759414 0.140184 0.082220
O O5 0.832703 0.903937 0.521586
O O6 0.829589 0.753144 0.982958
O O7 0.695109 0.756595 0.018944
O O8 0.000000 0.500000 0.000000
O O9 0.991183 0.257566 0.261888
O O10 0.000000 0.000000 0.000000
O O11 0.665968 0.777081 0.551382
O O12 0.831817 0.395845 0.013896
O O13 0.615570 0.714841 0.084743
O O14 0.849081 0.882170 0.997153
O O15 0.582369 0.116925 0.147738
O O16 0.000000 0.500000 0.500000
#
# Coordination Sequence:
#
# PCOD8006106 Si02
#       7
#     2   2   2   2   2   2   2
#     4  10  23  42  65  95 134 180 225 279 338 402
#     4  12  24  42  65  98 137 180 228 286 345 411
#     4  12  26  46  70 102 141 181 225 287 352 405
#     4  10  20  39  65  93 126 173 226 286 335 400
#     4  11  22  39  65  96 128 177 231 279 336 413
#     4  11  22  40  63  93 130 176 229 282 338 406
#     4  10  21  40  67  97 128 175 230 275 332 409
#
# _framework density 22.057784999999999
#
# number of rings (size 3 to 8) (size 9 to 14) (size 15 to 20)
#    0.000    1.143    0.000    8.571    0.000    2.286 
#    0.000    6.429    0.000    0.000    0.000    0.000 
#    0.000    0.000    0.000    0.000    0.000    0.000 
#
# Total GULP energy -173436.540698 kJ/mol
# GULP energy per Si atom -12388.324336 kJ/mol
# Density = 2.200758 g / cm^3
# Si number density = 22.057785 Si / 1000 Ang^3
#
#
#
# Elastic Constant Matrix: (Units=GPa)
#
#
# Indices 1 2 3 4 5 6 
#
# 1 110.9098 42.3538 24.7174 -3.5678 17.8616 -0.4178
# 2 42.3538 143.7555 19.0262 1.5047 1.2950 -3.5412
# 3 24.7174 19.0262 69.4359 7.9543 7.5490 5.5206
# 4 -3.5678 1.5047 7.9543 31.9866 -4.6927 -6.6791
# 5 17.8616 1.2950 7.5490 -4.6927 35.5621 -0.3898
# 6 -0.4178 -3.5412 5.5206 -6.6791 -0.3898 47.7566
#
#
#
# Elastic Compliance Matrix: (Units=1/GPa)
#
#
# Indices 1 2 3 4 5 6 
#
# 1 0.011676 -0.003004 -0.003011 0.001557 -0.004906 0.000405
# 2 -0.003004 0.008025 -0.001353 0.000000 0.001512 0.000737
# 3 -0.003011 -0.001353 0.017011 -0.005518 -0.002809 -0.002888
# 4 0.001557 0.000000 -0.005518 0.034705 0.005030 0.005546
# 5 -0.004906 0.001512 -0.002809 0.005030 0.031804 0.001357
# 6 0.000405 0.000737 -0.002888 0.005546 0.001357 0.022118
#
#
# Mechanical properties :
#
#
# Convention : Reuss Voigt Hill
#
# Bulk Modulus (GPa) = 45.49918 55.14398 50.32158
# Shear Modulus (GPa) = 33.92159 38.92800 36.42480
#
# Velocity S-wave (km/s) = 3.92580 4.20553 4.06807
# Velocity P-wave (km/s) = 6.42038 6.97396 6.70288
#
# Compressibility (1/GPa) = 0.02197842
#
# Stress axis : x y z
#
# Youngs Moduli (GPa) = 85.64549 124.61391 58.78495
#
# Poissons Ratio (x) = 0.37430 0.17697
# Poissons Ratio (y) = 0.25725 0.07951
# Poissons Ratio (z) = 0.25784 0.16855
#
# Static dielectric constant tensor:
#      x y z
#    x 4.390850 -0.408800 0.261780 
#    y -0.408800 4.382850 -0.039300 
#    z 0.261780 -0.039300 4.074790 
# 
# 
# High freq. dielectric constant tensor:
#      x y z
#    x 1.868780 -0.016590 0.011850 
#    y -0.016590 1.881610 0.002920 
#    z 0.011850 0.002920 1.861830 
# 
# From -- ./inp_files/177726.got.cif
#   From: 2010.06.25/outbox.cif.g09.slc.cpg/sg2_89_cif.got.tgz:177726.got - 2010.06.27 13:26:56.
