data_PCOD8007921
_publ_section_title
;
Structure prediction by ZEFSAII (Michael W. Deem and Ramdas Pophale) SiO2 
 PCOD8007921
Probable space group: P -1
;
_chemical_formula_sum "Si O2"
_cell_formula_units_Z 16
_cell_length_a 8.851086
_cell_length_b 17.488720
_cell_length_c 11.117513
_cell_angle_alpha 136.600470
_cell_angle_beta 126.541528
_cell_angle_gamma 87.689644
_cell_volume 668.347993
_symmetry_space_group_name_H-M "P -1"
_symmetry_group_IT_number 2
_symmetry_cell_setting 'triclinic'
loop_
_space_group_symop_operation_xyz
x,y,z
-x,-y,-z
loop_
_atom_site_type_symbol
_atom_site_label
_atom_site_fract_x
_atom_site_fract_y
_atom_site_fract_z
Si Si1 0.833520 0.032153 0.635660
Si Si2 0.612626 0.045410 0.785114
Si Si3 0.046074 0.361265 0.820032
Si Si4 0.004919 0.876462 0.614939
Si Si5 0.944885 0.605392 0.620083
Si Si6 0.531058 0.821842 0.679169
Si Si7 0.196503 0.372685 0.173462
Si Si8 0.372950 0.354155 0.608981
O O1 0.699538 0.026199 0.682014
O O2 0.649777 0.988856 0.386951
O O3 0.843140 0.903992 0.501115
O O4 0.119894 0.210066 0.953266
O O5 0.549708 0.914913 0.686849
O O6 0.837051 0.223300 0.145448
O O7 0.947524 0.199054 0.545383
O O8 0.791134 0.332774 0.630771
O O9 0.121575 0.396401 0.037535
O O10 0.315002 0.512287 0.047618
O O11 0.829043 0.756080 0.504489
O O12 0.295371 0.050516 0.985795
O O13 0.959659 0.624160 0.793050
O O14 0.675961 0.545375 0.364168
O O15 0.000000 0.500000 0.500000
O O16 0.666647 0.760984 0.639907
O O17 0.500000 0.500000 0.500000
#
# Coordination Sequence:
#
# PCOD8007921 Si02
#       8
#     2   2   2   2   2   2   2   2
#     4  10  22  41  70 104 136 188 243 297 351 428
#     4  10  20  41  72 103 135 183 248 295 350 429
#     4  12  28  47  68 112 151 193 242 300 374 432
#     4  12  26  46  76 105 152 192 249 302 357 438
#     4  11  25  45  74 108 142 186 247 302 363 433
#     4  12  23  49  74 106 145 197 246 299 363 437
#     4  11  23  46  71 101 147 192 236 298 372 426
#     4  12  25  49  75 107 148 199 242 298 370 441
#
# _framework density 23.939624999999999
#
# number of rings (size 3 to 8) (size 9 to 14) (size 15 to 20)
#    0.000    0.750    5.000    3.000    1.750    0.500 
#    6.750    0.000    0.000    0.000    0.000    0.000 
#    0.000    0.000    0.000    0.000    0.000    0.000 
#
# Total GULP energy -198289.992659 kJ/mol
# GULP energy per Si atom -12393.124541 kJ/mol
# Density = 2.388514 g / cm^3
# Si number density = 23.939625 Si / 1000 Ang^3
#
#
#
# Elastic Constant Matrix: (Units=GPa)
#
#
# Indices 1 2 3 4 5 6 
#
# 1 83.8947 36.4104 31.2705 -3.4236 -2.5385 -21.3887
# 2 36.4104 95.9196 8.6139 1.2523 -2.1313 -26.2546
# 3 31.2705 8.6139 95.4976 -9.9876 10.6101 1.9391
# 4 -3.4236 1.2523 -9.9876 27.4591 -3.2815 1.1764
# 5 -2.5385 -2.1313 10.6101 -3.2815 40.2115 7.6176
# 6 -21.3887 -26.2546 1.9391 1.1764 7.6176 36.3642
#
#
#
# Elastic Compliance Matrix: (Units=1/GPa)
#
#
# Indices 1 2 3 4 5 6 
#
# 1 0.017818 -0.004158 -0.005709 0.000128 0.000987 0.007572
# 2 -0.004158 0.014241 -0.000139 -0.001705 -0.001152 0.008140
# 3 -0.005709 -0.000139 0.013149 0.003899 -0.002819 -0.003695
# 4 0.000128 -0.001705 0.003899 0.038378 0.002618 -0.003153
# 5 0.000987 -0.001152 -0.002819 0.002618 0.026931 -0.005827
# 6 0.007572 0.008140 -0.003695 -0.003153 -0.005827 0.039350
#
#
# Mechanical properties :
#
#
# Convention : Reuss Voigt Hill
#
# Bulk Modulus (GPa) = 39.68847 47.54463 43.61655
# Shear Modulus (GPa) = 28.04618 34.07478 31.06048
#
# Velocity S-wave (km/s) = 3.42649 3.77684 3.60592
# Velocity P-wave (km/s) = 5.68058 6.23881 5.96623
#
# Compressibility (1/GPa) = 0.02519623
#
# Stress axis : x y z
#
# Youngs Moduli (GPa) = 56.12357 70.22022 76.04863
#
# Poissons Ratio (x) = 0.29198 0.43419
# Poissons Ratio (y) = 0.23337 0.01054
# Poissons Ratio (z) = 0.32043 0.00973
#
# Static dielectric constant tensor:
#      x y z
#    x 4.393130 0.021440 0.342450 
#    y 0.021440 4.566740 0.060210 
#    z 0.342450 0.060210 4.773160 
# 
# 
# High freq. dielectric constant tensor:
#      x y z
#    x 1.935850 -0.007150 0.012460 
#    y -0.007150 1.948670 0.005440 
#    z 0.012460 0.005440 1.962990 
# 
# From -- ./inp_files/186051.got.cif
#   From: 2010.06.25/outbox.cif.g09.slc.cpg/sg2_94_cif.got.tgz:186051.got - 2010.06.27 13:26:56.
