data_PCOD8007061
_publ_section_title
;
Structure prediction by ZEFSAII (Michael W. Deem and Ramdas Pophale) SiO2 
 PCOD8007061
Probable space group: P -1
;
_chemical_formula_sum "Si O2"
_cell_formula_units_Z 16
_cell_length_a 11.387006
_cell_length_b 13.895402
_cell_length_c 8.324160
_cell_angle_alpha 108.454378
_cell_angle_beta 73.807983
_cell_angle_gamma 49.256489
_cell_volume 697.974708
_symmetry_space_group_name_H-M "P -1"
_symmetry_group_IT_number 2
_symmetry_cell_setting 'triclinic'
loop_
_space_group_symop_operation_xyz
x,y,z
-x,-y,-z
loop_
_atom_site_type_symbol
_atom_site_label
_atom_site_fract_x
_atom_site_fract_y
_atom_site_fract_z
Si Si1 0.271970 0.992172 0.583544
Si Si2 0.877919 0.373381 0.965851
Si Si3 0.765876 0.979429 0.766885
Si Si4 0.111500 0.891916 0.567371
Si Si5 0.297083 0.328568 0.617468
Si Si6 0.001800 0.363541 0.588223
Si Si7 0.502433 0.496228 0.302933
Si Si8 0.411260 0.329925 0.252335
O O1 0.271611 0.983290 0.387678
O O2 0.187369 0.941322 0.657595
O O3 0.509716 0.858350 0.469047
O O4 0.118221 0.180905 0.816355
O O5 0.832328 0.514907 0.127844
O O6 0.720703 0.393429 0.099172
O O7 0.873603 0.382754 0.778660
O O8 0.856419 0.805011 0.668813
O O9 0.551849 0.143513 0.030926
O O10 0.933317 0.947944 0.757373
O O11 0.317715 0.680273 0.375896
O O12 0.000000 0.000000 0.500000
O O13 0.147140 0.345932 0.611215
O O14 0.405151 0.329252 0.446347
O O15 0.826929 0.535669 0.638573
O O16 0.500000 0.500000 0.500000
O O17 0.490122 0.386884 0.195447
#
# Coordination Sequence:
#
# PCOD8007061 Si02
#       8
#     2   2   2   2   2   2   2   2
#     4  10  22  42  66  97 132 171 224 278 332 397
#     4  11  24  43  71  98 130 176 225 279 338 398
#     4  10  23  42  65  99 130 172 224 277 336 398
#     4  10  20  40  66  97 137 170 221 283 334 408
#     4  12  25  44  65  97 137 180 226 273 334 398
#     4  11  26  44  67  96 132 181 232 274 321 401
#     4  12  23  43  71 102 141 172 219 285 355 409
#     4  12  25  42  69  98 137 176 216 281 341 406
#
# _framework density 22.923469000000001
#
# number of rings (size 3 to 8) (size 9 to 14) (size 15 to 20)
#    0.000    1.000    3.750    2.250    1.750    7.000 
#    0.000    2.500    0.000    0.000    0.000    0.000 
#    0.000    0.000    0.000    0.000    0.000    0.000 
#
# Total GULP energy -198315.906799 kJ/mol
# GULP energy per Si atom -12394.744175 kJ/mol
# Density = 2.287129 g / cm^3
# Si number density = 22.923469 Si / 1000 Ang^3
#
#
#
# Elastic Constant Matrix: (Units=GPa)
#
#
# Indices 1 2 3 4 5 6 
#
# 1 65.3375 2.9042 16.3040 14.6247 -9.1085 -14.9252
# 2 2.9042 53.5839 57.8367 18.6490 6.3007 -3.4697
# 3 16.3040 57.8367 128.0667 41.9597 12.5720 -5.2123
# 4 14.6247 18.6490 41.9597 42.9607 7.7188 -4.1673
# 5 -9.1085 6.3007 12.5720 7.7188 24.7393 2.8534
# 6 -14.9252 -3.4697 -5.2123 -4.1673 2.8534 27.4577
#
#
#
# Elastic Compliance Matrix: (Units=1/GPa)
#
#
# Indices 1 2 3 4 5 6 
#
# 1 0.020672 0.003450 -0.002452 -0.006873 0.009059 0.009223
# 2 0.003450 0.037094 -0.016926 -0.000464 0.000193 0.003259
# 3 -0.002452 -0.016926 0.019408 -0.010313 -0.003118 -0.001029
# 4 -0.006873 -0.000464 -0.010313 0.037595 -0.009004 0.000889
# 5 0.009059 0.000193 -0.003118 -0.009004 0.048336 -0.002033
# 6 0.009223 0.003259 -0.001029 0.000889 -0.002033 0.041996
#
#
# Mechanical properties :
#
#
# Convention : Reuss Voigt Hill
#
# Bulk Modulus (GPa) = 22.06607 44.56421 33.31514
# Shear Modulus (GPa) = 19.83641 30.36106 25.09874
#
# Velocity S-wave (km/s) = 2.94484 3.64325 3.31251
# Velocity P-wave (km/s) = 4.60540 6.09757 5.40324
#
# Compressibility (1/GPa) = 0.04531844
#
# Stress axis : x y z
#
# Youngs Moduli (GPa) = 48.37548 26.95827 51.52597
#
# Poissons Ratio (x) = -0.09301 0.12633
# Poissons Ratio (y) = -0.16690 0.87212
# Poissons Ratio (z) = 0.11861 0.45629
#
# Static dielectric constant tensor:
#      x y z
#    x 4.099410 0.068480 -0.101220 
#    y 0.068480 4.360480 0.222930 
#    z -0.101220 0.222930 4.072500 
# 
# 
# High freq. dielectric constant tensor:
#      x y z
#    x 1.908200 0.001990 -0.006550 
#    y 0.001990 1.908460 0.021390 
#    z -0.006550 0.021390 1.896320 
# 
# From -- ./inp_files/273655.got.cif
#   From: 2010.06.25/outbox.cif.g09.slc.cpg/sg2_137_cif.got.tgz:273655.got - 2010.06.27 13:26:56.
