data_PCOD8007284
_publ_section_title
;
Structure prediction by ZEFSAII (Michael W. Deem and Ramdas Pophale) SiO2 
 PCOD8007284
Probable space group: P -1
;
_chemical_formula_sum "Si O2"
_cell_formula_units_Z 14
_cell_length_a 21.607765
_cell_length_b 11.508754
_cell_length_c 14.947909
_cell_angle_alpha 149.363641
_cell_angle_beta 158.060444
_cell_angle_gamma 29.206197
_cell_volume 650.898383
_symmetry_space_group_name_H-M "P -1"
_symmetry_group_IT_number 2
_symmetry_cell_setting 'triclinic'
loop_
_space_group_symop_operation_xyz
x,y,z
-x,-y,-z
loop_
_atom_site_type_symbol
_atom_site_label
_atom_site_fract_x
_atom_site_fract_y
_atom_site_fract_z
Si Si1 0.476046 0.323916 0.424495
Si Si2 0.800625 0.296497 0.561148
Si Si3 0.199004 0.946355 0.197752
Si Si4 0.820514 0.025870 0.091295
Si Si5 0.643810 0.076003 0.068709
Si Si6 0.627921 0.394233 0.945553
Si Si7 0.281272 0.277447 0.383250
O O1 0.500000 0.500000 0.500000
O O2 0.355320 0.492142 0.453179
O O3 0.662856 0.119280 0.577287
O O4 0.379103 0.179204 0.141853
O O5 0.730492 0.093822 0.292528
O O6 0.845397 0.440342 0.631469
O O7 0.969480 0.153401 0.755936
O O8 0.258536 0.697033 0.053158
O O9 0.201937 0.178885 0.296158
O O10 0.000000 0.000000 0.000000
O O11 0.776018 0.087346 0.175249
O O12 0.767319 0.290272 0.146087
O O13 0.705276 0.891421 0.798567
O O14 0.453829 0.310931 0.961215
O O15 0.477642 0.272707 0.665684
#
# Coordination Sequence:
#
# PCOD8007284 Si02
#       7
#     2   2   2   2   2   2   2
#     4  12  27  45  69  92 136 184 215 271 348 395
#     4  11  24  42  67 104 133 169 229 279 323 395
#     4  11  23  42  67 101 135 177 227 270 330 396
#     4  11  20  35  68 103 130 167 219 279 334 377
#     4  11  22  43  67  95 133 174 223 270 336 394
#     4  10  21  41  69  96 135 173 227 278 322 400
#     4  10  20  40  70  95 134 177 219 278 322 391
#
# _framework density 21.508734
#
# number of rings (size 3 to 8) (size 9 to 14) (size 15 to 20)
#    0.000    1.143    4.286    3.857    4.000    1.714 
#    0.000    2.143    0.000    0.000    0.000    0.000 
#    0.000    0.000    0.000    0.000    0.000    0.000 
#
# Total GULP energy -173498.116183 kJ/mol
# GULP energy per Si atom -12392.722584 kJ/mol
# Density = 2.145978 g / cm^3
# Si number density = 21.508734 Si / 1000 Ang^3
#
#
#
# Elastic Constant Matrix: (Units=GPa)
#
#
# Indices 1 2 3 4 5 6 
#
# 1 94.4292 36.9911 46.2363 7.8942 9.2124 2.9526
# 2 36.9911 64.2823 35.3062 -14.5995 -12.2760 -3.0811
# 3 46.2363 35.3062 71.4861 5.6633 -15.2572 -5.7410
# 4 7.8942 -14.5995 5.6633 44.6337 -7.4615 -10.4596
# 5 9.2124 -12.2760 -15.2572 -7.4615 27.1313 -9.4603
# 6 2.9526 -3.0811 -5.7410 -10.4596 -9.4603 37.0853
#
#
#
# Elastic Compliance Matrix: (Units=1/GPa)
#
#
# Indices 1 2 3 4 5 6 
#
# 1 0.066687 -0.050977 -0.040317 -0.054060 -0.103254 -0.057373
# 2 -0.050977 0.067164 0.019157 0.056094 0.091992 0.051892
# 3 -0.040317 0.019157 0.046126 0.027841 0.068992 0.037394
# 4 -0.054060 0.056094 0.027841 0.078298 0.102359 0.061469
# 5 -0.103254 0.091992 0.068992 0.102359 0.219319 0.111361
# 6 -0.057373 0.051892 0.037394 0.061469 0.111361 0.087377
#
#
# Mechanical properties :
#
#
# Convention : Reuss Voigt Hill
#
# Bulk Modulus (GPa) = 28.00910 51.91830 39.96370
# Shear Modulus (GPa) = 6.93340 29.21432 18.07386
#
# Velocity S-wave (km/s) = 1.79737 3.68945 2.90194
# Velocity P-wave (km/s) = 4.16627 6.50692 5.46342
#
# Compressibility (1/GPa) = 0.03570268
#
# Stress axis : x y z
#
# Youngs Moduli (GPa) = 14.99543 14.88889 21.67960
#
# Poissons Ratio (x) = 0.75899 0.87406
# Poissons Ratio (y) = 0.76443 -0.41532
# Poissons Ratio (z) = 0.60458 -0.28523
#
# Static dielectric constant tensor:
#      x y z
#    x 4.070130 0.129310 -0.277550 
#    y 0.129310 4.095520 -0.053080 
#    z -0.277550 -0.053080 3.691580 
# 
# 
# High freq. dielectric constant tensor:
#      x y z
#    x 1.830450 0.004330 -0.025910 
#    y 0.004330 1.856350 -0.005860 
#    z -0.025910 -0.005860 1.826770 
# 
# From -- ./inp_files/541199.got.cif
#   From: 2010.06.25/outbox.cif.g09.slc.cpg/sg2_271_cif.got.tgz:541199.got - 2010.06.27 13:26:56.
