data_PCOD8007313
_publ_section_title
;
Structure prediction by ZEFSAII (Michael W. Deem and Ramdas Pophale) SiO2 
 PCOD8007313
Probable space group: P -1
;
_chemical_formula_sum "Si O2"
_cell_formula_units_Z 16
_cell_length_a 14.798413
_cell_length_b 9.098506
_cell_length_c 9.292303
_cell_angle_alpha 68.421519
_cell_angle_beta 69.164194
_cell_angle_gamma 39.655918
_cell_volume 736.923841
_symmetry_space_group_name_H-M "P -1"
_symmetry_group_IT_number 2
_symmetry_cell_setting 'triclinic'
loop_
_space_group_symop_operation_xyz
x,y,z
-x,-y,-z
loop_
_atom_site_type_symbol
_atom_site_label
_atom_site_fract_x
_atom_site_fract_y
_atom_site_fract_z
Si Si1 0.133808 0.762950 0.584459
Si Si2 0.539367 0.971254 0.198951
Si Si3 0.374722 0.699249 0.398619
Si Si4 0.556469 0.665739 0.092591
Si Si5 0.128553 0.764643 0.923707
Si Si6 0.203480 0.324291 0.640770
Si Si7 0.752773 0.825954 0.641575
Si Si8 0.967360 0.465390 0.880102
O O1 0.271028 0.672668 0.457261
O O2 0.123792 0.816922 0.739850
O O3 0.133169 0.576134 0.630130
O O4 0.000000 0.000000 0.500000
O O5 0.378871 0.130191 0.273697
O O6 0.601278 0.748041 0.153587
O O7 0.633808 0.880125 0.321697
O O8 0.533573 0.142516 0.052306
O O9 0.500000 0.500000 0.500000
O O10 0.444281 0.672473 0.217666
O O11 0.291430 0.940126 0.438613
O O12 0.706658 0.400933 0.056175
O O13 0.104330 0.612721 0.022908
O O14 0.000000 0.000000 0.000000
O O15 0.179196 0.325067 0.486411
O O16 0.118793 0.281772 0.779089
O O17 0.858566 0.698489 0.762417
O O18 0.000000 0.500000 0.000000
#
# Coordination Sequence:
#
# PCOD8007313 Si02
#       8
#     2   2   2   2   2   2   2   2
#     4  12  26  43  65 100 145 184 222 283 352 411
#     4  10  20  40  72  97 135 170 233 284 339 399
#     4  11  23  41  71  96 138 181 226 278 352 414
#     4  10  20  41  69 102 128 184 229 281 340 407
#     4  12  26  45  69 101 139 181 228 290 347 406
#     4  12  25  43  68 103 138 177 234 286 338 413
#     4  11  25  42  70 102 133 183 229 286 337 405
#     4  12  25  45  70  98 134 183 238 275 337 409
#
# _framework density 21.711877000000001
#
# number of rings (size 3 to 8) (size 9 to 14) (size 15 to 20)
#    0.000    0.750    5.000    2.250    7.000    0.000 
#    0.000    0.000    0.000    3.000    0.000    0.000 
#    0.000    0.000    0.000    0.000    0.000    0.000 
#
# Total GULP energy -198324.687709 kJ/mol
# GULP energy per Si atom -12395.292982 kJ/mol
# Density = 2.166246 g / cm^3
# Si number density = 21.711877 Si / 1000 Ang^3
#
#
#
# Elastic Constant Matrix: (Units=GPa)
#
#
# Indices 1 2 3 4 5 6 
#
# 1 76.3653 24.6001 42.8273 -0.9908 -4.5406 -26.0447
# 2 24.6001 96.1150 45.5810 4.2090 14.8179 -15.9090
# 3 42.8273 45.5810 129.5537 -2.8412 -0.0730 -8.2691
# 4 -0.9908 4.2090 -2.8412 43.0130 -12.4803 -0.5151
# 5 -4.5406 14.8179 -0.0730 -12.4803 46.6732 -4.3908
# 6 -26.0447 -15.9090 -8.2691 -0.5151 -4.3908 31.3255
#
#
#
# Elastic Compliance Matrix: (Units=1/GPa)
#
#
# Indices 1 2 3 4 5 6 
#
# 1 0.023283 -0.000838 -0.006213 0.001784 0.004690 0.017979
# 2 -0.000838 0.014499 -0.004597 -0.003165 -0.005097 0.004687
# 3 -0.006213 -0.004597 0.011134 0.001216 0.000781 -0.004431
# 4 0.001784 -0.003165 0.001216 0.026119 0.008333 0.001795
# 5 0.004690 -0.005097 0.000781 0.008333 0.026231 0.005331
# 6 0.017979 0.004687 -0.004431 0.001795 0.005331 0.048858
#
#
# Mechanical properties :
#
#
# Convention : Reuss Voigt Hill
#
# Bulk Modulus (GPa) = 39.03173 58.67231 48.85202
# Shear Modulus (GPa) = 27.47845 36.80404 32.14125
#
# Velocity S-wave (km/s) = 3.56138 4.12164 3.85171
# Velocity P-wave (km/s) = 5.90994 7.05212 6.50614
#
# Compressibility (1/GPa) = 0.02562018
#
# Stress axis : x y z
#
# Youngs Moduli (GPa) = 42.94989 68.96996 89.81303
#
# Poissons Ratio (x) = 0.05781 0.55797
# Poissons Ratio (y) = 0.03600 0.41290
# Poissons Ratio (z) = 0.26683 0.31707
#
# Static dielectric constant tensor:
#      x y z
#    x 3.684480 -0.664500 -1.407500 
#    y -0.664500 4.361570 1.027000 
#    z -1.407500 1.027000 6.754160 
# 
# 
# High freq. dielectric constant tensor:
#      x y z
#    x 1.844700 -0.026100 -0.019810 
#    y -0.026100 1.851170 -0.011470 
#    z -0.019810 -0.011470 1.868280 
# 
# From -- ./inp_files/297830.got.cif
#   From: 2010.06.25/outbox.cif.g09.slc.cpg/sg2_149_cif.got.tgz:297830.got - 2010.06.27 13:26:56.
