data_PCOD8007760
_publ_section_title
;
Structure prediction by ZEFSAII (Michael W. Deem and Ramdas Pophale) SiO2 
 PCOD8007760
Probable space group: P -1
;
_chemical_formula_sum "Si O2"
_cell_formula_units_Z 16
_cell_length_a 16.700964
_cell_length_b 8.922074
_cell_length_c 11.314938
_cell_angle_alpha 122.258934
_cell_angle_beta 34.364461
_cell_angle_gamma 125.367736
_cell_volume 770.293028
_symmetry_space_group_name_H-M "P -1"
_symmetry_group_IT_number 2
_symmetry_cell_setting 'triclinic'
loop_
_space_group_symop_operation_xyz
x,y,z
-x,-y,-z
loop_
_atom_site_type_symbol
_atom_site_label
_atom_site_fract_x
_atom_site_fract_y
_atom_site_fract_z
Si Si1 0.188053 0.249139 0.839794
Si Si2 0.594490 0.150316 0.537540
Si Si3 0.145408 0.095227 0.215446
Si Si4 0.176491 0.918389 0.346341
Si Si5 0.868722 0.106029 0.078944
Si Si6 0.578039 0.583698 0.058358
Si Si7 0.609316 0.903709 0.630452
Si Si8 0.321543 0.634027 0.965308
O O1 0.304559 0.224945 0.591075
O O2 0.245081 0.453517 0.907178
O O3 0.168540 0.097645 0.902743
O O4 0.033221 0.230670 0.956988
O O5 0.759952 0.218215 0.309849
O O6 0.523921 0.318293 0.701457
O O7 0.500000 0.000000 0.500000
O O8 0.600236 0.072069 0.628885
O O9 0.982439 0.122792 0.414114
O O10 0.184376 0.054665 0.283702
O O11 0.261022 0.282102 0.109853
O O12 0.152528 0.926288 0.049502
O O13 0.308700 0.015034 0.314569
O O14 0.194396 0.723287 0.199467
O O15 0.594780 0.414712 0.044307
O O16 0.500000 0.500000 0.000000
O O17 0.441595 0.783896 0.805894
#
# Coordination Sequence:
#
# PCOD8007760 Si02
#       8
#     2   2   2   2   2   2   2   2
#     4  10  21  39  65  94 120 162 208 260 317 358
#     4  11  22  39  69  92 119 173 209 246 312 375
#     4  11  22  45  66  87 127 169 214 253 303 389
#     4  11  25  41  68  91 123 175 207 252 323 368
#     4  10  20  41  68  88 122 166 214 254 301 386
#     4  12  24  40  62  96 130 161 208 264 309 365
#     4  11  22  42  64  92 130 166 206 253 314 384
#     4  12  24  40  61  98 129 158 206 266 314 360
#
# _framework density 20.771317
#
# number of rings (size 3 to 8) (size 9 to 14) (size 15 to 20)
#    0.000    1.000    3.750    3.750    0.000    1.500 
#    0.000    0.625    0.000    0.000    0.000    0.000 
#    0.000    0.000    0.000    0.000    0.000    0.000 
#
# Total GULP energy -198488.760891 kJ/mol
# GULP energy per Si atom -12405.547556 kJ/mol
# Density = 2.072404 g / cm^3
# Si number density = 20.771317 Si / 1000 Ang^3
#
#
#
# Elastic Constant Matrix: (Units=GPa)
#
#
# Indices 1 2 3 4 5 6 
#
# 1 86.2352 9.5400 14.0011 -7.9175 5.6719 13.4423
# 2 9.5400 52.9114 41.4199 5.7395 -6.5377 15.3419
# 3 14.0011 41.4199 129.5672 -1.9579 -5.0726 -1.6517
# 4 -7.9175 5.7395 -1.9579 31.9270 2.0085 -1.8065
# 5 5.6719 -6.5377 -5.0726 2.0085 31.8301 4.9775
# 6 13.4423 15.3419 -1.6517 -1.8065 4.9775 36.4485
#
#
#
# Elastic Compliance Matrix: (Units=1/GPa)
#
#
# Indices 1 2 3 4 5 6 
#
# 1 0.012955 -0.000841 -0.001222 0.003204 -0.002251 -0.004013
# 2 -0.000841 0.034190 -0.010840 -0.008469 0.008505 -0.016153
# 3 -0.001222 -0.010840 0.011381 0.002755 -0.001282 0.005841
# 4 0.003204 -0.008469 0.002755 0.034385 -0.004802 0.004868
# 5 -0.002251 0.008505 -0.001282 -0.004802 0.034885 -0.007810
# 6 -0.004013 -0.016153 0.005841 0.004868 -0.007810 0.037288
#
#
# Mechanical properties :
#
#
# Convention : Reuss Voigt Hill
#
# Bulk Modulus (GPa) = 30.56187 44.29287 37.42737
# Shear Modulus (GPa) = 24.77733 33.62464 29.20099
#
# Velocity S-wave (km/s) = 3.45753 4.02780 3.75351
# Velocity P-wave (km/s) = 5.53939 6.55753 6.06984
#
# Compressibility (1/GPa) = 0.03272051
#
# Stress axis : x y z
#
# Youngs Moduli (GPa) = 77.18809 29.24815 87.86417
#
# Poissons Ratio (x) = 0.02461 0.10736
# Poissons Ratio (y) = 0.06495 0.95244
# Poissons Ratio (z) = 0.09431 0.31705
#
# Static dielectric constant tensor:
#      x y z
#    x 3.898080 0.091890 -0.001060 
#    y 0.091890 3.535710 -0.033190 
#    z -0.001060 -0.033190 4.112340 
# 
# 
# High freq. dielectric constant tensor:
#      x y z
#    x 1.829970 0.010510 0.000910 
#    y 0.010510 1.788520 -0.001600 
#    z 0.000910 -0.001600 1.834220 
# 
# From -- ./inp_files/297764.got.cif
#   From: 2010.06.25/outbox.cif.g09.slc.cpg/sg2_149_cif.got.tgz:297764.got - 2010.06.27 13:26:56.
