data_PCOD8007003
_publ_section_title
;
Structure prediction by ZEFSAII (Michael W. Deem and Ramdas Pophale) SiO2 
 PCOD8007003
Probable space group: P -1
;
_chemical_formula_sum "Si O2"
_cell_formula_units_Z 16
_cell_length_a 19.358998
_cell_length_b 12.470023
_cell_length_c 13.055967
_cell_angle_alpha 122.620125
_cell_angle_beta 17.456679
_cell_angle_gamma 125.363028
_cell_volume 769.955580
_symmetry_space_group_name_H-M "P -1"
_symmetry_group_IT_number 2
_symmetry_cell_setting 'triclinic'
loop_
_space_group_symop_operation_xyz
x,y,z
-x,-y,-z
loop_
_atom_site_type_symbol
_atom_site_label
_atom_site_fract_x
_atom_site_fract_y
_atom_site_fract_z
Si Si1 0.413965 0.782085 0.736453
Si Si2 0.159640 0.755390 0.477920
Si Si3 0.737202 0.455656 0.649365
Si Si4 0.187516 0.590493 0.702876
Si Si5 0.627804 0.600861 0.196254
Si Si6 0.183303 0.641249 0.173743
Si Si7 0.262570 0.889914 0.808509
Si Si8 0.131244 0.029400 0.721190
O O1 0.491410 0.666791 0.506878
O O2 0.299274 0.871990 0.869286
O O3 0.638180 0.853483 0.525166
O O4 0.204741 0.725736 0.083818
O O5 0.309726 0.688978 0.309587
O O6 0.247982 0.734621 0.228474
O O7 0.229034 0.908518 0.482852
O O8 0.876705 0.699267 0.864501
O O9 0.881137 0.456876 0.339822
O O10 0.911508 0.557459 0.530930
O O11 0.500000 0.500000 0.000000
O O12 0.451654 0.570565 0.332995
O O13 0.214169 0.746788 0.751303
O O14 0.000000 0.500000 0.000000
O O15 0.650350 0.459051 0.127598
O O16 0.500000 0.000000 0.500000
O O17 0.036154 0.940925 0.118580
O O18 0.000000 0.000000 0.000000
#
# Coordination Sequence:
#
# PCOD8007003 Si02
#       8
#     2   2   2   2   2   2   2   2
#     4  11  24  41  66  97 129 168 214 271 324 375
#     4  11  23  42  64  92 125 173 218 255 317 402
#     4  11  22  40  65  93 127 168 211 260 326 397
#     4  11  23  37  63 102 128 159 216 280 326 372
#     4  10  20  40  66  91 127 167 208 263 323 389
#     4  11  24  41  62  93 134 163 208 269 336 377
#     4  11  23  40  64  97 130 168 222 267 317 396
#     4  12  22  42  69  91 124 174 222 260 316 392
#
# _framework density 20.780418999999998
#
# number of rings (size 3 to 8) (size 9 to 14) (size 15 to 20)
#    0.000    1.000    2.500    6.375    3.500    0.500 
#    2.250    0.625    0.000    0.000    0.000    0.000 
#    0.000    0.000    0.000    0.000    0.000    0.000 
#
# Total GULP energy -198325.703790 kJ/mol
# GULP energy per Si atom -12395.356487 kJ/mol
# Density = 2.073312 g / cm^3
# Si number density = 20.780419 Si / 1000 Ang^3
#
#
#
# Elastic Constant Matrix: (Units=GPa)
#
#
# Indices 1 2 3 4 5 6 
#
# 1 120.1517 40.5578 34.5581 23.9706 1.6767 -13.6136
# 2 40.5578 109.3972 28.8376 19.7507 3.8498 -4.1007
# 3 34.5581 28.8376 63.5863 21.8589 -5.9888 -11.1636
# 4 23.9706 19.7507 21.8589 22.6998 -4.7717 -4.5670
# 5 1.6767 3.8498 -5.9888 -4.7717 50.1170 1.3128
# 6 -13.6136 -4.1007 -11.1636 -4.5670 1.3128 40.4076
#
#
#
# Elastic Compliance Matrix: (Units=1/GPa)
#
#
# Indices 1 2 3 4 5 6 
#
# 1 0.011558 -0.002104 -0.002329 -0.007971 -0.001319 0.002179
# 2 -0.002104 0.011685 -0.002314 -0.006233 -0.001676 -0.000812
# 3 -0.002329 -0.002314 0.025321 -0.018854 0.001387 0.003800
# 4 -0.007971 -0.006233 -0.018854 0.077283 0.005850 0.000018
# 5 -0.001319 -0.001676 0.001387 0.005850 0.020855 -0.000248
# 6 0.002179 -0.000812 0.003800 0.000018 -0.000248 0.026459
#
#
# Mechanical properties :
#
#
# Convention : Reuss Voigt Hill
#
# Bulk Modulus (GPa) = 28.51378 55.67134 42.09256
# Shear Modulus (GPa) = 25.20852 35.25699 30.23276
#
# Velocity S-wave (km/s) = 3.48672 4.12350 3.81841
# Velocity P-wave (km/s) = 5.47366 7.03701 6.30398
#
# Compressibility (1/GPa) = 0.03507077
#
# Stress axis : x y z
#
# Youngs Moduli (GPa) = 86.51651 85.58214 39.49273
#
# Poissons Ratio (x) = 0.18006 0.09199
# Poissons Ratio (y) = 0.18203 0.09137
# Poissons Ratio (z) = 0.20151 0.19800
#
# Static dielectric constant tensor:
#      x y z
#    x 4.219180 -0.029350 -0.205000 
#    y -0.029350 3.897830 0.037100 
#    z -0.205000 0.037100 3.540230 
# 
# 
# High freq. dielectric constant tensor:
#      x y z
#    x 1.832300 0.000490 -0.008880 
#    y 0.000490 1.816510 0.001930 
#    z -0.008880 0.001930 1.794750 
# 
# From -- ./inp_files/282944.got.cif
#   From: 2010.06.25/outbox.cif.g09.slc.cpg/sg2_142_cif.got.tgz:282944.got - 2010.06.27 13:26:56.
