data_PCOD8007021
_publ_section_title
;
Structure prediction by ZEFSAII (Michael W. Deem and Ramdas Pophale) SiO2 
 PCOD8007021
Probable space group: P -1
;
_chemical_formula_sum "Si O2"
_cell_formula_units_Z 16
_cell_length_a 23.703424
_cell_length_b 9.784416
_cell_length_c 13.507935
_cell_angle_alpha 136.206978
_cell_angle_beta 32.386890
_cell_angle_gamma 152.932548
_cell_volume 757.723952
_symmetry_space_group_name_H-M "P -1"
_symmetry_group_IT_number 2
_symmetry_cell_setting 'triclinic'
loop_
_space_group_symop_operation_xyz
x,y,z
-x,-y,-z
loop_
_atom_site_type_symbol
_atom_site_label
_atom_site_fract_x
_atom_site_fract_y
_atom_site_fract_z
Si Si1 0.573237 0.240847 0.099833
Si Si2 0.324703 0.832945 0.890668
Si Si3 0.330149 0.632915 0.419181
Si Si4 0.349213 0.282042 0.507836
Si Si5 0.799134 0.849234 0.982342
Si Si6 0.321529 0.055126 0.624864
Si Si7 0.171243 0.343404 0.706079
Si Si8 0.686574 0.754204 0.881084
O O1 0.614908 0.178797 0.103586
O O2 0.436215 0.210369 0.303150
O O3 0.736866 0.572117 0.990850
O O4 0.500000 0.000000 0.000000
O O5 0.199206 0.516559 0.852881
O O6 0.476534 0.103143 0.737397
O O7 0.236735 0.921003 0.088285
O O8 0.287552 0.575927 0.567574
O O9 0.241686 0.323526 0.332863
O O10 0.271772 0.757997 0.523670
O O11 0.262748 0.112785 0.652420
O O12 0.481811 0.647560 0.511477
O O13 0.211265 0.170502 0.581661
O O14 0.709954 0.731910 0.948817
O O15 0.757971 0.988517 0.177573
O O16 0.988509 0.100620 0.814839
O O17 0.500000 0.500000 0.000000
#
# Coordination Sequence:
#
# PCOD8007021 Si02
#       8
#     2   2   2   2   2   2   2   2
#     4  11  23  42  73  96 129 167 222 272 319 389
#     4  11  22  40  67 101 125 172 226 264 322 378
#     4  11  22  39  67  94 128 174 220 268 312 389
#     4  10  21  38  66  99 124 168 218 264 318 378
#     4  11  26  43  63 100 133 168 212 271 337 380
#     4  10  20  40  66  93 127 166 224 270 304 382
#     4  12  25  40  65  97 138 169 211 273 328 384
#     4  10  24  41  64  96 129 169 218 267 322 389
#
# _framework density 21.115869
#
# number of rings (size 3 to 8) (size 9 to 14) (size 15 to 20)
#    0.000    1.250    2.500    4.125    8.750    4.500 
#    0.000    0.625    0.000    0.000    0.000    0.000 
#    0.000    0.000    0.000    0.000    0.000    0.000 
#
# Total GULP energy -198368.952501 kJ/mol
# GULP energy per Si atom -12398.059531 kJ/mol
# Density = 2.106781 g / cm^3
# Si number density = 21.115869 Si / 1000 Ang^3
#
#
#
# Elastic Constant Matrix: (Units=GPa)
#
#
# Indices 1 2 3 4 5 6 
#
# 1 143.8363 48.5123 58.2264 5.6441 6.1883 -5.0275
# 2 48.5123 79.0934 53.1953 25.5430 -0.5083 -2.6772
# 3 58.2264 53.1953 85.0356 26.9400 5.6957 -3.5184
# 4 5.6441 25.5430 26.9400 32.2684 0.6823 -12.6702
# 5 6.1883 -0.5083 5.6957 0.6823 28.2176 6.5287
# 6 -5.0275 -2.6772 -3.5184 -12.6702 6.5287 28.4381
#
#
#
# Elastic Compliance Matrix: (Units=1/GPa)
#
#
# Indices 1 2 3 4 5 6 
#
# 1 0.011876 -0.005476 -0.007851 0.011357 -0.002857 0.006329
# 2 -0.005476 0.026815 -0.008526 -0.016467 0.005686 -0.008141
# 3 -0.007851 -0.008526 0.027915 -0.017497 -0.002251 -0.006016
# 4 0.011357 -0.016467 -0.017497 0.068932 -0.008061 0.030855
# 5 -0.002857 0.005686 -0.002251 -0.008061 0.039821 -0.012982
# 6 0.006329 -0.008141 -0.006016 0.030855 -0.012982 0.051500
#
#
# Mechanical properties :
#
#
# Convention : Reuss Voigt Hill
#
# Bulk Modulus (GPa) = 43.66897 69.75926 56.71411
# Shear Modulus (GPa) = 17.97285 27.65358 22.81321
#
# Velocity S-wave (km/s) = 2.92062 3.62278 3.29048
# Velocity P-wave (km/s) = 5.66559 7.11390 6.43065
#
# Compressibility (1/GPa) = 0.02289956
#
# Stress axis : x y z
#
# Youngs Moduli (GPa) = 84.20413 37.29244 35.82364
#
# Poissons Ratio (x) = 0.20420 0.28126
# Poissons Ratio (y) = 0.46107 0.30543
# Poissons Ratio (z) = 0.66111 0.31796
#
# Static dielectric constant tensor:
#      x y z
#    x 3.891450 -0.319170 -0.017360 
#    y -0.319170 3.912930 0.487870 
#    z -0.017360 0.487870 4.006910 
# 
# 
# High freq. dielectric constant tensor:
#      x y z
#    x 1.834810 -0.021360 0.006580 
#    y -0.021360 1.808990 0.027620 
#    z 0.006580 0.027620 1.823150 
# 
# From -- ./inp_files/261635.got.cif
#   From: 2010.06.25/outbox.cif.g09.slc.cpg/sg2_131_cif.got.tgz:261635.got - 2010.06.27 13:26:56.
