data_PCOD8007966
_publ_section_title
;
Structure prediction by ZEFSAII (Michael W. Deem and Ramdas Pophale) SiO2 
 PCOD8007966
Probable space group: P -1
;
_chemical_formula_sum "Si O2"
_cell_formula_units_Z 14
_cell_length_a 18.225075
_cell_length_b 14.995695
_cell_length_c 7.719749
_cell_angle_alpha 56.412722
_cell_angle_beta 122.436342
_cell_angle_gamma 158.585005
_cell_volume 640.133880
_symmetry_space_group_name_H-M "P -1"
_symmetry_group_IT_number 2
_symmetry_cell_setting 'triclinic'
loop_
_space_group_symop_operation_xyz
x,y,z
-x,-y,-z
loop_
_atom_site_type_symbol
_atom_site_label
_atom_site_fract_x
_atom_site_fract_y
_atom_site_fract_z
Si Si1 0.051003 0.055865 0.241034
Si Si2 0.486516 0.426472 0.809206
Si Si3 0.120676 0.529438 0.066230
Si Si4 0.662349 0.540601 0.234072
Si Si5 0.912793 0.073028 0.289344
Si Si6 0.384757 0.752750 0.461997
Si Si7 0.210067 0.683972 0.625385
O O1 0.288007 0.310972 0.252013
O O2 0.988665 0.106739 0.165634
O O3 0.993449 0.899823 0.476659
O O4 0.885424 0.828557 0.130360
O O5 0.395539 0.443626 0.701362
O O6 0.333801 0.197839 0.729869
O O7 0.494780 0.365540 0.060645
O O8 0.306462 0.729091 0.219988
O O9 0.981206 0.270529 0.188412
O O10 0.199987 0.624056 0.869034
O O11 0.000000 0.500000 0.000000
O O12 0.658516 0.419111 0.437837
O O13 0.270440 0.658319 0.595073
O O14 0.622919 0.037419 0.472742
O O15 0.000000 0.500000 0.500000
#
# Coordination Sequence:
#
# PCOD8007966 Si02
#       7
#     2   2   2   2   2   2   2
#     4  10  20  42  61  91 130 172 217 269 330 386
#     4  10  22  38  62  96 129 170 218 270 327 391
#     4  12  25  47  70  99 138 179 227 278 339 401
#     4  10  22  39  63  95 129 168 220 270 326 400
#     4  10  23  39  62  94 131 168 222 270 322 399
#     4  11  25  47  69  98 137 177 227 278 338 400
#     4  11  26  46  70 100 133 176 227 283 332 398
#
# _framework density 21.870425000000001
#
# number of rings (size 3 to 8) (size 9 to 14) (size 15 to 20)
#    0.000    1.429    2.857    1.286    4.000    2.286 
#    2.571    0.000    0.000    0.000    0.000    0.000 
#    0.000    0.000    0.000    0.000    0.000    0.000 
#
# Total GULP energy -173530.322465 kJ/mol
# GULP energy per Si atom -12395.023033 kJ/mol
# Density = 2.182065 g / cm^3
# Si number density = 21.870425 Si / 1000 Ang^3
#
#
#
# Elastic Constant Matrix: (Units=GPa)
#
#
# Indices 1 2 3 4 5 6 
#
# 1 86.2099 56.6223 39.1801 -6.9526 15.9900 0.2977
# 2 56.6223 158.1324 25.1430 7.0105 19.2784 10.2249
# 3 39.1801 25.1430 83.9372 2.3040 8.7644 1.6753
# 4 -6.9526 7.0105 2.3040 33.9373 -5.7393 2.5921
# 5 15.9900 19.2784 8.7644 -5.7393 39.2656 -2.0983
# 6 0.2977 10.2249 1.6753 2.5921 -2.0983 35.7349
#
#
#
# Elastic Compliance Matrix: (Units=1/GPa)
#
#
# Indices 1 2 3 4 5 6 
#
# 1 0.019700 -0.005880 -0.007324 0.005195 -0.002670 0.001328
# 2 -0.005880 0.008998 0.000479 -0.003373 -0.002755 -0.002465
# 3 -0.007324 0.000479 0.015397 -0.002786 -0.001132 -0.000662
# 4 0.005195 -0.003373 -0.002786 0.032310 0.004831 -0.001007
# 5 -0.002670 -0.002755 -0.001132 0.004831 0.028985 0.002215
# 6 0.001328 -0.002465 -0.000662 -0.001007 0.002215 0.028912
#
#
# Mechanical properties :
#
#
# Convention : Reuss Voigt Hill
#
# Bulk Modulus (GPa) = 53.63768 63.35226 58.49497
# Shear Modulus (GPa) = 30.12627 35.60984 32.86805
#
# Velocity S-wave (km/s) = 3.71548 4.03950 3.88087
# Velocity P-wave (km/s) = 6.55628 7.12648 6.84732
#
# Compressibility (1/GPa) = 0.01864361
#
# Stress axis : x y z
#
# Youngs Moduli (GPa) = 50.76155 111.13653 64.94775
#
# Poissons Ratio (x) = 0.65348 0.47571
# Poissons Ratio (y) = 0.29848 -0.03110
# Poissons Ratio (z) = 0.37180 -0.05321
#
# Static dielectric constant tensor:
#      x y z
#    x 3.852700 -0.044400 -0.177360 
#    y -0.044400 4.167750 0.300160 
#    z -0.177360 0.300160 4.058490 
# 
# 
# High freq. dielectric constant tensor:
#      x y z
#    x 1.846240 -0.001550 -0.001670 
#    y -0.001550 1.882560 0.019400 
#    z -0.001670 0.019400 1.865110 
# 
# From -- ./inp_files/335681.got.cif
#   From: 2010.06.25/outbox.cif.g09.slc.cpg/sg2_168_cif.got.tgz:335681.got - 2010.06.27 13:26:56.
