data_PCOD8007445
_publ_section_title
;
Structure prediction by ZEFSAII (Michael W. Deem and Ramdas Pophale) SiO2 
 PCOD8007445
Probable space group: P -1
;
_chemical_formula_sum "Si O2"
_cell_formula_units_Z 16
_cell_length_a 12.184932
_cell_length_b 9.189787
_cell_length_c 15.203486
_cell_angle_alpha 28.491483
_cell_angle_beta 108.277313
_cell_angle_gamma 108.172254
_cell_volume 768.668180
_symmetry_space_group_name_H-M "P -1"
_symmetry_group_IT_number 2
_symmetry_cell_setting 'triclinic'
loop_
_space_group_symop_operation_xyz
x,y,z
-x,-y,-z
loop_
_atom_site_type_symbol
_atom_site_label
_atom_site_fract_x
_atom_site_fract_y
_atom_site_fract_z
Si Si1 0.064808 0.964282 0.774288
Si Si2 0.628926 0.686231 0.663715
Si Si3 0.958579 0.722429 0.573295
Si Si4 0.083609 0.180069 0.856149
Si Si5 0.545108 0.266645 0.257029
Si Si6 0.820618 0.620732 0.883754
Si Si7 0.252846 0.753852 0.184087
Si Si8 0.659709 0.804919 0.890531
O O1 0.946338 0.780052 0.814197
O O2 0.095274 0.185402 0.582405
O O3 0.044658 0.138407 0.767285
O O4 0.169330 0.743415 0.929151
O O5 0.511774 0.629814 0.721148
O O6 0.739162 0.744623 0.723345
O O7 0.642495 0.384164 0.769028
O O8 0.623478 0.984959 0.442554
O O9 0.854556 0.504763 0.705376
O O10 0.073335 0.537805 0.684555
O O11 0.000000 0.000000 0.500000
O O12 0.211288 0.062323 0.963277
O O13 0.000000 0.000000 0.000000
O O14 0.446338 0.151588 0.224020
O O15 0.624222 0.554841 0.088624
O O16 0.771268 0.691910 0.929255
O O17 0.302727 0.864337 0.232800
#
# Coordination Sequence:
#
# PCOD8007445 Si02
#       8
#     2   2   2   2   2   2   2   2
#     4  11  22  38  60  92 129 169 205 257 303 369
#     4  10  20  41  63  93 120 159 212 258 316 378
#     4  11  25  38  61  92 130 174 215 250 302 372
#     4  10  22  40  57  86 129 165 205 255 301 362
#     4   9  22  42  68  87 119 160 207 270 320 372
#     4  10  21  36  63  89 124 164 207 248 312 380
#     4  11  23  38  62  92 127 163 209 258 311 374
#     4  10  22  41  63  93 121 162 205 262 322 375
#
# _framework density 20.815224000000001
#
# number of rings (size 3 to 8) (size 9 to 14) (size 15 to 20)
#    0.000    1.750    1.250    2.625    8.750    2.000 
#    0.000    2.500    0.000    0.000    0.000    0.000 
#    0.000    0.000    0.000    0.000    0.000    0.000 
#
# Total GULP energy -198372.576054 kJ/mol
# GULP energy per Si atom -12398.286003 kJ/mol
# Density = 2.076785 g / cm^3
# Si number density = 20.815224 Si / 1000 Ang^3
#
#
#
# Elastic Constant Matrix: (Units=GPa)
#
#
# Indices 1 2 3 4 5 6 
#
# 1 71.2221 32.7892 37.9420 -8.9567 19.9567 -17.7087
# 2 32.7892 131.9971 40.9628 -16.0666 7.5394 -25.7069
# 3 37.9420 40.9628 121.7330 3.0338 26.7482 -12.6656
# 4 -8.9567 -16.0666 3.0338 36.3761 -7.2063 3.6791
# 5 19.9567 7.5394 26.7482 -7.2063 36.9884 -5.2086
# 6 -17.7087 -25.7069 -12.6656 3.6791 -5.2086 37.7682
#
#
#
# Elastic Compliance Matrix: (Units=1/GPa)
#
#
# Indices 1 2 3 4 5 6 
#
# 1 0.020643 -0.002164 -0.003688 0.002517 -0.006723 0.005797
# 2 -0.002164 0.010399 -0.003025 0.004359 0.002790 0.005009
# 3 -0.003688 -0.003025 0.012009 -0.004607 -0.007015 -0.000280
# 4 0.002517 0.004359 -0.004607 0.031825 0.007359 0.000516
# 5 -0.006723 0.002790 -0.007015 0.007359 0.036705 0.000740
# 6 0.005797 0.005009 -0.000280 0.000516 0.000740 0.032563
#
#
# Mechanical properties :
#
#
# Convention : Reuss Voigt Hill
#
# Bulk Modulus (GPa) = 39.53121 60.92670 50.22895
# Shear Modulus (GPa) = 29.35442 36.44375 32.89909
#
# Velocity S-wave (km/s) = 3.75939 4.18882 3.97990
# Velocity P-wave (km/s) = 6.15441 7.26146 6.73073
#
# Compressibility (1/GPa) = 0.02529647
#
# Stress axis : x y z
#
# Youngs Moduli (GPa) = 48.44156 96.16264 83.26813
#
# Poissons Ratio (x) = 0.20810 0.30712
# Poissons Ratio (y) = 0.10483 0.25191
# Poissons Ratio (z) = 0.17867 0.29092
#
# Static dielectric constant tensor:
#      x y z
#    x 3.820050 -0.293080 0.293370 
#    y -0.293080 3.718920 0.034860 
#    z 0.293370 0.034860 4.036180 
# 
# 
# High freq. dielectric constant tensor:
#      x y z
#    x 1.808020 -0.019880 0.016050 
#    y -0.019880 1.815720 0.010050 
#    z 0.016050 0.010050 1.816560 
# 
# From -- ./inp_files/178671.got.cif
#   From: 2010.06.25/outbox.cif.g09.slc.cpg/sg2_90_cif.got.tgz:178671.got - 2010.06.27 13:26:56.
