data_PCOD8007740
_publ_section_title
;
Structure prediction by ZEFSAII (Michael W. Deem and Ramdas Pophale) SiO2 
 PCOD8007740
Probable space group: P -1
;
_chemical_formula_sum "Si O2"
_cell_formula_units_Z 16
_cell_length_a 12.004269
_cell_length_b 15.096198
_cell_length_c 8.746451
_cell_angle_alpha 32.427344
_cell_angle_beta 105.734048
_cell_angle_gamma 119.874212
_cell_volume 697.994318
_symmetry_space_group_name_H-M "P -1"
_symmetry_group_IT_number 2
_symmetry_cell_setting 'triclinic'
loop_
_space_group_symop_operation_xyz
x,y,z
-x,-y,-z
loop_
_atom_site_type_symbol
_atom_site_label
_atom_site_fract_x
_atom_site_fract_y
_atom_site_fract_z
Si Si1 0.739541 0.744866 0.856883
Si Si2 0.804541 0.493695 0.021780
Si Si3 0.892366 0.645578 0.247553
Si Si4 0.702478 0.202935 0.787279
Si Si5 0.498061 0.227533 0.213769
Si Si6 0.854902 0.144358 0.164346
Si Si7 0.968432 0.558415 0.709558
Si Si8 0.515121 0.949631 0.834515
O O1 0.776470 0.630196 0.917793
O O2 0.577364 0.660589 0.923750
O O3 0.818850 0.972459 0.517994
O O4 0.780603 0.707946 0.096118
O O5 0.913048 0.620160 0.744808
O O6 0.660037 0.342934 0.114310
O O7 0.876888 0.392479 0.283656
O O8 0.828423 0.421367 0.503777
O O9 0.962135 0.682027 0.385544
O O10 0.997369 0.776372 0.965370
O O11 0.650833 0.121537 0.716458
O O12 0.750182 0.075089 0.083123
O O13 0.581371 0.193191 0.858908
O O14 0.441921 0.041647 0.576217
O O15 0.450961 0.165151 0.110716
O O16 0.861866 0.326842 0.987205
#
# Coordination Sequence:
#
# PCOD8007740 Si02
#       8
#     2   2   2   2   2   2   2   2
#     4  12  25  43  63 102 140 173 212 277 338 386
#     4  11  24  42  71  96 136 174 222 270 332 390
#     4  11  23  41  70  95 132 174 219 270 332 395
#     4  10  20  41  67  98 124 170 224 270 320 393
#     4  11  23  42  64  99 134 177 214 269 332 395
#     4  11  22  42  67  96 131 170 219 274 330 384
#     4  10  23  44  71  99 124 179 227 269 316 405
#     4  10  22  39  68  96 128 170 228 270 316 392
#
# _framework density 22.922822
#
# number of rings (size 3 to 8) (size 9 to 14) (size 15 to 20)
#    0.000    1.250    2.500    4.500    3.500    0.000 
#    2.250    1.875    0.000    0.000    0.000    0.000 
#    0.000    0.000    0.000    0.000    0.000    0.000 
#
# Total GULP energy -198255.698190 kJ/mol
# GULP energy per Si atom -12390.981137 kJ/mol
# Density = 2.287065 g / cm^3
# Si number density = 22.922822 Si / 1000 Ang^3
#
#
#
# Elastic Constant Matrix: (Units=GPa)
#
#
# Indices 1 2 3 4 5 6 
#
# 1 148.5700 56.1351 27.7206 10.1513 14.9446 -1.9057
# 2 56.1351 121.2405 26.7375 25.7652 5.9020 8.9511
# 3 27.7206 26.7375 79.8677 20.6682 12.9945 8.2376
# 4 10.1513 25.7652 20.6682 29.1055 5.8011 3.4220
# 5 14.9446 5.9020 12.9945 5.8011 34.5523 1.7956
# 6 -1.9057 8.9511 8.2376 3.4220 1.7956 36.1052
#
#
#
# Elastic Compliance Matrix: (Units=1/GPa)
#
#
# Indices 1 2 3 4 5 6 
#
# 1 0.008821 -0.004142 -0.002018 0.002371 -0.002844 0.001870
# 2 -0.004142 0.012300 -0.000276 -0.009259 0.001474 -0.002401
# 3 -0.002018 -0.000276 0.016741 -0.009906 -0.003570 -0.002741
# 4 0.002371 -0.009259 -0.009906 0.049546 -0.004047 0.000186
# 5 -0.002844 0.001474 -0.003570 -0.004047 0.031989 -0.000908
# 6 0.001870 -0.002401 -0.002741 0.000186 -0.000908 0.029044
#
#
# Mechanical properties :
#
#
# Convention : Reuss Voigt Hill
#
# Bulk Modulus (GPa) = 40.01971 63.42938 51.72454
# Shear Modulus (GPa) = 29.47367 35.89162 32.68265
#
# Velocity S-wave (km/s) = 3.58967 3.96126 3.78003
# Velocity P-wave (km/s) = 5.88874 6.97517 6.45486
#
# Compressibility (1/GPa) = 0.02498769
#
# Stress axis : x y z
#
# Youngs Moduli (GPa) = 113.37134 81.30049 59.73487
#
# Poissons Ratio (x) = 0.33677 0.12057
# Poissons Ratio (y) = 0.46962 0.01649
# Poissons Ratio (z) = 0.22883 0.02245
#
# Static dielectric constant tensor:
#      x y z
#    x 4.348380 0.274960 -0.051830 
#    y 0.274960 4.299670 0.350360 
#    z -0.051830 0.350360 3.991010 
# 
# 
# High freq. dielectric constant tensor:
#      x y z
#    x 1.916460 0.017470 -0.014900 
#    y 0.017470 1.900870 0.029950 
#    z -0.014900 0.029950 1.880120 
# 
# From -- ./inp_files/271388.got.cif
#   From: 2010.06.25/outbox.cif.g09.slc.cpg/sg2_136_cif.got.tgz:271388.got - 2010.06.27 13:26:56.
