data_PCOD8007638
_publ_section_title
;
Structure prediction by ZEFSAII (Michael W. Deem and Ramdas Pophale) SiO2 
 PCOD8007638
Probable space group: P -1
;
_chemical_formula_sum "Si O2"
_cell_formula_units_Z 16
_cell_length_a 8.676085
_cell_length_b 16.782899
_cell_length_c 8.827838
_cell_angle_alpha 136.291623
_cell_angle_beta 54.980858
_cell_angle_gamma 107.679056
_cell_volume 713.244119
_symmetry_space_group_name_H-M "P -1"
_symmetry_group_IT_number 2
_symmetry_cell_setting 'triclinic'
loop_
_space_group_symop_operation_xyz
x,y,z
-x,-y,-z
loop_
_atom_site_type_symbol
_atom_site_label
_atom_site_fract_x
_atom_site_fract_y
_atom_site_fract_z
Si Si1 0.098948 0.309169 0.969123
Si Si2 0.638794 0.816851 0.117640
Si Si3 0.544377 0.538369 0.363169
Si Si4 0.117502 0.560904 0.170331
Si Si5 0.847145 0.415475 0.493423
Si Si6 0.268340 0.265518 0.383367
Si Si7 0.754821 0.031189 0.504508
Si Si8 0.855784 0.899742 0.559638
O O1 0.301450 0.272428 0.897529
O O2 0.058942 0.215127 0.742847
O O3 0.093381 0.431409 0.056566
O O4 0.925582 0.309354 0.188161
O O5 0.408203 0.853994 0.281443
O O6 0.730316 0.931104 0.259777
O O7 0.722054 0.753107 0.827962
O O8 0.500000 0.500000 0.500000
O O9 0.367300 0.521897 0.338216
O O10 0.565168 0.674873 0.555651
O O11 0.726236 0.450061 0.066016
O O12 0.168520 0.627305 0.383996
O O13 0.919515 0.638010 0.329337
O O14 0.000000 0.500000 0.500000
O O15 0.275706 0.139472 0.287470
O O16 0.967873 0.056281 0.398508
O O17 0.732838 0.994377 0.643654
#
# Coordination Sequence:
#
# PCOD8007638 Si02
#       8
#     2   2   2   2   2   2   2   2
#     4  10  20  41  66  92 135 176 210 264 321 397
#     4  10  22  42  69  97 128 171 221 264 338 390
#     4  12  26  39  63  94 136 183 219 262 316 377
#     4  11  23  44  60  95 143 176 213 262 315 398
#     4  10  22  41  61  87 131 180 212 261 309 380
#     4  12  25  41  65 104 131 174 217 270 323 403
#     4   9  22  46  70  94 123 170 216 287 331 388
#     4  10  22  42  69  96 130 167 216 278 338 377
#
# _framework density 22.432711999999999
#
# number of rings (size 3 to 8) (size 9 to 14) (size 15 to 20)
#    0.000    1.500    2.500    2.250    5.250    1.000 
#    2.250    0.000    0.000    0.000    0.000    0.000 
#    0.000    0.000    0.000    0.000    0.000    0.000 
#
# Total GULP energy -198257.384090 kJ/mol
# GULP energy per Si atom -12391.086506 kJ/mol
# Density = 2.238165 g / cm^3
# Si number density = 22.432712 Si / 1000 Ang^3
#
#
#
# Elastic Constant Matrix: (Units=GPa)
#
#
# Indices 1 2 3 4 5 6 
#
# 1 110.7781 11.6556 19.3578 -2.7754 -2.5891 10.7215
# 2 11.6556 67.2585 -3.9432 -10.3910 -4.2495 2.0082
# 3 19.3578 -3.9432 93.7084 -14.6348 4.0924 2.4234
# 4 -2.7754 -10.3910 -14.6348 32.2190 -9.0113 0.7565
# 5 -2.5891 -4.2495 4.0924 -9.0113 36.1048 2.1884
# 6 10.7215 2.0082 2.4234 0.7565 2.1884 30.2051
#
#
#
# Elastic Compliance Matrix: (Units=1/GPa)
#
#
# Indices 1 2 3 4 5 6 
#
# 1 0.009912 -0.001746 -0.002130 -0.000360 0.000856 -0.003284
# 2 -0.001746 0.016644 0.002054 0.007140 0.003449 -0.001080
# 3 -0.002130 0.002054 0.012150 0.006083 0.000262 -0.000527
# 4 -0.000360 0.007140 0.006083 0.038927 0.009994 -0.002534
# 5 0.000856 0.003449 0.000262 0.009994 0.030813 -0.003037
# 6 -0.003284 -0.001080 -0.000527 -0.002534 -0.003037 0.034670
#
#
# Mechanical properties :
#
#
# Convention : Reuss Voigt Hill
#
# Bulk Modulus (GPa) = 28.52123 36.20947 32.36535
# Shear Modulus (GPa) = 31.55599 36.01745 33.78672
#
# Velocity S-wave (km/s) = 3.75466 4.01131 3.88511
# Velocity P-wave (km/s) = 5.61590 6.13438 5.88086
#
# Compressibility (1/GPa) = 0.03506161
#
# Stress axis : x y z
#
# Youngs Moduli (GPa) = 100.89031 60.08081 82.30464
#
# Poissons Ratio (x) = 0.10490 0.17528
# Poissons Ratio (y) = 0.17616 -0.16901
# Poissons Ratio (z) = 0.21486 -0.12338
#
# Static dielectric constant tensor:
#      x y z
#    x 4.163960 -0.149810 0.314040 
#    y -0.149810 3.993620 0.039850 
#    z 0.314040 0.039850 4.532370 
# 
# 
# High freq. dielectric constant tensor:
#      x y z
#    x 1.898940 -0.012200 0.019250 
#    y -0.012200 1.859230 0.000760 
#    z 0.019250 0.000760 1.884360 
# 
# From -- ./inp_files/218496.got.cif
#   From: 2010.06.25/outbox.cif.g09.slc.cpg/sg2_110_cif.got.tgz:218496.got - 2010.06.27 13:26:56.
