data_PCOD8007610
_publ_section_title
;
Structure prediction by ZEFSAII (Michael W. Deem and Ramdas Pophale) SiO2 
 PCOD8007610
Probable space group: P -1
;
_chemical_formula_sum "Si O2"
_cell_formula_units_Z 16
_cell_length_a 11.814702
_cell_length_b 8.866557
_cell_length_c 18.822124
_cell_angle_alpha 98.298254
_cell_angle_beta 127.523967
_cell_angle_gamma 39.769333
_cell_volume 770.049578
_symmetry_space_group_name_H-M "P -1"
_symmetry_group_IT_number 2
_symmetry_cell_setting 'triclinic'
loop_
_space_group_symop_operation_xyz
x,y,z
-x,-y,-z
loop_
_atom_site_type_symbol
_atom_site_label
_atom_site_fract_x
_atom_site_fract_y
_atom_site_fract_z
Si Si1 0.507173 0.176524 0.428291
Si Si2 0.446081 0.410030 0.094042
Si Si3 0.018454 0.199446 0.809287
Si Si4 0.978764 0.691033 0.029773
Si Si5 0.570052 0.110752 0.609218
Si Si6 0.971053 0.916492 0.840026
Si Si7 0.091446 0.584849 0.559898
Si Si8 0.478795 0.701079 0.184862
O O1 0.560208 0.174475 0.529377
O O2 0.250363 0.512682 0.322757
O O3 0.442364 0.057447 0.393779
O O4 0.793170 0.953997 0.477152
O O5 0.579295 0.452906 0.167209
O O6 0.252056 0.529189 0.092743
O O7 0.699589 0.054189 0.150305
O O8 0.269486 0.587086 0.965384
O O9 0.023458 0.309505 0.885449
O O10 0.000964 0.046369 0.820780
O O11 0.000000 0.500000 0.000000
O O12 0.680378 0.040724 0.913724
O O13 0.302874 0.444866 0.568646
O O14 0.870595 0.883097 0.742824
O O15 0.742987 0.148661 0.830730
O O16 0.257013 0.449505 0.689702
O O17 0.000000 0.500000 0.500000
#
# Coordination Sequence:
#
# PCOD8007610 Si02
#       8
#     2   2   2   2   2   2   2   2
#     4  10  23  41  59  89 126 158 216 257 307 360
#     4  11  23  43  63  95 129 164 209 246 319 389
#     4  12  25  39  63  96 127 164 206 260 308 369
#     4  11  25  42  65  97 129 158 204 269 312 365
#     4   9  21  42  62  85 119 169 205 261 307 367
#     4  10  20  41  66  87 127 165 208 254 310 374
#     4   9  20  38  65  88 115 166 213 247 305 371
#     4  10  20  43  67  91 123 172 208 251 316 378
#
# _framework density 20.777882999999999
#
# number of rings (size 3 to 8) (size 9 to 14) (size 15 to 20)
#    0.000    1.750    2.500    1.125    8.750    2.000 
#    4.500    1.250    0.000    0.000    0.000    0.000 
#    0.000    0.000    0.000    0.000    0.000    0.000 
#
# Total GULP energy -198355.438588 kJ/mol
# GULP energy per Si atom -12397.214912 kJ/mol
# Density = 2.073059 g / cm^3
# Si number density = 20.777883 Si / 1000 Ang^3
#
#
#
# Elastic Constant Matrix: (Units=GPa)
#
#
# Indices 1 2 3 4 5 6 
#
# 1 18.5556 10.2218 10.6834 1.4779 3.8942 1.9352
# 2 10.2218 108.0817 55.0638 -0.4000 3.9423 -12.5742
# 3 10.6834 55.0638 131.4957 5.5336 12.5648 -11.8958
# 4 1.4779 -0.4000 5.5336 49.0185 2.2295 2.5709
# 5 3.8942 3.9423 12.5648 2.2295 25.1934 4.5595
# 6 1.9352 -12.5742 -11.8958 2.5709 4.5595 17.9011
#
#
#
# Elastic Compliance Matrix: (Units=1/GPa)
#
#
# Indices 1 2 3 4 5 6 
#
# 1 0.060879 -0.005202 -0.003270 -0.000706 -0.004901 -0.011059
# 2 -0.005202 0.012716 -0.004290 0.000409 -0.000288 0.006659
# 3 -0.003270 -0.004290 0.010752 -0.001229 -0.005158 0.005976
# 4 -0.000706 0.000409 -0.001229 0.020763 -0.000585 -0.003286
# 5 -0.004901 -0.000288 -0.005158 -0.000585 0.045776 -0.014676
# 6 -0.011059 0.006659 0.005976 -0.003286 -0.014676 0.069916
#
#
# Mechanical properties :
#
#
# Convention : Reuss Voigt Hill
#
# Bulk Modulus (GPa) = 17.00000 45.56343 31.28172
# Shear Modulus (GPa) = 18.80170 30.56686 24.68428
#
# Velocity S-wave (km/s) = 3.01140 3.83969 3.45049
# Velocity P-wave (km/s) = 4.50455 6.45244 5.56439
#
# Compressibility (1/GPa) = 0.05882352
#
# Stress axis : x y z
#
# Youngs Moduli (GPa) = 16.42609 78.63901 93.00583
#
# Poissons Ratio (x) = 0.40907 0.30415
# Poissons Ratio (y) = 0.08545 0.39896
# Poissons Ratio (z) = 0.05372 0.33734
#
# Static dielectric constant tensor:
#      x y z
#    x 3.672420 -0.332420 0.136420 
#    y -0.332420 4.084310 0.164300 
#    z 0.136420 0.164300 4.052210 
# 
# 
# High freq. dielectric constant tensor:
#      x y z
#    x 1.793960 -0.018300 0.009850 
#    y -0.018300 1.819810 0.013310 
#    z 0.009850 0.013310 1.821700 
# 
# From -- ./inp_files/234248.got.cif
#   From: 2010.06.25/outbox.cif.g09.slc.cpg/sg2_118_cif.got.tgz:234248.got - 2010.06.27 13:26:56.
