data_PCOD8007145
_publ_section_title
;
Structure prediction by ZEFSAII (Michael W. Deem and Ramdas Pophale) SiO2 
 PCOD8007145
Probable space group: P -1
;
_chemical_formula_sum "Si O2"
_cell_formula_units_Z 16
_cell_length_a 12.046883
_cell_length_b 9.163942
_cell_length_c 8.892823
_cell_angle_alpha 86.109340
_cell_angle_beta 89.216446
_cell_angle_gamma 50.646474
_cell_volume 756.831132
_symmetry_space_group_name_H-M "P -1"
_symmetry_group_IT_number 2
_symmetry_cell_setting 'triclinic'
loop_
_space_group_symop_operation_xyz
x,y,z
-x,-y,-z
loop_
_atom_site_type_symbol
_atom_site_label
_atom_site_fract_x
_atom_site_fract_y
_atom_site_fract_z
Si Si1 0.590245 0.196310 0.980723
Si Si2 0.221894 0.052901 0.751829
Si Si3 0.168391 0.330927 0.486278
Si Si4 0.314926 0.556953 0.073686
Si Si5 0.313052 0.789486 0.519695
Si Si6 0.367057 0.437652 0.426090
Si Si7 0.216942 0.064182 0.249621
Si Si8 0.998681 0.827826 0.007810
O O1 0.678141 0.275705 0.970632
O O2 0.636215 0.061040 0.844595
O O3 0.421975 0.374302 0.977357
O O4 0.637684 0.065583 0.135969
O O5 0.227703 0.188274 0.634703
O O6 0.078320 0.173358 0.844160
O O7 0.222445 0.904991 0.661623
O O8 0.256458 0.406148 0.477115
O O9 0.202068 0.224222 0.334542
O O10 0.000000 0.500000 0.500000
O O11 0.352167 0.497862 0.249886
O O12 0.158804 0.629511 0.025942
O O13 0.329564 0.602681 0.525881
O O14 0.467720 0.743515 0.531337
O O15 0.224338 0.918439 0.368508
O O16 0.076906 0.166955 0.141318
O O17 0.000000 0.000000 0.000000
#
# Coordination Sequence:
#
# PCOD8007145 Si02
#       8
#     2   2   2   2   2   2   2   2
#     4  10  20  40  67  97 132 166 222 284 331 381
#     4  10  21  40  68  93 135 170 213 278 334 395
#     4  11  26  46  63  94 144 183 217 265 341 416
#     4  11  20  37  68  99 132 167 224 281 332 378
#     4  10  21  41  70 100 126 165 231 285 324 386
#     4  11  22  40  68 101 129 172 223 279 333 387
#     4  10  22  42  66  92 133 175 214 275 332 396
#     4  11  20  38  67  97 131 173 223 277 328 390
#
# _framework density 21.140778999999998
#
# number of rings (size 3 to 8) (size 9 to 14) (size 15 to 20)
#    0.000    1.500    5.000    0.750    0.000    3.000 
#    2.250    9.375    0.000    0.000    0.000    0.000 
#    0.000    0.000    0.000    0.000    0.000    0.000 
#
# Total GULP energy -198395.579164 kJ/mol
# GULP energy per Si atom -12399.723698 kJ/mol
# Density = 2.109266 g / cm^3
# Si number density = 21.140779 Si / 1000 Ang^3
#
#
#
# Elastic Constant Matrix: (Units=GPa)
#
#
# Indices 1 2 3 4 5 6 
#
# 1 125.1358 54.6907 42.4424 2.6056 2.1379 -12.9883
# 2 54.6907 122.4924 53.7587 12.6165 4.0756 -19.0524
# 3 42.4424 53.7587 132.9653 7.2354 3.3174 -6.2392
# 4 2.6056 12.6165 7.2354 28.3509 -1.3385 -1.5780
# 5 2.1379 4.0756 3.3174 -1.3385 21.3349 -6.9457
# 6 -12.9883 -19.0524 -6.2392 -1.5780 -6.9457 38.9460
#
#
#
# Elastic Compliance Matrix: (Units=1/GPa)
#
#
# Indices 1 2 3 4 5 6 
#
# 1 0.010361 -0.003755 -0.001803 0.001286 0.000520 0.001474
# 2 -0.003755 0.012390 -0.003388 -0.004099 -0.000410 0.004027
# 3 -0.001803 -0.003388 0.009493 -0.000850 -0.001012 -0.000953
# 4 0.001286 -0.004099 -0.000850 0.037370 0.003255 0.000382
# 5 0.000520 -0.000410 -0.001012 0.003255 0.050153 0.008887
# 6 0.001474 0.004027 -0.000953 0.000382 0.008887 0.029586
#
#
# Mechanical properties :
#
#
# Convention : Reuss Voigt Hill
#
# Bulk Modulus (GPa) = 69.68130 75.81968 72.75049
# Shear Modulus (GPa) = 29.06488 33.03980 31.05234
#
# Velocity S-wave (km/s) = 3.71189 3.95757 3.83670
# Velocity P-wave (km/s) = 7.16959 7.53825 7.35623
#
# Compressibility (1/GPa) = 0.01435105
#
# Stress axis : x y z
#
# Youngs Moduli (GPa) = 96.51162 80.71258 105.34202
#
# Poissons Ratio (x) = 0.30311 0.18991
# Poissons Ratio (y) = 0.36244 0.35693
# Poissons Ratio (z) = 0.17399 0.27348
#
# Static dielectric constant tensor:
#      x y z
#    x 3.556930 -0.265870 0.011800 
#    y -0.265870 4.023540 0.035160 
#    z 0.011800 0.035160 4.020490 
# 
# 
# High freq. dielectric constant tensor:
#      x y z
#    x 1.797310 -0.018550 -0.000950 
#    y -0.018550 1.839300 -0.000710 
#    z -0.000950 -0.000710 1.843950 
# 
# From -- ./inp_files/243536.got.cif
#   From: 2010.06.25/outbox.cif.g09.slc.cpg/sg2_122_cif.got.tgz:243536.got - 2010.06.27 13:26:56.
