data_PCOD8007481
_publ_section_title
;
Structure prediction by ZEFSAII (Michael W. Deem and Ramdas Pophale) SiO2 
 PCOD8007481
Probable space group: P -1
;
_chemical_formula_sum "Si O2"
_cell_formula_units_Z 16
_cell_length_a 15.894289
_cell_length_b 19.857750
_cell_length_c 12.016435
_cell_angle_alpha 134.174378
_cell_angle_beta 28.586128
_cell_angle_gamma 153.858518
_cell_volume 720.431622
_symmetry_space_group_name_H-M "P -1"
_symmetry_group_IT_number 2
_symmetry_cell_setting 'triclinic'
loop_
_space_group_symop_operation_xyz
x,y,z
-x,-y,-z
loop_
_atom_site_type_symbol
_atom_site_label
_atom_site_fract_x
_atom_site_fract_y
_atom_site_fract_z
Si Si1 0.349502 0.110656 0.927788
Si Si2 0.812118 0.332600 0.469770
Si Si3 0.257980 0.476328 0.754024
Si Si4 0.737473 0.528738 0.497925
Si Si5 0.642593 0.796845 0.336304
Si Si6 0.437393 0.882271 0.095120
Si Si7 0.414700 0.583271 0.928221
Si Si8 0.531912 0.127072 0.201207
O O1 0.412472 0.250652 0.027716
O O2 0.637056 0.196296 0.615282
O O3 0.327844 0.045793 0.995525
O O4 0.018650 0.949961 0.061978
O O5 0.515082 0.229306 0.619150
O O6 0.000000 0.500000 0.500000
O O7 0.084888 0.401724 0.161311
O O8 0.500000 0.500000 0.500000
O O9 0.293416 0.539632 0.664468
O O10 0.332069 0.576637 0.888476
O O11 0.907612 0.278572 0.945157
O O12 0.521669 0.377927 0.662018
O O13 0.645015 0.596829 0.678466
O O14 0.104028 0.685378 0.287701
O O15 0.585221 0.833106 0.554323
O O16 0.383668 0.970460 0.254109
O O17 0.575219 0.911581 0.848435
#
# Coordination Sequence:
#
# PCOD8007481 Si02
#       8
#     2   2   2   2   2   2   2   2
#     4  11  25  40  64  92 128 170 214 262 309 375
#     4  10  22  44  66  88 125 169 215 267 313 368
#     4   9  19  34  63  89 125 157 204 250 315 369
#     4  10  22  38  62  94 127 165 207 259 314 382
#     4  12  24  40  65  96 129 162 220 256 319 372
#     4  10  23  42  62  93 133 166 213 251 325 373
#     4  10  20  41  64  89 126 167 211 259 318 367
#     4  10  22  40  65  91 131 170 202 269 310 379
#
# _framework density 22.208909999999999
#
# number of rings (size 3 to 8) (size 9 to 14) (size 15 to 20)
#    0.000    1.750    1.250    2.625    5.250    2.500 
#    0.000    9.375    0.000    0.000    0.000    0.000 
#    0.000    0.000    0.000    0.000    0.000    0.000 
#
# Total GULP energy -198290.743720 kJ/mol
# GULP energy per Si atom -12393.171483 kJ/mol
# Density = 2.215836 g / cm^3
# Si number density = 22.208910 Si / 1000 Ang^3
#
#
#
# Elastic Constant Matrix: (Units=GPa)
#
#
# Indices 1 2 3 4 5 6 
#
# 1 93.6084 14.9830 12.1450 -5.6049 3.4548 6.9731
# 2 14.9830 65.8913 7.2476 -15.2948 2.4596 -6.0558
# 3 12.1450 7.2476 76.3188 -15.0875 5.3519 1.2723
# 4 -5.6049 -15.2948 -15.0875 32.3479 2.6146 -1.7330
# 5 3.4548 2.4596 5.3519 2.6146 25.8628 -6.8891
# 6 6.9731 -6.0558 1.2723 -1.7330 -6.8891 32.5643
#
#
#
# Elastic Compliance Matrix: (Units=1/GPa)
#
#
# Indices 1 2 3 4 5 6 
#
# 1 0.011620 -0.002712 -0.001391 0.000057 -0.001901 -0.003337
# 2 -0.002712 0.018180 0.000432 0.008649 -0.001226 0.004145
# 3 -0.001391 0.000432 0.014995 0.007235 -0.003860 -0.000639
# 4 0.000057 0.008649 0.007235 0.038964 -0.005684 0.002185
# 5 -0.001901 -0.001226 -0.003860 -0.005684 0.042830 0.009088
# 6 -0.003337 0.004145 -0.000639 0.002185 0.009088 0.034258
#
#
# Mechanical properties :
#
#
# Convention : Reuss Voigt Hill
#
# Bulk Modulus (GPa) = 26.70100 33.84107 30.27103
# Shear Modulus (GPa) = 27.67436 31.58454 29.62945
#
# Velocity S-wave (km/s) = 3.53383 3.77524 3.65653
# Velocity P-wave (km/s) = 5.35718 5.85440 5.61130
#
# Compressibility (1/GPa) = 0.03745179
#
# Stress axis : x y z
#
# Youngs Moduli (GPa) = 86.06215 55.00582 66.68942
#
# Poissons Ratio (x) = 0.14915 0.09279
# Poissons Ratio (y) = 0.23337 -0.02879
# Poissons Ratio (z) = 0.11974 -0.02374
#
# Static dielectric constant tensor:
#      x y z
#    x 4.390110 -0.000640 0.517480 
#    y -0.000640 4.198900 -0.383310 
#    z 0.517480 -0.383310 4.317720 
# 
# 
# High freq. dielectric constant tensor:
#      x y z
#    x 1.876330 0.014390 0.009140 
#    y 0.014390 1.859420 -0.016980 
#    z 0.009140 -0.016980 1.873020 
# 
# From -- ./inp_files/216942.got.cif
#   From: 2010.06.25/outbox.cif.g09.slc.cpg/sg2_109_cif.got.tgz:216942.got - 2010.06.27 13:26:56.
