data_PCOD8007612
_publ_section_title
;
Structure prediction by ZEFSAII (Michael W. Deem and Ramdas Pophale) SiO2 
 PCOD8007612
Probable space group: P -1
;
_chemical_formula_sum "Si O2"
_cell_formula_units_Z 16
_cell_length_a 12.137404
_cell_length_b 8.959236
_cell_length_c 12.404422
_cell_angle_alpha 127.056461
_cell_angle_beta 48.639129
_cell_angle_gamma 120.105614
_cell_volume 795.824055
_symmetry_space_group_name_H-M "P -1"
_symmetry_group_IT_number 2
_symmetry_cell_setting 'triclinic'
loop_
_space_group_symop_operation_xyz
x,y,z
-x,-y,-z
loop_
_atom_site_type_symbol
_atom_site_label
_atom_site_fract_x
_atom_site_fract_y
_atom_site_fract_z
Si Si1 0.127877 0.684700 0.213750
Si Si2 0.374051 0.975135 0.924377
Si Si3 0.307974 0.056235 0.343711
Si Si4 0.686652 0.448219 0.136632
Si Si5 0.626697 0.684258 0.773146
Si Si6 0.057744 0.030985 0.095608
Si Si7 0.888545 0.563838 0.680545
Si Si8 0.865021 0.784343 0.296743
O O1 0.218202 0.897503 0.254057
O O2 0.136453 0.603000 0.290567
O O3 0.963791 0.694419 0.280471
O O4 0.197049 0.539682 0.030488
O O5 0.324051 0.758855 0.896241
O O6 0.525466 0.989466 0.761608
O O7 0.409123 0.122695 0.064912
O O8 0.233720 0.025196 0.971654
O O9 0.313840 0.252642 0.357855
O O10 0.224036 0.072613 0.518919
O O11 0.524236 0.470762 0.206777
O O12 0.742448 0.614870 0.256809
O O13 0.736350 0.581745 0.726380
O O14 0.033475 0.239229 0.233605
O O15 0.968856 0.886745 0.178092
O O16 0.000000 0.000000 0.000000
O O17 0.000000 0.500000 0.500000
#
# Coordination Sequence:
#
# PCOD8007612 Si02
#       8
#     2   2   2   2   2   2   2   2
#     4  12  21  39  67  89 121 162 209 252 293 371
#     4  10  20  41  66  88 123 163 209 243 307 372
#     4  11  21  41  66  91 122 162 204 259 302 355
#     4  11  21  38  65  92 120 159 210 254 293 369
#     4  10  20  42  63  90 125 164 205 243 312 366
#     4  11  24  45  62  87 126 169 199 248 315 372
#     4  11  24  40  62  92 124 159 204 257 309 355
#     4  12  25  38  63 100 121 155 213 256 304 357
#
# _framework density 20.104946999999999
#
# number of rings (size 3 to 8) (size 9 to 14) (size 15 to 20)
#    0.000    1.000    3.750    4.500    1.750    2.500 
#    4.500    0.625    0.000    0.000    0.000    0.000 
#    0.000    0.000    0.000    0.000    0.000    0.000 
#
# Total GULP energy -198368.891889 kJ/mol
# GULP energy per Si atom -12398.055743 kJ/mol
# Density = 2.005919 g / cm^3
# Si number density = 20.104947 Si / 1000 Ang^3
#
#
#
# Elastic Constant Matrix: (Units=GPa)
#
#
# Indices 1 2 3 4 5 6 
#
# 1 140.3504 49.0318 66.9459 -0.0750 -4.6282 14.9601
# 2 49.0318 60.1847 27.8746 -1.5298 -8.5680 8.8268
# 3 66.9459 27.8746 121.7737 -4.5008 -3.8090 4.7189
# 4 -0.0750 -1.5298 -4.5008 24.8293 5.2710 7.1745
# 5 -4.6282 -8.5680 -3.8090 5.2710 22.9627 4.5808
# 6 14.9601 8.8268 4.7189 7.1745 4.5808 37.6980
#
#
#
# Elastic Compliance Matrix: (Units=1/GPa)
#
#
# Indices 1 2 3 4 5 6 
#
# 1 0.012379 -0.007499 -0.005035 -0.000541 -0.000544 -0.002358
# 2 -0.007499 0.025027 -0.001173 0.000673 0.008249 -0.003868
# 3 -0.005035 -0.001173 0.011293 0.001830 -0.000104 0.000524
# 4 -0.000541 0.000673 0.001830 0.044615 -0.008268 -0.007658
# 5 -0.000544 0.008249 -0.000104 -0.008268 0.049627 -0.006160
# 6 -0.002358 -0.003868 0.000524 -0.007658 -0.006160 0.030508
#
#
# Mechanical properties :
#
#
# Convention : Reuss Voigt Hill
#
# Bulk Modulus (GPa) = 46.98200 67.77927 57.38064
# Shear Modulus (GPa) = 24.04338 28.99511 26.51925
#
# Velocity S-wave (km/s) = 3.46192 3.80173 3.63580
# Velocity P-wave (km/s) = 6.27686 7.28401 6.79911
#
# Compressibility (1/GPa) = 0.02128475
#
# Stress axis : x y z
#
# Youngs Moduli (GPa) = 80.77938 39.95692 88.55382
#
# Poissons Ratio (x) = 0.29963 0.44585
# Poissons Ratio (y) = 0.60575 0.10391
# Poissons Ratio (z) = 0.40670 0.04689
#
# Static dielectric constant tensor:
#      x y z
#    x 3.727500 0.223910 -0.155660 
#    y 0.223910 3.498790 -0.060870 
#    z -0.155660 -0.060870 3.738470 
# 
# 
# High freq. dielectric constant tensor:
#      x y z
#    x 1.789570 0.012130 -0.006610 
#    y 0.012130 1.778400 -0.001360 
#    z -0.006610 -0.001360 1.787010 
# 
# From -- ./inp_files/186039.got.cif
#   From: 2010.06.25/outbox.cif.g09.slc.cpg/sg2_94_cif.got.tgz:186039.got - 2010.06.27 13:26:56.
