data_PCOD8007834
_publ_section_title
;
Structure prediction by ZEFSAII (Michael W. Deem and Ramdas Pophale) SiO2 
 PCOD8007834
Probable space group: P -1
;
_chemical_formula_sum "Si O2"
_cell_formula_units_Z 16
_cell_length_a 15.705433
_cell_length_b 12.011429
_cell_length_c 9.195337
_cell_angle_alpha 107.080710
_cell_angle_beta 48.561186
_cell_angle_gamma 67.974288
_cell_volume 754.686178
_symmetry_space_group_name_H-M "P -1"
_symmetry_group_IT_number 2
_symmetry_cell_setting 'triclinic'
loop_
_space_group_symop_operation_xyz
x,y,z
-x,-y,-z
loop_
_atom_site_type_symbol
_atom_site_label
_atom_site_fract_x
_atom_site_fract_y
_atom_site_fract_z
Si Si1 0.125827 0.995203 0.636251
Si Si2 0.589581 0.248598 0.020816
Si Si3 0.569697 0.378542 0.686479
Si Si4 0.627590 0.791445 0.827928
Si Si5 0.754277 0.168755 0.113285
Si Si6 0.401561 0.273178 0.842110
Si Si7 0.038513 0.459257 0.272083
Si Si8 0.800288 0.915392 0.149760
O O1 0.232370 0.803992 0.527588
O O2 0.120053 0.112650 0.792757
O O3 0.235587 0.939657 0.343715
O O4 0.918817 0.125767 0.876492
O O5 0.514539 0.428602 0.098356
O O6 0.429516 0.281154 0.216610
O O7 0.648387 0.224837 0.108111
O O8 0.605840 0.347794 0.460168
O O9 0.427003 0.389727 0.892797
O O10 0.842587 0.646976 0.485046
O O11 0.606414 0.792888 0.025137
O O12 0.500000 0.000000 0.000000
O O13 0.844549 0.978774 0.005903
O O14 0.575112 0.083883 0.478648
O O15 0.208234 0.410034 0.023034
O O16 0.000000 0.500000 0.500000
O O17 0.100071 0.280376 0.091231
#
# Coordination Sequence:
#
# PCOD8007834 Si02
#       8
#     2   2   2   2   2   2   2   2
#     4  10  21  39  62  94 127 165 210 260 312 384
#     4  12  23  40  64  93 133 168 204 266 324 364
#     4  10  21  41  65  94 125 165 210 260 312 383
#     4  11  25  43  61  92 132 165 210 268 321 369
#     4  10  23  37  63  97 129 166 203 267 318 375
#     4   9  20  44  66  95 124 163 215 265 309 375
#     4  10  23  39  67  92 115 173 219 256 301 390
#     4  10  20  41  69  92 129 166 214 265 312 381
#
# _framework density 21.200865
#
# number of rings (size 3 to 8) (size 9 to 14) (size 15 to 20)
#    0.000    2.000    2.500    3.000    7.000    1.000 
#    2.250    0.625    0.000    0.000    0.000    0.000 
#    0.000    0.000    0.000    0.000    0.000    0.000 
#
# Total GULP energy -198377.662821 kJ/mol
# GULP energy per Si atom -12398.603926 kJ/mol
# Density = 2.115261 g / cm^3
# Si number density = 21.200865 Si / 1000 Ang^3
#
#
#
# Elastic Constant Matrix: (Units=GPa)
#
#
# Indices 1 2 3 4 5 6 
#
# 1 111.8061 30.3257 59.7571 11.8731 -19.6676 7.4739
# 2 30.3257 67.9820 28.3272 12.3545 -8.3034 20.2046
# 3 59.7571 28.3272 105.1087 10.7154 -17.3237 10.1463
# 4 11.8731 12.3545 10.7154 31.5248 4.1461 12.9386
# 5 -19.6676 -8.3034 -17.3237 4.1461 51.2746 -1.5852
# 6 7.4739 20.2046 10.1463 12.9386 -1.5852 32.7156
#
#
#
# Elastic Compliance Matrix: (Units=1/GPa)
#
#
# Indices 1 2 3 4 5 6 
#
# 1 0.014001 -0.003274 -0.006487 -0.003076 0.002965 0.002195
# 2 -0.003274 0.020764 -0.002331 -0.001942 0.001151 -0.010529
# 3 -0.006487 -0.002331 0.014408 -0.001460 0.002093 -0.000868
# 4 -0.003076 -0.001942 -0.001460 0.040629 -0.005705 -0.013990
# 5 0.002965 0.001151 0.002093 -0.005705 0.022035 0.001287
# 6 0.002195 -0.010529 -0.000868 -0.013990 0.001287 0.042432
#
#
# Mechanical properties :
#
#
# Convention : Reuss Voigt Hill
#
# Bulk Modulus (GPa) = 40.01691 57.96853 48.99272
# Shear Modulus (GPa) = 26.76925 34.20212 30.48568
#
# Velocity S-wave (km/s) = 3.55723 4.02088 3.79614
# Velocity P-wave (km/s) = 5.98231 6.99703 6.50947
#
# Compressibility (1/GPa) = 0.02498944
#
# Stress axis : x y z
#
# Youngs Moduli (GPa) = 71.42528 48.16007 69.40666
#
# Poissons Ratio (x) = 0.15766 0.45025
# Poissons Ratio (y) = 0.23382 0.16177
# Poissons Ratio (z) = 0.46334 0.11225
#
# Static dielectric constant tensor:
#      x y z
#    x 4.122900 0.056250 -0.196970 
#    y 0.056250 3.525300 -0.090910 
#    z -0.196970 -0.090910 4.020710 
# 
# 
# High freq. dielectric constant tensor:
#      x y z
#    x 1.843470 0.005730 -0.002250 
#    y 0.005730 1.800510 -0.005700 
#    z -0.002250 -0.005700 1.835370 
# 
# From -- ./inp_files/307907.got.cif
#   From: 2010.06.25/outbox.cif.g09.slc.cpg/sg2_154_cif.got.tgz:307907.got - 2010.06.27 13:26:56.
