data_PCOD8007929
_publ_section_title
;
Structure prediction by ZEFSAII (Michael W. Deem and Ramdas Pophale) SiO2 
 PCOD8007929
Probable space group: P -1
;
_chemical_formula_sum "Si O2"
_cell_formula_units_Z 16
_cell_length_a 18.778747
_cell_length_b 8.970749
_cell_length_c 11.448742
_cell_angle_alpha 47.035853
_cell_angle_beta 60.691428
_cell_angle_gamma 30.812781
_cell_volume 698.918561
_symmetry_space_group_name_H-M "P -1"
_symmetry_group_IT_number 2
_symmetry_cell_setting 'triclinic'
loop_
_space_group_symop_operation_xyz
x,y,z
-x,-y,-z
loop_
_atom_site_type_symbol
_atom_site_label
_atom_site_fract_x
_atom_site_fract_y
_atom_site_fract_z
Si Si1 0.531928 0.148423 0.339963
Si Si2 0.463846 0.633023 0.326198
Si Si3 0.745651 0.722710 0.207558
Si Si4 0.045842 0.210862 0.194129
Si Si5 0.913502 0.984631 0.121800
Si Si6 0.836877 0.833847 0.652411
Si Si7 0.271304 0.775690 0.073833
Si Si8 0.706914 0.417617 0.264476
O O1 0.503502 0.375712 0.339305
O O2 0.433950 0.370262 0.182434
O O3 0.500000 0.000000 0.500000
O O4 0.694331 0.826939 0.329340
O O5 0.500000 0.500000 0.500000
O O6 0.556374 0.642144 0.212086
O O7 0.292290 0.030002 0.253688
O O8 0.663568 0.710507 0.212587
O O9 0.914797 0.325465 0.263884
O O10 0.721331 0.997270 0.028422
O O11 0.099711 0.149588 0.311139
O O12 0.175569 0.848751 0.208153
O O13 0.000000 0.500000 0.000000
O O14 0.034930 0.571702 0.280115
O O15 0.821899 0.240310 0.169251
O O16 0.797258 0.131773 0.045643
O O17 0.000000 0.000000 0.000000
O O18 0.775816 0.096862 0.457704
#
# Coordination Sequence:
#
# PCOD8007929 Si02
#       8
#     2   2   2   2   2   2   2   2
#     4  12  25  45  71 101 135 181 235 279 338 414
#     4  10  23  43  68  97 141 175 219 286 346 394
#     4  11  24  44  68 100 137 179 232 271 344 406
#     4  10  20  41  72  95 133 171 232 277 343 394
#     4  12  26  45  68 103 139 182 231 283 353 408
#     4  11  22  45  70  98 135 183 226 287 339 400
#     4  11  24  46  70  96 139 183 227 285 336 415
#     4  11  26  44  68 104 140 183 231 283 343 406
#
# _framework density 22.892509
#
# number of rings (size 3 to 8) (size 9 to 14) (size 15 to 20)
#    0.000    1.000    3.750    3.750    1.750    3.500 
#    2.250    1.875    0.000    0.000    0.000    0.000 
#    0.000    0.000    0.000    0.000    0.000    0.000 
#
# Total GULP energy -198265.269506 kJ/mol
# GULP energy per Si atom -12391.579344 kJ/mol
# Density = 2.284040 g / cm^3
# Si number density = 22.892509 Si / 1000 Ang^3
#
#
#
# Elastic Constant Matrix: (Units=GPa)
#
#
# Indices 1 2 3 4 5 6 
#
# 1 132.8245 42.8564 36.8290 -2.9607 -3.0389 -8.0463
# 2 42.8564 124.9760 28.6934 37.0958 -3.9690 -0.8685
# 3 36.8290 28.6934 69.6802 7.5852 -9.8513 -5.7787
# 4 -2.9607 37.0958 7.5852 35.9606 -5.2291 -4.8206
# 5 -3.0389 -3.9690 -9.8513 -5.2291 14.7082 11.6372
# 6 -8.0463 -0.8685 -5.7787 -4.8206 11.6372 36.7853
#
#
#
# Elastic Compliance Matrix: (Units=1/GPa)
#
#
# Indices 1 2 3 4 5 6 
#
# 1 0.010533 -0.004620 -0.004432 0.006674 -0.002059 0.003025
# 2 -0.004620 0.014715 -0.002433 -0.015701 -0.002322 -0.002368
# 3 -0.004432 -0.002433 0.019391 -0.000344 0.012980 -0.002132
# 4 0.006674 -0.015701 -0.000344 0.046663 0.010463 0.003840
# 5 -0.002059 -0.002322 0.012980 0.010463 0.102779 -0.029609
# 6 0.003025 -0.002368 -0.002132 0.003840 -0.029609 0.037326
#
#
# Mechanical properties :
#
#
# Convention : Reuss Voigt Hill
#
# Bulk Modulus (GPa) = 46.14619 60.47094 53.30856
# Shear Modulus (GPa) = 19.11325 32.09761 25.60543
#
# Velocity S-wave (km/s) = 2.89262 3.74853 3.34804
# Velocity P-wave (km/s) = 5.59981 6.72367 6.18731
#
# Compressibility (1/GPa) = 0.02167026
#
# Stress axis : x y z
#
# Youngs Moduli (GPa) = 94.94035 67.95938 51.56990
#
# Poissons Ratio (x) = 0.31395 0.22853
# Poissons Ratio (y) = 0.43860 0.12547
# Poissons Ratio (z) = 0.42073 0.16535
#
# Static dielectric constant tensor:
#      x y z
#    x 4.336340 -0.447430 0.090450 
#    y -0.447430 4.968410 0.141430 
#    z 0.090450 0.141430 3.819890 
# 
# 
# High freq. dielectric constant tensor:
#      x y z
#    x 1.907860 -0.014970 0.003130 
#    y -0.014970 1.926010 0.016340 
#    z 0.003130 0.016340 1.882810 
# 
# From -- ./inp_files/461904.got.cif
#   From: 2010.06.25/outbox.cif.g09.slc.cpg/sg2_231_cif.got.tgz:461904.got - 2010.06.27 13:26:56.
