data_PCOD8007819
_publ_section_title
;
Structure prediction by ZEFSAII (Michael W. Deem and Ramdas Pophale) SiO2 
 PCOD8007819
Probable space group: P -1
;
_chemical_formula_sum "Si O2"
_cell_formula_units_Z 14
_cell_length_a 15.884709
_cell_length_b 7.467922
_cell_length_c 9.280146
_cell_angle_alpha 66.641316
_cell_angle_beta 46.198795
_cell_angle_gamma 50.692074
_cell_volume 613.040455
_symmetry_space_group_name_H-M "P -1"
_symmetry_group_IT_number 2
_symmetry_cell_setting 'triclinic'
loop_
_space_group_symop_operation_xyz
x,y,z
-x,-y,-z
loop_
_atom_site_type_symbol
_atom_site_label
_atom_site_fract_x
_atom_site_fract_y
_atom_site_fract_z
Si Si1 0.219893 0.398966 0.817537
Si Si2 0.628649 0.362280 0.993827
Si Si3 0.445054 0.479705 0.418495
Si Si4 0.916708 0.851331 0.050224
Si Si5 0.760438 0.623069 0.868329
Si Si6 0.743579 0.075202 0.685034
Si Si7 0.991975 0.853597 0.269740
O O1 0.336896 0.399194 0.583291
O O2 0.196383 0.202263 0.848798
O O3 0.276246 0.338849 0.931663
O O4 0.075390 0.645155 0.898192
O O5 0.672270 0.542665 0.916627
O O6 0.741700 0.141952 0.834344
O O7 0.500000 0.500000 0.000000
O O8 0.579324 0.295720 0.220677
O O9 0.500000 0.500000 0.500000
O O10 0.372710 0.724255 0.342540
O O11 0.893849 0.916947 0.225097
O O12 0.895233 0.073344 0.915702
O O13 0.923257 0.422774 0.718211
O O14 0.725024 0.860007 0.761955
O O15 0.896874 0.991960 0.473765
#
# Coordination Sequence:
#
# PCOD8007819 Si02
#       7
#     2   2   2   2   2   2   2
#     4  10  20  41  69 102 136 177 237 284 342 409
#     4  10  25  45  68  96 143 181 234 283 347 409
#     4  11  22  45  75  98 134 189 236 285 341 413
#     4   9  20  38  69 104 137 175 227 294 343 401
#     4  11  24  43  67 103 141 182 233 283 348 427
#     4  11  25  45  69 102 143 182 223 294 354 401
#     4  10  21  41  70 102 142 181 226 289 355 411
#
# _framework density 22.83699
#
# number of rings (size 3 to 8) (size 9 to 14) (size 15 to 20)
#    0.000    1.714    2.857    0.429    2.000    5.143 
#    2.571    0.714    0.000    0.000    0.000    0.000 
#    0.000    0.000    0.000    0.000    0.000    0.000 
#
# Total GULP energy -173592.929551 kJ/mol
# GULP energy per Si atom -12399.494968 kJ/mol
# Density = 2.278501 g / cm^3
# Si number density = 22.836990 Si / 1000 Ang^3
#
#
#
# Elastic Constant Matrix: (Units=GPa)
#
#
# Indices 1 2 3 4 5 6 
#
# 1 140.2921 42.4341 68.4014 -8.3667 1.9953 35.5749
# 2 42.4341 101.9409 60.1926 -17.2585 2.6707 21.1811
# 3 68.4014 60.1926 186.6090 17.1576 5.5887 22.5933
# 4 -8.3667 -17.2585 17.1576 37.0575 9.3984 3.4484
# 5 1.9953 2.6707 5.5887 9.3984 35.7901 -8.0140
# 6 35.5749 21.1811 22.5933 3.4484 -8.0140 35.6294
#
#
#
# Elastic Compliance Matrix: (Units=1/GPa)
#
#
# Indices 1 2 3 4 5 6 
#
# 1 0.012361 0.001172 -0.003961 0.007568 -0.004914 -0.012366
# 2 0.001172 0.017480 -0.005851 0.013738 -0.006444 -0.010631
# 3 -0.003961 -0.005851 0.009063 -0.008651 0.002189 0.003016
# 4 0.007568 0.013738 -0.008651 0.044829 -0.015935 -0.018160
# 5 -0.004914 -0.006444 0.002189 -0.015935 0.036360 0.017070
# 6 -0.012366 -0.010631 0.003016 -0.018160 0.017070 0.050418
#
#
# Mechanical properties :
#
#
# Convention : Reuss Voigt Hill
#
# Bulk Modulus (GPa) = 46.24251 85.65537 65.94894
# Shear Modulus (GPa) = 25.64125 38.88300 32.26213
#
# Velocity S-wave (km/s) = 3.35445 4.13077 3.76269
# Velocity P-wave (km/s) = 5.94104 7.76787 6.91505
#
# Compressibility (1/GPa) = 0.02162512
#
# Stress axis : x y z
#
# Youngs Moduli (GPa) = 80.89749 57.20795 110.34341
#
# Poissons Ratio (x) = -0.06707 0.43703
# Poissons Ratio (y) = -0.09484 0.64563
# Poissons Ratio (z) = 0.32041 0.33473
#
# Static dielectric constant tensor:
#      x y z
#    x 4.255080 0.129260 0.135490 
#    y 0.129260 4.200010 0.326680 
#    z 0.135490 0.326680 4.710480 
# 
# 
# High freq. dielectric constant tensor:
#      x y z
#    x 1.902570 0.002560 0.005860 
#    y 0.002560 1.897050 0.001930 
#    z 0.005860 0.001930 1.905760 
# 
# From -- ./inp_files/327257.got.cif
#   From: 2010.06.25/outbox.cif.g09.slc.cpg/sg2_164_cif.got.tgz:327257.got - 2010.06.27 13:26:56.
