data_PCOD8007798
_publ_section_title
;
Structure prediction by ZEFSAII (Michael W. Deem and Ramdas Pophale) SiO2 
 PCOD8007798
Probable space group: P -1
;
_chemical_formula_sum "Si O2"
_cell_formula_units_Z 16
_cell_length_a 14.861862
_cell_length_b 11.785363
_cell_length_c 8.684736
_cell_angle_alpha 78.317122
_cell_angle_beta 30.252100
_cell_angle_gamma 66.682425
_cell_volume 671.053761
_symmetry_space_group_name_H-M "P -1"
_symmetry_group_IT_number 2
_symmetry_cell_setting 'triclinic'
loop_
_space_group_symop_operation_xyz
x,y,z
-x,-y,-z
loop_
_atom_site_type_symbol
_atom_site_label
_atom_site_fract_x
_atom_site_fract_y
_atom_site_fract_z
Si Si1 0.830149 0.812618 0.228419
Si Si2 0.384519 0.583030 0.897975
Si Si3 0.211759 0.759843 0.825514
Si Si4 0.391611 0.150582 0.151484
Si Si5 0.215421 0.412314 0.776159
Si Si6 0.128840 0.992935 0.083523
Si Si7 0.637465 0.660809 0.093096
Si Si8 0.734980 0.180859 0.786575
O O1 0.771889 0.835022 0.486583
O O2 0.727947 0.732047 0.324731
O O3 0.754546 0.942463 0.202228
O O4 0.073608 0.743989 0.899784
O O5 0.271004 0.643779 0.890419
O O6 0.618842 0.547115 0.543831
O O7 0.362830 0.451355 0.989444
O O8 0.283556 0.681405 0.162616
O O9 0.413448 0.752489 0.456981
O O10 0.086430 0.899088 0.055739
O O11 0.287634 0.243971 0.132075
O O12 0.542500 0.206615 0.966040
O O13 0.500000 0.000000 0.000000
O O14 0.213455 0.408211 0.965965
O O15 0.000000 0.500000 0.000000
O O16 0.927975 0.107913 0.415931
O O17 0.265372 0.907826 0.044251
#
# Coordination Sequence:
#
# PCOD8007798 Si02
#       8
#     2   2   2   2   2   2   2   2
#     4  12  23  40  66  99 136 172 225 280 339 391
#     4  10  21  44  70  94 134 177 231 270 337 415
#     4  10  20  41  68  98 129 179 229 272 330 416
#     4  12  26  42  65 101 144 170 224 284 345 397
#     4  11  23  43  68 104 133 171 228 285 341 398
#     4  10  22  39  69  97 133 183 230 273 337 405
#     4  11  24  44  71  97 134 189 220 275 343 406
#     4  10  22  43  65 100 134 178 229 280 330 412
#
# _framework density 23.843097
#
# number of rings (size 3 to 8) (size 9 to 14) (size 15 to 20)
#    0.000    1.250    1.250    5.625    1.750    1.000 
#    2.250    1.250    0.000    0.000    0.000    0.000 
#    0.000    0.000    0.000    0.000    0.000    0.000 
#
# Total GULP energy -198378.577417 kJ/mol
# GULP energy per Si atom -12398.661089 kJ/mol
# Density = 2.378883 g / cm^3
# Si number density = 23.843097 Si / 1000 Ang^3
#
#
#
# Elastic Constant Matrix: (Units=GPa)
#
#
# Indices 1 2 3 4 5 6 
#
# 1 92.9754 40.9375 28.8129 1.5669 -1.8878 0.2476
# 2 40.9375 150.0290 49.2136 -3.2857 14.6228 2.1562
# 3 28.8129 49.2136 69.8948 5.7170 21.5706 -5.2887
# 4 1.5669 -3.2857 5.7170 37.8199 -3.1402 7.1015
# 5 -1.8878 14.6228 21.5706 -3.1402 32.5395 -1.4018
# 6 0.2476 2.1562 -5.2887 7.1015 -1.4018 31.7253
#
#
#
# Elastic Compliance Matrix: (Units=1/GPa)
#
#
# Indices 1 2 3 4 5 6 
#
# 1 0.013733 -0.002337 -0.005940 0.000770 0.005822 -0.000853
# 2 -0.002337 0.009326 -0.005831 0.002151 -0.000343 -0.002084
# 3 -0.005940 -0.005831 0.026728 -0.006686 -0.015842 0.005695
# 4 0.000770 0.002151 -0.006686 0.029537 0.006032 -0.007612
# 5 0.005822 -0.000343 -0.015842 0.006032 0.042216 -0.002148
# 6 -0.000853 -0.002084 0.005695 -0.007612 -0.002148 0.034227
#
#
# Mechanical properties :
#
#
# Convention : Reuss Voigt Hill
#
# Bulk Modulus (GPa) = 46.35698 61.20301 53.77999
# Shear Modulus (GPa) = 26.15422 33.34597 29.75010
#
# Velocity S-wave (km/s) = 3.31559 3.74379 3.53617
# Velocity P-wave (km/s) = 5.84313 6.66429 6.26717
#
# Compressibility (1/GPa) = 0.02157172
#
# Stress axis : x y z
#
# Youngs Moduli (GPa) = 72.81831 107.22269 37.41335
#
# Poissons Ratio (x) = 0.25059 0.22223
# Poissons Ratio (y) = 0.17018 0.21816
# Poissons Ratio (z) = 0.43253 0.62522
#
# Static dielectric constant tensor:
#      x y z
#    x 4.464840 0.065390 0.167990 
#    y 0.065390 4.373400 0.051030 
#    z 0.167990 0.051030 4.100000 
# 
# 
# High freq. dielectric constant tensor:
#      x y z
#    x 1.950810 0.000160 0.006350 
#    y 0.000160 1.954310 0.005960 
#    z 0.006350 0.005960 1.926180 
# 
# From -- ./inp_files/307233.got.cif
#   From: 2010.06.25/outbox.cif.g09.slc.cpg/sg2_154_cif.got.tgz:307233.got - 2010.06.27 13:26:56.
