data_PCOD8007448
_publ_section_title
;
Structure prediction by ZEFSAII (Michael W. Deem and Ramdas Pophale) SiO2 
 PCOD8007448
Probable space group: P -1
;
_chemical_formula_sum "Si O2"
_cell_formula_units_Z 14
_cell_length_a 8.556406
_cell_length_b 12.419313
_cell_length_c 19.258141
_cell_angle_alpha 37.774260
_cell_angle_beta 51.888915
_cell_angle_gamma 30.365365
_cell_volume 619.656266
_symmetry_space_group_name_H-M "P -1"
_symmetry_group_IT_number 2
_symmetry_cell_setting 'triclinic'
loop_
_space_group_symop_operation_xyz
x,y,z
-x,-y,-z
loop_
_atom_site_type_symbol
_atom_site_label
_atom_site_fract_x
_atom_site_fract_y
_atom_site_fract_z
Si Si1 0.665043 0.753146 0.424925
Si Si2 0.782384 0.031530 0.289395
Si Si3 0.514319 0.495223 0.629098
Si Si4 0.808427 0.180804 0.063010
Si Si5 0.507287 0.161350 0.723200
Si Si6 0.249214 0.629033 0.783841
Si Si7 0.377536 0.916074 0.965825
O O1 0.411325 0.770994 0.502897
O O2 0.695790 0.746995 0.335922
O O3 0.000000 0.500000 0.500000
O O4 0.545739 0.026626 0.347379
O O5 0.902958 0.017882 0.189502
O O6 0.618617 0.295127 0.246433
O O7 0.120465 0.743684 0.374075
O O8 0.375437 0.440994 0.643858
O O9 0.436902 0.497565 0.727564
O O10 0.749263 0.079999 0.071737
O O11 0.500000 0.500000 0.000000
O O12 0.091996 0.117193 0.997007
O O13 0.472654 0.049304 0.853786
O O14 0.877441 0.903640 0.732894
O O15 0.329655 0.395926 0.923167
#
# Coordination Sequence:
#
# PCOD8007448 Si02
#       7
#     2   2   2   2   2   2   2
#     4  10  22  43  70  89 123 169 218 272 316 362
#     4  10  20  41  63  93 126 165 214 268 312 370
#     4  10  23  42  64  89 132 169 213 260 316 376
#     4  11  21  37  65  95 130 163 211 264 314 374
#     4  11  24  42  64  96 129 171 212 258 319 383
#     4  11  23  40  64  95 135 169 208 257 320 385
#     4  11  23  38  65  97 132 169 205 258 323 380
#
# _framework density 22.593170000000001
#
# number of rings (size 3 to 8) (size 9 to 14) (size 15 to 20)
#    0.000    1.429    4.286    0.857    0.000    2.857 
#    0.000    0.000    0.000    0.000    0.000    0.000 
#    0.000    0.000    0.000    0.000    0.000    0.000 
#
# Total GULP energy -173460.096735 kJ/mol
# GULP energy per Si atom -12390.006910 kJ/mol
# Density = 2.254175 g / cm^3
# Si number density = 22.593170 Si / 1000 Ang^3
#
#
#
# Elastic Constant Matrix: (Units=GPa)
#
#
# Indices 1 2 3 4 5 6 
#
# 1 114.2683 32.2079 56.8054 -4.5387 -9.7899 22.1042
# 2 32.2079 78.1538 21.8435 -3.0461 -4.5915 6.7501
# 3 56.8054 21.8435 126.6848 3.1125 -16.6498 10.2033
# 4 -4.5387 -3.0461 3.1125 15.1615 3.6677 -0.3587
# 5 -9.7899 -4.5915 -16.6498 3.6677 44.4827 2.1652
# 6 22.1042 6.7501 10.2033 -0.3587 2.1652 25.1615
#
#
#
# Elastic Compliance Matrix: (Units=1/GPa)
#
#
# Indices 1 2 3 4 5 6 
#
# 1 0.014347 -0.003450 -0.005023 0.004150 0.001050 -0.009672
# 2 -0.003450 0.014619 -0.000951 0.002027 0.000251 -0.000499
# 3 -0.005023 -0.000951 0.010860 -0.004713 0.003254 -0.000083
# 4 0.004150 0.002027 -0.004713 0.070101 -0.006386 -0.000729
# 5 0.001050 0.000251 0.003254 -0.006386 0.024702 -0.004526
# 6 -0.009672 -0.000499 -0.000083 -0.000729 -0.004526 0.048787
#
#
# Mechanical properties :
#
#
# Convention : Reuss Voigt Hill
#
# Bulk Modulus (GPa) = 47.66592 60.09115 53.87853
# Shear Modulus (GPa) = 23.89416 30.84449 27.36933
#
# Velocity S-wave (km/s) = 3.25558 3.69889 3.48429
# Velocity P-wave (km/s) = 5.93928 6.70053 6.33136
#
# Compressibility (1/GPa) = 0.02097935
#
# Stress axis : x y z
#
# Youngs Moduli (GPa) = 69.70321 68.40218 92.08059
#
# Poissons Ratio (x) = 0.23596 0.46254
# Poissons Ratio (y) = 0.24045 0.08753
# Poissons Ratio (z) = 0.35013 0.06502
#
# Static dielectric constant tensor:
#      x y z
#    x 4.219290 0.220570 -0.359910 
#    y 0.220570 3.764370 -0.079860 
#    z -0.359910 -0.079860 4.380990 
# 
# 
# High freq. dielectric constant tensor:
#      x y z
#    x 1.892850 0.017200 -0.004450 
#    y 0.017200 1.863470 -0.001110 
#    z -0.004450 -0.001110 1.906590 
# 
# From -- ./inp_files/28166.got.cif
#   From: 2010.06.25/outbox.cif.g09.slc.cpg/sg2_15_cif.got.tgz:28166.got - 2010.06.27 13:26:56.
