data_PCOD8007250
_publ_section_title
;
Structure prediction by ZEFSAII (Michael W. Deem and Ramdas Pophale) SiO2 
 PCOD8007250
Probable space group: P -1
;
_chemical_formula_sum "Si O2"
_cell_formula_units_Z 16
_cell_length_a 23.967530
_cell_length_b 17.725977
_cell_length_c 11.177913
_cell_angle_alpha 147.396257
_cell_angle_beta 34.179144
_cell_angle_gamma 158.418877
_cell_volume 917.781887
_symmetry_space_group_name_H-M "P -1"
_symmetry_group_IT_number 2
_symmetry_cell_setting 'triclinic'
loop_
_space_group_symop_operation_xyz
x,y,z
-x,-y,-z
loop_
_atom_site_type_symbol
_atom_site_label
_atom_site_fract_x
_atom_site_fract_y
_atom_site_fract_z
Si Si1 0.829159 0.464644 0.285669
Si Si2 0.411389 0.731097 0.210583
Si Si3 0.680010 0.056669 0.694405
Si Si4 0.028194 0.494487 0.131827
Si Si5 0.321470 0.452016 0.205960
Si Si6 0.728103 0.132082 0.320135
Si Si7 0.657696 0.836105 0.236720
Si Si8 0.451428 0.025396 0.935379
O O1 0.798343 0.584833 0.554133
O O2 0.972838 0.559473 0.231365
O O3 0.676440 0.199678 0.216596
O O4 0.881051 0.525111 0.134701
O O5 0.334873 0.516520 0.128816
O O6 0.284509 0.718189 0.423622
O O7 0.459396 0.767340 0.033533
O O8 0.571324 0.929008 0.258871
O O9 0.852606 0.309698 0.722753
O O10 0.569476 0.040398 0.796756
O O11 0.671000 0.895633 0.431757
O O12 0.626979 0.975994 0.818346
O O13 0.881747 0.265709 0.150143
O O14 0.480942 0.633936 0.238606
O O15 0.260723 0.226504 0.008457
O O16 0.747397 0.053689 0.295680
#
# Coordination Sequence:
#
# PCOD8007250 Si02
#       8
#     2   2   2   2   2   2   2   2
#     4  10  17  33  52  77 103 132 175 208 248 300
#     4  10  16  30  55  77  95 130 180 214 238 290
#     4  10  20  31  49  80 110 131 160 211 266 297
#     4  10  20  29  52  81 105 130 165 216 256 296
#     4  10  19  33  56  75  99 137 176 209 246 301
#     4  10  17  31  52  78 102 128 174 214 246 294
#     4  10  20  34  51  77 106 134 168 211 256 302
#     4  10  17  32  54  76 103 132 170 215 249 294
#
# _framework density 17.433336000000001
#
# number of rings (size 3 to 8) (size 9 to 14) (size 15 to 20)
#    0.000    2.000    5.000    0.750    0.000    0.500 
#    0.000    1.875    0.000    0.000    0.000    0.000 
#    0.000    0.000    0.000    0.000    0.000    0.000 
#
# Total GULP energy -198277.702833 kJ/mol
# GULP energy per Si atom -12392.356427 kJ/mol
# Density = 1.739366 g / cm^3
# Si number density = 17.433336 Si / 1000 Ang^3
#
#
#
# Elastic Constant Matrix: (Units=GPa)
#
#
# Indices 1 2 3 4 5 6 
#
# 1 60.3562 18.9199 41.9063 0.6842 4.1547 -12.1811
# 2 18.9199 54.2117 32.7108 -12.2564 -2.8194 -5.5332
# 3 41.9063 32.7108 121.8783 -2.4190 2.9756 -9.7678
# 4 0.6842 -12.2564 -2.4190 22.2378 -1.9793 2.0931
# 5 4.1547 -2.8194 2.9756 -1.9793 22.9914 -1.6783
# 6 -12.1811 -5.5332 -9.7678 2.0931 -1.6783 24.5097
#
#
#
# Elastic Compliance Matrix: (Units=1/GPa)
#
#
# Indices 1 2 3 4 5 6 
#
# 1 0.024818 -0.005400 -0.006392 -0.005631 -0.004165 0.008764
# 2 -0.005400 0.027339 -0.005293 0.015176 0.006358 0.000518
# 3 -0.006392 -0.005293 0.011853 -0.001571 -0.001133 0.000408
# 4 -0.005631 0.015176 -0.001571 0.054388 0.007462 -0.004132
# 5 -0.004165 0.006358 -0.001133 0.007462 0.045920 0.001421
# 6 0.008764 0.000518 0.000408 -0.004132 0.001421 0.045885
#
#
# Mechanical properties :
#
#
# Convention : Reuss Voigt Hill
#
# Bulk Modulus (GPa) = 33.51233 47.05781 40.28507
# Shear Modulus (GPa) = 19.66027 23.47506 21.56767
#
# Velocity S-wave (km/s) = 3.36183 3.67353 3.52113
# Velocity P-wave (km/s) = 5.85953 6.71154 6.29995
#
# Compressibility (1/GPa) = 0.02983976
#
# Stress axis : x y z
#
# Youngs Moduli (GPa) = 40.29296 36.57742 84.36973
#
# Poissons Ratio (x) = 0.19751 0.53928
# Poissons Ratio (y) = 0.21758 0.44660
# Poissons Ratio (z) = 0.25755 0.19362
#
# Static dielectric constant tensor:
#      x y z
#    x 3.425910 -0.098930 0.096170 
#    y -0.098930 3.117230 -0.200900 
#    z 0.096170 -0.200900 3.305560 
# 
# 
# High freq. dielectric constant tensor:
#      x y z
#    x 1.674100 0.001230 0.012090 
#    y 0.001230 1.649980 -0.027400 
#    z 0.012090 -0.027400 1.653630 
# 
# From -- ./inp_files/251898.got.cif
#   From: 2010.06.25/outbox.cif.g09.slc.cpg/sg2_126_cif.got.tgz:251898.got - 2010.06.27 13:26:56.
