data_PCOD8007576
_publ_section_title
;
Structure prediction by ZEFSAII (Michael W. Deem and Ramdas Pophale) SiO2 
 PCOD8007576
Probable space group: P -1
;
_chemical_formula_sum "Si O2"
_cell_formula_units_Z 16
_cell_length_a 12.139212
_cell_length_b 8.612195
_cell_length_c 15.398694
_cell_angle_alpha 97.177451
_cell_angle_beta 151.366264
_cell_angle_gamma 77.993204
_cell_volume 748.854113
_symmetry_space_group_name_H-M "P -1"
_symmetry_group_IT_number 2
_symmetry_cell_setting 'triclinic'
loop_
_space_group_symop_operation_xyz
x,y,z
-x,-y,-z
loop_
_atom_site_type_symbol
_atom_site_label
_atom_site_fract_x
_atom_site_fract_y
_atom_site_fract_z
Si Si1 0.520305 0.667554 0.987270
Si Si2 0.620553 0.429837 0.294281
Si Si3 0.749261 0.759707 0.396259
Si Si4 0.065526 0.208520 0.656057
Si Si5 0.140942 0.607509 0.052560
Si Si6 0.817580 0.836829 0.721755
Si Si7 0.402901 0.857446 0.310803
Si Si8 0.085440 0.889538 0.750648
O O1 0.430670 0.679116 0.827801
O O2 0.361681 0.811944 0.943290
O O3 0.500000 0.500000 0.000000
O O4 0.785226 0.693023 0.174825
O O5 0.729336 0.578946 0.347822
O O6 0.381074 0.491580 0.183323
O O7 0.807150 0.317355 0.476457
O O8 0.800047 0.839563 0.345966
O O9 0.516370 0.854816 0.292152
O O10 0.969805 0.757281 0.612086
O O11 0.033172 0.051503 0.672061
O O12 0.206962 0.748713 0.167179
O O13 0.000000 0.500000 0.000000
O O14 0.981985 0.679740 0.865228
O O15 0.601860 0.789179 0.515884
O O16 0.974627 0.921291 0.771816
O O17 0.719238 0.960801 0.739035
#
# Coordination Sequence:
#
# PCOD8007576 Si02
#       8
#     2   2   2   2   2   2   2   2
#     4  12  23  40  63  92 129 174 210 257 325 379
#     4  11  24  42  64  92 129 174 211 261 326 381
#     4  10  20  41  65  92 129 171 210 259 317 380
#     4  12  24  41  63  97 134 167 217 264 315 384
#     4  11  25  43  66  99 125 165 219 268 316 383
#     4  10  22  45  65  92 130 168 215 264 322 381
#     4   9  22  42  70  92 124 175 210 259 330 373
#     4  11  24  40  64  95 132 170 213 268 318 376
#
# _framework density 21.365976
#
# number of rings (size 3 to 8) (size 9 to 14) (size 15 to 20)
#    0.000    1.250    2.500    3.000    1.750    6.500 
#    0.000    0.000    0.000    0.000    0.000    0.000 
#    0.000    0.000    0.000    0.000    0.000    0.000 
#
# Total GULP energy -198423.727650 kJ/mol
# GULP energy per Si atom -12401.482978 kJ/mol
# Density = 2.131735 g / cm^3
# Si number density = 21.365976 Si / 1000 Ang^3
#
#
#
# Elastic Constant Matrix: (Units=GPa)
#
#
# Indices 1 2 3 4 5 6 
#
# 1 113.9429 52.4488 43.4009 -14.4859 2.6875 12.1378
# 2 52.4488 75.7919 51.2864 -10.4534 2.0077 7.8825
# 3 43.4009 51.2864 142.8868 -9.9652 10.8102 5.8372
# 4 -14.4859 -10.4534 -9.9652 42.1787 -0.1559 -2.2553
# 5 2.6875 2.0077 10.8102 -0.1559 25.3888 -1.1205
# 6 12.1378 7.8825 5.8372 -2.2553 -1.1205 38.5469
#
#
#
# Elastic Compliance Matrix: (Units=1/GPa)
#
#
# Indices 1 2 3 4 5 6 
#
# 1 0.013384 -0.008113 -0.000864 0.002257 -0.000495 -0.002307
# 2 -0.008113 0.022981 -0.005743 0.001497 0.001445 -0.001146
# 3 -0.000864 -0.005743 0.009632 0.000538 -0.003556 -0.000084
# 4 0.002257 0.001497 0.000538 0.024999 -0.000417 0.000352
# 5 -0.000495 0.001445 -0.003556 -0.000417 0.040906 0.001564
# 6 -0.002307 -0.001146 -0.000084 0.000352 0.001564 0.026982
#
#
# Mechanical properties :
#
#
# Convention : Reuss Voigt Hill
#
# Bulk Modulus (GPa) = 60.39292 69.65487 65.02389
# Shear Modulus (GPa) = 28.76136 33.58857 31.17496
#
# Velocity S-wave (km/s) = 3.67294 3.96922 3.82395
# Velocity P-wave (km/s) = 6.80549 7.32652 7.07080
#
# Compressibility (1/GPa) = 0.01655823
#
# Stress axis : x y z
#
# Youngs Moduli (GPa) = 74.71437 43.51341 103.81759
#
# Poissons Ratio (x) = 0.35302 0.08973
# Poissons Ratio (y) = 0.60615 0.59619
# Poissons Ratio (z) = 0.06458 0.24988
#
# Static dielectric constant tensor:
#      x y z
#    x 3.867900 -0.174910 0.112930 
#    y -0.174910 3.744280 0.231830 
#    z 0.112930 0.231830 4.241160 
# 
# 
# High freq. dielectric constant tensor:
#      x y z
#    x 1.831550 -0.009900 0.008590 
#    y -0.009900 1.825870 0.008730 
#    z 0.008590 0.008730 1.857060 
# 
# From -- ./inp_files/515696.got.cif
#   From: 2010.06.25/outbox.cif.g09.slc.cpg/sg2_258_cif.got.tgz:515696.got - 2010.06.27 13:26:56.
