data_PCOD8008680
_publ_section_title
;
Structure prediction by ZEFSAII (Michael W. Deem and Ramdas Pophale) SiO2 
 PCOD8008680
Probable space group: P -1
;
_chemical_formula_sum "Si O2"
_cell_formula_units_Z 16
_cell_length_a 11.615745
_cell_length_b 11.146033
_cell_length_c 13.969190
_cell_angle_alpha 129.990620
_cell_angle_beta 32.706082
_cell_angle_gamma 114.355956
_cell_volume 711.801466
_symmetry_space_group_name_H-M "P -1"
_symmetry_group_IT_number 2
_symmetry_cell_setting 'triclinic'
loop_
_space_group_symop_operation_xyz
x,y,z
-x,-y,-z
loop_
_atom_site_type_symbol
_atom_site_label
_atom_site_fract_x
_atom_site_fract_y
_atom_site_fract_z
Si Si1 0.748384 0.746006 0.990637
Si Si2 0.354028 0.736769 0.387408
Si Si3 0.312978 0.388467 0.225305
Si Si4 0.556176 0.106793 0.239199
Si Si5 0.325888 0.868096 0.041775
Si Si6 0.163792 0.823774 0.767406
Si Si7 0.945559 0.849092 0.406407
Si Si8 0.042938 0.230521 0.445946
O O1 0.589126 0.759357 0.201122
O O2 0.701730 0.916453 0.051694
O O3 0.708433 0.613115 0.875986
O O4 0.011826 0.699286 0.812678
O O5 0.381853 0.545672 0.288862
O O6 0.274184 0.832411 0.591030
O O7 0.169855 0.811707 0.471896
O O8 0.081382 0.379236 0.432612
O O9 0.497982 0.224655 0.049036
O O10 0.636116 0.222042 0.317988
O O11 0.301395 0.118271 0.444825
O O12 0.585296 0.176449 0.150133
O O13 0.109668 0.803801 0.177030
O O14 0.262079 0.065395 0.206287
O O15 0.000000 0.000000 0.000000
O O16 0.998604 0.711058 0.383769
O O17 0.000000 0.000000 0.500000
#
# Coordination Sequence:
#
# PCOD8008680 Si02
#       8
#     2   2   2   2   2   2   2   2
#     4  11  22  39  64  95 130 165 210 259 322 379
#     4  12  25  41  63  98 131 166 210 262 319 381
#     4  12  22  39  66  96 135 166 198 264 333 377
#     4  11  21  39  63  91 122 166 214 264 304 364
#     4  11  21  38  62  92 127 162 207 259 314 372
#     4  10  24  42  64  89 123 175 218 260 307 367
#     4  10  21  32  61  97 121 154 203 262 315 365
#     4  11  19  37  63  92 129 162 205 259 321 372
#
# _framework density 22.478176999999999
#
# number of rings (size 3 to 8) (size 9 to 14) (size 15 to 20)
#    0.000    1.000    3.750    5.625    0.000    3.000 
#    0.000    0.625    0.000    1.500    0.000    0.000 
#    0.000    0.000    0.000    0.000    0.000    0.000 
#
# Total GULP energy -198340.969163 kJ/mol
# GULP energy per Si atom -12396.310573 kJ/mol
# Density = 2.242702 g / cm^3
# Si number density = 22.478177 Si / 1000 Ang^3
#
#
#
# Elastic Constant Matrix: (Units=GPa)
#
#
# Indices 1 2 3 4 5 6 
#
# 1 120.9259 35.8237 40.0918 -18.7482 -4.6842 22.4904
# 2 35.8237 70.7493 32.1868 -20.2488 7.2723 -1.1705
# 3 40.0918 32.1868 93.8994 -40.5164 17.4326 8.7189
# 4 -18.7482 -20.2488 -40.5164 41.7742 -1.5638 -5.2599
# 5 -4.6842 7.2723 17.4326 -1.5638 33.9849 -10.7066
# 6 22.4904 -1.1705 8.7189 -5.2599 -10.7066 25.4640
#
#
#
# Elastic Compliance Matrix: (Units=1/GPa)
#
#
# Indices 1 2 3 4 5 6 
#
# 1 0.012808 -0.005652 -0.003649 -0.001729 0.001616 -0.010000
# 2 -0.005652 0.019980 -0.002468 0.005644 -0.001191 0.007420
# 3 -0.003649 -0.002468 0.024950 0.019920 -0.014145 -0.007267
# 4 -0.001729 0.005644 0.019920 0.044891 -0.009525 0.000234
# 5 0.001616 -0.001191 -0.014145 -0.009525 0.042833 0.019403
# 6 -0.010000 0.007420 -0.007267 0.000234 0.019403 0.059140
#
#
# Mechanical properties :
#
#
# Convention : Reuss Voigt Hill
#
# Bulk Modulus (GPa) = 29.23970 55.75323 42.49646
# Shear Modulus (GPa) = 20.87350 32.07610 26.47480
#
# Velocity S-wave (km/s) = 3.05062 3.78165 3.43563
# Velocity P-wave (km/s) = 5.04427 6.62759 5.88938
#
# Compressibility (1/GPa) = 0.03420008
#
# Stress axis : x y z
#
# Youngs Moduli (GPa) = 78.07619 50.05129 40.08053
#
# Poissons Ratio (x) = 0.28288 0.14624
# Poissons Ratio (y) = 0.44127 0.09892
# Poissons Ratio (z) = 0.28488 0.12353
#
# Static dielectric constant tensor:
#      x y z
#    x 4.408750 -0.025000 -0.028030 
#    y -0.025000 4.179070 -0.614210 
#    z -0.028030 -0.614210 4.259830 
# 
# 
# High freq. dielectric constant tensor:
#      x y z
#    x 1.878300 -0.012500 -0.011630 
#    y -0.012500 1.868820 -0.036860 
#    z -0.011630 -0.036860 1.886590 
# 
# From -- ./inp_files/519093.got.cif
#   From: 2010.06.25/outbox.cif.g09.slc.cpg/sg2_260_cif.got.tgz:519093.got - 2010.06.27 13:26:56.
