data_PCOD8008587
_publ_section_title
;
Structure prediction by ZEFSAII (Michael W. Deem and Ramdas Pophale) SiO2 
 PCOD8008587
Probable space group: P -1
;
_chemical_formula_sum "Si O2"
_cell_formula_units_Z 14
_cell_length_a 9.479302
_cell_length_b 24.901738
_cell_length_c 12.283453
_cell_angle_alpha 29.361091
_cell_angle_beta 35.829874
_cell_angle_gamma 27.318732
_cell_volume 643.860271
_symmetry_space_group_name_H-M "P -1"
_symmetry_group_IT_number 2
_symmetry_cell_setting 'triclinic'
loop_
_space_group_symop_operation_xyz
x,y,z
-x,-y,-z
loop_
_atom_site_type_symbol
_atom_site_label
_atom_site_fract_x
_atom_site_fract_y
_atom_site_fract_z
Si Si1 0.328302 0.945433 0.606812
Si Si2 0.141464 0.319312 0.910617
Si Si3 0.527406 0.714291 0.728424
Si Si4 0.738269 0.262281 0.371151
Si Si5 0.295849 0.550825 0.236804
Si Si6 0.799136 0.458460 0.446979
Si Si7 0.674567 0.052927 0.152798
O O1 0.307964 0.853165 0.695960
O O2 0.386391 0.878592 0.809269
O O3 0.623472 0.936933 0.403979
O O4 0.005475 0.107900 0.527103
O O5 0.232599 0.403241 0.765512
O O6 0.024458 0.369894 0.771285
O O7 0.441563 0.155961 0.020552
O O8 0.863429 0.341083 0.109331
O O9 0.425748 0.755776 0.592865
O O10 0.883583 0.654793 0.619032
O O11 0.497314 0.597715 0.991223
O O12 0.489787 0.379387 0.408757
O O13 0.187908 0.601994 0.336723
O O14 0.500000 0.500000 0.500000
O O15 0.000000 0.000000 0.000000
#
# Coordination Sequence:
#
# PCOD8008587 Si02
#       7
#     2   2   2   2   2   2   2
#     4  10  24  40  64  96 128 170 213 265 323 378
#     4  10  21  43  65  93 124 169 222 259 312 386
#     4  11  23  43  63  97 133 163 218 270 319 379
#     4  10  20  44  69  92 125 175 218 263 317 386
#     4  11  23  43  71  92 126 174 218 265 322 377
#     4  12  27  37  64 101 131 165 213 272 323 378
#     4  10  24  41  64  90 133 175 212 255 324 393
#
# _framework density 21.743848
#
# number of rings (size 3 to 8) (size 9 to 14) (size 15 to 20)
#    0.000    1.429    2.857    1.714    6.000    2.857 
#    0.000    0.000    0.000    6.857    0.000    0.000 
#    0.000    0.000    0.000    0.000    0.000    0.000 
#
# Total GULP energy -173520.987801 kJ/mol
# GULP energy per Si atom -12394.356272 kJ/mol
# Density = 2.169436 g / cm^3
# Si number density = 21.743848 Si / 1000 Ang^3
#
#
#
# Elastic Constant Matrix: (Units=GPa)
#
#
# Indices 1 2 3 4 5 6 
#
# 1 137.5825 55.4555 43.6457 -5.3988 -6.1169 -8.1602
# 2 55.4555 109.5128 55.5342 3.1671 1.4877 -6.8967
# 3 43.6457 55.5342 56.8017 -2.7038 1.2226 -8.9936
# 4 -5.3988 3.1671 -2.7038 26.3579 -5.1752 -8.5199
# 5 -6.1169 1.4877 1.2226 -5.1752 31.5752 1.7413
# 6 -8.1602 -6.8967 -8.9936 -8.5199 1.7413 40.8331
#
#
#
# Elastic Compliance Matrix: (Units=1/GPa)
#
#
# Indices 1 2 3 4 5 6 
#
# 1 0.010225 -0.002703 -0.004993 0.002742 0.002699 0.000944
# 2 -0.002703 0.019423 -0.017506 -0.005717 -0.001574 -0.002241
# 3 -0.004993 -0.017506 0.039916 0.007054 -0.000882 0.006347
# 4 0.002742 -0.005717 0.007054 0.044617 0.007281 0.010135
# 5 0.002699 -0.001574 -0.000882 0.007281 0.033486 0.000170
# 6 0.000944 -0.002241 0.006347 0.010135 0.000170 0.027805
#
#
# Mechanical properties :
#
#
# Convention : Reuss Voigt Hill
#
# Bulk Modulus (GPa) = 52.18637 68.12976 60.15807
# Shear Modulus (GPa) = 21.52751 29.70401 25.61576
#
# Velocity S-wave (km/s) = 3.14992 3.70007 3.43603
# Velocity P-wave (km/s) = 6.10590 7.04663 6.59306
#
# Compressibility (1/GPa) = 0.01916209
#
# Stress axis : x y z
#
# Youngs Moduli (GPa) = 97.79824 51.48637 25.05255
#
# Poissons Ratio (x) = 0.13914 0.12508
# Poissons Ratio (y) = 0.26430 0.43856
# Poissons Ratio (z) = 0.48827 0.90130
#
# Static dielectric constant tensor:
#      x y z
#    x 4.016460 -0.204370 0.019360 
#    y -0.204370 3.883960 0.060940 
#    z 0.019360 0.060940 3.923950 
# 
# 
# High freq. dielectric constant tensor:
#      x y z
#    x 1.858490 -0.011960 -0.001240 
#    y -0.011960 1.843520 0.011440 
#    z -0.001240 0.011440 1.855360 
# 
# From -- ./inp_files/186854.got.cif
#   From: 2010.06.25/outbox.cif.g09.slc.cpg/sg2_94_cif.got.tgz:186854.got - 2010.06.27 13:26:56.
