data_PCOD8008924
_publ_section_title
;
Structure prediction by ZEFSAII (Michael W. Deem and Ramdas Pophale) SiO2 
 PCOD8008924
Probable space group: P -1
;
_chemical_formula_sum "Si O2"
_cell_formula_units_Z 12
_cell_length_a 21.778612
_cell_length_b 11.847983
_cell_length_c 5.299107
_cell_angle_alpha 54.960385
_cell_angle_beta 56.856616
_cell_angle_gamma 31.410177
_cell_volume 578.270568
_symmetry_space_group_name_H-M "P -1"
_symmetry_group_IT_number 2
_symmetry_cell_setting 'triclinic'
loop_
_space_group_symop_operation_xyz
x,y,z
-x,-y,-z
loop_
_atom_site_type_symbol
_atom_site_label
_atom_site_fract_x
_atom_site_fract_y
_atom_site_fract_z
Si Si1 0.411699 0.002453 0.232565
Si Si2 0.824275 0.321386 0.589878
Si Si3 0.448982 0.645238 0.675759
Si Si4 0.186408 0.944125 0.838202
Si Si5 0.928583 0.933104 0.568136
Si Si6 0.638799 0.825872 0.374149
O O1 0.483659 0.755460 0.448065
O O2 0.320671 0.166818 0.459598
O O3 0.500000 0.000000 0.000000
O O4 0.341000 0.097017 0.003187
O O5 0.787345 0.259571 0.956395
O O6 0.869802 0.174035 0.422947
O O7 0.709331 0.583028 0.458735
O O8 0.930152 0.260857 0.536704
O O9 0.500000 0.500000 0.500000
O O10 0.500000 0.500000 0.000000
O O11 0.306888 0.850148 0.722857
O O12 0.100582 0.110254 0.054595
O O13 0.124483 0.069320 0.549743
O O14 0.500000 0.000000 0.500000
#
# Coordination Sequence:
#
# PCOD8008924 Si02
#       6
#     2   2   2   2   2   2
#     4  10  24  39  57  84 125 161 205 244 304 383
#     4   9  21  34  64  91 121 159 209 260 299 361
#     4  12  26  40  64  90 127 169 208 257 314 362
#     4  10  21  35  59  88 122 151 207 262 305 349
#     4   9  20  35  60  94 118 155 214 263 299 345
#     4  10  22  35  59  84 126 158 201 242 316 367
#
# _framework density 20.751532000000001
#
# number of rings (size 3 to 8) (size 9 to 14) (size 15 to 20)
#    1.000    1.000    0.000    2.500   11.667    0.000 
#    0.000    0.000    0.000    6.000    0.000    0.000 
#    0.000    0.000    0.000    0.000    0.000    0.000 
#
# Total GULP energy -148659.794842 kJ/mol
# GULP energy per Si atom -12388.316237 kJ/mol
# Density = 2.070430 g / cm^3
# Si number density = 20.751532 Si / 1000 Ang^3
#
#
#
# Elastic Constant Matrix: (Units=GPa)
#
#
# Indices 1 2 3 4 5 6 
#
# 1 95.1681 19.0533 55.5949 6.2197 20.9333 -6.9053
# 2 19.0533 87.2044 26.1113 -1.0068 -2.4237 0.5581
# 3 55.5949 26.1113 121.9713 -0.9426 28.0184 14.6063
# 4 6.2197 -1.0068 -0.9426 21.6035 3.0724 -2.9897
# 5 20.9333 -2.4237 28.0184 3.0724 53.3780 6.3772
# 6 -6.9053 0.5581 14.6063 -2.9897 6.3772 32.7733
#
#
#
# Elastic Compliance Matrix: (Units=1/GPa)
#
#
# Indices 1 2 3 4 5 6 
#
# 1 0.016617 -0.001617 -0.007333 -0.003714 -0.003377 0.007115
# 2 -0.001617 0.012663 -0.002562 0.000610 0.002500 0.000154
# 3 -0.007333 -0.002562 0.013782 0.002206 -0.003801 -0.006703
# 4 -0.003714 0.000610 0.002206 0.048327 -0.002836 0.003184
# 5 -0.003377 0.002500 -0.003801 -0.002836 0.022779 -0.003751
# 6 0.007115 0.000154 -0.006703 0.003184 -0.003751 0.036017
#
#
# Mechanical properties :
#
#
# Convention : Reuss Voigt Hill
#
# Bulk Modulus (GPa) = 49.90358 56.20696 53.05527
# Shear Modulus (GPa) = 27.79490 35.12326 31.45908
#
# Velocity S-wave (km/s) = 3.66377 4.11854 3.89779
# Velocity P-wave (km/s) = 6.48058 7.05415 6.77344
#
# Compressibility (1/GPa) = 0.02003864
#
# Stress axis : x y z
#
# Youngs Moduli (GPa) = 60.17901 78.96814 72.55658
#
# Poissons Ratio (x) = 0.12772 0.53204
# Poissons Ratio (y) = 0.09733 0.18588
# Poissons Ratio (z) = 0.44128 0.20231
#
# Static dielectric constant tensor:
#      x y z
#    x 2.970470 -0.060530 -0.532080 
#    y -0.060530 3.395130 -0.018680 
#    z -0.532080 -0.018680 2.989530 
# 
# 
# High freq. dielectric constant tensor:
#      x y z
#    x 1.801940 0.001860 0.023700 
#    y 0.001860 1.780400 0.014960 
#    z 0.023700 0.014960 1.813080 
# 
# From -- ./inp_files/73583.got.cif
#   From: 2010.06.25/outbox.cif.g09.slc.cpg/sg2_37_cif.got.tgz:73583.got - 2010.06.27 13:26:56.
