data_PCOD8008543
_publ_section_title
;
Structure prediction by ZEFSAII (Michael W. Deem and Ramdas Pophale) SiO2 
 PCOD8008543
Probable space group: P -1
;
_chemical_formula_sum "Si O2"
_cell_formula_units_Z 16
_cell_length_a 18.967187
_cell_length_b 26.006420
_cell_length_c 12.655510
_cell_angle_alpha 26.436759
_cell_angle_beta 143.290296
_cell_angle_gamma 162.064475
_cell_volume 796.333023
_symmetry_space_group_name_H-M "P -1"
_symmetry_group_IT_number 2
_symmetry_cell_setting 'triclinic'
loop_
_space_group_symop_operation_xyz
x,y,z
-x,-y,-z
loop_
_atom_site_type_symbol
_atom_site_label
_atom_site_fract_x
_atom_site_fract_y
_atom_site_fract_z
Si Si1 0.178095 0.118958 0.396267
Si Si2 0.150271 0.589207 0.616090
Si Si3 0.319068 0.355663 0.926594
Si Si4 0.519236 0.720892 0.848178
Si Si5 0.968096 0.174127 0.686417
Si Si6 0.052052 0.315886 0.152907
Si Si7 0.626263 0.026031 0.688492
Si Si8 0.139734 0.502936 0.134957
O O1 0.467663 0.363051 0.327641
O O2 0.113003 0.937781 0.602793
O O3 0.163474 0.202586 0.130032
O O4 0.000000 0.000000 0.500000
O O5 0.406836 0.740527 0.621756
O O6 0.000000 0.500000 0.500000
O O7 0.215940 0.764513 0.427522
O O8 0.979059 0.359545 0.906543
O O9 0.140535 0.227073 0.850387
O O10 0.471841 0.369831 0.062133
O O11 0.793825 0.971283 0.760822
O O12 0.338682 0.529873 0.080077
O O13 0.134861 0.414798 0.390905
O O14 0.808558 0.092037 0.736846
O O15 0.023150 0.336876 0.199005
O O16 0.500000 0.000000 0.500000
O O17 0.423527 0.775524 0.962499
O O18 0.000000 0.500000 0.000000
#
# Coordination Sequence:
#
# PCOD8008543 Si02
#       8
#     2   2   2   2   2   2   2   2
#     4  11  23  46  66  90 138 179 220 276 336 396
#     4  10  21  37  68  96 126 177 222 270 342 399
#     4  11  26  42  68  98 132 180 225 275 333 408
#     4  10  20  44  64  93 139 171 217 285 335 386
#     4  12  24  40  67 100 131 175 231 271 337 404
#     4  10  21  40  68  94 130 179 218 275 343 390
#     4  12  20  43  63  92 137 172 220 282 332 392
#     4  12  22  39  69  97 128 179 222 274 345 399
#
# _framework density 20.092096000000002
#
# number of rings (size 3 to 8) (size 9 to 14) (size 15 to 20)
#    0.750    0.250    6.250    1.125    0.000    5.000 
#    0.000    1.250    0.000    6.000    0.000    0.000 
#    0.000    0.000    0.000    0.000    0.000    0.000 
#
# Total GULP energy -198287.679194 kJ/mol
# GULP energy per Si atom -12392.979950 kJ/mol
# Density = 2.004637 g / cm^3
# Si number density = 20.092096 Si / 1000 Ang^3
#
#
#
# Elastic Constant Matrix: (Units=GPa)
#
#
# Indices 1 2 3 4 5 6 
#
# 1 104.2680 9.5052 38.5593 -9.5224 -2.2188 0.4552
# 2 9.5052 97.5485 43.8962 -0.2943 -7.6060 -12.5503
# 3 38.5593 43.8962 118.9503 -20.9325 -13.5295 -1.8587
# 4 -9.5224 -0.2943 -20.9325 41.2875 -6.4889 2.8701
# 5 -2.2188 -7.6060 -13.5295 -6.4889 39.2796 -6.8708
# 6 0.4552 -12.5503 -1.8587 2.8701 -6.8708 28.4857
#
#
#
# Elastic Compliance Matrix: (Units=1/GPa)
#
#
# Indices 1 2 3 4 5 6 
#
# 1 0.010958 0.000510 -0.003700 0.000599 -0.000524 -0.000379
# 2 0.000510 0.013524 -0.005373 -0.002717 0.001436 0.006220
# 3 -0.003700 -0.005373 0.013198 0.006533 0.004184 -0.001096
# 4 0.000599 -0.002717 0.006533 0.028767 0.006125 -0.002201
# 5 -0.000524 0.001436 0.004184 0.006125 0.029454 0.007401
# 6 -0.000379 0.006220 -0.001096 -0.002201 0.007401 0.039787
#
#
# Mechanical properties :
#
#
# Convention : Reuss Voigt Hill
#
# Bulk Modulus (GPa) = 48.65998 56.07648 52.36823
# Shear Modulus (GPa) = 31.31522 37.06429 34.18975
#
# Velocity S-wave (km/s) = 3.95217 4.29968 4.12958
# Velocity P-wave (km/s) = 6.71545 7.25396 6.98989
#
# Compressibility (1/GPa) = 0.02055077
#
# Stress axis : x y z
#
# Youngs Moduli (GPa) = 91.25900 73.94458 75.77012
#
# Poissons Ratio (x) = -0.03768 0.28038
# Poissons Ratio (y) = -0.04650 0.40715
# Poissons Ratio (z) = 0.33769 0.39734
#
# Static dielectric constant tensor:
#      x y z
#    x 3.505050 0.060860 -0.233460 
#    y 0.060860 2.904180 0.060940 
#    z -0.233460 0.060940 3.489940 
# 
# 
# High freq. dielectric constant tensor:
#      x y z
#    x 1.794640 -0.009930 0.002300 
#    y -0.009930 1.766480 -0.018600 
#    z 0.002300 -0.018600 1.788530 
# 
# From -- ./inp_files/308718.got.cif
#   From: 2010.06.25/outbox.cif.g09.slc.cpg/sg2_155_cif.got.tgz:308718.got - 2010.06.27 13:26:56.
