data_PCOD8008332
_publ_section_title
;
Structure prediction by ZEFSAII (Michael W. Deem and Ramdas Pophale) SiO2 
 PCOD8008332
Probable space group: P -1
;
_chemical_formula_sum "Si O2"
_cell_formula_units_Z 14
_cell_length_a 15.827406
_cell_length_b 9.109165
_cell_length_c 7.018000
_cell_angle_alpha 51.170313
_cell_angle_beta 67.153885
_cell_angle_gamma 64.850104
_cell_volume 702.772829
_symmetry_space_group_name_H-M "P -1"
_symmetry_group_IT_number 2
_symmetry_cell_setting 'triclinic'
loop_
_space_group_symop_operation_xyz
x,y,z
-x,-y,-z
loop_
_atom_site_type_symbol
_atom_site_label
_atom_site_fract_x
_atom_site_fract_y
_atom_site_fract_z
Si Si1 0.543256 0.899983 0.238842
Si Si2 0.222706 0.778575 0.735029
Si Si3 0.777954 0.808152 0.645270
Si Si4 0.378379 0.922911 0.639679
Si Si5 0.113875 0.431005 0.584765
Si Si6 0.728243 0.597102 0.223844
Si Si7 0.959734 0.229642 0.874260
O O1 0.466403 0.838121 0.490741
O O2 0.621081 0.702020 0.285858
O O3 0.588755 0.051630 0.194065
O O4 0.500000 0.000000 0.000000
O O5 0.306902 0.779624 0.815432
O O6 0.266345 0.623936 0.659465
O O7 0.190020 0.993460 0.495007
O O8 0.134493 0.722435 0.955293
O O9 0.858228 0.667930 0.564654
O O10 0.678624 0.866170 0.566970
O O11 0.764930 0.707464 0.933136
O O12 0.204988 0.401766 0.657301
O O13 0.066595 0.660010 0.396836
O O14 0.038387 0.323106 0.830600
O O15 0.000000 0.000000 0.000000
#
# Coordination Sequence:
#
# PCOD8008332 Si02
#       7
#     2   2   2   2   2   2   2
#     4  11  20  38  67  92 125 173 207 256 314 369
#     4  10  22  41  63  93 126 165 207 265 314 371
#     4  10  20  43  61  89 131 163 205 258 315 375
#     4   9  21  40  62  90 129 165 208 255 313 371
#     4  11  24  41  67  94 124 174 206 257 323 376
#     4  12  23  40  66  95 129 164 213 262 312 373
#     4  11  22  43  69  90 128 167 212 259 320 377
#
# _framework density 19.921088999999998
#
# number of rings (size 3 to 8) (size 9 to 14) (size 15 to 20)
#    0.857    0.571    5.714    0.000    0.000    2.286 
#    2.571    2.143    0.000    0.000    0.000    0.000 
#    0.000    0.000    0.000    0.000    0.000    0.000 
#
# Total GULP energy -173509.799921 kJ/mol
# GULP energy per Si atom -12393.557137 kJ/mol
# Density = 1.987575 g / cm^3
# Si number density = 19.921089 Si / 1000 Ang^3
#
#
#
# Elastic Constant Matrix: (Units=GPa)
#
#
# Indices 1 2 3 4 5 6 
#
# 1 84.7521 59.5674 20.6348 -1.4506 -2.6902 -20.3325
# 2 59.5674 133.0954 53.8075 0.1353 -2.5076 -2.5427
# 3 20.6348 53.8075 71.9022 -5.8581 3.6305 -1.2366
# 4 -1.4506 0.1353 -5.8581 34.5346 -5.5847 -5.2060
# 5 -2.6902 -2.5076 3.6305 -5.5847 38.0197 0.6354
# 6 -20.3325 -2.5427 -1.2366 -5.2060 0.6354 25.7146
#
#
#
# Elastic Compliance Matrix: (Units=1/GPa)
#
#
# Indices 1 2 3 4 5 6 
#
# 1 0.023604 -0.011049 0.002114 0.004360 0.001070 0.018529
# 2 -0.011049 0.016084 -0.009312 -0.003218 0.000834 -0.008266
# 3 0.002114 -0.009312 0.020713 0.003709 -0.001940 0.002546
# 4 0.004360 -0.003218 0.003709 0.031929 0.004271 0.009666
# 5 0.001070 0.000834 -0.001940 0.004271 0.027228 0.001027
# 6 0.018529 -0.008266 0.002546 0.009666 0.001027 0.054776
#
#
# Mechanical properties :
#
#
# Convention : Reuss Voigt Hill
#
# Bulk Modulus (GPa) = 41.82683 61.97435 51.90059
# Shear Modulus (GPa) = 22.85221 30.03646 26.44434
#
# Velocity S-wave (km/s) = 3.39062 3.88722 3.64738
# Velocity P-wave (km/s) = 6.03077 7.16413 6.62174
#
# Compressibility (1/GPa) = 0.02390810
#
# Stress axis : x y z
#
# Youngs Moduli (GPa) = 42.36604 62.17293 48.27772
#
# Poissons Ratio (x) = 0.68695 -0.10208
# Poissons Ratio (y) = 0.46811 0.44956
# Poissons Ratio (z) = -0.08958 0.57895
#
# Static dielectric constant tensor:
#      x y z
#    x 3.726090 -0.174980 -0.083760 
#    y -0.174980 3.747210 -0.009380 
#    z -0.083760 -0.009380 3.365870 
# 
# 
# High freq. dielectric constant tensor:
#      x y z
#    x 1.783740 -0.016960 -0.008260 
#    y -0.016960 1.781230 0.001430 
#    z -0.008260 0.001430 1.756370 
# 
# From -- ./inp_files/106234.got.cif
#   From: 2010.06.25/outbox.cif.g09.slc.cpg/sg2_54_cif.got.tgz:106234.got - 2010.06.27 13:26:56.
