data_PCOD8008862
_publ_section_title
;
Structure prediction by ZEFSAII (Michael W. Deem and Ramdas Pophale) SiO2 
 PCOD8008862
Probable space group: P -1
;
_chemical_formula_sum "Si O2"
_cell_formula_units_Z 16
_cell_length_a 7.636486
_cell_length_b 5.461041
_cell_length_c 21.273197
_cell_angle_alpha 119.963487
_cell_angle_beta 111.187018
_cell_angle_gamma 59.595561
_cell_volume 655.840718
_symmetry_space_group_name_H-M "P -1"
_symmetry_group_IT_number 2
_symmetry_cell_setting 'triclinic'
loop_
_space_group_symop_operation_xyz
x,y,z
-x,-y,-z
loop_
_atom_site_type_symbol
_atom_site_label
_atom_site_fract_x
_atom_site_fract_y
_atom_site_fract_z
Si Si1 0.796907 0.668047 0.577699
Si Si2 0.251326 0.644052 0.986838
Si Si3 0.791799 0.642299 0.178806
Si Si4 0.467359 0.695157 0.353754
Si Si5 0.839272 0.261800 0.426854
Si Si6 0.306528 0.217669 0.044140
Si Si7 0.053602 0.636621 0.323262
Si Si8 0.557102 0.340919 0.195145
O O1 0.777716 0.363221 0.505280
O O2 0.932180 0.758112 0.557143
O O3 0.912520 0.627049 0.654610
O O4 0.573402 0.944231 0.595516
O O5 0.154456 0.508266 0.902183
O O6 0.500000 0.500000 0.000000
O O7 0.183146 0.532537 0.028977
O O8 0.169727 0.019130 0.016733
O O9 0.995109 0.559025 0.236903
O O10 0.664288 0.471139 0.173630
O O11 0.687877 0.013075 0.203765
O O12 0.672508 0.505148 0.392300
O O13 0.481576 0.605425 0.271319
O O14 0.269733 0.662440 0.352745
O O15 0.860158 0.922711 0.366020
O O16 0.369228 0.305181 0.130843
O O17 0.500000 0.000000 0.000000
#
# Coordination Sequence:
#
# PCOD8008862 Si02
#       8
#     2   2   2   2   2   2   2   2
#     4  10  23  42  66  94 127 167 218 272 321 393
#     4  10  16  31  54  93 119 157 220 268 310 380
#     4  12  22  37  65  93 130 173 216 268 327 387
#     4  11  25  40  61  97 132 169 217 267 328 391
#     4  10  21  44  68  90 125 171 217 269 326 385
#     4  10  16  31  54  93 120 155 222 266 309 385
#     4  11  25  40  61  96 130 169 218 268 325 393
#     4  12  22  37  65  94 129 174 214 268 330 386
#
# _framework density 24.396167999999999
#
# number of rings (size 3 to 8) (size 9 to 14) (size 15 to 20)
#    0.000    1.250    6.250    1.500    3.500    1.500 
#    0.000    0.000    0.000    1.500    0.000    0.000 
#    0.000    0.000    0.000    0.000    0.000    0.000 
#
# Total GULP energy -198241.215286 kJ/mol
# GULP energy per Si atom -12390.075955 kJ/mol
# Density = 2.434064 g / cm^3
# Si number density = 24.396168 Si / 1000 Ang^3
#
#
#
# Elastic Constant Matrix: (Units=GPa)
#
#
# Indices 1 2 3 4 5 6 
#
# 1 33.2126 17.1836 4.2802 -4.0659 5.9306 10.5129
# 2 17.1836 116.6040 13.4175 -7.2086 -6.9593 16.9200
# 3 4.2802 13.4175 141.6562 -13.6705 -0.9743 -10.5971
# 4 -4.0659 -7.2086 -13.6705 36.6396 6.6715 -5.9840
# 5 5.9306 -6.9593 -0.9743 6.6715 25.8428 -0.7900
# 6 10.5129 16.9200 -10.5971 -5.9840 -0.7900 37.1068
#
#
#
# Elastic Compliance Matrix: (Units=1/GPa)
#
#
# Indices 1 2 3 4 5 6 
#
# 1 0.037780 -0.004648 -0.001081 0.003502 -0.011128 -0.008565
# 2 -0.004648 0.010109 -0.001074 -0.000179 0.003686 -0.003550
# 3 -0.001081 -0.001074 0.007766 0.003228 -0.000474 0.003524
# 4 0.003502 -0.000179 0.003228 0.031218 -0.008641 0.004862
# 5 -0.011128 0.003686 -0.000474 -0.008641 0.044482 0.000890
# 6 -0.008565 -0.003550 0.003524 0.004862 0.000890 0.032804
#
#
# Mechanical properties :
#
#
# Convention : Reuss Voigt Hill
#
# Bulk Modulus (GPa) = 23.78218 40.13728 31.95973
# Shear Modulus (GPa) = 26.07144 37.02394 31.54769
#
# Velocity S-wave (km/s) = 3.27260 3.89988 3.59993
# Velocity P-wave (km/s) = 4.90401 6.06356 5.51435
#
# Compressibility (1/GPa) = 0.04204830
#
# Stress axis : x y z
#
# Youngs Moduli (GPa) = 26.46891 98.92504 128.77173
#
# Poissons Ratio (x) = 0.45981 0.13915
# Poissons Ratio (y) = 0.12303 0.13836
# Poissons Ratio (z) = 0.02860 0.10629
#
# Static dielectric constant tensor:
#      x y z
#    x 4.183490 0.354590 -0.068550 
#    y 0.354590 4.857990 0.114470 
#    z -0.068550 0.114470 4.795770 
# 
# 
# High freq. dielectric constant tensor:
#      x y z
#    x 1.949340 0.008300 0.000250 
#    y 0.008300 1.976440 -0.004110 
#    z 0.000250 -0.004110 1.984950 
# 
# From -- ./inp_files/585871.got.cif
#   From: 2010.06.25/outbox.cif.g09.slc.cpg/sg2_293_cif.got.tgz:585871.got - 2010.06.27 13:26:56.
