data_PCOD8008349
_publ_section_title
;
Structure prediction by ZEFSAII (Michael W. Deem and Ramdas Pophale) SiO2 
 PCOD8008349
Probable space group: P -1
;
_chemical_formula_sum "Si O2"
_cell_formula_units_Z 14
_cell_length_a 19.364305
_cell_length_b 8.795596
_cell_length_c 16.517636
_cell_angle_alpha 38.020127
_cell_angle_beta 160.039685
_cell_angle_gamma 138.555206
_cell_volume 590.972711
_symmetry_space_group_name_H-M "P -1"
_symmetry_group_IT_number 2
_symmetry_cell_setting 'triclinic'
loop_
_space_group_symop_operation_xyz
x,y,z
-x,-y,-z
loop_
_atom_site_type_symbol
_atom_site_label
_atom_site_fract_x
_atom_site_fract_y
_atom_site_fract_z
Si Si1 0.795357 0.803678 0.043862
Si Si2 0.441957 0.012557 0.155812
Si Si3 0.686678 0.818017 0.224543
Si Si4 0.357586 0.483704 0.227048
Si Si5 0.407148 0.678809 0.582467
Si Si6 0.803479 0.002081 0.671797
Si Si7 0.140752 0.689030 0.749113
O O1 0.839288 0.511328 0.216164
O O2 0.598634 0.848800 0.753119
O O3 0.974753 0.969550 0.132270
O O4 0.754280 0.894267 0.051538
O O5 0.428087 0.714874 0.262725
O O6 0.646446 0.101042 0.390700
O O7 0.447592 0.132821 0.023074
O O8 0.582804 0.594702 0.253333
O O9 0.910622 0.761289 0.466352
O O10 0.708588 0.066777 0.200522
O O11 0.558015 0.364175 0.457062
O O12 0.241563 0.284114 0.239242
O O13 0.197976 0.564026 0.949824
O O14 0.211434 0.824758 0.335406
#
# Coordination Sequence:
#
# PCOD8008349 Si02
#       7
#     2   2   2   2   2   2   2
#     4  10  22  40  59  94 122 162 204 238 317 354
#     4  10  24  42  61  92 124 164 200 249 307 367
#     4  10  20  43  63  90 127 151 212 253 298 364
#     4  10  22  42  64  91 123 159 210 250 302 360
#     4  10  22  41  65  92 118 164 204 257 301 352
#     4  11  22  43  62  91 127 160 202 253 303 365
#     4   9  20  39  64  91 115 163 201 255 298 354
#
# _framework density 23.689755999999999
#
# number of rings (size 3 to 8) (size 9 to 14) (size 15 to 20)
#    0.000    2.000    1.429    0.857    0.000   10.857 
#   18.000    0.000    0.000    0.000    0.000    0.000 
#    0.000    0.000    0.000    0.000    0.000    0.000 
#
# Total GULP energy -173585.786269 kJ/mol
# GULP energy per Si atom -12398.984733 kJ/mol
# Density = 2.363584 g / cm^3
# Si number density = 23.689756 Si / 1000 Ang^3
#
#
#
# Elastic Constant Matrix: (Units=GPa)
#
#
# Indices 1 2 3 4 5 6 
#
# 1 103.1961 55.7732 6.9607 11.9177 20.0307 -5.2006
# 2 55.7732 116.2546 5.5969 1.6534 12.2350 0.3898
# 3 6.9607 5.5969 36.3427 7.4310 1.9728 5.1723
# 4 11.9177 1.6534 7.4310 32.1973 1.5030 9.7557
# 5 20.0307 12.2350 1.9728 1.5030 20.7520 -2.0561
# 6 -5.2006 0.3898 5.1723 9.7557 -2.0561 51.5986
#
#
#
# Elastic Compliance Matrix: (Units=1/GPa)
#
#
# Indices 1 2 3 4 5 6 
#
# 1 0.016168 -0.006486 -0.000670 -0.005702 -0.011069 0.002383
# 2 -0.006486 0.011821 -0.000852 0.002380 -0.000913 -0.001144
# 3 -0.000670 -0.000852 0.029320 -0.005816 -0.001410 -0.001957
# 4 -0.005702 0.002380 -0.005816 0.036399 0.001340 -0.006838
# 5 -0.011069 -0.000913 -0.001410 0.001340 0.059562 0.001153
# 6 0.002383 -0.001144 -0.001957 -0.006838 0.001153 0.021164
#
#
# Mechanical properties :
#
#
# Convention : Reuss Voigt Hill
#
# Bulk Modulus (GPa) = 24.21829 43.60610 33.91220
# Shear Modulus (GPa) = 24.48398 33.40709 28.94553
#
# Velocity S-wave (km/s) = 3.21834 3.75933 3.49930
# Velocity P-wave (km/s) = 4.90465 6.10659 5.53832
#
# Compressibility (1/GPa) = 0.04129110
#
# Stress axis : x y z
#
# Youngs Moduli (GPa) = 61.84938 84.59670 34.10672
#
# Poissons Ratio (x) = 0.54873 0.02286
# Poissons Ratio (y) = 0.40118 0.02907
# Poissons Ratio (z) = 0.04145 0.07210
#
# Static dielectric constant tensor:
#      x y z
#    x 4.133590 -0.239020 0.250050 
#    y -0.239020 4.541040 -0.129310 
#    z 0.250050 -0.129310 4.117030 
# 
# 
# High freq. dielectric constant tensor:
#      x y z
#    x 1.926560 -0.004590 0.020910 
#    y -0.004590 1.953980 -0.010910 
#    z 0.020910 -0.010910 1.927200 
# 
# From -- ./inp_files/305519.got.cif
#   From: 2010.06.25/outbox.cif.g09.slc.cpg/sg2_153_cif.got.tgz:305519.got - 2010.06.27 13:26:56.
