data_PCOD8008153
_publ_section_title
;
Structure prediction by ZEFSAII (Michael W. Deem and Ramdas Pophale) SiO2 
 PCOD8008153
Probable space group: P -1
;
_chemical_formula_sum "Si O2"
_cell_formula_units_Z 16
_cell_length_a 15.741753
_cell_length_b 12.259721
_cell_length_c 21.781721
_cell_angle_alpha 25.675724
_cell_angle_beta 27.619000
_cell_angle_gamma 25.254060
_cell_volume 717.567672
_symmetry_space_group_name_H-M "P -1"
_symmetry_group_IT_number 2
_symmetry_cell_setting 'triclinic'
loop_
_space_group_symop_operation_xyz
x,y,z
-x,-y,-z
loop_
_atom_site_type_symbol
_atom_site_label
_atom_site_fract_x
_atom_site_fract_y
_atom_site_fract_z
Si Si1 0.584155 0.934849 0.617174
Si Si2 0.003566 0.903163 0.816267
Si Si3 0.419152 0.471452 0.707930
Si Si4 0.963312 0.656466 0.597672
Si Si5 0.134573 0.156757 0.834858
Si Si6 0.838046 0.657842 0.143462
Si Si7 0.848407 0.004664 0.731133
Si Si8 0.248181 0.209882 0.540300
O O1 0.716305 0.794780 0.665878
O O2 0.740320 0.700576 0.583358
O O3 0.538106 0.263867 0.465729
O O4 0.355632 0.957458 0.755914
O O5 0.201406 0.584167 0.829257
O O6 0.108011 0.057972 0.708128
O O7 0.869337 0.076208 0.753059
O O8 0.849753 0.872641 0.977475
O O9 0.369723 0.365860 0.728436
O O10 0.604071 0.199804 0.765636
O O11 0.994768 0.477698 0.730154
O O12 0.004887 0.923935 0.443609
O O13 0.141629 0.469646 0.525678
O O14 0.202125 0.190837 0.841759
O O15 0.000000 0.000000 0.000000
O O16 0.062739 0.340826 0.160557
O O17 0.500000 0.000000 0.500000
#
# Coordination Sequence:
#
# PCOD8008153 Si02
#       8
#     2   2   2   2   2   2   2   2
#     4  11  23  42  69  98 132 172 224 283 323 392
#     4  10  22  40  64 101 139 166 216 281 333 394
#     4  10  20  42  67 101 129 165 225 278 339 381
#     4  12  22  43  70 101 131 169 228 279 326 396
#     4  12  28  48  65  92 140 184 220 271 327 403
#     4  11  25  42  64  97 139 177 214 268 335 398
#     4  11  21  41  69 102 126 166 224 283 331 388
#     4  11  20  39  71 103 129 173 219 275 340 378
#
# _framework density 22.297549
#
# number of rings (size 3 to 8) (size 9 to 14) (size 15 to 20)
#    0.000    1.000    6.250    3.375    0.000    4.500 
#    0.000    1.250    0.000    0.000    0.000    0.000 
#    0.000    0.000    0.000    0.000    0.000    0.000 
#
# Total GULP energy -198328.730852 kJ/mol
# GULP energy per Si atom -12395.545678 kJ/mol
# Density = 2.224680 g / cm^3
# Si number density = 22.297549 Si / 1000 Ang^3
#
#
#
# Elastic Constant Matrix: (Units=GPa)
#
#
# Indices 1 2 3 4 5 6 
#
# 1 119.3266 25.4881 36.3246 -2.5732 -2.5273 -18.5361
# 2 25.4881 50.1749 13.1572 3.6088 -2.7439 -22.9815
# 3 36.3246 13.1572 119.9899 7.6937 8.0906 1.3803
# 4 -2.5732 3.6088 7.6937 22.6740 -8.7491 -0.2415
# 5 -2.5273 -2.7439 8.0906 -8.7491 35.2143 -3.8581
# 6 -18.5361 -22.9815 1.3803 -0.2415 -3.8581 49.0811
#
#
#
# Elastic Compliance Matrix: (Units=1/GPa)
#
#
# Indices 1 2 3 4 5 6 
#
# 1 0.010686 -0.003452 -0.003307 0.003887 0.002522 0.002729
# 2 -0.003452 0.028228 -0.002220 -0.002804 0.003102 0.012206
# 3 -0.003307 -0.002220 0.010243 -0.005220 -0.004383 -0.002947
# 4 0.003887 -0.002804 -0.005220 0.052357 0.014454 0.001695
# 5 0.002522 0.003102 -0.004383 0.014454 0.033996 0.005272
# 6 0.002729 0.012206 -0.002947 0.001695 0.005272 0.027626
#
#
# Mechanical properties :
#
#
# Convention : Reuss Voigt Hill
#
# Bulk Modulus (GPa) = 32.05333 48.82569 40.43951
# Shear Modulus (GPa) = 26.11040 35.69533 30.90286
#
# Velocity S-wave (km/s) = 3.42570 4.00542 3.72685
# Velocity P-wave (km/s) = 5.48212 6.58301 6.05763
#
# Compressibility (1/GPa) = 0.03119801
#
# Stress axis : x y z
#
# Youngs Moduli (GPa) = 93.58283 35.42546 97.62984
#
# Poissons Ratio (x) = 0.12231 0.32286
# Poissons Ratio (y) = 0.32309 0.21673
# Poissons Ratio (z) = 0.30948 0.07864
#
# Static dielectric constant tensor:
#      x y z
#    x 4.364880 -0.074580 -0.035270 
#    y -0.074580 3.832450 -0.040850 
#    z -0.035270 -0.040850 3.866890 
# 
# 
# High freq. dielectric constant tensor:
#      x y z
#    x 1.893400 -0.018140 -0.006410 
#    y -0.018140 1.858300 -0.003760 
#    z -0.006410 -0.003760 1.867830 
# 
# From -- ./inp_files/597939.got.cif
#   From: 2010.06.25/outbox.cif.g09.slc.cpg/sg2_299_cif.got.tgz:597939.got - 2010.06.27 13:26:56.
