data_PCOD8008516
_publ_section_title
;
Structure prediction by ZEFSAII (Michael W. Deem and Ramdas Pophale) SiO2 
 PCOD8008516
Probable space group: P -1
;
_chemical_formula_sum "Si O2"
_cell_formula_units_Z 14
_cell_length_a 18.215778
_cell_length_b 7.446184
_cell_length_c 5.441538
_cell_angle_alpha 120.036147
_cell_angle_beta 120.756558
_cell_angle_gamma 70.960914
_cell_volume 546.638499
_symmetry_space_group_name_H-M "P -1"
_symmetry_group_IT_number 2
_symmetry_cell_setting 'triclinic'
loop_
_space_group_symop_operation_xyz
x,y,z
-x,-y,-z
loop_
_atom_site_type_symbol
_atom_site_label
_atom_site_fract_x
_atom_site_fract_y
_atom_site_fract_z
Si Si1 0.288982 0.223634 0.864487
Si Si2 0.468738 0.258307 0.013600
Si Si3 0.152822 0.153714 0.209493
Si Si4 0.548575 0.256798 0.648424
Si Si5 0.200780 0.547978 0.253018
Si Si6 0.275147 0.868860 0.943451
Si Si7 0.983661 0.377374 0.136673
O O1 0.205441 0.141758 0.542907
O O2 0.314719 0.064470 0.019152
O O3 0.367487 0.229981 0.815488
O O4 0.263112 0.456771 0.079903
O O5 0.516090 0.152521 0.267436
O O6 0.484058 0.500063 0.231451
O O7 0.508165 0.161038 0.760169
O O8 0.173053 0.360693 0.242286
O O9 0.050793 0.168150 0.102670
O O10 0.184490 0.944540 0.971073
O O11 0.652068 0.219846 0.801205
O O12 0.257988 0.692654 0.601203
O O13 0.115488 0.675954 0.076987
O O14 0.000000 0.500000 0.500000
O O15 0.000000 0.500000 0.000000
#
# Coordination Sequence:
#
# PCOD8008516 Si02
#       7
#     2   2   2   2   2   2   2
#     4  11  24  41  68  99 137 178 229 283 339 410
#     4  10  24  42  70  96 132 183 229 279 338 407
#     4  10  23  43  67  98 139 177 230 282 336 412
#     4  10  24  44  66 100 134 178 230 281 339 405
#     4  10  23  43  69  97 136 185 223 282 344 402
#     4  11  26  41  67 104 137 178 230 283 342 407
#     4  10  20  43  72  99 134 182 228 273 341 403
#
# _framework density 25.611073000000001
#
# number of rings (size 3 to 8) (size 9 to 14) (size 15 to 20)
#    0.000    1.714    1.429    0.857   12.000    2.857 
#    0.000    0.714    0.000    0.000    0.000    0.000 
#    0.000    0.000    0.000    0.000    0.000    0.000 
#
# Total GULP energy -173602.154382 kJ/mol
# GULP energy per Si atom -12400.153884 kJ/mol
# Density = 2.555278 g / cm^3
# Si number density = 25.611073 Si / 1000 Ang^3
#
#
#
# Elastic Constant Matrix: (Units=GPa)
#
#
# Indices 1 2 3 4 5 6 
#
# 1 99.3981 37.9288 40.7716 -5.3150 -2.3754 -15.3127
# 2 37.9288 45.9045 26.3542 -18.3282 1.0706 -20.3184
# 3 40.7716 26.3542 155.1326 -17.1173 -10.8011 -10.9526
# 4 -5.3150 -18.3282 -17.1173 40.9596 -9.2085 -2.0062
# 5 -2.3754 1.0706 -10.8011 -9.2085 47.6346 -9.2959
# 6 -15.3127 -20.3184 -10.9526 -2.0062 -9.2959 33.1325
#
#
#
# Elastic Compliance Matrix: (Units=1/GPa)
#
#
# Indices 1 2 3 4 5 6 
#
# 1 0.016494 -0.016907 -0.002688 -0.007147 -0.001674 -0.004537
# 2 -0.016907 0.063480 0.000324 0.030531 0.010748 0.036086
# 3 -0.002688 0.000324 0.007915 0.003889 0.002918 0.002627
# 4 -0.007147 0.030531 0.003889 0.042712 0.012548 0.022812
# 5 -0.001674 0.010748 0.002918 0.012548 0.026688 0.015030
# 6 -0.004537 0.036086 0.002627 0.022812 0.015030 0.056682
#
#
# Mechanical properties :
#
#
# Convention : Reuss Voigt Hill
#
# Bulk Modulus (GPa) = 20.26487 56.72717 38.49602
# Shear Modulus (GPa) = 18.59005 37.37073 27.98039
#
# Velocity S-wave (km/s) = 2.69710 3.82404 3.30890
# Velocity P-wave (km/s) = 4.19867 6.45719 5.44629
#
# Compressibility (1/GPa) = 0.04934647
#
# Stress axis : x y z
#
# Youngs Moduli (GPa) = 60.62932 15.75307 126.33920
#
# Poissons Ratio (x) = 0.26634 0.33960
# Poissons Ratio (y) = 1.02508 -0.04097
# Poissons Ratio (z) = 0.16297 -0.00511
#
# Static dielectric constant tensor:
#      x y z
#    x 4.748840 -0.320140 -0.156620 
#    y -0.320140 4.752710 -0.381560 
#    z -0.156620 -0.381560 4.505390 
# 
# 
# High freq. dielectric constant tensor:
#      x y z
#    x 2.025270 -0.016030 -0.011660 
#    y -0.016030 2.035030 -0.013540 
#    z -0.011660 -0.013540 2.020700 
# 
# From -- ./inp_files/107738.got.cif
#   From: 2010.06.25/outbox.cif.g09.slc.cpg/sg2_54_cif.got.tgz:107738.got - 2010.06.27 13:26:56.
