data_PCOD8008762
_publ_section_title
;
Structure prediction by ZEFSAII (Michael W. Deem and Ramdas Pophale) SiO2 
 PCOD8008762
Probable space group: P -1
;
_chemical_formula_sum "Si O2"
_cell_formula_units_Z 16
_cell_length_a 14.181786
_cell_length_b 5.107344
_cell_length_c 15.428959
_cell_angle_alpha 67.718858
_cell_angle_beta 53.320677
_cell_angle_gamma 54.061548
_cell_volume 724.949657
_symmetry_space_group_name_H-M "P -1"
_symmetry_group_IT_number 2
_symmetry_cell_setting 'triclinic'
loop_
_space_group_symop_operation_xyz
x,y,z
-x,-y,-z
loop_
_atom_site_type_symbol
_atom_site_label
_atom_site_fract_x
_atom_site_fract_y
_atom_site_fract_z
Si Si1 0.903000 0.583244 0.351557
Si Si2 0.182747 0.363558 0.314516
Si Si3 0.842547 0.225508 0.562427
Si Si4 0.799091 0.133314 0.217609
Si Si5 0.619079 0.414917 0.135874
Si Si6 0.383903 0.969139 0.117721
Si Si7 0.255111 0.130363 0.000995
Si Si8 0.953761 0.469301 0.150582
O O1 0.807749 0.477390 0.470504
O O2 0.963268 0.360276 0.260393
O O3 0.027982 0.551881 0.343596
O O4 0.805738 0.957929 0.327929
O O5 0.204222 0.584920 0.344602
O O6 0.220182 0.013999 0.380811
O O7 0.288138 0.285646 0.187932
O O8 0.000000 0.000000 0.500000
O O9 0.650194 0.305826 0.233940
O O10 0.847980 0.397233 0.167054
O O11 0.898513 0.855283 0.130040
O O12 0.460022 0.655033 0.178099
O O13 0.710427 0.579546 0.041377
O O14 0.658923 0.104030 0.093486
O O15 0.292407 0.932786 0.097204
O O16 0.500000 0.000000 0.000000
O O17 0.097364 0.277952 0.049400
#
# Coordination Sequence:
#
# PCOD8008762 Si02
#       8
#     2   2   2   2   2   2   2   2
#     4   9  21  36  58  86 120 145 185 238 309 350
#     4  11  22  37  62  89 120 150 195 241 294 350
#     4  10  22  36  60  92 121 147 184 247 305 356
#     4  10  22  35  55  85 113 162 186 240 291 355
#     4  11  24  38  57  80 118 158 206 236 283 339
#     4  10  23  43  61  87 119 163 199 243 285 339
#     4  11  22  39  57  84 114 155 198 251 290 342
#     4  10  21  34  57  82 116 151 191 237 301 352
#
# _framework density 22.070497
#
# number of rings (size 3 to 8) (size 9 to 14) (size 15 to 20)
#    0.750    1.000    1.250    3.375    5.250    7.000 
#    0.000    0.000    0.000    1.500    0.000    0.000 
#    0.000    0.000    0.000    0.000    0.000    0.000 
#
# Total GULP energy -198241.966029 kJ/mol
# GULP energy per Si atom -12390.122877 kJ/mol
# Density = 2.202026 g / cm^3
# Si number density = 22.070497 Si / 1000 Ang^3
#
#
#
# Elastic Constant Matrix: (Units=GPa)
#
#
# Indices 1 2 3 4 5 6 
#
# 1 42.2921 21.6076 -10.8089 2.1726 6.4822 1.8348
# 2 21.6076 72.0386 1.8010 -4.5907 7.9518 1.2569
# 3 -10.8089 1.8010 58.4898 1.5685 5.0530 4.4929
# 4 2.1726 -4.5907 1.5685 29.9770 2.2632 11.5889
# 5 6.4822 7.9518 5.0530 2.2632 21.1115 2.5722
# 6 1.8348 1.2569 4.4929 11.5889 2.5722 42.2817
#
#
#
# Elastic Compliance Matrix: (Units=1/GPa)
#
#
# Indices 1 2 3 4 5 6 
#
# 1 0.031283 -0.008928 0.006825 -0.003244 -0.007471 -0.000474
# 2 -0.008928 0.017276 -0.001913 0.003973 -0.003637 -0.000790
# 3 0.006825 -0.001913 0.019057 -0.000689 -0.005651 -0.001732
# 4 -0.003244 0.003973 -0.000689 0.038441 -0.003208 -0.010245
# 5 -0.007471 -0.003637 -0.005651 -0.003208 0.052887 -0.001305
# 6 -0.000474 -0.000790 -0.001732 -0.010245 -0.001305 0.026767
#
#
# Mechanical properties :
#
#
# Convention : Reuss Voigt Hill
#
# Bulk Modulus (GPa) = 16.78337 22.00220 19.39279
# Shear Modulus (GPa) = 23.40786 29.35543 26.38165
#
# Velocity S-wave (km/s) = 3.26021 3.65098 3.46111
# Velocity P-wave (km/s) = 4.66829 5.26911 4.97777
#
# Compressibility (1/GPa) = 0.05958278
#
# Stress axis : x y z
#
# Youngs Moduli (GPa) = 31.96647 57.88528 52.47458
#
# Poissons Ratio (x) = 0.51678 -0.35813
# Poissons Ratio (y) = 0.28538 0.10040
# Poissons Ratio (z) = -0.21816 0.11075
#
# Static dielectric constant tensor:
#      x y z
#    x 3.982220 -0.275890 0.298100 
#    y -0.275890 4.317400 -0.421970 
#    z 0.298100 -0.421970 4.040380 
# 
# 
# High freq. dielectric constant tensor:
#      x y z
#    x 1.854670 0.002140 0.028610 
#    y 0.002140 1.870510 -0.010910 
#    z 0.028610 -0.010910 1.840050 
# 
# From -- ./inp_files/525692.got.cif
#   From: 2010.06.25/outbox.cif.g09.slc.cpg/sg2_263_cif.got.tgz:525692.got - 2010.06.27 13:26:56.
