data_PCOD8008830
_publ_section_title
;
Structure prediction by ZEFSAII (Michael W. Deem and Ramdas Pophale) SiO2 
 PCOD8008830
Probable space group: P -1
;
_chemical_formula_sum "Si O2"
_cell_formula_units_Z 16
_cell_length_a 5.098647
_cell_length_b 12.526183
_cell_length_c 12.911345
_cell_angle_alpha 75.355296
_cell_angle_beta 79.923978
_cell_angle_gamma 70.858428
_cell_volume 749.871710
_symmetry_space_group_name_H-M "P -1"
_symmetry_group_IT_number 2
_symmetry_cell_setting 'triclinic'
loop_
_space_group_symop_operation_xyz
x,y,z
-x,-y,-z
loop_
_atom_site_type_symbol
_atom_site_label
_atom_site_fract_x
_atom_site_fract_y
_atom_site_fract_z
Si Si1 0.131395 0.773209 0.764798
Si Si2 0.244390 0.334219 0.320192
Si Si3 0.699900 0.129800 0.901496
Si Si4 0.607504 0.828034 0.475026
Si Si5 0.137280 0.136602 0.033942
Si Si6 0.562820 0.278342 0.668816
Si Si7 0.162965 0.982437 0.598282
Si Si8 0.956115 0.435139 0.620988
O O1 0.461038 0.712857 0.747215
O O2 0.042146 0.909838 0.706170
O O3 0.986943 0.701242 0.720230
O O4 0.027555 0.773829 0.889377
O O5 0.230430 0.292879 0.451626
O O6 0.163808 0.472955 0.300890
O O7 0.640699 0.205379 0.784636
O O8 0.792217 0.994916 0.898679
O O9 0.424539 0.163961 0.983464
O O10 0.948866 0.158139 0.938986
O O11 0.382191 0.810954 0.411051
O O12 0.472302 0.901847 0.567093
O O13 0.810348 0.894891 0.389602
O O14 0.734785 0.368304 0.624126
O O15 0.233765 0.343811 0.667922
O O16 0.000000 0.000000 0.500000
O O17 0.000000 0.500000 0.500000
#
# Coordination Sequence:
#
# PCOD8008830 Si02
#       8
#     2   2   2   2   2   2   2   2
#     4  11  23  38  68  88 129 174 208 260 327 392
#     4  11  23  41  60  92 126 169 217 258 319 379
#     4  10  23  42  67  97 130 163 216 268 318 387
#     4  10  23  35  56  89 130 168 205 248 313 387
#     4  10  22  43  66  97 129 165 211 265 325 390
#     4  12  26  41  69  93 127 177 213 273 321 377
#     4  10  21  35  53  90 132 164 199 252 299 405
#     4  12  26  43  65  93 132 174 222 271 316 375
#
# _framework density 21.336984000000001
#
# number of rings (size 3 to 8) (size 9 to 14) (size 15 to 20)
#    0.000    1.250    2.500    2.625    7.000    3.000 
#    0.000    0.000    0.000   15.000    0.000    0.000 
#    0.000    0.000    0.000    0.000    0.000    0.000 
#
# Total GULP energy -198360.483309 kJ/mol
# GULP energy per Si atom -12397.530207 kJ/mol
# Density = 2.128842 g / cm^3
# Si number density = 21.336984 Si / 1000 Ang^3
#
#
#
# Elastic Constant Matrix: (Units=GPa)
#
#
# Indices 1 2 3 4 5 6 
#
# 1 84.3941 23.9064 -0.2640 5.2845 3.5096 14.2866
# 2 23.9064 87.3643 34.2545 8.7318 -1.7605 24.4897
# 3 -0.2640 34.2545 79.5570 3.5699 5.8217 -0.3195
# 4 5.2845 8.7318 3.5699 19.7204 -8.2009 4.9569
# 5 3.5096 -1.7605 5.8217 -8.2009 25.0599 1.9888
# 6 14.2866 24.4897 -0.3195 4.9569 1.9888 42.0585
#
#
#
# Elastic Compliance Matrix: (Units=1/GPa)
#
#
# Indices 1 2 3 4 5 6 
#
# 1 0.013592 -0.003744 0.002066 -0.003395 -0.003611 -0.001850
# 2 -0.003744 0.018688 -0.008314 -0.001680 0.003986 -0.009663
# 3 0.002066 -0.008314 0.016821 -0.003861 -0.006444 0.005026
# 4 -0.003395 -0.001680 -0.003861 0.064176 0.022775 -0.006539
# 5 -0.003611 0.003986 -0.006444 0.022775 0.050132 -0.006198
# 6 -0.001850 -0.009663 0.005026 -0.006539 -0.006198 0.031133
#
#
# Mechanical properties :
#
#
# Convention : Reuss Voigt Hill
#
# Bulk Modulus (GPa) = 34.34368 40.78993 37.56681
# Shear Modulus (GPa) = 22.29837 30.26233 26.28035
#
# Velocity S-wave (km/s) = 3.23624 3.77012 3.51334
# Velocity P-wave (km/s) = 5.48590 6.17335 5.83975
#
# Compressibility (1/GPa) = 0.02911743
#
# Stress axis : x y z
#
# Youngs Moduli (GPa) = 73.57110 53.51127 59.44935
#
# Poissons Ratio (x) = 0.20037 -0.12285
# Poissons Ratio (y) = 0.27548 0.49425
# Poissons Ratio (z) = -0.15203 0.44488
#
# Static dielectric constant tensor:
#      x y z
#    x 4.708750 -0.761080 -0.058830 
#    y -0.761080 5.673230 0.323280 
#    z -0.058830 0.323280 3.715860 
# 
# 
# High freq. dielectric constant tensor:
#      x y z
#    x 1.854110 0.000710 0.002970 
#    y 0.000710 1.840460 0.007130 
#    z 0.002970 0.007130 1.813300 
# 
# From -- ./inp_files/364305.got.cif
#   From: 2010.06.25/outbox.cif.g09.slc.cpg/sg2_183_cif.got.tgz:364305.got - 2010.06.27 13:26:56.
