data_PCOD8008905
_publ_section_title
;
Structure prediction by ZEFSAII (Michael W. Deem and Ramdas Pophale) SiO2 
 PCOD8008905
Probable space group: P -1
;
_chemical_formula_sum "Si O2"
_cell_formula_units_Z 16
_cell_length_a 11.410701
_cell_length_b 19.817607
_cell_length_c 14.360245
_cell_angle_alpha 26.885479
_cell_angle_beta 32.748943
_cell_angle_gamma 35.113562
_cell_volume 763.193044
_symmetry_space_group_name_H-M "P -1"
_symmetry_group_IT_number 2
_symmetry_cell_setting 'triclinic'
loop_
_space_group_symop_operation_xyz
x,y,z
-x,-y,-z
loop_
_atom_site_type_symbol
_atom_site_label
_atom_site_fract_x
_atom_site_fract_y
_atom_site_fract_z
Si Si1 0.926099 0.786698 0.569947
Si Si2 0.314330 0.796143 0.517139
Si Si3 0.770593 0.461512 0.228233
Si Si4 0.356099 0.203240 0.073775
Si Si5 0.936654 0.124365 0.095200
Si Si6 0.318167 0.119857 0.721106
Si Si7 0.893214 0.889622 0.808974
Si Si8 0.559845 0.828737 0.629654
O O1 0.750394 0.724532 0.699552
O O2 0.164102 0.651553 0.585434
O O3 0.961560 0.941059 0.311678
O O4 0.827838 0.820464 0.699172
O O5 0.324009 0.625339 0.683750
O O6 0.144331 0.855532 0.642771
O O7 0.558516 0.792204 0.398215
O O8 0.233879 0.925303 0.330569
O O9 0.591839 0.628680 0.161386
O O10 0.000000 0.500000 0.000000
O O11 0.581924 0.066780 0.108284
O O12 0.255502 0.196158 0.046503
O O13 0.672288 0.223046 0.150375
O O14 0.071991 0.172742 0.031803
O O15 0.055706 0.158709 0.878861
O O16 0.334679 0.180304 0.532097
O O17 0.500000 0.000000 0.500000
#
# Coordination Sequence:
#
# PCOD8008905 Si02
#       8
#     2   2   2   2   2   2   2   2
#     4  10  18  35  54  82 115 147 179 235 275 328
#     4  10  17  31  56  80 117 142 185 229 280 329
#     4  10  18  32  59  86 112 153 182 224 284 343
#     4  10  19  34  57  87 117 143 188 225 282 341
#     4  11  20  34  58  83 116 144 187 232 283 323
#     4  11  22  35  58  90 108 148 187 233 279 329
#     4  10  16  31  55  79 111 146 175 235 274 321
#     4  10  20  35  56  83 116 141 189 238 277 318
#
# _framework density 20.964551
#
# number of rings (size 3 to 8) (size 9 to 14) (size 15 to 20)
#    0.000    1.750    7.500    0.750    0.000    4.000 
#    0.000    0.625    0.000    6.750    0.000    4.375 
#    0.000    0.000    0.000    0.000    0.000    0.000 
#
# Total GULP energy -198277.455783 kJ/mol
# GULP energy per Si atom -12392.340986 kJ/mol
# Density = 2.091684 g / cm^3
# Si number density = 20.964551 Si / 1000 Ang^3
#
#
#
# Elastic Constant Matrix: (Units=GPa)
#
#
# Indices 1 2 3 4 5 6 
#
# 1 97.2428 36.7391 26.6460 4.4300 -7.7231 11.4765
# 2 36.7391 58.0390 40.3018 -7.4108 -6.5669 13.4820
# 3 26.6460 40.3018 68.4321 9.0452 -5.9109 13.1065
# 4 4.4300 -7.4108 9.0452 40.6771 12.1335 -3.6639
# 5 -7.7231 -6.5669 -5.9109 12.1335 16.9673 -5.2641
# 6 11.4765 13.4820 13.1065 -3.6639 -5.2641 21.2897
#
#
#
# Elastic Compliance Matrix: (Units=1/GPa)
#
#
# Indices 1 2 3 4 5 6 
#
# 1 0.014705 -0.010390 0.002262 -0.006387 0.007404 -0.002008
# 2 -0.010390 0.041728 -0.022183 0.015994 -0.009871 -0.006856
# 3 0.002262 -0.022183 0.031036 -0.015439 0.012482 -0.005849
# 4 -0.006387 0.015994 -0.015439 0.040989 -0.030699 0.002283
# 5 0.007404 -0.009871 0.012482 -0.030699 0.088235 0.011110
# 6 -0.002008 -0.006856 -0.005849 0.002283 0.011110 0.059135
#
#
# Mechanical properties :
#
#
# Convention : Reuss Voigt Hill
#
# Bulk Modulus (GPa) = 37.24951 47.89863 42.57407
# Shear Modulus (GPa) = 14.47591 23.78862 19.13226
#
# Velocity S-wave (km/s) = 2.63058 3.37220 3.02421
# Velocity P-wave (km/s) = 5.19933 6.16922 5.70492
#
# Compressibility (1/GPa) = 0.02684599
#
# Stress axis : x y z
#
# Youngs Moduli (GPa) = 68.00228 23.96445 32.22108
#
# Poissons Ratio (x) = 0.24900 -0.07287
# Poissons Ratio (y) = 0.70657 0.71476
# Poissons Ratio (z) = -0.15379 0.53160
#
# Static dielectric constant tensor:
#      x y z
#    x 4.350980 -0.279100 -0.082280 
#    y -0.279100 3.879230 -0.130460 
#    z -0.082280 -0.130460 3.539970 
# 
# 
# High freq. dielectric constant tensor:
#      x y z
#    x 1.829420 0.007230 -0.011170 
#    y 0.007230 1.781400 0.005270 
#    z -0.011170 0.005270 1.786790 
# 
# From -- ./inp_files/523871.got.cif
#   From: 2010.06.25/outbox.cif.g09.slc.cpg/sg2_262_cif.got.tgz:523871.got - 2010.06.27 13:26:56.
