data_PCOD8008176
_publ_section_title
;
Structure prediction by ZEFSAII (Michael W. Deem and Ramdas Pophale) SiO2 
 PCOD8008176
Probable space group: P -1
;
_chemical_formula_sum "Si O2"
_cell_formula_units_Z 16
_cell_length_a 17.084682
_cell_length_b 19.667235
_cell_length_c 8.715834
_cell_angle_alpha 150.325685
_cell_angle_beta 38.441192
_cell_angle_gamma 151.986548
_cell_volume 679.314305
_symmetry_space_group_name_H-M "P -1"
_symmetry_group_IT_number 2
_symmetry_cell_setting 'triclinic'
loop_
_space_group_symop_operation_xyz
x,y,z
-x,-y,-z
loop_
_atom_site_type_symbol
_atom_site_label
_atom_site_fract_x
_atom_site_fract_y
_atom_site_fract_z
Si Si1 0.698018 0.705363 0.703296
Si Si2 0.855308 0.566206 0.319834
Si Si3 0.376915 0.386282 0.699440
Si Si4 0.125676 0.901356 0.755445
Si Si5 0.066800 0.348342 0.168043
Si Si6 0.535296 0.245559 0.340150
Si Si7 0.621144 0.030110 0.718805
Si Si8 0.908772 0.349015 0.117704
O O1 0.748450 0.581691 0.396832
O O2 0.530778 0.602643 0.862507
O O3 0.663527 0.714153 0.596586
O O4 0.841655 0.912598 0.941915
O O5 0.736284 0.412868 0.331335
O O6 0.973044 0.759250 0.600844
O O7 0.956496 0.526362 0.984222
O O8 0.425383 0.296719 0.563154
O O9 0.222486 0.355599 0.950327
O O10 0.292931 0.945546 0.525330
O O11 0.085219 0.823298 0.836027
O O12 0.130206 0.537757 0.512291
O O13 0.996429 0.309520 0.027766
O O14 0.491114 0.177621 0.452304
O O15 0.504559 0.081386 0.969174
O O16 0.750093 0.160347 0.915927
#
# Coordination Sequence:
#
# PCOD8008176 Si02
#       8
#     2   2   2   2   2   2   2   2
#     4  10  22  41  62  93 130 164 209 257 316 370
#     4  10  20  42  67  92 127 167 205 262 312 371
#     4  10  23  42  64  92 129 168 205 260 315 373
#     4  11  24  38  64  95 127 163 212 260 311 367
#     4  11  23  40  64  97 124 170 209 256 314 375
#     4  10  22  40  70  88 126 170 209 249 323 365
#     4  10  23  44  63  95 127 165 210 264 306 373
#     4  10  22  41  65  91 131 163 212 259 309 371
#
# _framework density 23.553163000000001
#
# number of rings (size 3 to 8) (size 9 to 14) (size 15 to 20)
#    0.000    1.750    1.250    1.875    1.750    8.500 
#    0.000    5.000    0.000    0.000    0.000    0.000 
#    0.000    0.000    0.000    0.000    0.000    0.000 
#
# Total GULP energy -198295.750211 kJ/mol
# GULP energy per Si atom -12393.484388 kJ/mol
# Density = 2.349956 g / cm^3
# Si number density = 23.553163 Si / 1000 Ang^3
#
#
#
# Elastic Constant Matrix: (Units=GPa)
#
#
# Indices 1 2 3 4 5 6 
#
# 1 55.4327 34.9761 26.1258 -8.8018 -1.8945 -7.4261
# 2 34.9761 162.8081 54.6481 -20.0208 -7.6210 -25.8301
# 3 26.1258 54.6481 86.1813 -11.6042 -11.2291 -7.6108
# 4 -8.8018 -20.0208 -11.6042 45.6389 6.9020 0.5910
# 5 -1.8945 -7.6210 -11.2291 6.9020 29.4287 -3.5007
# 6 -7.4261 -25.8301 -7.6108 0.5910 -3.5007 30.9879
#
#
#
# Elastic Compliance Matrix: (Units=1/GPa)
#
#
# Indices 1 2 3 4 5 6 
#
# 1 0.022580 -0.002759 -0.004842 0.002102 -0.001396 0.001724
# 2 -0.002759 0.009458 -0.004181 0.002342 0.000871 0.006250
# 3 -0.004842 -0.004181 0.016420 0.000698 0.004696 -0.000095
# 4 0.002102 0.002342 0.000698 0.024175 -0.004464 0.001662
# 5 -0.001396 0.000871 0.004696 -0.004464 0.037655 0.005884
# 6 0.001724 0.006250 -0.000095 0.001662 0.005884 0.038503
#
#
# Mechanical properties :
#
#
# Convention : Reuss Voigt Hill
#
# Bulk Modulus (GPa) = 40.16925 59.54690 49.85808
# Shear Modulus (GPa) = 27.67744 33.78922 30.73333
#
# Velocity S-wave (km/s) = 3.43170 3.79171 3.61619
# Velocity P-wave (km/s) = 5.72659 6.67130 6.21691
#
# Compressibility (1/GPa) = 0.02489466
#
# Stress axis : x y z
#
# Youngs Moduli (GPa) = 44.28721 105.72593 60.90205
#
# Poissons Ratio (x) = 0.29167 0.29491
# Poissons Ratio (y) = 0.12218 0.25461
# Poissons Ratio (z) = 0.21446 0.44200
#
# Static dielectric constant tensor:
#      x y z
#    x 4.114940 -0.103850 -0.103760 
#    y -0.103850 4.524520 -0.146890 
#    z -0.103760 -0.146890 3.996420 
# 
# 
# High freq. dielectric constant tensor:
#      x y z
#    x 1.922420 -0.011200 -0.014370 
#    y -0.011200 1.948980 -0.011350 
#    z -0.014370 -0.011350 1.923500 
# 
# From -- ./inp_files/338004.got.cif
#   From: 2010.06.25/outbox.cif.g09.slc.cpg/sg2_170_cif.got.tgz:338004.got - 2010.06.27 13:26:56.
