data_PCOD8008645
_publ_section_title
;
Structure prediction by ZEFSAII (Michael W. Deem and Ramdas Pophale) SiO2 
 PCOD8008645
Probable space group: P -1
;
_chemical_formula_sum "Si O2"
_cell_formula_units_Z 10
_cell_length_a 8.823665
_cell_length_b 9.083192
_cell_length_c 11.986553
_cell_angle_alpha 59.412924
_cell_angle_beta 82.806124
_cell_angle_gamma 133.144945
_cell_volume 396.794322
_symmetry_space_group_name_H-M "P -1"
_symmetry_group_IT_number 2
_symmetry_cell_setting 'triclinic'
loop_
_space_group_symop_operation_xyz
x,y,z
-x,-y,-z
loop_
_atom_site_type_symbol
_atom_site_label
_atom_site_fract_x
_atom_site_fract_y
_atom_site_fract_z
Si Si1 0.949804 0.636261 0.000622
Si Si2 0.769823 0.923704 0.003138
Si Si3 0.070794 0.382153 0.583375
Si Si4 0.337408 0.205882 0.315174
Si Si5 0.316111 0.163888 0.592538
O O1 0.233371 0.943003 0.946674
O O2 0.994233 0.813134 0.825646
O O3 0.000000 0.500000 0.000000
O O4 0.607845 0.333918 0.204820
O O5 0.442329 0.505599 0.167552
O O6 0.874490 0.133036 0.805796
O O7 0.000000 0.000000 0.000000
O O8 0.000000 0.500000 0.500000
O O9 0.438507 0.750602 0.439632
O O10 0.980461 0.149130 0.587921
O O11 0.242765 0.100632 0.493494
O O12 0.500000 0.500000 0.500000
#
# Coordination Sequence:
#
# PCOD8008645 Si02
#       5
#     2   2   2   2   2
#     4  11  23  41  72 102 140 188 228 288 363 412
#     4  10  20  46  69  94 142 191 224 279 353 424
#     4  12  26  43  74 110 142 181 238 302 355 405
#     4  11  24  48  73  98 146 190 234 291 352 423
#     4  12  24  47  74 104 140 189 242 284 352 433
#
# _framework density 25.201972000000001
#
# number of rings (size 3 to 8) (size 9 to 14) (size 15 to 20)
#    0.000    0.800    6.000    3.000    2.800    2.400 
#    3.600    2.000    0.000    0.000    0.000    0.000 
#    0.000    0.000    0.000    0.000    0.000    0.000 
#
# Total GULP energy -123924.704777 kJ/mol
# GULP energy per Si atom -12392.470478 kJ/mol
# Density = 2.514461 g / cm^3
# Si number density = 25.201972 Si / 1000 Ang^3
#
#
#
# Elastic Constant Matrix: (Units=GPa)
#
#
# Indices 1 2 3 4 5 6 
#
# 1 46.1270 19.9048 12.0428 10.8568 28.6100 -3.9625
# 2 19.9048 181.9364 44.4541 21.3788 17.5009 -12.3897
# 3 12.0428 44.4541 125.4928 41.7941 30.9267 3.7406
# 4 10.8568 21.3788 41.7941 51.1033 4.7280 1.1056
# 5 28.6100 17.5009 30.9267 4.7280 42.7202 3.1511
# 6 -3.9625 -12.3897 3.7406 1.1056 3.1511 51.5778
#
#
#
# Elastic Compliance Matrix: (Units=1/GPa)
#
#
# Indices 1 2 3 4 5 6 
#
# 1 0.045556 -0.001973 0.009326 -0.013315 -0.035333 0.004794
# 2 -0.001973 0.006357 -0.001868 -0.000749 0.000040 0.001525
# 3 0.009326 -0.001868 0.015769 -0.012667 -0.015519 0.000344
# 4 -0.013315 -0.000749 -0.012667 0.031721 0.015022 -0.001882
# 5 -0.035333 0.000040 -0.015519 0.015022 0.057024 -0.005385
# 6 0.004794 0.001525 0.000344 -0.001882 -0.005385 0.020467
#
#
# Mechanical properties :
#
#
# Convention : Reuss Voigt Hill
#
# Bulk Modulus (GPa) = 12.71438 56.26217 34.48828
# Shear Modulus (GPa) = 26.02251 47.55721 36.78986
#
# Velocity S-wave (km/s) = 3.21683 4.34872 3.82488
# Velocity P-wave (km/s) = 4.34204 6.89842 5.76374
#
# Compressibility (1/GPa) = 0.07865107
#
# Stress axis : x y z
#
# Youngs Moduli (GPa) = 21.95077 157.31317 63.41730
#
# Poissons Ratio (x) = 0.31039 -0.59144
# Poissons Ratio (y) = 0.04331 0.11849
# Poissons Ratio (z) = -0.20472 0.29393
#
# Static dielectric constant tensor:
#      x y z
#    x 4.447490 0.133180 0.012170 
#    y 0.133180 5.341130 -0.315100 
#    z 0.012170 -0.315100 4.692900 
# 
# 
# High freq. dielectric constant tensor:
#      x y z
#    x 1.987950 -0.002520 0.006840 
#    y -0.002520 2.028810 0.007700 
#    z 0.006840 0.007700 2.012230 
# 
# From -- ./inp_files/143952.got.cif
#   From: 2010.06.25/outbox.cif.g09.slc.cpg/sg2_72_cif.got.tgz:143952.got - 2010.06.27 13:26:56.
