data_PCOD8008095
_publ_section_title
;
Structure prediction by ZEFSAII (Michael W. Deem and Ramdas Pophale) SiO2 
 PCOD8008095
Probable space group: P -1
;
_chemical_formula_sum "Si O2"
_cell_formula_units_Z 16
_cell_length_a 13.107536
_cell_length_b 15.832095
_cell_length_c 6.858740
_cell_angle_alpha 101.127007
_cell_angle_beta 84.047414
_cell_angle_gamma 34.706397
_cell_volume 702.032681
_symmetry_space_group_name_H-M "P -1"
_symmetry_group_IT_number 2
_symmetry_cell_setting 'triclinic'
loop_
_space_group_symop_operation_xyz
x,y,z
-x,-y,-z
loop_
_atom_site_type_symbol
_atom_site_label
_atom_site_fract_x
_atom_site_fract_y
_atom_site_fract_z
Si Si1 0.667195 0.172697 0.356035
Si Si2 0.651514 0.080955 0.940870
Si Si3 0.896573 0.741388 0.663699
Si Si4 0.758872 0.706915 0.941245
Si Si5 0.063402 0.049504 0.466015
Si Si6 0.016929 0.360842 0.817998
Si Si7 0.264234 0.687471 0.638699
Si Si8 0.758841 0.466052 0.235937
O O1 0.592169 0.165964 0.195879
O O2 0.771109 0.185447 0.253193
O O3 0.478021 0.338492 0.603763
O O4 0.831414 0.997492 0.371395
O O5 0.451650 0.187562 0.926530
O O6 0.805729 0.890986 0.851731
O O7 0.758210 0.076393 0.786744
O O8 0.761572 0.755629 0.755639
O O9 0.900061 0.752959 0.434439
O O10 0.121645 0.567850 0.633485
O O11 0.935577 0.508806 0.812087
O O12 0.800514 0.748358 0.119401
O O13 0.862859 0.244214 0.506809
O O14 0.000000 0.000000 0.500000
O O15 0.837539 0.437612 0.994776
O O16 0.500000 0.500000 0.500000
O O17 0.194036 0.671128 0.812760
#
# Coordination Sequence:
#
# PCOD8008095 Si02
#       8
#     2   2   2   2   2   2   2   2
#     4  10  23  40  69  92 137 174 217 270 321 389
#     4  12  24  41  63  99 133 177 211 267 334 386
#     4  11  23  40  63  96 134 169 222 269 327 387
#     4  10  23  41  64  94 130 167 229 263 332 386
#     4  10  22  41  62  96 130 169 220 261 320 389
#     4  10  22  41  67  94 128 173 215 282 321 388
#     4   9  19  41  67  96 131 169 218 269 321 384
#     4  10  20  42  65  98 128 173 224 267 325 385
#
# _framework density 22.790960999999999
#
# number of rings (size 3 to 8) (size 9 to 14) (size 15 to 20)
#    0.000    1.750    1.250    2.250    0.000    7.500 
#    2.250    0.000    0.000    7.500    0.000    0.000 
#    0.000    0.000    0.000    0.000    0.000    0.000 
#
# Total GULP energy -198232.272993 kJ/mol
# GULP energy per Si atom -12389.517062 kJ/mol
# Density = 2.273909 g / cm^3
# Si number density = 22.790961 Si / 1000 Ang^3
#
#
#
# Elastic Constant Matrix: (Units=GPa)
#
#
# Indices 1 2 3 4 5 6 
#
# 1 110.4005 36.9391 57.6017 -4.9424 -25.4984 -4.4022
# 2 36.9391 101.5313 40.4686 -7.7323 -5.9175 -8.1033
# 3 57.6017 40.4686 120.6216 -13.4871 -15.6000 6.1455
# 4 -4.9424 -7.7323 -13.4871 24.6319 2.9482 -7.4411
# 5 -25.4984 -5.9175 -15.6000 2.9482 39.5898 -1.6570
# 6 -4.4022 -8.1033 6.1455 -7.4411 -1.6570 43.2437
#
#
#
# Elastic Compliance Matrix: (Units=1/GPa)
#
#
# Indices 1 2 3 4 5 6 
#
# 1 0.014307 -0.002647 -0.005269 -0.001134 0.006902 0.001778
# 2 -0.002647 0.012326 -0.002846 0.002779 -0.001070 0.002882
# 3 -0.005269 -0.002846 0.012418 0.004134 0.000679 -0.002097
# 4 -0.001134 0.002779 0.004134 0.046038 -0.001793 0.007671
# 5 0.006902 -0.001070 0.000679 -0.001793 0.029997 0.001246
# 6 0.001778 0.002882 -0.002097 0.007671 0.001246 0.025512
#
#
# Mechanical properties :
#
#
# Convention : Reuss Voigt Hill
#
# Bulk Modulus (GPa) = 57.05401 66.95248 62.00325
# Shear Modulus (GPa) = 29.76838 34.66267 32.21552
#
# Velocity S-wave (km/s) = 3.61799 3.90410 3.76376
# Velocity P-wave (km/s) = 6.52235 7.05430 6.79354
#
# Compressibility (1/GPa) = 0.01752725
#
# Stress axis : x y z
#
# Youngs Moduli (GPa) = 69.89657 81.13082 80.52786
#
# Poissons Ratio (x) = 0.21477 0.42428
# Poissons Ratio (y) = 0.18503 0.22916
# Poissons Ratio (z) = 0.36827 0.23087
#
# Static dielectric constant tensor:
#      x y z
#    x 4.457370 -0.025510 -0.360110 
#    y -0.025510 4.501410 -0.403610 
#    z -0.360110 -0.403610 3.834580 
# 
# 
# High freq. dielectric constant tensor:
#      x y z
#    x 1.914480 -0.005260 -0.027800 
#    y -0.005260 1.902510 -0.019040 
#    z -0.027800 -0.019040 1.865170 
# 
# From -- ./inp_files/99740.got.cif
#   From: 2010.06.25/outbox.cif.g09.slc.cpg/sg2_50_cif.got.tgz:99740.got - 2010.06.27 13:26:56.
