data_PCOD8008073
_publ_section_title
;
Structure prediction by ZEFSAII (Michael W. Deem and Ramdas Pophale) SiO2 
 PCOD8008073
Probable space group: P -1
;
_chemical_formula_sum "Si O2"
_cell_formula_units_Z 14
_cell_length_a 18.605042
_cell_length_b 9.313746
_cell_length_c 8.264947
_cell_angle_alpha 79.657874
_cell_angle_beta 55.701656
_cell_angle_gamma 127.055767
_cell_volume 582.100920
_symmetry_space_group_name_H-M "P -1"
_symmetry_group_IT_number 2
_symmetry_cell_setting 'triclinic'
loop_
_space_group_symop_operation_xyz
x,y,z
-x,-y,-z
loop_
_atom_site_type_symbol
_atom_site_label
_atom_site_fract_x
_atom_site_fract_y
_atom_site_fract_z
Si Si1 0.730517 0.777827 0.745115
Si Si2 0.074138 0.497490 0.775653
Si Si3 0.584089 0.497595 0.668905
Si Si4 0.707648 0.919047 0.221005
Si Si5 0.154519 0.802913 0.334555
Si Si6 0.430601 0.714828 0.762523
Si Si7 0.364796 0.727996 0.499727
O O1 0.742544 0.766098 0.540156
O O2 0.896292 0.108809 0.542815
O O3 0.586019 0.695287 0.980266
O O4 0.697102 0.577918 0.919880
O O5 0.202183 0.766676 0.431750
O O6 0.180537 0.522761 0.717863
O O7 0.000000 0.500000 0.000000
O O8 0.910364 0.194865 0.947109
O O9 0.617929 0.631504 0.428717
O O10 0.577679 0.315694 0.685959
O O11 0.615597 0.906698 0.450717
O O12 0.689453 0.941656 0.049573
O O13 0.000000 0.500000 0.500000
O O14 0.333317 0.622182 0.742136
O O15 0.480121 0.926660 0.766316
#
# Coordination Sequence:
#
# PCOD8008073 Si02
#       7
#     2   2   2   2   2   2   2
#     4  10  21  41  64  95 127 169 209 258 322 378
#     4  11  22  40  64  89 129 169 209 259 316 380
#     4  10  22  38  68  94 128 165 212 264 313 378
#     4  10  20  42  65  89 125 171 210 254 320 382
#     4  10  22  38  66  94 118 169 217 252 306 388
#     4  10  22  41  64  94 131 164 210 268 315 369
#     4  11  23  39  60 101 124 169 209 265 318 365
#
# _framework density 24.050813000000002
#
# number of rings (size 3 to 8) (size 9 to 14) (size 15 to 20)
#    0.000    1.714    1.429    2.571    4.000    3.429 
#    5.143    0.000    0.000    4.286    0.000    0.000 
#    0.000    0.000    0.000    0.000    0.000    0.000 
#
# Total GULP energy -173514.207707 kJ/mol
# GULP energy per Si atom -12393.871979 kJ/mol
# Density = 2.399607 g / cm^3
# Si number density = 24.050813 Si / 1000 Ang^3
#
#
#
# Elastic Constant Matrix: (Units=GPa)
#
#
# Indices 1 2 3 4 5 6 
#
# 1 156.4804 50.8989 51.5960 2.6590 8.7219 -8.7099
# 2 50.8989 179.4866 19.8526 9.6926 6.1914 -18.3998
# 3 51.5960 19.8526 70.2429 -1.3301 20.4225 -6.8219
# 4 2.6590 9.6926 -1.3301 29.3241 0.4040 4.9114
# 5 8.7219 6.1914 20.4225 0.4040 35.5777 -0.5071
# 6 -8.7099 -18.3998 -6.8219 4.9114 -0.5071 41.9207
#
#
#
# Elastic Compliance Matrix: (Units=1/GPa)
#
#
# Indices 1 2 3 4 5 6 
#
# 1 0.009130 -0.001874 -0.006755 -0.000553 0.001972 0.000064
# 2 -0.001874 0.006546 -0.000090 -0.002451 -0.000561 0.002750
# 3 -0.006755 -0.000090 0.022748 0.001505 -0.011376 0.001945
# 4 -0.000553 -0.002451 0.001505 0.035905 -0.000783 -0.005162
# 5 0.001972 -0.000561 -0.011376 -0.000783 0.034244 -0.001182
# 6 0.000064 0.002750 0.001945 -0.005162 -0.001182 0.025982
#
#
# Mechanical properties :
#
#
# Convention : Reuss Voigt Hill
#
# Bulk Modulus (GPa) = 47.64658 72.32277 59.98468
# Shear Modulus (GPa) = 31.44886 40.28865 35.86876
#
# Velocity S-wave (km/s) = 3.62000 4.09730 3.86602
# Velocity P-wave (km/s) = 6.10953 7.24706 6.70247
#
# Compressibility (1/GPa) = 0.02098787
#
# Stress axis : x y z
#
# Youngs Moduli (GPa) = 109.52610 152.75731 43.95973
#
# Poissons Ratio (x) = 0.28621 0.29693
# Poissons Ratio (y) = 0.20521 0.00396
# Poissons Ratio (z) = 0.73981 0.01377
#
# Static dielectric constant tensor:
#      x y z
#    x 4.584280 0.221260 0.362040 
#    y 0.221260 5.024600 -0.242670 
#    z 0.362040 -0.242670 4.170480 
# 
# 
# High freq. dielectric constant tensor:
#      x y z
#    x 1.958330 0.013850 0.031160 
#    y 0.013850 1.986320 -0.013610 
#    z 0.031160 -0.013610 1.912820 
# 
# From -- ./inp_files/328830.got.cif
#   From: 2010.06.25/outbox.cif.g09.slc.cpg/sg2_165_cif.got.tgz:328830.got - 2010.06.27 13:26:56.
