data_PCOD8008218
_publ_section_title
;
Structure prediction by ZEFSAII (Michael W. Deem and Ramdas Pophale) SiO2 
 PCOD8008218
Probable space group: P -1
;
_chemical_formula_sum "Si O2"
_cell_formula_units_Z 16
_cell_length_a 15.594882
_cell_length_b 14.641711
_cell_length_c 12.660369
_cell_angle_alpha 39.846064
_cell_angle_beta 26.868431
_cell_angle_gamma 37.073454
_cell_volume 770.759476
_symmetry_space_group_name_H-M "P -1"
_symmetry_group_IT_number 2
_symmetry_cell_setting 'triclinic'
loop_
_space_group_symop_operation_xyz
x,y,z
-x,-y,-z
loop_
_atom_site_type_symbol
_atom_site_label
_atom_site_fract_x
_atom_site_fract_y
_atom_site_fract_z
Si Si1 0.493493 0.205848 0.141165
Si Si2 0.353205 0.103164 0.840446
Si Si3 0.201291 0.030690 0.282821
Si Si4 0.088423 0.791892 0.274781
Si Si5 0.240514 0.880466 0.580244
Si Si6 0.820188 0.691797 0.794241
Si Si7 0.085165 0.327251 0.602387
Si Si8 0.967518 0.345555 0.956384
O O1 0.385432 0.251742 0.103554
O O2 0.327729 0.250951 0.376763
O O3 0.628271 0.021648 0.159789
O O4 0.666518 0.274268 0.914352
O O5 0.554026 0.139330 0.566163
O O6 0.151678 0.259005 0.912193
O O7 0.345502 0.017520 0.035618
O O8 0.174074 0.194552 0.219646
O O9 0.303682 0.895085 0.376208
O O10 0.000000 0.000000 0.500000
O O11 0.011566 0.673234 0.524956
O O12 0.037535 0.772038 0.225729
O O13 0.958516 0.967454 0.301918
O O14 0.202950 0.726295 0.778670
O O15 0.858234 0.524823 0.949840
O O16 0.000000 0.500000 0.500000
O O17 0.056975 0.322631 0.761471
#
# Coordination Sequence:
#
# PCOD8008218 Si02
#       8
#     2   2   2   2   2   2   2   2
#     4  11  21  42  71  96 124 178 227 260 325 402
#     4  12  23  42  69  99 130 171 223 273 325 387
#     4  11  21  44  76  94 127 183 216 260 338 404
#     4  10  20  42  68  92 127 178 224 260 320 401
#     4  11  23  42  64 101 131 168 221 275 318 392
#     4  10  23  43  66  96 139 168 215 274 327 397
#     4  11  23  44  65  93 137 179 216 270 332 389
#     4  12  25  43  64  98 140 166 217 287 324 371
#
# _framework density 20.758745999999999
#
# number of rings (size 3 to 8) (size 9 to 14) (size 15 to 20)
#    0.000    1.000    8.750    1.125    0.000    4.000 
#    0.000    0.625    0.000    0.000    0.000    0.000 
#    0.000    0.000    0.000    0.000    0.000    0.000 
#
# Total GULP energy -198259.788225 kJ/mol
# GULP energy per Si atom -12391.236764 kJ/mol
# Density = 2.071150 g / cm^3
# Si number density = 20.758746 Si / 1000 Ang^3
#
#
#
# Elastic Constant Matrix: (Units=GPa)
#
#
# Indices 1 2 3 4 5 6 
#
# 1 69.0632 8.7700 39.2167 7.2275 -18.8512 3.9500
# 2 8.7700 73.3591 43.3169 -14.8855 -6.3887 4.4127
# 3 39.2167 43.3169 122.0863 -1.9378 -23.1601 1.0970
# 4 7.2275 -14.8855 -1.9378 36.4304 -6.3712 -2.9342
# 5 -18.8512 -6.3887 -23.1601 -6.3712 47.3583 3.8135
# 6 3.9500 4.4127 1.0970 -2.9342 3.8135 26.4845
#
#
#
# Elastic Compliance Matrix: (Units=1/GPa)
#
#
# Indices 1 2 3 4 5 6 
#
# 1 0.019511 0.001067 -0.005711 -0.003179 0.005005 -0.003924
# 2 0.001067 0.019252 -0.006881 0.007240 0.000824 -0.002398
# 3 -0.005711 -0.006881 0.013029 -0.000375 0.003041 0.000979
# 4 -0.003179 0.007240 -0.000375 0.031837 0.003627 0.002288
# 5 0.005005 0.000824 0.003041 0.003627 0.025539 -0.004285
# 6 -0.003924 -0.002398 0.000979 0.002288 -0.004285 0.039573
#
#
# Mechanical properties :
#
#
# Convention : Reuss Voigt Hill
#
# Bulk Modulus (GPa) = 34.79347 49.67952 42.23649
# Shear Modulus (GPa) = 27.56776 33.60163 30.58470
#
# Velocity S-wave (km/s) = 3.64814 4.02764 3.84258
# Velocity P-wave (km/s) = 5.87728 6.75374 6.33070
#
# Compressibility (1/GPa) = 0.02874103
#
# Stress axis : x y z
#
# Youngs Moduli (GPa) = 51.25429 51.94286 76.75235
#
# Poissons Ratio (x) = -0.05541 0.43836
# Poissons Ratio (y) = -0.05468 0.52810
# Poissons Ratio (z) = 0.29273 0.35740
#
# Static dielectric constant tensor:
#      x y z
#    x 4.082760 0.213320 0.149630 
#    y 0.213320 3.652660 0.027650 
#    z 0.149630 0.027650 4.163730 
# 
# 
# High freq. dielectric constant tensor:
#      x y z
#    x 1.814880 0.010320 -0.015490 
#    y 0.010320 1.797310 0.002350 
#    z -0.015490 0.002350 1.816010 
# 
# From -- ./inp_files/454457.got.cif
#   From: 2010.06.25/outbox.cif.g09.slc.cpg/sg2_228_cif.got.tgz:454457.got - 2010.06.27 13:26:56.
