data_PCOD8008853
_publ_section_title
;
Structure prediction by ZEFSAII (Michael W. Deem and Ramdas Pophale) SiO2 
 PCOD8008853
Probable space group: P -1
;
_chemical_formula_sum "Si O2"
_cell_formula_units_Z 16
_cell_length_a 8.309738
_cell_length_b 9.552606
_cell_length_c 11.036063
_cell_angle_alpha 106.313572
_cell_angle_beta 110.019141
_cell_angle_gamma 91.810978
_cell_volume 781.998770
_symmetry_space_group_name_H-M "P -1"
_symmetry_group_IT_number 2
_symmetry_cell_setting 'triclinic'
loop_
_space_group_symop_operation_xyz
x,y,z
-x,-y,-z
loop_
_atom_site_type_symbol
_atom_site_label
_atom_site_fract_x
_atom_site_fract_y
_atom_site_fract_z
Si Si1 0.746061 0.490714 0.384516
Si Si2 0.192645 0.285667 0.335792
Si Si3 0.648676 0.585530 0.139164
Si Si4 0.452158 0.803022 0.650693
Si Si5 0.717404 0.227231 0.655534
Si Si6 0.862533 0.956875 0.557146
Si Si7 0.998473 0.506622 0.251519
Si Si8 0.425148 0.129036 0.722783
O O1 0.730924 0.574558 0.526748
O O2 0.616025 0.545671 0.263793
O O3 0.684137 0.316435 0.344698
O O4 0.940253 0.522143 0.382472
O O5 0.350330 0.228458 0.291029
O O6 0.084325 0.159742 0.360248
O O7 0.059322 0.343903 0.218920
O O8 0.833151 0.534047 0.133093
O O9 0.649239 0.763458 0.171431
O O10 0.500000 0.500000 0.000000
O O11 0.412393 0.801829 0.497873
O O12 0.434236 0.965651 0.739606
O O13 0.613344 0.210492 0.750544
O O14 0.833770 0.383531 0.715290
O O15 0.843406 0.103740 0.660579
O O16 0.688578 0.881702 0.430598
O O17 0.000000 0.000000 0.500000
#
# Coordination Sequence:
#
# PCOD8008853 Si02
#       8
#     2   2   2   2   2   2   2   2
#     4  10  21  35  55  87 113 152 183 228 286 331
#     4  12  19  34  52  92 125 142 179 221 293 353
#     4  10  23  44  60  77 104 149 210 245 274 321
#     4  11  21  32  55  89 123 154 170 221 292 356
#     4  11  19  35  52  89 126 148 182 216 287 355
#     4  11  20  30  53  86 127 155 176 220 276 353
#     4  10  24  33  58  85 115 147 189 229 287 329
#     4  11  21  37  56  82 118 157 189 222 284 337
#
# _framework density 20.460391999999999
#
# number of rings (size 3 to 8) (size 9 to 14) (size 15 to 20)
#    0.750    0.500    5.000    3.000    5.250    0.000 
#    0.000    1.250    0.000    0.750    0.000    0.000 
#    0.000    0.000    0.000    0.000    0.000    0.000 
#
# Total GULP energy -198254.533947 kJ/mol
# GULP energy per Si atom -12390.908372 kJ/mol
# Density = 2.041382 g / cm^3
# Si number density = 20.460392 Si / 1000 Ang^3
#
#
#
# Elastic Constant Matrix: (Units=GPa)
#
#
# Indices 1 2 3 4 5 6 
#
# 1 95.7386 54.3514 0.1384 6.5202 13.0540 -2.8640
# 2 54.3514 145.7147 16.0503 30.4424 4.1592 -11.2170
# 3 0.1384 16.0503 21.2182 1.7861 5.1633 -11.2082
# 4 6.5202 30.4424 1.7861 16.4361 -1.6542 1.9259
# 5 13.0540 4.1592 5.1633 -1.6542 12.0218 2.1595
# 6 -2.8640 -11.2170 -11.2082 1.9259 2.1595 50.3148
#
#
#
# Elastic Compliance Matrix: (Units=1/GPa)
#
#
# Indices 1 2 3 4 5 6 
#
# 1 0.017718 -0.007923 0.012322 0.003791 -0.021767 0.002776
# 2 -0.007923 0.016407 -0.010005 -0.026039 0.003312 0.001832
# 3 0.012322 -0.010005 0.074747 -0.001037 -0.045237 0.017103
# 4 0.003791 -0.026039 -0.001037 0.111252 0.022632 -0.011050
# 5 -0.021767 0.003312 -0.045237 0.022632 0.131283 -0.017079
# 6 0.002776 0.001832 0.017103 -0.011050 -0.017079 0.025407
#
#
# Mechanical properties :
#
#
# Convention : Reuss Voigt Hill
#
# Bulk Modulus (GPa) = 10.23964 44.86130 27.55047
# Shear Modulus (GPa) = 11.88838 28.56329 20.22583
#
# Velocity S-wave (km/s) = 2.41310 3.74040 3.14751
# Velocity P-wave (km/s) = 3.57485 6.37398 5.16755
#
# Compressibility (1/GPa) = 0.09765971
#
# Stress axis : x y z
#
# Youngs Moduli (GPa) = 56.43937 60.95135 13.37851
#
# Poissons Ratio (x) = 0.48292 -0.16485
# Poissons Ratio (y) = 0.44717 0.13385
# Poissons Ratio (z) = -0.69545 0.60981
#
# Static dielectric constant tensor:
#      x y z
#    x 3.819480 -0.337370 0.118040 
#    y -0.337370 3.843180 0.205670 
#    z 0.118040 0.205670 2.983590 
# 
# 
# High freq. dielectric constant tensor:
#      x y z
#    x 1.805240 -0.012700 0.011010 
#    y -0.012700 1.820620 0.021930 
#    z 0.011010 0.021930 1.714730 
# 
# From -- ./inp_files/221128.got.cif
#   From: 2010.06.25/outbox.cif.g09.slc.cpg/sg2_111_cif.got.tgz:221128.got - 2010.06.27 13:26:56.
