data_PCOD8009370
_publ_section_title
;
Structure prediction by ZEFSAII (Michael W. Deem and Ramdas Pophale) SiO2 
 PCOD8009370
Probable space group: P -1
;
_chemical_formula_sum "Si O2"
_cell_formula_units_Z 16
_cell_length_a 16.101646
_cell_length_b 18.556601
_cell_length_c 9.313414
_cell_angle_alpha 36.048382
_cell_angle_beta 39.867477
_cell_angle_gamma 29.128647
_cell_volume 778.681036
_symmetry_space_group_name_H-M "P -1"
_symmetry_group_IT_number 2
_symmetry_cell_setting 'triclinic'
loop_
_space_group_symop_operation_xyz
x,y,z
-x,-y,-z
loop_
_atom_site_type_symbol
_atom_site_label
_atom_site_fract_x
_atom_site_fract_y
_atom_site_fract_z
Si Si1 0.156877 0.818000 0.144703
Si Si2 0.623881 0.274065 0.535813
Si Si3 0.571852 0.954518 0.751088
Si Si4 0.869298 0.292956 0.340281
Si Si5 0.741111 0.949383 0.811894
Si Si6 0.361420 0.341838 0.979992
Si Si7 0.490101 0.254887 0.252808
Si Si8 0.621485 0.512212 0.733327
O O1 0.115822 0.804610 0.383891
O O2 0.187429 0.672750 0.244273
O O3 0.335674 0.779384 0.954885
O O4 0.000000 0.000000 0.000000
O O5 0.756058 0.299705 0.354658
O O6 0.457791 0.423962 0.423390
O O7 0.719151 0.110009 0.580329
O O8 0.551122 0.265865 0.794704
O O9 0.701274 0.923347 0.749898
O O10 0.670947 0.777400 0.833018
O O11 0.541764 0.079686 0.473591
O O12 0.383596 0.035425 0.931837
O O13 0.058766 0.202694 0.169462
O O14 0.785240 0.478448 0.185622
O O15 0.357460 0.355540 0.134808
O O16 0.382719 0.360506 0.371095
O O17 0.500000 0.500000 0.000000
#
# Coordination Sequence:
#
# PCOD8009370 Si02
#       8
#     2   2   2   2   2   2   2   2
#     4  11  23  37  61  97 130 159 198 263 323 367
#     4  11  20  41  63  91 127 162 205 256 317 378
#     4  10  22  43  64  86 125 170 223 240 307 377
#     4  12  22  39  63  98 129 153 210 263 319 369
#     4  10  23  39  63  91 120 169 208 261 304 368
#     4  11  23  39  66  94 125 170 205 260 310 373
#     4  11  21  43  63  91 123 168 213 251 308 376
#     4  10  21  36  62  89 126 166 203 247 314 379
#
# _framework density 20.547567000000001
#
# number of rings (size 3 to 8) (size 9 to 14) (size 15 to 20)
#    0.000    1.250    3.750    3.375    1.750    0.500 
#    2.250    1.875    0.000    0.000    0.000    0.000 
#    0.000    0.000    0.000    0.000    0.000    0.000 
#
# Total GULP energy -198351.877944 kJ/mol
# GULP energy per Si atom -12396.992371 kJ/mol
# Density = 2.050080 g / cm^3
# Si number density = 20.547567 Si / 1000 Ang^3
#
#
#
# Elastic Constant Matrix: (Units=GPa)
#
#
# Indices 1 2 3 4 5 6 
#
# 1 101.4450 63.1670 34.1763 -13.3640 8.4859 14.5731
# 2 63.1670 139.4091 32.0543 -25.1830 -10.3812 2.7144
# 3 34.1763 32.0543 77.7130 -24.7873 2.3956 4.0881
# 4 -13.3640 -25.1830 -24.7873 34.0934 1.8707 -1.8278
# 5 8.4859 -10.3812 2.3956 1.8707 32.7618 -7.4836
# 6 14.5731 2.7144 4.0881 -1.8278 -7.4836 23.8626
#
#
#
# Elastic Compliance Matrix: (Units=1/GPa)
#
#
# Indices 1 2 3 4 5 6 
#
# 1 0.019237 -0.008573 -0.004643 -0.002321 -0.010283 -0.013380
# 2 -0.008573 0.012552 -0.000147 0.005753 0.007385 0.006590
# 3 -0.004643 -0.000147 0.018727 0.011748 -0.000818 0.000287
# 4 -0.002321 0.005753 0.011748 0.041329 -0.000385 0.001795
# 5 -0.010283 0.007385 -0.000818 -0.000385 0.039723 0.018008
# 6 -0.013380 0.006590 0.000287 0.001795 0.018008 0.055064
#
#
# Mechanical properties :
#
#
# Convention : Reuss Voigt Hill
#
# Bulk Modulus (GPa) = 42.03344 64.15137 53.09240
# Shear Modulus (GPa) = 22.59505 30.75487 26.67496
#
# Velocity S-wave (km/s) = 3.31969 3.87300 3.60697
# Velocity P-wave (km/s) = 5.93252 7.16162 6.57585
#
# Compressibility (1/GPa) = 0.02379058
#
# Stress axis : x y z
#
# Youngs Moduli (GPa) = 51.98429 79.66749 53.39779
#
# Poissons Ratio (x) = 0.68300 0.24793
# Poissons Ratio (y) = 0.44567 0.00783
# Poissons Ratio (z) = 0.24136 0.01168
#
# Static dielectric constant tensor:
#      x y z
#    x 3.667410 0.384820 -0.114290 
#    y 0.384820 3.979790 -0.229420 
#    z -0.114290 -0.229420 3.624170 
# 
# 
# High freq. dielectric constant tensor:
#      x y z
#    x 1.792050 0.020360 0.006760 
#    y 0.020360 1.803250 -0.017630 
#    z 0.006760 -0.017630 1.801170 
# 
# From -- ./inp_files/242462.got.cif
#   From: 2010.06.25/outbox.cif.g09.slc.cpg/sg2_122_cif.got.tgz:242462.got - 2010.06.27 13:26:56.
