data_PCOD8009203
_publ_section_title
;
Structure prediction by ZEFSAII (Michael W. Deem and Ramdas Pophale) SiO2 
 PCOD8009203
Probable space group: P -1
;
_chemical_formula_sum "Si O2"
_cell_formula_units_Z 16
_cell_length_a 13.780030
_cell_length_b 14.499774
_cell_length_c 10.549396
_cell_angle_alpha 130.630981
_cell_angle_beta 150.296731
_cell_angle_gamma 59.608333
_cell_volume 782.600466
_symmetry_space_group_name_H-M "P -1"
_symmetry_group_IT_number 2
_symmetry_cell_setting 'triclinic'
loop_
_space_group_symop_operation_xyz
x,y,z
-x,-y,-z
loop_
_atom_site_type_symbol
_atom_site_label
_atom_site_fract_x
_atom_site_fract_y
_atom_site_fract_z
Si Si1 0.908116 0.887098 0.633908
Si Si2 0.312742 0.960553 0.662157
Si Si3 0.889309 0.652020 0.262703
Si Si4 0.076681 0.460662 0.185466
Si Si5 0.508762 0.485855 0.646531
Si Si6 0.949824 0.782480 0.182012
Si Si7 0.306269 0.061779 0.311231
Si Si8 0.545223 0.792969 0.625808
O O1 0.949842 0.748173 0.530724
O O2 0.778409 0.885319 0.611308
O O3 0.774066 0.927390 0.403023
O O4 0.124298 0.969506 0.959576
O O5 0.378131 0.873547 0.548427
O O6 0.133087 0.891998 0.481870
O O7 0.500000 0.000000 0.000000
O O8 0.955243 0.718517 0.265686
O O9 0.985360 0.525582 0.258680
O O10 0.658750 0.600583 0.972234
O O11 0.308223 0.506192 0.502878
O O12 0.031249 0.311710 0.998493
O O13 0.000000 0.500000 0.000000
O O14 0.500000 0.500000 0.500000
O O15 0.556491 0.349707 0.610401
O O16 0.734970 0.825525 0.964334
O O17 0.376902 0.174758 0.398655
O O18 0.500000 0.000000 0.500000
#
# Coordination Sequence:
#
# PCOD8009203 Si02
#       8
#     2   2   2   2   2   2   2   2
#     4  11  26  42  64  94 126 167 224 268 314 382
#     4  12  25  35  61 101 132 164 204 260 335 392
#     4  11  22  37  60  93 136 162 198 263 319 385
#     4   9  18  32  55  83 122 172 196 238 305 384
#     4  11  20  36  61  95 128 167 208 247 321 395
#     4  10  21  36  58  91 136 164 202 252 318 389
#     4  11  24  48  68  85 119 178 229 269 312 362
#     4  11  22  40  65  89 126 168 216 262 309 379
#
# _framework density 20.444659999999999
#
# number of rings (size 3 to 8) (size 9 to 14) (size 15 to 20)
#    0.000    1.250    6.250    1.500    3.500    2.000 
#    0.000    0.625    0.000    3.750    0.000    0.000 
#    0.000    0.000    0.000    0.000    0.000    0.000 
#
# Total GULP energy -198285.285298 kJ/mol
# GULP energy per Si atom -12392.830331 kJ/mol
# Density = 2.039813 g / cm^3
# Si number density = 20.444660 Si / 1000 Ang^3
#
#
#
# Elastic Constant Matrix: (Units=GPa)
#
#
# Indices 1 2 3 4 5 6 
#
# 1 73.7782 18.8682 31.8587 15.1428 1.9341 -2.2917
# 2 18.8682 62.5748 18.1948 6.7670 -6.9920 -14.9370
# 3 31.8587 18.1948 101.6019 13.8519 2.7566 -3.0731
# 4 15.1428 6.7670 13.8519 35.1257 -0.0714 2.7840
# 5 1.9341 -6.9920 2.7566 -0.0714 27.0789 6.3748
# 6 -2.2917 -14.9370 -3.0731 2.7840 6.3748 42.5949
#
#
#
# Elastic Compliance Matrix: (Units=1/GPa)
#
#
# Indices 1 2 3 4 5 6 
#
# 1 0.017349 -0.003715 -0.004022 -0.005177 -0.001790 -0.000053
# 2 -0.003715 0.019824 -0.002057 -0.001882 0.004151 0.006105
# 3 -0.004022 -0.002057 0.011875 -0.002581 -0.001534 0.000317
# 4 -0.005177 -0.001882 -0.002581 0.032352 0.001031 -0.003394
# 5 -0.001790 0.004151 -0.001534 0.001031 0.039398 -0.004715
# 6 -0.000053 0.006105 0.000317 -0.003394 -0.004715 0.026565
#
#
# Mechanical properties :
#
#
# Convention : Reuss Voigt Hill
#
# Bulk Modulus (GPa) = 33.94329 41.75538 37.84933
# Shear Modulus (GPa) = 28.28546 32.22879 30.25713
#
# Velocity S-wave (km/s) = 3.72360 3.97469 3.85119
# Velocity P-wave (km/s) = 5.92667 6.44454 6.19103
#
# Compressibility (1/GPa) = 0.02946091
#
# Stress axis : x y z
#
# Youngs Moduli (GPa) = 57.64137 50.44483 84.21125
#
# Poissons Ratio (x) = 0.18738 0.33870
# Poissons Ratio (y) = 0.21411 0.17319
# Poissons Ratio (z) = 0.23183 0.10375
#
# Static dielectric constant tensor:
#      x y z
#    x 1.733260 0.889390 -1.686900 
#    y 0.889390 3.402460 1.266340 
#    z -1.686900 1.266340 1.967340 
# 
# 
# High freq. dielectric constant tensor:
#      x y z
#    x 1.787330 -0.019760 0.026680 
#    y -0.019760 1.801560 0.006400 
#    z 0.026680 0.006400 1.792630 
# 
# From -- ./inp_files/453864.got.cif
#   From: 2010.06.25/outbox.cif.g09.slc.cpg/sg2_227_cif.got.tgz:453864.got - 2010.06.27 13:26:56.
