data_PCOD8009727
_publ_section_title
;
Structure prediction by ZEFSAII (Michael W. Deem and Ramdas Pophale) SiO2 
 PCOD8009727
Probable space group: P -1
;
_chemical_formula_sum "Si O2"
_cell_formula_units_Z 12
_cell_length_a 12.193197
_cell_length_b 6.308714
_cell_length_c 10.420234
_cell_angle_alpha 82.326232
_cell_angle_beta 119.837323
_cell_angle_gamma 121.158064
_cell_volume 586.657449
_symmetry_space_group_name_H-M "P -1"
_symmetry_group_IT_number 2
_symmetry_cell_setting 'triclinic'
loop_
_space_group_symop_operation_xyz
x,y,z
-x,-y,-z
loop_
_atom_site_type_symbol
_atom_site_label
_atom_site_fract_x
_atom_site_fract_y
_atom_site_fract_z
Si Si1 0.514185 0.301696 0.106957
Si Si2 0.442285 0.368266 0.671031
Si Si3 0.271255 0.345274 0.328970
Si Si4 0.907227 0.119716 0.893044
Si Si5 0.974877 0.361645 0.169818
Si Si6 0.305059 0.918289 0.830183
O O1 0.512128 0.374329 0.247446
O O2 0.666156 0.304446 0.170632
O O3 0.500000 0.500000 0.000000
O O4 0.379886 0.030058 0.004335
O O5 0.317498 0.317499 0.500001
O O6 0.591489 0.414461 0.682978
O O7 0.372289 0.127408 0.741697
O O8 0.130594 0.375474 0.258304
O O9 0.235319 0.097520 0.247447
O O10 0.995522 0.357233 0.829369
O O11 0.875551 0.225374 0.995666
O O12 0.000000 0.000000 0.000000
O O13 0.872587 0.207570 0.245172
#
# Coordination Sequence:
#
# PCOD8009727 Si02
#       6
#     2   2   2   2   2   2
#     4   9  20  36  57  83 113 145 182 228 278 331
#     4  10  22  39  58  82 114 151 188 228 278 335
#     4  10  22  39  58  82 114 151 188 228 278 335
#     4   9  20  36  57  83 113 145 182 228 278 331
#     4  10  21  37  60  87 112 144 188 235 280 327
#     4  10  21  37  60  87 112 144 188 235 280 327
#
# _framework density 20.454865999999999
#
# number of rings (size 3 to 8) (size 9 to 14) (size 15 to 20)
#    0.000    2.333    0.000    1.000    0.000   20.667 
#    0.000    5.000    0.000    0.000    0.000    0.000 
#    0.000    0.000    0.000    0.000    0.000    0.000 
#
# Total GULP energy -148658.628283 kJ/mol
# GULP energy per Si atom -12388.219024 kJ/mol
# Density = 2.040831 g / cm^3
# Si number density = 20.454866 Si / 1000 Ang^3
#
#
#
# Elastic Constant Matrix: (Units=GPa)
#
#
# Indices 1 2 3 4 5 6 
#
# 1 150.5892 68.6317 44.5479 -13.2893 8.4020 16.3166
# 2 68.6317 118.4665 44.2247 -15.0478 -4.2572 3.3194
# 3 44.5479 44.2247 126.9036 0.5912 5.3361 3.4035
# 4 -13.2893 -15.0478 0.5912 19.5850 0.2775 -9.2152
# 5 8.4020 -4.2572 5.3361 0.2775 13.9095 -3.2472
# 6 16.3166 3.3194 3.4035 -9.2152 -3.2472 37.1945
#
#
#
# Elastic Compliance Matrix: (Units=1/GPa)
#
#
# Indices 1 2 3 4 5 6 
#
# 1 0.010746 -0.005858 -0.001234 0.000757 -0.008915 -0.004669
# 2 -0.005858 0.014648 -0.003659 0.009532 0.010371 0.004864
# 3 -0.001234 -0.003659 0.009838 -0.004618 -0.004421 -0.001562
# 4 0.000757 0.009532 -0.004618 0.066626 0.006715 0.016333
# 5 -0.008915 0.010371 -0.004421 0.006715 0.084926 0.012468
# 6 -0.004669 0.004864 -0.001562 0.016333 0.012468 0.033778
#
#
# Mechanical properties :
#
#
# Convention : Reuss Voigt Hill
#
# Bulk Modulus (GPa) = 72.83985 78.97422 75.90704
# Shear Modulus (GPa) = 20.27242 30.04147 25.15694
#
# Velocity S-wave (km/s) = 3.15156 3.83648 3.51076
# Velocity P-wave (km/s) = 6.99503 7.63660 7.32284
#
# Compressibility (1/GPa) = 0.01372875
#
# Stress axis : x y z
#
# Youngs Moduli (GPa) = 93.06149 68.26806 101.64893
#
# Poissons Ratio (x) = 0.39991 0.12544
# Poissons Ratio (y) = 0.54515 0.37197
# Poissons Ratio (z) = 0.11485 0.24982
#
# Static dielectric constant tensor:
#      x y z
#    x 3.655800 -0.153450 -0.226270 
#    y -0.153450 3.942280 0.461150 
#    z -0.226270 0.461150 3.974710 
# 
# 
# High freq. dielectric constant tensor:
#      x y z
#    x 1.794150 -0.002680 -0.005000 
#    y -0.002680 1.799190 0.007680 
#    z -0.005000 0.007680 1.788400 
# 
# From -- ./inp_files/64911.got.cif
#   From: 2010.06.25/outbox.cif.g09.slc.cpg/sg2_33_cif.got.tgz:64911.got - 2010.06.27 13:26:56.
