data_PCOD8009724
_publ_section_title
;
Structure prediction by ZEFSAII (Michael W. Deem and Ramdas Pophale) SiO2 
 PCOD8009724
Probable space group: P -1
;
_chemical_formula_sum "Si O2"
_cell_formula_units_Z 14
_cell_length_a 6.632973
_cell_length_b 19.883030
_cell_length_c 6.758879
_cell_angle_alpha 87.292714
_cell_angle_beta 109.852856
_cell_angle_gamma 56.871916
_cell_volume 670.750743
_symmetry_space_group_name_H-M "P -1"
_symmetry_group_IT_number 2
_symmetry_cell_setting 'triclinic'
loop_
_space_group_symop_operation_xyz
x,y,z
-x,-y,-z
loop_
_atom_site_type_symbol
_atom_site_label
_atom_site_fract_x
_atom_site_fract_y
_atom_site_fract_z
Si Si1 0.695439 0.822752 0.278861
Si Si2 0.157341 0.604260 0.803580
Si Si3 0.432968 0.238380 0.399741
Si Si4 0.777993 0.945555 0.490454
Si Si5 0.270463 0.685314 0.487887
Si Si6 0.300890 0.908234 0.788184
Si Si7 0.480290 0.456566 0.688913
O O1 0.553852 0.794638 0.373515
O O2 0.809909 0.865694 0.425319
O O3 0.966707 0.738642 0.291559
O O4 0.462807 0.887197 0.045299
O O5 0.285367 0.639170 0.703144
O O6 0.200835 0.525823 0.702195
O O7 0.851974 0.673932 0.745870
O O8 0.295112 0.571942 0.066951
O O9 0.657858 0.252071 0.441888
O O10 0.492798 0.165735 0.282648
O O11 0.030440 0.914442 0.723448
O O12 0.500000 0.000000 0.500000
O O13 0.783285 0.000857 0.313981
O O14 0.473501 0.625179 0.385025
O O15 0.500000 0.500000 0.500000
#
# Coordination Sequence:
#
# PCOD8009724 Si02
#       7
#     2   2   2   2   2   2   2
#     4  11  23  41  62  89 121 161 201 249 301 354
#     4   9  20  37  60  84 121 156 197 248 293 347
#     4  11  22  39  59  91 120 156 206 244 296 366
#     4  11  23  43  62  88 122 156 204 254 297 361
#     4  10  21  37  60  86 122 155 199 246 296 354
#     4  11  24  40  63  88 121 160 202 248 305 357
#     4   9  18  38  60  86 118 160 196 244 295 349
#
# _framework density 20.872136000000001
#
# number of rings (size 3 to 8) (size 9 to 14) (size 15 to 20)
#    0.000    1.714    2.857    1.286    0.000    3.429 
#    0.000    6.429    0.000    0.000    0.000    0.000 
#    0.000    0.000    0.000    0.000    0.000    0.000 
#
# Total GULP energy -173451.139799 kJ/mol
# GULP energy per Si atom -12389.367129 kJ/mol
# Density = 2.082463 g / cm^3
# Si number density = 20.872136 Si / 1000 Ang^3
#
#
#
# Elastic Constant Matrix: (Units=GPa)
#
#
# Indices 1 2 3 4 5 6 
#
# 1 94.5989 21.0574 29.1418 -6.3999 3.2556 -3.0580
# 2 21.0574 75.8520 5.5781 -2.1827 -1.8647 -8.4203
# 3 29.1418 5.5781 88.8579 -17.9170 5.6528 5.0611
# 4 -6.3999 -2.1827 -17.9170 29.5768 -5.4549 2.6465
# 5 3.2556 -1.8647 5.6528 -5.4549 17.8946 -0.5752
# 6 -3.0580 -8.4203 5.0611 2.6465 -0.5752 38.0844
#
#
#
# Elastic Compliance Matrix: (Units=1/GPa)
#
#
# Indices 1 2 3 4 5 6 
#
# 1 0.012537 -0.003142 -0.003917 -0.000227 -0.001413 0.000827
# 2 -0.003142 0.014464 -0.000095 0.000500 0.002356 0.002959
# 3 -0.003917 -0.000095 0.014381 0.007824 -0.001546 -0.002814
# 4 -0.000227 0.000500 0.007824 0.040689 0.009909 -0.003625
# 5 -0.001413 0.002356 -0.001546 0.009909 0.059921 0.000829
# 6 0.000827 0.002959 -0.002814 -0.003625 0.000829 0.027616
#
#
# Mechanical properties :
#
#
# Convention : Reuss Voigt Hill
#
# Bulk Modulus (GPa) = 36.93781 41.20705 39.07243
# Shear Modulus (GPa) = 25.91461 30.67992 28.29726
#
# Velocity S-wave (km/s) = 3.52744 3.83808 3.68604
# Velocity P-wave (km/s) = 5.85884 6.27907 6.07259
#
# Compressibility (1/GPa) = 0.02707253
#
# Stress axis : x y z
#
# Youngs Moduli (GPa) = 79.76321 69.13917 69.53742
#
# Poissons Ratio (x) = 0.21722 0.27240
# Poissons Ratio (y) = 0.25060 0.00662
# Poissons Ratio (z) = 0.31246 0.00659
#
# Static dielectric constant tensor:
#      x y z
#    x 3.583840 -0.114220 -0.041250 
#    y -0.114220 4.579990 -0.028260 
#    z -0.041250 -0.028260 3.642590 
# 
# 
# High freq. dielectric constant tensor:
#      x y z
#    x 1.797820 -0.012910 -0.000550 
#    y -0.012910 1.847710 -0.010710 
#    z -0.000550 -0.010710 1.805850 
# 
# From -- ./inp_files/7495.got.cif
#   From: 2010.06.25/outbox.cif.g09.slc.cpg/sg2_4_cif.got.tgz:7495.got - 2010.06.27 13:26:56.
