data_PCOD8009434
_publ_section_title
;
Structure prediction by ZEFSAII (Michael W. Deem and Ramdas Pophale) SiO2 
 PCOD8009434
Probable space group: P -1
;
_chemical_formula_sum "Si O2"
_cell_formula_units_Z 16
_cell_length_a 21.521459
_cell_length_b 19.358515
_cell_length_c 9.153493
_cell_angle_alpha 149.533585
_cell_angle_beta 150.148182
_cell_angle_gamma 27.634387
_cell_volume 804.935884
_symmetry_space_group_name_H-M "P -1"
_symmetry_group_IT_number 2
_symmetry_cell_setting 'triclinic'
loop_
_space_group_symop_operation_xyz
x,y,z
-x,-y,-z
loop_
_atom_site_type_symbol
_atom_site_label
_atom_site_fract_x
_atom_site_fract_y
_atom_site_fract_z
Si Si1 0.099030 0.037245 0.666599
Si Si2 0.079484 0.427666 0.684078
Si Si3 0.149858 0.638773 0.386767
Si Si4 0.594979 0.422428 0.375521
Si Si5 0.555715 0.771265 0.309038
Si Si6 0.297700 0.118187 0.414298
Si Si7 0.711893 0.305967 0.699658
Si Si8 0.824621 0.466754 0.425708
O O1 0.993980 0.182810 0.608562
O O2 0.207696 0.886373 0.507783
O O3 0.197486 0.081535 0.041909
O O4 0.000000 0.000000 0.500000
O O5 0.198222 0.233815 0.555595
O O6 0.000000 0.500000 0.500000
O O7 0.963277 0.466441 0.645660
O O8 0.163433 0.511656 0.062748
O O9 0.303244 0.632062 0.661420
O O10 0.141571 0.590162 0.443945
O O11 0.696667 0.393511 0.672523
O O12 0.455051 0.610201 0.419578
O O13 0.535696 0.305166 0.069995
O O14 0.643409 0.786311 0.380468
O O15 0.676316 0.650096 0.453904
O O16 0.437999 0.950829 0.461816
O O17 0.810225 0.339310 0.067955
#
# Coordination Sequence:
#
# PCOD8009434 Si02
#       8
#     2   2   2   2   2   2   2   2
#     4  12  21  38  62  94 122 155 207 255 298 353
#     4  12  22  40  65  91 118 160 209 247 294 362
#     4  12  25  39  62  89 128 164 192 249 315 360
#     4  10  21  38  62  91 117 159 210 247 295 353
#     4  10  21  39  62  90 125 151 204 256 298 352
#     4  11  22  36  64  96 114 155 207 260 294 336
#     4  10  21  36  64  86 121 154 206 253 285 359
#     4  11  24  42  59  91 128 160 195 245 315 368
#
# _framework density 19.877358999999998
#
# number of rings (size 3 to 8) (size 9 to 14) (size 15 to 20)
#    0.000    1.000    5.000    1.875    3.500    2.500 
#    0.000    1.875    0.000    0.000    0.000    0.000 
#    0.000    0.000    0.000    0.000    0.000    0.000 
#
# Total GULP energy -198387.294641 kJ/mol
# GULP energy per Si atom -12399.205915 kJ/mol
# Density = 1.983212 g / cm^3
# Si number density = 19.877359 Si / 1000 Ang^3
#
#
#
# Elastic Constant Matrix: (Units=GPa)
#
#
# Indices 1 2 3 4 5 6 
#
# 1 104.2999 54.6744 37.7780 -1.6881 12.3482 4.3967
# 2 54.6744 170.1810 39.7190 18.4032 -6.3132 -13.0540
# 3 37.7780 39.7190 98.9020 9.7301 5.7743 -0.7726
# 4 -1.6881 18.4032 9.7301 27.3543 -7.0950 -6.2190
# 5 12.3482 -6.3132 5.7743 -7.0950 25.0537 -2.6957
# 6 4.3967 -13.0540 -0.7726 -6.2190 -2.6957 36.3595
#
#
#
# Elastic Compliance Matrix: (Units=1/GPa)
#
#
# Indices 1 2 3 4 5 6 
#
# 1 0.014276 -0.004584 -0.003482 0.002576 -0.007039 -0.003527
# 2 -0.004584 0.008498 -0.001512 -0.003672 0.004059 0.003246
# 3 -0.003482 -0.001512 0.012678 -0.004687 -0.003009 -0.000877
# 4 0.002576 -0.003672 -0.004687 0.045715 0.012587 0.007023
# 5 -0.007039 0.004059 -0.003009 0.012587 0.049532 0.008070
# 6 -0.003527 0.003246 -0.000877 0.007023 0.008070 0.030876
#
#
# Mechanical properties :
#
#
# Convention : Reuss Voigt Hill
#
# Bulk Modulus (GPa) = 61.36623 70.85842 66.11232
# Shear Modulus (GPa) = 26.85801 33.83429 30.34615
#
# Velocity S-wave (km/s) = 3.67984 4.13019 3.91150
# Velocity P-wave (km/s) = 6.99960 7.64656 7.33022
#
# Compressibility (1/GPa) = 0.01629561
#
# Stress axis : x y z
#
# Youngs Moduli (GPa) = 70.05007 117.66972 78.87451
#
# Poissons Ratio (x) = 0.53938 0.27464
# Poissons Ratio (y) = 0.32110 0.11929
# Poissons Ratio (z) = 0.24392 0.17797
#
# Static dielectric constant tensor:
#      x y z
#    x 3.502650 -0.384890 0.169850 
#    y -0.384890 3.994570 0.060990 
#    z 0.169850 0.060990 3.654500 
# 
# 
# High freq. dielectric constant tensor:
#      x y z
#    x 1.753460 -0.025290 0.017180 
#    y -0.025290 1.786130 0.002900 
#    z 0.017180 0.002900 1.778250 
# 
# From -- ./inp_files/314502.got.cif
#   From: 2010.06.25/outbox.cif.g09.slc.cpg/sg2_158_cif.got.tgz:314502.got - 2010.06.27 13:26:56.
