data_PCOD8009515
_publ_section_title
;
Structure prediction by ZEFSAII (Michael W. Deem and Ramdas Pophale) SiO2 
 PCOD8009515
Probable space group: P -1
;
_chemical_formula_sum "Si O2"
_cell_formula_units_Z 14
_cell_length_a 20.649374
_cell_length_b 5.067316
_cell_length_c 20.176237
_cell_angle_alpha 67.946634
_cell_angle_beta 159.980223
_cell_angle_gamma 103.792768
_cell_volume 624.839145
_symmetry_space_group_name_H-M "P -1"
_symmetry_group_IT_number 2
_symmetry_cell_setting 'triclinic'
loop_
_space_group_symop_operation_xyz
x,y,z
-x,-y,-z
loop_
_atom_site_type_symbol
_atom_site_label
_atom_site_fract_x
_atom_site_fract_y
_atom_site_fract_z
Si Si1 0.527343 0.830505 0.111187
Si Si2 0.303949 0.778046 0.360886
Si Si3 0.301804 0.206232 0.204622
Si Si4 0.711200 0.124021 0.365725
Si Si5 0.636378 0.859941 0.878479
Si Si6 0.917224 0.645567 0.837007
Si Si7 0.818139 0.156766 0.129627
O O1 0.620576 0.471329 0.221647
O O2 0.685329 0.916610 0.300600
O O3 0.306429 0.933878 0.923380
O O4 0.500000 0.000000 0.000000
O O5 0.539102 0.691876 0.610926
O O6 0.266081 0.462809 0.351057
O O7 0.248331 0.953948 0.220136
O O8 0.170625 0.988775 0.273088
O O9 0.383292 0.065851 0.225169
O O10 0.100890 0.514308 0.973484
O O11 0.590557 0.076647 0.318847
O O12 0.945306 0.034332 0.617332
O O13 0.780576 0.512971 0.063704
O O14 0.736031 0.080544 0.987976
O O15 0.000000 0.500000 0.000000
#
# Coordination Sequence:
#
# PCOD8009515 Si02
#       7
#     2   2   2   2   2   2   2
#     4  10  21  37  61  92 118 147 189 229 272 328
#     4  10  23  38  57  83 110 142 185 238 297 345
#     4  10  22  38  59  81 111 146 187 239 289 339
#     4  10  21  39  58  83 121 152 186 231 273 327
#     4  10  23  37  56  83 111 150 196 232 275 337
#     4  10  21  37  55  79 108 138 177 229 286 346
#     4  10  22  40  58  82 118 154 187 231 276 324
#
# _framework density 22.405766
#
# number of rings (size 3 to 8) (size 9 to 14) (size 15 to 20)
#    0.000    2.000    0.000    3.000    0.000   14.286 
#    0.000    0.000    0.000    0.000    0.000    0.000 
#    0.000    0.000    0.000    0.000    0.000    0.000 
#
# Total GULP energy -173629.717524 kJ/mol
# GULP energy per Si atom -12402.122680 kJ/mol
# Density = 2.235477 g / cm^3
# Si number density = 22.405766 Si / 1000 Ang^3
#
#
#
# Elastic Constant Matrix: (Units=GPa)
#
#
# Indices 1 2 3 4 5 6 
#
# 1 107.2656 10.7134 25.6097 3.6539 2.8627 -8.9701
# 2 10.7134 76.9417 11.2811 10.0364 3.6166 -12.1585
# 3 25.6097 11.2811 106.9467 11.9745 22.4755 6.1970
# 4 3.6539 10.0364 11.9745 25.1587 -0.6410 0.1993
# 5 2.8627 3.6166 22.4755 -0.6410 20.8282 0.6479
# 6 -8.9701 -12.1585 6.1970 0.1993 0.6479 18.6961
#
#
#
# Elastic Compliance Matrix: (Units=1/GPa)
#
#
# Indices 1 2 3 4 5 6 
#
# 1 0.010566 -0.000145 -0.003276 0.000084 0.001924 0.005993
# 2 -0.000145 0.015730 -0.001182 -0.005826 -0.001948 0.010681
# 3 -0.003276 -0.001182 0.014488 -0.006278 -0.014968 -0.006557
# 4 0.000084 -0.005826 -0.006278 0.045303 0.009245 -0.002471
# 5 0.001924 -0.001948 -0.014968 0.009245 0.064450 0.002286
# 6 0.005993 0.010681 -0.006557 -0.002471 0.002286 0.065429
#
#
# Mechanical properties :
#
#
# Convention : Reuss Voigt Hill
#
# Bulk Modulus (GPa) = 31.66778 42.92915 37.29846
# Shear Modulus (GPa) = 21.21361 29.17325 25.19343
#
# Velocity S-wave (km/s) = 3.08034 3.61230 3.35687
# Velocity P-wave (km/s) = 5.17839 6.04977 5.63096
#
# Compressibility (1/GPa) = 0.03157784
#
# Stress axis : x y z
#
# Youngs Moduli (GPa) = 94.64062 63.57436 69.02292
#
# Poissons Ratio (x) = 0.00924 0.22612
# Poissons Ratio (y) = 0.01375 0.08157
# Poissons Ratio (z) = 0.31004 0.07513
#
# Static dielectric constant tensor:
#      x y z
#    x 4.093630 -0.265040 0.439760 
#    y -0.265040 4.145970 -0.029720 
#    z 0.439760 -0.029720 4.110110 
# 
# 
# High freq. dielectric constant tensor:
#      x y z
#    x 1.868310 -0.017090 0.018620 
#    y -0.017090 1.892050 0.007010 
#    z 0.018620 0.007010 1.881980 
# 
# From -- ./inp_files/580721.got.cif
#   From: 2010.06.25/outbox.cif.g09.slc.cpg/sg2_291_cif.got.tgz:580721.got - 2010.06.27 13:26:56.
