data_PCOD8009466
_publ_section_title
;
Structure prediction by ZEFSAII (Michael W. Deem and Ramdas Pophale) SiO2 
 PCOD8009466
Probable space group: P -1
;
_chemical_formula_sum "Si O2"
_cell_formula_units_Z 16
_cell_length_a 12.544683
_cell_length_b 10.695074
_cell_length_c 22.013689
_cell_angle_alpha 39.694456
_cell_angle_beta 148.197483
_cell_angle_gamma 145.285083
_cell_volume 861.330963
_symmetry_space_group_name_H-M "P -1"
_symmetry_group_IT_number 2
_symmetry_cell_setting 'triclinic'
loop_
_space_group_symop_operation_xyz
x,y,z
-x,-y,-z
loop_
_atom_site_type_symbol
_atom_site_label
_atom_site_fract_x
_atom_site_fract_y
_atom_site_fract_z
Si Si1 0.187307 0.531338 0.358327
Si Si2 0.076972 0.300784 0.980832
Si Si3 0.662473 0.128063 0.252267
Si Si4 0.563801 0.205088 0.043783
Si Si5 0.237826 0.556444 0.149533
Si Si6 0.523970 0.633945 0.373131
Si Si7 0.233772 0.963706 0.184196
Si Si8 0.203348 0.849890 0.932085
O O1 0.298928 0.528044 0.348229
O O2 0.314107 0.473725 0.494778
O O3 0.914251 0.349183 0.294004
O O4 0.231518 0.783952 0.298966
O O5 0.136928 0.118231 0.107977
O O6 0.320735 0.525578 0.998358
O O7 0.927849 0.359534 0.931528
O O8 0.935632 0.200478 0.888512
O O9 0.537598 0.105906 0.135584
O O10 0.492564 0.132604 0.220105
O O11 0.680682 0.903756 0.356026
O O12 0.715804 0.122143 0.109229
O O13 0.305958 0.085809 0.931133
O O14 0.438829 0.576547 0.283689
O O15 0.078520 0.293879 0.149970
O O16 0.323564 0.710900 0.073294
#
# Coordination Sequence:
#
# PCOD8009466 Si02
#       8
#     2   2   2   2   2   2   2   2
#     4  10  19  33  47  71 100 135 170 193 233 294
#     4  10  18  32  47  69 107 135 159 198 239 291
#     4  11  18  32  48  74 106 130 162 196 243 292
#     4  10  17  29  46  71 101 128 156 203 249 294
#     4  10  16  32  47  72 101 127 156 206 252 288
#     4  10  19  31  51  70 100 133 162 202 245 287
#     4  10  20  32  48  71 103 141 164 190 231 297
#     4   9  18  27  48  70  99 121 163 202 254 299
#
# _framework density 18.575901999999999
#
# number of rings (size 3 to 8) (size 9 to 14) (size 15 to 20)
#    0.000    2.000    5.000    1.125    0.000    0.500 
#    2.250    0.000    0.000    0.000    0.000    8.750 
#    0.000    0.125    0.000    0.000    0.000    0.000 
#
# Total GULP energy -198242.204705 kJ/mol
# GULP energy per Si atom -12390.137794 kJ/mol
# Density = 1.853362 g / cm^3
# Si number density = 18.575902 Si / 1000 Ang^3
#
#
#
# Elastic Constant Matrix: (Units=GPa)
#
#
# Indices 1 2 3 4 5 6 
#
# 1 29.7763 20.5516 15.4724 -3.4191 0.1441 7.3112
# 2 20.5516 102.8212 18.9324 -1.3429 9.1279 18.4957
# 3 15.4724 18.9324 88.1616 -10.1720 4.1568 -8.1836
# 4 -3.4191 -1.3429 -10.1720 28.5980 -2.6472 -3.3972
# 5 0.1441 9.1279 4.1568 -2.6472 20.7000 -2.3925
# 6 7.3112 18.4957 -8.1836 -3.3972 -2.3925 18.2190
#
#
#
# Elastic Compliance Matrix: (Units=1/GPa)
#
#
# Indices 1 2 3 4 5 6 
#
# 1 0.045467 -0.004495 -0.008667 0.000213 0.001428 -0.017348
# 2 -0.004495 0.015210 -0.004175 -0.004149 -0.008377 -0.017386
# 3 -0.008667 -0.004175 0.015956 0.006508 0.001411 0.016282
# 4 0.000213 -0.004149 0.006508 0.039625 0.007369 0.015406
# 5 0.001428 -0.008377 0.001411 0.007369 0.054630 0.017113
# 6 -0.017348 -0.017386 0.016282 0.015406 0.017113 0.091933
#
#
# Mechanical properties :
#
#
# Convention : Reuss Voigt Hill
#
# Bulk Modulus (GPa) = 23.83318 36.74134 30.28726
# Shear Modulus (GPa) = 16.05226 24.55691 20.30458
#
# Velocity S-wave (km/s) = 2.94282 3.63984 3.30973
# Velocity P-wave (km/s) = 4.94014 6.12263 5.56289
#
# Compressibility (1/GPa) = 0.04195831
#
# Stress axis : x y z
#
# Youngs Moduli (GPa) = 21.99381 65.74734 62.67163
#
# Poissons Ratio (x) = 0.29556 0.54319
# Poissons Ratio (y) = 0.09887 0.26164
# Poissons Ratio (z) = 0.19063 0.27448
#
# Static dielectric constant tensor:
#      x y z
#    x 3.183620 0.139350 -0.176830 
#    y 0.139350 3.788760 -0.120240 
#    z -0.176830 -0.120240 3.438160 
# 
# 
# High freq. dielectric constant tensor:
#      x y z
#    x 1.684870 0.023120 -0.023430 
#    y 0.023120 1.740680 -0.005660 
#    z -0.023430 -0.005660 1.690100 
# 
# From -- ./inp_files/542786.got.cif
#   From: 2010.06.25/outbox.cif.g09.slc.cpg/sg2_272_cif.got.tgz:542786.got - 2010.06.27 13:26:56.
