data_PCOD8009847
_publ_section_title
;
Structure prediction by ZEFSAII (Michael W. Deem and Ramdas Pophale) SiO2 
 PCOD8009847
Probable space group: P -1
;
_chemical_formula_sum "Si O2"
_cell_formula_units_Z 16
_cell_length_a 13.108449
_cell_length_b 12.596112
_cell_length_c 5.116783
_cell_angle_alpha 73.591546
_cell_angle_beta 61.272199
_cell_angle_gamma 63.955641
_cell_volume 662.894356
_symmetry_space_group_name_H-M "P -1"
_symmetry_group_IT_number 2
_symmetry_cell_setting 'triclinic'
loop_
_space_group_symop_operation_xyz
x,y,z
-x,-y,-z
loop_
_atom_site_type_symbol
_atom_site_label
_atom_site_fract_x
_atom_site_fract_y
_atom_site_fract_z
Si Si1 0.174118 0.672216 0.313200
Si Si2 0.043696 0.365835 0.628799
Si Si3 0.203040 0.295054 0.986379
Si Si4 0.274287 0.903876 0.534221
Si Si5 0.391942 0.655574 0.728191
Si Si6 0.036134 0.884914 0.710327
Si Si7 0.666733 0.532378 0.421450
Si Si8 0.760022 0.948516 0.048376
O O1 0.101417 0.765268 0.553865
O O2 0.226193 0.538143 0.457469
O O3 0.076905 0.675279 0.198227
O O4 0.295261 0.701354 0.055524
O O5 0.094296 0.353722 0.868048
O O6 0.000000 0.500000 0.500000
O O7 0.145901 0.288362 0.346479
O O8 0.293120 0.369654 0.843713
O O9 0.285215 0.159640 0.893828
O O10 0.377246 0.771021 0.489264
O O11 0.139032 0.894373 0.785433
O O12 0.309887 0.981663 0.657548
O O13 0.267857 0.960010 0.219001
O O14 0.534969 0.598025 0.687175
O O15 0.351081 0.558375 0.701194
O O16 0.000000 0.000000 0.500000
O O17 0.907205 0.883995 0.990892
#
# Coordination Sequence:
#
# PCOD8009847 Si02
#       8
#     2   2   2   2   2   2   2   2
#     4  12  23  42  67 102 142 177 228 285 354 414
#     4  12  25  40  69 100 144 181 222 276 352 426
#     4  12  26  46  67 104 146 184 226 284 350 425
#     4  11  23  43  67  98 136 183 233 286 338 409
#     4  11  25  45  72  98 136 182 244 294 339 406
#     4  10  21  37  61  98 135 174 217 274 344 405
#     4  11  26  46  68 101 136 189 235 290 347 405
#     4  11  24  42  66 101 141 180 229 278 352 418
#
# _framework density 24.136576000000002
#
# number of rings (size 3 to 8) (size 9 to 14) (size 15 to 20)
#    0.000    0.750    3.750    4.125    5.250    0.000 
#    0.000    1.250    0.000    0.000    0.000    0.000 
#    0.000    0.000    0.000    0.000    0.000    0.000 
#
# Total GULP energy -198392.478896 kJ/mol
# GULP energy per Si atom -12399.529931 kJ/mol
# Density = 2.408164 g / cm^3
# Si number density = 24.136576 Si / 1000 Ang^3
#
#
#
# Elastic Constant Matrix: (Units=GPa)
#
#
# Indices 1 2 3 4 5 6 
#
# 1 69.7229 42.9122 19.1291 8.7808 -6.3091 -5.5862
# 2 42.9122 137.8716 4.8756 -5.7378 -4.8969 2.9652
# 3 19.1291 4.8756 49.8395 10.8630 -2.7222 -7.8049
# 4 8.7808 -5.7378 10.8630 29.2133 3.9674 5.7071
# 5 -6.3091 -4.8969 -2.7222 3.9674 30.6996 4.2013
# 6 -5.5862 2.9652 -7.8049 5.7071 4.2013 24.9634
#
#
#
# Elastic Compliance Matrix: (Units=1/GPa)
#
#
# Indices 1 2 3 4 5 6 
#
# 1 0.021565 -0.006845 -0.004998 -0.007419 0.003138 0.005244
# 2 -0.006845 0.009655 0.000092 0.004639 0.000051 -0.003719
# 3 -0.004998 0.000092 0.025606 -0.009924 0.001319 0.008923
# 4 -0.007419 0.004639 -0.009924 0.044655 -0.005436 -0.014608
# 5 0.003138 0.000051 0.001319 -0.005436 0.034520 -0.003458
# 6 0.005244 -0.003719 0.008923 -0.014608 -0.003458 0.048385
#
#
# Mechanical properties :
#
#
# Convention : Reuss Voigt Hill
#
# Bulk Modulus (GPa) = 30.00823 43.47422 36.74122
# Shear Modulus (GPa) = 22.83138 29.67638 26.25388
#
# Velocity S-wave (km/s) = 3.07893 3.51025 3.30164
# Velocity P-wave (km/s) = 5.00993 5.87197 5.45799
#
# Compressibility (1/GPa) = 0.03332419
#
# Stress axis : x y z
#
# Youngs Moduli (GPa) = 46.37085 103.56904 39.05324
#
# Poissons Ratio (x) = 0.70898 0.19518
# Poissons Ratio (y) = 0.31743 -0.00359
# Poissons Ratio (z) = 0.23175 -0.00952
#
# Static dielectric constant tensor:
#      x y z
#    x 4.328720 -0.272460 0.282570 
#    y -0.272460 4.067200 0.830510 
#    z 0.282570 0.830510 2.594740 
# 
# 
# High freq. dielectric constant tensor:
#      x y z
#    x 1.935530 0.001180 0.010490 
#    y 0.001180 1.984080 -0.011920 
#    z 0.010490 -0.011920 1.936220 
# 
# From -- ./inp_files/94543.got.cif
#   From: 2010.06.25/outbox.cif.g09.slc.cpg/sg2_48_cif.got.tgz:94543.got - 2010.06.27 13:26:56.
