data_PCOD8009558
_publ_section_title
;
Structure prediction by ZEFSAII (Michael W. Deem and Ramdas Pophale) SiO2 
 PCOD8009558
Probable space group: P -1
;
_chemical_formula_sum "Si O2"
_cell_formula_units_Z 16
_cell_length_a 23.664110
_cell_length_b 5.126508
_cell_length_c 7.346197
_cell_angle_alpha 86.522396
_cell_angle_beta 54.714284
_cell_angle_gamma 86.719451
_cell_volume 725.860055
_symmetry_space_group_name_H-M "P -1"
_symmetry_group_IT_number 2
_symmetry_cell_setting 'triclinic'
loop_
_space_group_symop_operation_xyz
x,y,z
-x,-y,-z
loop_
_atom_site_type_symbol
_atom_site_label
_atom_site_fract_x
_atom_site_fract_y
_atom_site_fract_z
Si Si1 0.169157 0.745477 0.473337
Si Si2 0.940423 0.217901 0.608047
Si Si3 0.562740 0.218340 0.221141
Si Si4 0.416570 0.304608 0.594783
Si Si5 0.304531 0.175912 0.534144
Si Si6 0.322365 0.695139 0.279175
Si Si7 0.151494 0.216019 0.745208
Si Si8 0.968103 0.538498 0.859311
O O1 0.135131 0.828508 0.337976
O O2 0.252267 0.764480 0.292358
O O3 0.149276 0.463225 0.601033
O O4 0.139702 0.955458 0.664204
O O5 0.929157 0.303603 0.836669
O O6 0.969788 0.423985 0.398872
O O7 0.000000 0.000000 0.500000
O O8 0.481608 0.295228 0.333148
O O9 0.591080 0.405783 0.319556
O O10 0.568512 0.912280 0.270058
O O11 0.607301 0.258691 0.958594
O O12 0.344486 0.235585 0.641083
O O13 0.324081 0.390883 0.339194
O O14 0.222894 0.201035 0.724919
O O15 0.324127 0.883899 0.443097
O O16 0.090998 0.235328 0.010535
O O17 0.000000 0.500000 0.000000
#
# Coordination Sequence:
#
# PCOD8009558 Si02
#       8
#     2   2   2   2   2   2   2   2
#     4  10  22  41  61  85 122 154 196 247 298 363
#     4  11  25  39  61  93 118 156 208 246 299 369
#     4  10  21  37  57  84 118 160 192 239 302 339
#     4  10  21  37  57  84 120 154 198 242 286 358
#     4  10  21  38  59  88 116 150 200 242 288 354
#     4  10  21  38  60  86 116 155 192 243 298 341
#     4  10  22  40  63  85 117 162 192 243 310 350
#     4  11  23  41  63  87 121 160 199 249 305 356
#
# _framework density 22.042816999999999
#
# number of rings (size 3 to 8) (size 9 to 14) (size 15 to 20)
#    0.000    1.750    1.250    2.250    3.500    3.000 
#    2.250    0.000    0.000    0.000    0.000    0.000 
#    0.000    0.000    0.000    0.000    0.000    0.000 
#
# Total GULP energy -198255.024359 kJ/mol
# GULP energy per Si atom -12390.939022 kJ/mol
# Density = 2.199265 g / cm^3
# Si number density = 22.042817 Si / 1000 Ang^3
#
#
#
# Elastic Constant Matrix: (Units=GPa)
#
#
# Indices 1 2 3 4 5 6 
#
# 1 100.4440 -3.0268 11.3406 16.0407 22.4915 6.9034
# 2 -3.0268 68.8631 -3.4355 15.0987 5.9654 0.9152
# 3 11.3406 -3.4355 74.9356 14.8210 -3.6678 0.3160
# 4 16.0407 15.0987 14.8210 24.9079 4.7277 -2.9448
# 5 22.4915 5.9654 -3.6678 4.7277 35.1377 3.5539
# 6 6.9034 0.9152 0.3160 -2.9448 3.5539 25.9200
#
#
#
# Elastic Compliance Matrix: (Units=1/GPa)
#
#
# Indices 1 2 3 4 5 6 
#
# 1 0.013605 0.003398 -0.000363 -0.009601 -0.007649 -0.003781
# 2 0.003398 0.018409 0.003199 -0.015099 -0.002637 -0.002948
# 3 -0.000363 0.003199 0.016114 -0.012144 0.003211 -0.002033
# 4 -0.009601 -0.015099 -0.012144 0.064438 -0.002329 0.010878
# 5 -0.007649 -0.002637 0.003211 -0.002329 0.034749 -0.002938
# 6 -0.003781 -0.002948 -0.002033 0.010878 -0.002938 0.041355
#
#
# Mechanical properties :
#
#
# Convention : Reuss Voigt Hill
#
# Bulk Modulus (GPa) = 16.50262 28.22213 22.36237
# Shear Modulus (GPa) = 25.45841 33.15075 29.30458
#
# Velocity S-wave (km/s) = 3.40215 3.88226 3.65010
# Velocity P-wave (km/s) = 4.78912 5.73820 5.28501
#
# Compressibility (1/GPa) = 0.06059645
#
# Stress axis : x y z
#
# Youngs Moduli (GPa) = 73.50243 54.32228 62.05811
#
# Poissons Ratio (x) = -0.18457 0.02251
# Poissons Ratio (y) = -0.24974 -0.19855
# Poissons Ratio (z) = 0.02667 -0.17380
#
# Static dielectric constant tensor:
#      x y z
#    x 4.275090 -0.233100 0.740080 
#    y -0.233100 -0.142230 12.475880 
#    z 0.740080 12.475880 -31.500280 
# 
# 
# High freq. dielectric constant tensor:
#      x y z
#    x 1.877000 0.005030 -0.015300 
#    y 0.005030 1.875880 0.013190 
#    z -0.015300 0.013190 1.842460 
# 
# From -- ./inp_files/10768.got.cif
#   From: 2010.06.25/outbox.cif.g09.slc.cpg/sg2_6_cif.got.tgz:10768.got - 2010.06.27 13:26:56.
