data_PCOD8009369
_publ_section_title
;
Structure prediction by ZEFSAII (Michael W. Deem and Ramdas Pophale) SiO2 
 PCOD8009369
Probable space group: P -1
;
_chemical_formula_sum "Si O2"
_cell_formula_units_Z 14
_cell_length_a 5.297849
_cell_length_b 24.258489
_cell_length_c 5.297739
_cell_angle_alpha 118.515861
_cell_angle_beta 106.108332
_cell_angle_gamma 101.442997
_cell_volume 528.786980
_symmetry_space_group_name_H-M "P -1"
_symmetry_group_IT_number 2
_symmetry_cell_setting 'triclinic'
loop_
_space_group_symop_operation_xyz
x,y,z
-x,-y,-z
loop_
_atom_site_type_symbol
_atom_site_label
_atom_site_fract_x
_atom_site_fract_y
_atom_site_fract_z
Si Si1 0.056938 0.454174 0.125705
Si Si2 0.548485 0.691505 0.656369
Si Si3 0.795432 0.919444 0.472707
Si Si4 0.671542 0.954175 0.011111
Si Si5 0.964927 0.191527 0.740060
Si Si6 0.446724 0.580550 0.785129
Si Si7 0.096205 0.749986 0.653722
O O1 0.245461 0.500671 0.508427
O O2 0.247986 0.412397 0.996868
O O3 0.744400 0.398916 0.014579
O O4 0.000000 0.500000 0.000000
O O5 0.482555 0.619430 0.614918
O O6 0.252457 0.698781 0.532771
O O7 0.755209 0.702936 0.491929
O O8 0.715846 0.749991 0.034087
O O9 0.584488 0.912395 0.160367
O O10 0.004483 0.880552 0.397961
O O11 0.615679 0.898916 0.643309
O O12 0.992249 0.999324 0.753857
O O13 0.500000 0.000000 0.000000
O O14 0.834063 0.198806 0.451312
O O15 0.789060 0.202964 0.958223
#
# Coordination Sequence:
#
# PCOD8009369 Si02
#       7
#     2   2   2   2   2   2   2
#     4  10  21  36  62  89 121 163 198 256 308 367
#     4  10  24  40  63  92 126 171 209 266 314 380
#     4  10  21  39  58  89 123 153 213 246 312 373
#     4  10  21  36  62  89 121 163 198 256 308 367
#     4  10  24  40  63  92 126 171 209 266 314 380
#     4  10  21  39  58  89 123 153 213 246 312 373
#     4  10  24  40  64  88 128 164 216 252 326 368
#
# _framework density 26.47569
#
# number of rings (size 3 to 8) (size 9 to 14) (size 15 to 20)
#    0.857    1.143    0.000    2.571    2.000    4.571 
#    0.000    0.000    0.000    0.000    0.000    0.000 
#    0.000    0.000    0.000    0.000    0.000    0.000 
#
# Total GULP energy -173514.382434 kJ/mol
# GULP energy per Si atom -12393.884460 kJ/mol
# Density = 2.641543 g / cm^3
# Si number density = 26.475690 Si / 1000 Ang^3
#
#
#
# Elastic Constant Matrix: (Units=GPa)
#
#
# Indices 1 2 3 4 5 6 
#
# 1 151.2413 45.3809 67.5087 -30.7964 -34.0287 -45.0199
# 2 45.3809 127.3618 36.8429 -49.9744 -12.6475 -27.4141
# 3 67.5087 36.8429 57.0677 -39.5345 0.1248 11.3712
# 4 -30.7964 -49.9744 -39.5345 57.6738 6.6583 2.9304
# 5 -34.0287 -12.6475 0.1248 6.6583 29.3386 -10.8289
# 6 -45.0199 -27.4141 11.3712 2.9304 -10.8289 46.0160
#
#
#
# Elastic Compliance Matrix: (Units=1/GPa)
#
#
# Indices 1 2 3 4 5 6 
#
# 1 -0.003702 -0.004451 0.013838 0.005738 -0.012359 -0.012967
# 2 -0.004451 0.012501 0.006196 0.013012 -0.002718 0.000094
# 3 0.013838 0.006196 -0.003292 0.006282 0.026088 0.023783
# 4 0.005738 0.013012 0.006282 0.034380 0.008748 0.011683
# 5 -0.012359 -0.002718 0.026088 0.008748 0.009676 -0.018438
# 6 -0.012967 0.000094 0.023783 0.011683 -0.018438 -0.001859
#
#
# Mechanical properties :
#
#
# Convention : Reuss Voigt Hill
#
# Bulk Modulus (GPa) = 27.26674 70.57065 48.91869
# Shear Modulus (GPa) = 173.83128 39.00156 106.41642
#
# Velocity S-wave (km/s) = 8.11169 3.84227 6.34675
# Velocity P-wave (km/s) = 9.90221 6.81152 8.49855
#
# Compressibility (1/GPa) = 0.03667472
#
# Stress axis : x y z
#
# Youngs Moduli (GPa) = -270.15604 79.99372 -303.80118
#
# Poissons Ratio (x) = 0.35604 4.20412
# Poissons Ratio (y) = -1.20244 1.88234
# Poissons Ratio (z) = 3.73853 -0.49564
#
# Static dielectric constant tensor:
#      x y z
#    x 5.018640 0.124070 -0.080550 
#    y 0.124070 4.404520 -0.079830 
#    z -0.080550 -0.079830 4.948510 
# 
# 
# High freq. dielectric constant tensor:
#      x y z
#    x 2.068660 0.006160 0.001370 
#    y 0.006160 2.046860 0.000760 
#    z 0.001370 0.000760 2.071730 
# 
# From -- ./inp_files/13633.got.cif
#   From: 2010.06.25/outbox.cif.g09.slc.cpg/sg2_7_cif.got.tgz:13633.got - 2010.06.27 13:26:56.
