data_PCOD8009782
_publ_section_title
;
Structure prediction by ZEFSAII (Michael W. Deem and Ramdas Pophale) SiO2 
 PCOD8009782
Probable space group: P -1
;
_chemical_formula_sum "Si O2"
_cell_formula_units_Z 14
_cell_length_a 13.288624
_cell_length_b 8.867305
_cell_length_c 9.157926
_cell_angle_alpha 135.747157
_cell_angle_beta 52.234312
_cell_angle_gamma 106.354153
_cell_volume 570.644167
_symmetry_space_group_name_H-M "P -1"
_symmetry_group_IT_number 2
_symmetry_cell_setting 'triclinic'
loop_
_space_group_symop_operation_xyz
x,y,z
-x,-y,-z
loop_
_atom_site_type_symbol
_atom_site_label
_atom_site_fract_x
_atom_site_fract_y
_atom_site_fract_z
Si Si1 0.003458 0.767397 0.404011
Si Si2 0.025904 0.200670 0.210345
Si Si3 0.420326 0.156756 0.471558
Si Si4 0.305413 0.970294 0.718938
Si Si5 0.216410 0.549299 0.547101
Si Si6 0.290295 0.101800 0.259647
Si Si7 0.245491 0.631507 0.908458
O O1 0.134375 0.597874 0.098265
O O2 0.020087 0.798032 0.582539
O O3 0.861577 0.735781 0.456477
O O4 0.000000 0.000000 0.500000
O O5 0.931871 0.433463 0.380823
O O6 0.183613 0.166697 0.033182
O O7 0.000000 0.000000 0.000000
O O8 0.346002 0.063042 0.597928
O O9 0.388956 0.053448 0.275114
O O10 0.577813 0.078003 0.298507
O O11 0.374935 0.427864 0.690110
O O12 0.273092 0.735441 0.544909
O O13 0.320585 0.294986 0.259620
O O14 0.193893 0.626172 0.788241
O O15 0.286727 0.864555 0.035307
#
# Coordination Sequence:
#
# PCOD8009782 Si02
#       7
#     2   2   2   2   2   2   2
#     4  10  21  37  61 101 132 161 217 266 322 388
#     4  10  21  38  66  94 131 170 204 275 325 373
#     4  10  24  43  67  91 131 182 209 266 323 387
#     4  10  22  43  64  95 131 172 223 257 322 394
#     4  10  23  41  67  97 130 172 211 270 331 375
#     4  10  22  39  65  94 126 174 213 259 330 379
#     4  10  23  43  65 101 131 166 219 269 319 394
#
# _framework density 24.533677000000001
#
# number of rings (size 3 to 8) (size 9 to 14) (size 15 to 20)
#    0.000    2.000    0.000    3.429   12.000    4.000 
#    2.571    9.286    0.000    0.000    0.000    0.000 
#    0.000    0.000    0.000    0.000    0.000    0.000 
#
# Total GULP energy -173458.215088 kJ/mol
# GULP energy per Si atom -12389.872506 kJ/mol
# Density = 2.447784 g / cm^3
# Si number density = 24.533677 Si / 1000 Ang^3
#
#
#
# Elastic Constant Matrix: (Units=GPa)
#
#
# Indices 1 2 3 4 5 6 
#
# 1 158.4033 56.9142 37.7759 8.6102 -13.4594 -30.0478
# 2 56.9142 122.5953 50.4641 17.9660 -2.0395 -15.6335
# 3 37.7759 50.4641 83.9656 8.8298 -6.9240 -5.4804
# 4 8.6102 17.9660 8.8298 37.1943 2.2206 3.8102
# 5 -13.4594 -2.0395 -6.9240 2.2206 37.0580 8.5193
# 6 -30.0478 -15.6335 -5.4804 3.8102 8.5193 42.0045
#
#
#
# Elastic Compliance Matrix: (Units=1/GPa)
#
#
# Indices 1 2 3 4 5 6 
#
# 1 0.008777 -0.002510 -0.001887 -0.000966 0.001639 0.004854
# 2 -0.002510 0.012799 -0.006058 -0.004358 -0.001751 0.002928
# 3 -0.001887 -0.006058 0.016538 -0.000519 0.002543 -0.001915
# 4 -0.000966 -0.004358 -0.000519 0.029913 -0.001373 -0.004816
# 5 0.001639 -0.001751 0.002543 -0.001373 0.029177 -0.004940
# 6 0.004854 0.002928 -0.001915 -0.004816 -0.004940 0.029558
#
#
# Mechanical properties :
#
#
# Convention : Reuss Voigt Hill
#
# Bulk Modulus (GPa) = 58.12187 72.80808 65.46498
# Shear Modulus (GPa) = 32.59294 37.90533 35.24914
#
# Velocity S-wave (km/s) = 3.64881 3.93495 3.79458
# Velocity P-wave (km/s) = 6.44157 7.09834 6.77791
#
# Compressibility (1/GPa) = 0.01720523
#
# Stress axis : x y z
#
# Youngs Moduli (GPa) = 113.92859 78.13161 60.46518
#
# Poissons Ratio (x) = 0.19615 0.11407
# Poissons Ratio (y) = 0.28602 0.36629
# Poissons Ratio (z) = 0.21493 0.47330
#
# Static dielectric constant tensor:
#      x y z
#    x 3.806450 -1.411210 -0.210230 
#    y -1.411210 2.553000 0.903540 
#    z -0.210230 0.903540 3.876330 
# 
# 
# High freq. dielectric constant tensor:
#      x y z
#    x 1.989300 -0.009250 -0.002870 
#    y -0.009250 1.997700 0.019720 
#    z -0.002870 0.019720 1.961270 
# 
# From -- ./inp_files/245756.got.cif
#   From: 2010.06.25/outbox.cif.g09.slc.cpg/sg2_123_cif.got.tgz:245756.got - 2010.06.27 13:26:56.
