data_PCOD8009695
_publ_section_title
;
Structure prediction by ZEFSAII (Michael W. Deem and Ramdas Pophale) SiO2 
 PCOD8009695
Probable space group: P -1
;
_chemical_formula_sum "Si O2"
_cell_formula_units_Z 16
_cell_length_a 7.284715
_cell_length_b 18.334150
_cell_length_c 12.305162
_cell_angle_alpha 149.807406
_cell_angle_beta 71.465432
_cell_angle_gamma 119.528106
_cell_volume 696.864970
_symmetry_space_group_name_H-M "P -1"
_symmetry_group_IT_number 2
_symmetry_cell_setting 'triclinic'
loop_
_space_group_symop_operation_xyz
x,y,z
-x,-y,-z
loop_
_atom_site_type_symbol
_atom_site_label
_atom_site_fract_x
_atom_site_fract_y
_atom_site_fract_z
Si Si1 0.721202 0.406666 0.253829
Si Si2 0.194544 0.511891 0.347390
Si Si3 0.695634 0.149710 0.308061
Si Si4 0.401549 0.315055 0.365819
Si Si5 0.228508 0.820105 0.216720
Si Si6 0.889312 0.821700 0.126356
Si Si7 0.766956 0.017802 0.915765
Si Si8 0.700554 0.054594 0.416657
O O1 0.475566 0.287167 0.194431
O O2 0.736912 0.585994 0.468669
O O3 0.933611 0.429656 0.314651
O O4 0.747498 0.330888 0.036932
O O5 0.271596 0.665681 0.447980
O O6 0.345812 0.577145 0.507760
O O7 0.251742 0.373461 0.109362
O O8 0.447015 0.012494 0.152640
O O9 0.790966 0.110831 0.350097
O O10 0.825326 0.142991 0.167275
O O11 0.264369 0.153279 0.250077
O O12 0.035601 0.850840 0.243018
O O13 0.442736 0.990311 0.374904
O O14 0.194451 0.795746 0.323097
O O15 0.735087 0.907256 0.273059
O O16 0.029517 0.901985 0.096146
#
# Coordination Sequence:
#
# PCOD8009695 Si02
#       8
#     2   2   2   2   2   2   2   2
#     4  10  21  37  60  86 122 156 201 239 305 351
#     4  10  23  36  59  87 123 154 193 240 304 357
#     4  10  22  40  60  92 122 162 196 245 308 355
#     4  10  21  37  59  89 123 157 191 247 299 365
#     4  10  22  41  62  89 120 161 202 252 296 350
#     4  11  23  39  63  93 120 157 201 251 299 355
#     4  10  22  37  63  89 129 152 197 255 302 352
#     4  11  22  40  67  85 119 161 211 243 294 360
#
# _framework density 22.959973000000002
#
# number of rings (size 3 to 8) (size 9 to 14) (size 15 to 20)
#    0.000    1.750    1.250    2.250   12.250    1.500 
#    0.000    2.500    2.750    3.000    0.000    0.000 
#    0.000    0.000    0.000    0.000    0.000    0.000 
#
# Total GULP energy -198230.220420 kJ/mol
# GULP energy per Si atom -12389.388776 kJ/mol
# Density = 2.290771 g / cm^3
# Si number density = 22.959973 Si / 1000 Ang^3
#
#
#
# Elastic Constant Matrix: (Units=GPa)
#
#
# Indices 1 2 3 4 5 6 
#
# 1 41.8709 16.0575 28.1114 -4.1647 -11.6839 -14.8420
# 2 16.0575 69.6873 38.3650 -13.6480 10.2041 -22.9944
# 3 28.1114 38.3650 119.0947 -5.7711 -5.8262 -16.5198
# 4 -4.1647 -13.6480 -5.7711 33.9364 -3.4150 0.0047
# 5 -11.6839 10.2041 -5.8262 -3.4150 31.8938 7.9824
# 6 -14.8420 -22.9944 -16.5198 0.0047 7.9824 31.6504
#
#
#
# Elastic Compliance Matrix: (Units=1/GPa)
#
#
# Indices 1 2 3 4 5 6 
#
# 1 0.035217 -0.003439 -0.005337 0.003164 0.011266 0.008389
# 2 -0.003439 0.029353 -0.006156 0.008725 -0.015979 0.020529
# 3 -0.005337 -0.006156 0.011492 -0.000933 0.002410 -0.001584
# 4 0.003164 0.008725 -0.000933 0.033195 -0.000089 0.007353
# 5 0.011266 -0.015979 0.002410 -0.000089 0.045142 -0.016453
# 6 0.008389 0.020529 -0.001584 0.007353 -0.016453 0.053765
#
#
# Mechanical properties :
#
#
# Convention : Reuss Voigt Hill
#
# Bulk Modulus (GPa) = 21.64478 43.96897 32.80687
# Shear Modulus (GPa) = 19.72953 29.37072 24.55013
#
# Velocity S-wave (km/s) = 2.93456 3.58049 3.27350
# Velocity P-wave (km/s) = 4.57492 6.02371 5.34859
#
# Compressibility (1/GPa) = 0.04620052
#
# Stress axis : x y z
#
# Youngs Moduli (GPa) = 28.39569 34.06762 87.01500
#
# Poissons Ratio (x) = 0.11714 0.46439
# Poissons Ratio (y) = 0.09764 0.53562
# Poissons Ratio (z) = 0.15154 0.20970
#
# Static dielectric constant tensor:
#      x y z
#    x 4.237140 -0.291740 0.028920 
#    y -0.291740 3.844160 -0.058960 
#    z 0.028920 -0.058960 4.345620 
# 
# 
# High freq. dielectric constant tensor:
#      x y z
#    x 1.914600 -0.015800 0.002170 
#    y -0.015800 1.872840 0.001310 
#    z 0.002170 0.001310 1.908250 
# 
# From -- ./inp_files/402473.got.cif
#   From: 2010.06.25/outbox.cif.g09.slc.cpg/sg2_202_cif.got.tgz:402473.got - 2010.06.27 13:26:56.
