data_PCOD8009424
_publ_section_title
;
Structure prediction by ZEFSAII (Michael W. Deem and Ramdas Pophale) SiO2 
 PCOD8009424
Probable space group: P -1
;
_chemical_formula_sum "Si O2"
_cell_formula_units_Z 14
_cell_length_a 10.646777
_cell_length_b 5.199110
_cell_length_c 15.561294
_cell_angle_alpha 116.569347
_cell_angle_beta 120.173859
_cell_angle_gamma 96.236394
_cell_volume 600.906865
_symmetry_space_group_name_H-M "P -1"
_symmetry_group_IT_number 2
_symmetry_cell_setting 'triclinic'
loop_
_space_group_symop_operation_xyz
x,y,z
-x,-y,-z
loop_
_atom_site_type_symbol
_atom_site_label
_atom_site_fract_x
_atom_site_fract_y
_atom_site_fract_z
Si Si1 0.122327 0.235655 0.510011
Si Si2 0.353404 0.048376 0.110703
Si Si3 0.066073 0.708208 0.838914
Si Si4 0.477025 0.395733 0.878798
Si Si5 0.255786 0.291970 0.279192
Si Si6 0.229929 0.900253 0.370098
Si Si7 0.166299 0.825538 0.703551
O O1 0.223319 0.575333 0.640703
O O2 0.019063 0.273572 0.400103
O O3 0.243962 0.101404 0.492446
O O4 0.000000 0.000000 0.500000
O O5 0.467600 0.298444 0.117449
O O6 0.334467 0.248289 0.212794
O O7 0.426233 0.815099 0.136617
O O8 0.179992 0.825299 0.977857
O O9 0.177486 0.810321 0.807817
O O10 0.939253 0.865871 0.820821
O O11 0.961763 0.323331 0.746905
O O12 0.287043 0.176600 0.764265
O O13 0.500000 0.500000 0.000000
O O14 0.321776 0.673005 0.378151
O O15 0.307605 0.134534 0.352130
#
# Coordination Sequence:
#
# PCOD8009424 Si02
#       7
#     2   2   2   2   2   2   2
#     4  11  21  38  68  96 125 165 212 281 325 368
#     4  12  26  42  66  92 134 184 208 251 319 392
#     4  10  22  37  66  96 131 165 213 272 314 376
#     4  12  28  43  65  93 137 177 208 256 316 402
#     4  10  22  40  62  96 131 166 219 263 315 373
#     4  10  21  36  63  96 126 157 207 283 315 362
#     4  11  24  41  63 100 131 164 217 263 333 376
#
# _framework density 23.298120000000001
#
# number of rings (size 3 to 8) (size 9 to 14) (size 15 to 20)
#    0.857    0.286    4.286    1.714    8.000    0.571 
#    0.000    0.000    0.000    5.143    0.000    0.000 
#    0.000    0.000    0.000    0.000    0.000    0.000 
#
# Total GULP energy -173592.624642 kJ/mol
# GULP energy per Si atom -12399.473189 kJ/mol
# Density = 2.324509 g / cm^3
# Si number density = 23.298120 Si / 1000 Ang^3
#
#
#
# Elastic Constant Matrix: (Units=GPa)
#
#
# Indices 1 2 3 4 5 6 
#
# 1 73.3174 3.0887 19.3605 0.8016 -36.8428 -7.7366
# 2 3.0887 99.8604 4.1904 -1.7214 -11.1106 2.4822
# 3 19.3605 4.1904 41.3948 6.9764 -27.9378 5.9404
# 4 0.8016 -1.7214 6.9764 35.1330 1.4993 -5.3236
# 5 -36.8428 -11.1106 -27.9378 1.4993 43.9080 -1.2099
# 6 -7.7366 2.4822 5.9404 -5.3236 -1.2099 37.6049
#
#
#
# Elastic Compliance Matrix: (Units=1/GPa)
#
#
# Indices 1 2 3 4 5 6 
#
# 1 0.025320 0.001610 0.003998 -0.001571 0.024389 0.005034
# 2 0.001610 0.010467 0.001713 -0.000155 0.005082 -0.000489
# 3 0.003998 0.001713 0.049089 -0.012421 0.035235 -0.007670
# 4 -0.001571 -0.000155 -0.012421 0.032286 -0.010201 0.005892
# 5 0.024389 0.005082 0.035235 -0.010201 0.067289 -0.000163
# 6 0.005034 -0.000489 -0.007670 0.005892 -0.000163 0.029701
#
#
# Mechanical properties :
#
#
# Convention : Reuss Voigt Hill
#
# Bulk Modulus (GPa) = 10.04830 29.76130 19.90480
# Shear Modulus (GPa) = 21.48855 35.85806 28.67330
#
# Velocity S-wave (km/s) = 3.04028 3.92739 3.51196
# Velocity P-wave (km/s) = 4.08004 5.77648 5.00072
#
# Compressibility (1/GPa) = 0.09951934
#
# Stress axis : x y z
#
# Youngs Moduli (GPa) = 39.49430 95.53686 20.37114
#
# Poissons Ratio (x) = -0.15386 -0.08144
# Poissons Ratio (y) = -0.06361 -0.03490
# Poissons Ratio (z) = -0.15789 -0.16368
#
# Static dielectric constant tensor:
#      x y z
#    x 3.993900 -0.181130 -0.167640 
#    y -0.181130 4.148940 0.114890 
#    z -0.167640 0.114890 4.121280 
# 
# 
# High freq. dielectric constant tensor:
#      x y z
#    x 1.909230 -0.004730 -0.022150 
#    y -0.004730 1.923510 0.006150 
#    z -0.022150 0.006150 1.911870 
# 
# From -- ./inp_files/425608.got.cif
#   From: 2010.06.25/outbox.cif.g09.slc.cpg/sg2_213_cif.got.tgz:425608.got - 2010.06.27 13:26:56.
