data_PCOD8009120
_publ_section_title
;
Structure prediction by ZEFSAII (Michael W. Deem and Ramdas Pophale) SiO2 
 PCOD8009120
Probable space group: P -1
;
_chemical_formula_sum "Si O2"
_cell_formula_units_Z 16
_cell_length_a 23.551285
_cell_length_b 12.486247
_cell_length_c 12.286506
_cell_angle_alpha 22.416992
_cell_angle_beta 36.398513
_cell_angle_gamma 34.994095
_cell_volume 771.222898
_symmetry_space_group_name_H-M "P -1"
_symmetry_group_IT_number 2
_symmetry_cell_setting 'triclinic'
loop_
_space_group_symop_operation_xyz
x,y,z
-x,-y,-z
loop_
_atom_site_type_symbol
_atom_site_label
_atom_site_fract_x
_atom_site_fract_y
_atom_site_fract_z
Si Si1 0.559433 0.225973 0.808333
Si Si2 0.901221 0.558107 0.171467
Si Si3 0.170309 0.886068 0.577913
Si Si4 0.102833 0.512756 0.384700
Si Si5 0.216066 0.891031 0.746892
Si Si6 0.246964 0.265247 0.955873
Si Si7 0.943898 0.056957 0.741840
Si Si8 0.570030 0.152500 0.608071
O O1 0.594366 0.177986 0.673821
O O2 0.527193 0.581159 0.540204
O O3 0.648508 0.014866 0.944493
O O4 0.458259 0.147890 0.070002
O O5 0.910740 0.249333 0.503618
O O6 0.797507 0.661116 0.165398
O O7 0.000000 0.500000 0.000000
O O8 0.889408 0.808452 0.048308
O O9 0.181329 0.983351 0.591328
O O10 0.170320 0.163844 0.243762
O O11 0.256201 0.570472 0.707772
O O12 0.061434 0.855291 0.753879
O O13 0.083200 0.733156 0.308950
O O14 0.000000 0.500000 0.500000
O O15 0.161975 0.170678 0.646986
O O16 0.178728 0.613719 0.093692
O O17 0.335927 0.836528 0.620709
#
# Coordination Sequence:
#
# PCOD8009120 Si02
#       8
#     2   2   2   2   2   2   2   2
#     4  10  21  36  56  89 121 153 190 245 299 357
#     4  12  23  39  60  85 118 161 201 238 294 355
#     4  12  22  34  59  86 124 157 199 236 284 352
#     4  12  26  40  60  87 120 160 207 244 288 349
#     4  12  24  39  60  89 118 168 197 235 299 359
#     4  12  23  36  58  91 120 162 195 234 298 361
#     4  12  24  41  56  85 122 159 200 249 279 340
#     4  10  21  37  58  85 122 155 191 242 299 362
#
# _framework density 20.746271
#
# number of rings (size 3 to 8) (size 9 to 14) (size 15 to 20)
#    0.000    0.500    5.000    4.500    5.250    0.000 
#    0.000    0.000    0.000    0.000    0.000   17.500 
#    0.000    0.000    0.000    0.000    0.000    0.000 
#
# Total GULP energy -198293.794591 kJ/mol
# GULP energy per Si atom -12393.362162 kJ/mol
# Density = 2.069905 g / cm^3
# Si number density = 20.746271 Si / 1000 Ang^3
#
#
#
# Elastic Constant Matrix: (Units=GPa)
#
#
# Indices 1 2 3 4 5 6 
#
# 1 73.1288 24.7133 -5.0466 -9.6881 10.2881 -4.9882
# 2 24.7133 54.2571 15.6875 -2.5662 3.7520 -8.5441
# 3 -5.0466 15.6875 73.4449 -8.4169 -2.0527 0.1381
# 4 -9.6881 -2.5662 -8.4169 40.3901 -5.3655 -4.1148
# 5 10.2881 3.7520 -2.0527 -5.3655 28.3984 -12.1025
# 6 -4.9882 -8.5441 0.1381 -4.1148 -12.1025 32.5204
#
#
#
# Elastic Compliance Matrix: (Units=1/GPa)
#
#
# Indices 1 2 3 4 5 6 
#
# 1 0.017998 -0.008816 0.003417 0.003746 -0.004772 -0.000872
# 2 -0.008816 0.024920 -0.006002 -0.000967 0.001732 0.005743
# 3 0.003417 -0.006002 0.015613 0.003860 0.001360 -0.000125
# 4 0.003746 -0.000967 0.003860 0.028006 0.007108 0.006493
# 5 -0.004772 0.001732 0.001360 0.007108 0.045659 0.017609
# 6 -0.000872 0.005743 -0.000125 0.006493 0.017609 0.039500
#
#
# Mechanical properties :
#
#
# Convention : Reuss Voigt Hill
#
# Bulk Modulus (GPa) = 27.98740 30.17101 29.07921
# Shear Modulus (GPa) = 24.22400 31.29355 27.75877
#
# Velocity S-wave (km/s) = 3.42077 3.88802 3.66185
# Velocity P-wave (km/s) = 5.39646 5.89322 5.65030
#
# Compressibility (1/GPa) = 0.03573036
#
# Stress axis : x y z
#
# Youngs Moduli (GPa) = 55.56229 40.12771 64.04918
#
# Poissons Ratio (x) = 0.35376 -0.21888
# Poissons Ratio (y) = 0.48983 0.38441
# Poissons Ratio (z) = -0.18987 0.24084
#
# Static dielectric constant tensor:
#      x y z
#    x 3.556740 -0.191700 -0.048820 
#    y -0.191700 2.919080 -0.171040 
#    z -0.048820 -0.171040 4.043770 
# 
# 
# High freq. dielectric constant tensor:
#      x y z
#    x 1.787300 -0.018690 -0.004920 
#    y -0.018690 1.787490 -0.017020 
#    z -0.004920 -0.017020 1.838740 
# 
# From -- ./inp_files/455723.got.cif
#   From: 2010.06.25/outbox.cif.g09.slc.cpg/sg2_228_cif.got.tgz:455723.got - 2010.06.27 13:26:56.
