data_PCOD8009886
_publ_section_title
;
Structure prediction by ZEFSAII (Michael W. Deem and Ramdas Pophale) SiO2 
 PCOD8009886
Probable space group: P -1
;
_chemical_formula_sum "Si O2"
_cell_formula_units_Z 14
_cell_length_a 11.826656
_cell_length_b 12.299997
_cell_length_c 8.956680
_cell_angle_alpha 84.072674
_cell_angle_beta 142.028861
_cell_angle_gamma 113.463320
_cell_volume 682.231858
_symmetry_space_group_name_H-M "P -1"
_symmetry_group_IT_number 2
_symmetry_cell_setting 'triclinic'
loop_
_space_group_symop_operation_xyz
x,y,z
-x,-y,-z
loop_
_atom_site_type_symbol
_atom_site_label
_atom_site_fract_x
_atom_site_fract_y
_atom_site_fract_z
Si Si1 0.741556 0.400285 0.644917
Si Si2 0.351065 0.358805 0.799877
Si Si3 0.548342 0.277522 0.756353
Si Si4 0.748827 0.944074 0.736183
Si Si5 0.989131 0.325422 0.223846
Si Si6 0.317807 0.254322 0.085552
Si Si7 0.075724 0.780936 0.130900
O O1 0.648451 0.384949 0.716883
O O2 0.942804 0.539944 0.804709
O O3 0.548926 0.381706 0.338726
O O4 0.811159 0.297344 0.698882
O O5 0.468521 0.330940 0.795447
O O6 0.128521 0.340402 0.510892
O O7 0.500000 0.500000 0.000000
O O8 0.284653 0.250813 0.873753
O O9 0.359700 0.144270 0.509767
O O10 0.740169 0.260007 0.023300
O O11 0.657156 0.861517 0.805561
O O12 0.730422 0.069637 0.683353
O O13 0.000000 0.000000 0.000000
O O14 0.014123 0.243643 0.129741
O O15 0.121836 0.257351 0.959362
#
# Coordination Sequence:
#
# PCOD8009886 Si02
#       7
#     2   2   2   2   2   2   2
#     4  10  21  37  62  91 117 152 200 253 292 345
#     4  12  25  38  58  88 128 166 188 233 309 361
#     4  10  23  39  60  89 121 151 204 247 292 348
#     4   9  19  42  66  87 115 154 204 253 288 344
#     4  11  23  38  61  92 121 156 200 246 294 354
#     4  10  22  38  59  90 118 158 196 242 293 355
#     4  10  21  39  67  88 113 154 203 250 299 336
#
# _framework density 20.520882
#
# number of rings (size 3 to 8) (size 9 to 14) (size 15 to 20)
#    0.000    1.714    1.429    4.286    4.000    8.000 
#    0.000    6.429    0.000    7.714    0.000    0.000 
#    0.000    0.000    0.000    0.000    0.000    0.000 
#
# Total GULP energy -173498.996811 kJ/mol
# GULP energy per Si atom -12392.785486 kJ/mol
# Density = 2.047418 g / cm^3
# Si number density = 20.520882 Si / 1000 Ang^3
#
#
#
# Elastic Constant Matrix: (Units=GPa)
#
#
# Indices 1 2 3 4 5 6 
#
# 1 101.2102 60.3876 63.4796 -3.4639 -2.8778 -13.2358
# 2 60.3876 101.0367 44.2890 14.5639 -11.0573 -12.0879
# 3 63.4796 44.2890 157.9359 5.9667 -2.2967 -1.0213
# 4 -3.4639 14.5639 5.9667 37.4236 2.6146 -0.3696
# 5 -2.8778 -11.0573 -2.2967 2.6146 31.0642 3.2284
# 6 -13.2358 -12.0879 -1.0213 -0.3696 3.2284 17.6514
#
#
#
# Elastic Compliance Matrix: (Units=1/GPa)
#
#
# Indices 1 2 3 4 5 6 
#
# 1 0.021094 -0.010415 -0.005828 0.007288 -0.003752 0.009187
# 2 -0.010415 0.018728 -0.000632 -0.008533 0.005988 0.003705
# 3 -0.005828 -0.000632 0.008898 -0.001791 0.000503 -0.004418
# 4 0.007288 -0.008533 -0.001791 0.031380 -0.005254 0.001135
# 5 -0.003752 0.005988 0.000503 -0.005254 0.034994 -0.005194
# 6 0.009187 0.003705 -0.004418 0.001135 -0.005194 0.066797
#
#
# Mechanical properties :
#
#
# Convention : Reuss Voigt Hill
#
# Bulk Modulus (GPa) = 66.80386 77.38836 72.09611
# Shear Modulus (GPa) = 22.66216 30.02961 26.34589
#
# Velocity S-wave (km/s) = 3.32678 3.82955 3.58698
# Velocity P-wave (km/s) = 6.88341 7.57283 7.23634
#
# Compressibility (1/GPa) = 0.01496919
#
# Stress axis : x y z
#
# Youngs Moduli (GPa) = 47.40650 53.39664 112.38472
#
# Poissons Ratio (x) = 0.55611 0.65502
# Poissons Ratio (y) = 0.49372 0.07106
# Poissons Ratio (z) = 0.27630 0.03376
#
# Static dielectric constant tensor:
#      x y z
#    x 3.543590 0.083270 0.171340 
#    y 0.083270 4.194670 0.266030 
#    z 0.171340 0.266030 4.168100 
# 
# 
# High freq. dielectric constant tensor:
#      x y z
#    x 1.783490 -0.001090 0.019190 
#    y -0.001090 1.794360 0.001860 
#    z 0.019190 0.001860 1.824460 
# 
# From -- ./inp_files/258742.got.cif
#   From: 2010.06.25/outbox.cif.g09.slc.cpg/sg2_130_cif.got.tgz:258742.got - 2010.06.27 13:26:56.
