data_PCOD8009232
_publ_section_title
;
Structure prediction by ZEFSAII (Michael W. Deem and Ramdas Pophale) SiO2 
 PCOD8009232
Probable space group: P -1
;
_chemical_formula_sum "Si O2"
_cell_formula_units_Z 16
_cell_length_a 8.722860
_cell_length_b 18.537905
_cell_length_c 6.362145
_cell_angle_alpha 94.508836
_cell_angle_beta 134.442273
_cell_angle_gamma 87.488198
_cell_volume 732.140859
_symmetry_space_group_name_H-M "P -1"
_symmetry_group_IT_number 2
_symmetry_cell_setting 'triclinic'
loop_
_space_group_symop_operation_xyz
x,y,z
-x,-y,-z
loop_
_atom_site_type_symbol
_atom_site_label
_atom_site_fract_x
_atom_site_fract_y
_atom_site_fract_z
Si Si1 0.094482 0.335787 0.848395
Si Si2 0.597482 0.717824 0.521981
Si Si3 0.612991 0.536590 0.921274
Si Si4 0.702626 0.407246 0.706281
Si Si5 0.924392 0.776245 0.529725
Si Si6 0.386693 0.959754 0.571215
Si Si7 0.304025 0.842054 0.171081
Si Si8 0.639575 0.905053 0.180287
O O1 0.981504 0.277811 0.568865
O O2 0.922973 0.369194 0.849429
O O3 0.265809 0.291802 0.138300
O O4 0.214876 0.399680 0.846451
O O5 0.448557 0.647589 0.318856
O O6 0.740973 0.729308 0.456914
O O7 0.450537 0.787239 0.429167
O O8 0.748338 0.477006 0.910129
O O9 0.416647 0.568734 0.611836
O O10 0.500000 0.500000 0.000000
O O11 0.829356 0.847680 0.346771
O O12 0.100610 0.799592 0.873593
O O13 0.230911 0.900421 0.292367
O O14 0.500000 0.000000 0.500000
O O15 0.265551 0.019268 0.611045
O O16 0.563020 0.918990 0.873029
O O17 0.434977 0.878461 0.113868
#
# Coordination Sequence:
#
# PCOD8009232 Si02
#       8
#     2   2   2   2   2   2   2   2
#     4  11  23  38  61  89 120 157 199 246 297 357
#     4  10  22  40  59  84 120 156 195 247 297 353
#     4  10  22  40  61  86 120 157 195 247 299 349
#     4  10  22  39  61  89 116 153 202 245 294 354
#     4  11  23  37  59  91 120 156 199 243 298 358
#     4   9  18  38  61  82 116 160 196 243 297 345
#     4  10  21  36  59  87 118 154 197 245 296 351
#     4   9  20  38  59  85 119 154 198 245 293 351
#
# _framework density 21.853717
#
# number of rings (size 3 to 8) (size 9 to 14) (size 15 to 20)
#    0.000    2.000    0.000    2.625    0.000    9.000 
#    0.000    5.625    0.000    0.000    0.000    0.000 
#    0.000    0.000    0.000    0.000    0.000    0.000 
#
# Total GULP energy -198357.054602 kJ/mol
# GULP energy per Si atom -12397.315913 kJ/mol
# Density = 2.180398 g / cm^3
# Si number density = 21.853717 Si / 1000 Ang^3
#
#
#
# Elastic Constant Matrix: (Units=GPa)
#
#
# Indices 1 2 3 4 5 6 
#
# 1 66.8555 47.4359 44.6072 -9.7636 7.1519 -9.3617
# 2 47.4359 140.5371 75.4520 3.1613 -1.6815 -10.9178
# 3 44.6072 75.4520 110.4988 11.8070 -5.6559 -5.0801
# 4 -9.7636 3.1613 11.8070 41.5193 2.7183 -14.4297
# 5 7.1519 -1.6815 -5.6559 2.7183 24.7048 -0.3983
# 6 -9.3617 -10.9178 -5.0801 -14.4297 -0.3983 28.7265
#
#
#
# Elastic Compliance Matrix: (Units=1/GPa)
#
#
# Indices 1 2 3 4 5 6 
#
# 1 0.031967 -0.003479 -0.012416 0.017641 -0.014024 0.015567
# 2 -0.003479 0.012202 -0.006916 0.001214 0.000168 0.002893
# 3 -0.012416 -0.006916 0.020088 -0.011787 0.008876 -0.008920
# 4 0.017641 0.001214 -0.011787 0.040759 -0.011814 0.024436
# 5 -0.014024 0.000168 0.008876 -0.011814 0.047749 -0.008209
# 6 0.015567 0.002893 -0.008920 0.024436 -0.008209 0.051567
#
#
# Mechanical properties :
#
#
# Convention : Reuss Voigt Hill
#
# Bulk Modulus (GPa) = 53.66209 72.54240 63.10224
# Shear Modulus (GPa) = 19.51864 29.01653 24.26758
#
# Velocity S-wave (km/s) = 2.99180 3.64780 3.33597
# Velocity P-wave (km/s) = 6.04508 7.14202 6.61632
#
# Compressibility (1/GPa) = 0.01863513
#
# Stress axis : x y z
#
# Youngs Moduli (GPa) = 31.28254 81.95210 49.78080
#
# Poissons Ratio (x) = 0.28512 0.61808
# Poissons Ratio (y) = 0.10884 0.34427
# Poissons Ratio (z) = 0.38841 0.56676
#
# Static dielectric constant tensor:
#      x y z
#    x 3.630340 0.023280 -0.131400 
#    y 0.023280 4.535710 0.030220 
#    z -0.131400 0.030220 3.836130 
# 
# 
# High freq. dielectric constant tensor:
#      x y z
#    x 1.835960 0.002780 -0.013660 
#    y 0.002780 1.888890 -0.003050 
#    z -0.013660 -0.003050 1.850340 
# 
# From -- ./inp_files/10721.got.cif
#   From: 2010.06.25/outbox.cif.g09.slc.cpg/sg2_6_cif.got.tgz:10721.got - 2010.06.27 13:26:56.
