data_PCOD8009411
_publ_section_title
;
Structure prediction by ZEFSAII (Michael W. Deem and Ramdas Pophale) SiO2 
 PCOD8009411
Probable space group: P -1
;
_chemical_formula_sum "Si O2"
_cell_formula_units_Z 16
_cell_length_a 19.018534
_cell_length_b 5.216529
_cell_length_c 15.170186
_cell_angle_alpha 80.707333
_cell_angle_beta 29.655633
_cell_angle_gamma 81.881123
_cell_volume 734.901104
_symmetry_space_group_name_H-M "P -1"
_symmetry_group_IT_number 2
_symmetry_cell_setting 'triclinic'
loop_
_space_group_symop_operation_xyz
x,y,z
-x,-y,-z
loop_
_atom_site_type_symbol
_atom_site_label
_atom_site_fract_x
_atom_site_fract_y
_atom_site_fract_z
Si Si1 0.277881 0.886858 0.417720
Si Si2 0.254239 0.606925 0.983853
Si Si3 0.105495 0.825161 0.779577
Si Si4 0.833429 0.012529 0.657392
Si Si5 0.215057 0.163027 0.911621
Si Si6 0.571032 0.647702 0.686182
Si Si7 0.149423 0.523601 0.284420
Si Si8 0.746911 0.708294 0.320502
O O1 0.154512 0.876877 0.624167
O O2 0.193042 0.937395 0.418320
O O3 0.362174 0.617190 0.335571
O O4 0.385927 0.119178 0.308808
O O5 0.133971 0.570659 0.193119
O O6 0.259927 0.353834 0.930305
O O7 0.402301 0.628552 0.872340
O O8 0.221593 0.864510 0.950014
O O9 0.185332 0.576623 0.745993
O O10 0.135049 0.080162 0.791480
O O11 0.939984 0.764619 0.959389
O O12 0.763188 0.240260 0.779910
O O13 0.762704 0.741312 0.779495
O O14 0.000000 0.000000 0.500000
O O15 0.314020 0.212431 0.714513
O O16 0.618966 0.708625 0.530159
O O17 0.000000 0.500000 0.500000
#
# Coordination Sequence:
#
# PCOD8009411 Si02
#       8
#     2   2   2   2   2   2   2   2
#     4  10  21  39  66  90 119 169 200 243 312 359
#     4  12  26  41  60  93 123 166 206 255 297 357
#     4  10  21  36  63  92 128 155 205 252 307 369
#     4  10  21  38  63  94 119 150 199 257 305 367
#     4  12  24  37  65  93 126 159 210 253 306 356
#     4  10  23  43  61  86 131 165 208 240 291 373
#     4  10  23  39  60  85 127 150 193 262 310 355
#     4  10  21  41  61  91 125 168 197 255 302 356
#
# _framework density 21.771635
#
# number of rings (size 3 to 8) (size 9 to 14) (size 15 to 20)
#    0.000    1.500    0.000    4.500    7.000    1.000 
#    0.000    3.750    0.000    0.000    0.000    0.000 
#    0.000    0.000    0.000    0.000    0.000    0.000 
#
# Total GULP energy -198380.682647 kJ/mol
# GULP energy per Si atom -12398.792665 kJ/mol
# Density = 2.172208 g / cm^3
# Si number density = 21.771635 Si / 1000 Ang^3
#
#
#
# Elastic Constant Matrix: (Units=GPa)
#
#
# Indices 1 2 3 4 5 6 
#
# 1 123.8152 46.3492 36.2331 -11.1643 29.0223 -5.2802
# 2 46.3492 157.5700 12.9211 -20.7246 19.8594 12.2307
# 3 36.2331 12.9211 54.4317 -8.1993 3.5100 -6.2073
# 4 -11.1643 -20.7246 -8.1993 15.6724 -2.7702 4.1656
# 5 29.0223 19.8594 3.5100 -2.7702 31.0943 -8.4994
# 6 -5.2802 12.2307 -6.2073 4.1656 -8.4994 43.3546
#
#
#
# Elastic Compliance Matrix: (Units=1/GPa)
#
#
# Indices 1 2 3 4 5 6 
#
# 1 0.013701 -0.001641 -0.007890 0.001867 -0.011051 -0.001344
# 2 -0.001641 0.009323 0.000414 0.011824 -0.004738 -0.004835
# 3 -0.007890 0.000414 0.024696 0.008125 0.005806 0.002816
# 4 0.001867 0.011824 0.008125 0.087069 -0.005571 -0.011403
# 5 -0.011051 -0.004738 0.005806 -0.005571 0.047252 0.010621
# 6 -0.001344 -0.004835 0.002816 -0.011403 0.010621 0.027847
#
#
# Mechanical properties :
#
#
# Convention : Reuss Voigt Hill
#
# Bulk Modulus (GPa) = 33.91375 58.53595 46.22485
# Shear Modulus (GPa) = 21.01289 34.04514 27.52901
#
# Velocity S-wave (km/s) = 3.11006 3.95870 3.55976
# Velocity P-wave (km/s) = 5.33924 6.91663 6.17848
#
# Compressibility (1/GPa) = 0.02948656
#
# Stress axis : x y z
#
# Youngs Moduli (GPa) = 72.98785 107.26618 40.49207
#
# Poissons Ratio (x) = 0.17597 0.31949
# Poissons Ratio (y) = 0.11974 -0.01677
# Poissons Ratio (z) = 0.57589 -0.04443
#
# Static dielectric constant tensor:
#      x y z
#    x 4.090510 0.991470 0.297700 
#    y 0.991470 7.201180 -0.116590 
#    z 0.297700 -0.116590 3.780170 
# 
# 
# High freq. dielectric constant tensor:
#      x y z
#    x 1.853330 0.010350 0.023610 
#    y 0.010350 1.885350 -0.010830 
#    z 0.023610 -0.010830 1.834890 
# 
# From -- ./inp_files/459332.got.cif
#   From: 2010.06.25/outbox.cif.g09.slc.cpg/sg2_230_cif.got.tgz:459332.got - 2010.06.27 13:26:56.
