data_PCOD8009795
_publ_section_title
;
Structure prediction by ZEFSAII (Michael W. Deem and Ramdas Pophale) SiO2 
 PCOD8009795
Probable space group: P -1
;
_chemical_formula_sum "Si O2"
_cell_formula_units_Z 14
_cell_length_a 9.137050
_cell_length_b 27.666552
_cell_length_c 5.007416
_cell_angle_alpha 117.910815
_cell_angle_beta 80.405100
_cell_angle_gamma 139.425068
_cell_volume 687.174565
_symmetry_space_group_name_H-M "P -1"
_symmetry_group_IT_number 2
_symmetry_cell_setting 'triclinic'
loop_
_space_group_symop_operation_xyz
x,y,z
-x,-y,-z
loop_
_atom_site_type_symbol
_atom_site_label
_atom_site_fract_x
_atom_site_fract_y
_atom_site_fract_z
Si Si1 0.573818 0.307642 0.142758
Si Si2 0.431955 0.015098 0.308977
Si Si3 0.721380 0.534509 0.153907
Si Si4 0.994001 0.351068 0.120933
Si Si5 0.899899 0.200048 0.635359
Si Si6 0.719664 0.414186 0.866865
Si Si7 0.040435 0.168611 0.010252
O O1 0.644239 0.376806 0.495780
O O2 0.297582 0.214026 0.037588
O O3 0.732829 0.299753 0.139645
O O4 0.613395 0.339876 0.913190
O O5 0.605979 0.118264 0.515306
O O6 0.500000 0.000000 0.500000
O O7 0.500000 0.000000 0.000000
O O8 0.143203 0.936716 0.189819
O O9 0.169138 0.404113 0.460532
O O10 0.500000 0.500000 0.000000
O O11 0.917188 0.586564 0.993468
O O12 0.624291 0.447256 0.047680
O O13 0.986960 0.286926 0.856867
O O14 0.007311 0.202572 0.346545
O O15 0.999841 0.192470 0.822580
O O16 0.000000 0.500000 0.000000
#
# Coordination Sequence:
#
# PCOD8009795 Si02
#       7
#     2   2   2   2   2   2   2
#     4  12  24  39  62  86 117 154 197 239 287 350
#     4   8  16  34  57  84 116 148 187 231 283 341
#     4  12  27  41  60  84 115 152 200 246 287 343
#     4  12  24  42  57  88 121 151 190 245 299 337
#     4  10  21  37  61  87 119 152 188 241 290 336
#     4  12  23  43  61  79 114 160 197 232 294 346
#     4  10  21  37  61  90 113 152 198 234 279 352
#
# _framework density 20.373279
#
# number of rings (size 3 to 8) (size 9 to 14) (size 15 to 20)
#    0.000    1.143    2.857    3.429    6.000    0.000 
#    0.000    0.714    0.000    0.000    0.000   16.000 
#    0.000    0.000    0.000    0.000    0.000    0.000 
#
# Total GULP energy -173471.346853 kJ/mol
# GULP energy per Si atom -12390.810489 kJ/mol
# Density = 2.032691 g / cm^3
# Si number density = 20.373279 Si / 1000 Ang^3
#
#
#
# Elastic Constant Matrix: (Units=GPa)
#
#
# Indices 1 2 3 4 5 6 
#
# 1 84.4931 28.0074 32.6794 1.5992 3.3557 11.0764
# 2 28.0074 90.5495 30.2085 -11.4991 10.8894 17.3407
# 3 32.6794 30.2085 113.3251 -24.3443 10.1224 -3.3297
# 4 1.5992 -11.4991 -24.3443 41.4112 -0.0721 16.9851
# 5 3.3557 10.8894 10.1224 -0.0721 26.6129 1.7685
# 6 11.0764 17.3407 -3.3297 16.9851 1.7685 38.0346
#
#
#
# Elastic Compliance Matrix: (Units=1/GPa)
#
#
# Indices 1 2 3 4 5 6 
#
# 1 0.014848 -0.003418 -0.004243 -0.003311 0.001246 -0.001716
# 2 -0.003418 0.015993 -0.001483 0.007633 -0.004890 -0.009607
# 3 -0.004243 -0.001483 0.012244 0.006921 -0.003500 0.000056
# 4 -0.003311 0.007633 0.006921 0.038153 -0.003988 -0.018762
# 5 0.001246 -0.004890 -0.003500 -0.003988 0.040644 0.001451
# 6 -0.001716 -0.009607 0.000056 -0.018762 0.001451 0.039488
#
#
# Mechanical properties :
#
#
# Convention : Reuss Voigt Hill
#
# Bulk Modulus (GPa) = 40.33080 52.23979 46.28529
# Shear Modulus (GPa) = 26.60649 34.37656 30.49152
#
# Velocity S-wave (km/s) = 3.61771 4.11218 3.87284
# Velocity P-wave (km/s) = 6.10650 6.94576 6.53961
#
# Compressibility (1/GPa) = 0.02479495
#
# Stress axis : x y z
#
# Youngs Moduli (GPa) = 67.34999 62.52722 81.67115
#
# Poissons Ratio (x) = 0.21375 0.34656
# Poissons Ratio (y) = 0.23023 0.12114
# Poissons Ratio (z) = 0.28579 0.09274
#
# Static dielectric constant tensor:
#      x y z
#    x 3.471810 0.263440 0.373540 
#    y 0.263440 4.126480 0.072510 
#    z 0.373540 0.072510 3.701070 
# 
# 
# High freq. dielectric constant tensor:
#      x y z
#    x 1.770520 0.010960 0.025730 
#    y 0.010960 1.810290 -0.008830 
#    z 0.025730 -0.008830 1.810000 
# 
# From -- ./inp_files/57021.got.cif
#   From: 2010.06.25/outbox.cif.g09.slc.cpg/sg2_29_cif.got.tgz:57021.got - 2010.06.27 13:26:56.
