data_PCOD8009844
_publ_section_title
;
Structure prediction by ZEFSAII (Michael W. Deem and Ramdas Pophale) SiO2 
 PCOD8009844
Probable space group: P -1
;
_chemical_formula_sum "Si O2"
_cell_formula_units_Z 16
_cell_length_a 11.844187
_cell_length_b 12.980201
_cell_length_c 8.196050
_cell_angle_alpha 104.030516
_cell_angle_beta 123.473932
_cell_angle_gamma 50.353303
_cell_volume 797.466619
_symmetry_space_group_name_H-M "P -1"
_symmetry_group_IT_number 2
_symmetry_cell_setting 'triclinic'
loop_
_space_group_symop_operation_xyz
x,y,z
-x,-y,-z
loop_
_atom_site_type_symbol
_atom_site_label
_atom_site_fract_x
_atom_site_fract_y
_atom_site_fract_z
Si Si1 0.568630 0.397881 0.165009
Si Si2 0.124801 0.341713 0.976831
Si Si3 0.069115 0.778268 0.757069
Si Si4 0.098804 0.730968 0.135037
Si Si5 0.022336 0.596045 0.459345
Si Si6 0.657851 0.509949 0.533257
Si Si7 0.513078 0.737205 0.734321
Si Si8 0.125976 0.939523 0.425071
O O1 0.768664 0.271135 0.247283
O O2 0.545434 0.473381 0.344986
O O3 0.469464 0.337169 0.107802
O O4 0.500000 0.500000 0.000000
O O5 0.111155 0.335192 0.769355
O O6 0.079799 0.249591 0.987444
O O7 0.328396 0.258049 0.143796
O O8 0.000000 0.500000 0.000000
O O9 0.984241 0.711476 0.596879
O O10 0.138418 0.732453 0.978375
O O11 0.930291 0.940833 0.699862
O O12 0.237611 0.582470 0.262717
O O13 0.103467 0.837228 0.280595
O O14 0.000000 0.500000 0.500000
O O15 0.217581 0.504232 0.512604
O O16 0.527009 0.662251 0.550489
O O17 0.318687 0.877124 0.616653
O O18 0.000000 0.000000 0.500000
#
# Coordination Sequence:
#
# PCOD8009844 Si02
#       8
#     2   2   2   2   2   2   2   2
#     4  11  23  36  63  98 129 158 220 276 327 372
#     4  11  22  39  64  98 129 168 207 268 337 385
#     4  11  24  42  65  95 126 175 217 268 320 393
#     4  11  22  43  69  91 132 169 221 265 332 383
#     4  10  21  38  64  95 132 164 206 269 331 380
#     4  10  21  37  61  97 124 167 209 273 322 377
#     4  12  23  39  67  93 132 171 219 263 330 385
#     4  12  24  46  65  90 132 177 222 265 320 391
#
# _framework density 20.063535999999999
#
# number of rings (size 3 to 8) (size 9 to 14) (size 15 to 20)
#    0.000    1.000    5.000    3.750    5.250    0.000 
#    0.000    3.125    0.000    0.000    0.000    0.000 
#    0.000    0.000    0.000    0.000    0.000    0.000 
#
# Total GULP energy -198318.603268 kJ/mol
# GULP energy per Si atom -12394.912704 kJ/mol
# Density = 2.001787 g / cm^3
# Si number density = 20.063536 Si / 1000 Ang^3
#
#
#
# Elastic Constant Matrix: (Units=GPa)
#
#
# Indices 1 2 3 4 5 6 
#
# 1 89.1609 21.8375 19.6687 0.4654 19.5436 6.4717
# 2 21.8375 71.1058 16.8431 3.6788 9.1610 -0.4862
# 3 19.6687 16.8431 84.5182 10.8239 2.9838 -8.6454
# 4 0.4654 3.6788 10.8239 35.6952 -0.6390 0.0640
# 5 19.5436 9.1610 2.9838 -0.6390 43.2037 -1.4480
# 6 6.4717 -0.4862 -8.6454 0.0640 -1.4480 32.5528
#
#
#
# Elastic Compliance Matrix: (Units=1/GPa)
#
#
# Indices 1 2 3 4 5 6 
#
# 1 0.014130 -0.002970 -0.003017 0.000942 -0.005671 -0.003909
# 2 -0.002970 0.015799 -0.002257 -0.000939 -0.001860 0.000146
# 3 -0.003017 -0.002257 0.013893 -0.003931 0.000970 0.004307
# 4 0.000942 -0.000939 -0.003931 0.029302 0.000435 -0.001284
# 5 -0.005671 -0.001860 0.000970 0.000435 0.026130 0.002519
# 6 -0.003909 0.000146 0.004307 -0.001284 0.002519 0.032757
#
#
# Mechanical properties :
#
#
# Convention : Reuss Voigt Hill
#
# Bulk Modulus (GPa) = 36.58105 40.16486 38.37295
# Shear Modulus (GPa) = 31.72386 34.71938 33.22162
#
# Velocity S-wave (km/s) = 3.98071 4.16441 4.07359
# Velocity P-wave (km/s) = 6.27696 6.57155 6.42595
#
# Compressibility (1/GPa) = 0.02733656
#
# Stress axis : x y z
#
# Youngs Moduli (GPa) = 70.76924 63.29375 71.97718
#
# Poissons Ratio (x) = 0.18797 0.21714
# Poissons Ratio (y) = 0.21018 0.16242
# Poissons Ratio (z) = 0.21350 0.14283
#
# Static dielectric constant tensor:
#      x y z
#    x 3.520530 0.952660 -3.146550 
#    y 0.952660 1.574130 7.728170 
#    z -3.146550 7.728170 -23.661820 
# 
# 
# High freq. dielectric constant tensor:
#      x y z
#    x 1.798600 -0.001110 -0.003530 
#    y -0.001110 1.760250 0.011220 
#    z -0.003530 0.011220 1.785560 
# 
# From -- ./inp_files/262727.got.cif
#   From: 2010.06.25/outbox.cif.g09.slc.cpg/sg2_132_cif.got.tgz:262727.got - 2010.06.27 13:26:56.
