data_PCOD8009626
_publ_section_title
;
Structure prediction by ZEFSAII (Michael W. Deem and Ramdas Pophale) SiO2 
 PCOD8009626
Probable space group: P -1
;
_chemical_formula_sum "Si O2"
_cell_formula_units_Z 14
_cell_length_a 18.773726
_cell_length_b 9.571626
_cell_length_c 21.676459
_cell_angle_alpha 36.484953
_cell_angle_beta 17.864981
_cell_angle_gamma 45.444953
_cell_volume 665.862408
_symmetry_space_group_name_H-M "P -1"
_symmetry_group_IT_number 2
_symmetry_cell_setting 'triclinic'
loop_
_space_group_symop_operation_xyz
x,y,z
-x,-y,-z
loop_
_atom_site_type_symbol
_atom_site_label
_atom_site_fract_x
_atom_site_fract_y
_atom_site_fract_z
Si Si1 0.921784 0.865682 0.175972
Si Si2 0.892113 0.270847 0.578259
Si Si3 0.229438 0.606963 0.084268
Si Si4 0.365968 0.589099 0.493207
Si Si5 0.111436 0.350643 0.913564
Si Si6 0.565158 0.793034 0.950806
Si Si7 0.316919 0.088237 0.323796
O O1 0.129610 0.754022 0.064850
O O2 0.672479 0.632073 0.448085
O O3 0.905910 0.074208 0.165015
O O4 0.000000 0.000000 0.000000
O O5 0.045672 0.520266 0.325412
O O6 0.059362 0.138669 0.523014
O O7 0.700961 0.078228 0.757440
O O8 0.718016 0.337746 0.747550
O O9 0.262908 0.362191 0.112563
O O10 0.504362 0.786212 0.811866
O O11 0.206730 0.503196 0.717780
O O12 0.657903 0.700493 0.226593
O O13 0.270123 0.793030 0.468101
O O14 0.000000 0.500000 0.000000
O O15 0.545504 0.780311 0.898032
#
# Coordination Sequence:
#
# PCOD8009626 Si02
#       7
#     2   2   2   2   2   2   2
#     4  10  21  41  66  88 121 163 207 253 309 365
#     4  10  21  37  58  90 120 160 201 250 299 361
#     4  11  21  38  59  87 121 162 204 249 305 362
#     4  10  21  40  63  87 123 162 200 255 306 363
#     4  10  22  41  62  90 120 156 208 256 309 363
#     4  10  21  37  59  87 123 157 206 246 299 368
#     4  11  21  36  62  87 124 162 200 248 304 362
#
# _framework density 21.025366000000002
#
# number of rings (size 3 to 8) (size 9 to 14) (size 15 to 20)
#    0.000    1.714    1.429    5.143    0.000    4.000 
#    2.571    4.286    0.000    0.000    0.000    0.000 
#    0.000    0.000    0.000    0.000    0.000    0.000 
#
# Total GULP energy -173525.363252 kJ/mol
# GULP energy per Si atom -12394.668804 kJ/mol
# Density = 2.097751 g / cm^3
# Si number density = 21.025366 Si / 1000 Ang^3
#
#
#
# Elastic Constant Matrix: (Units=GPa)
#
#
# Indices 1 2 3 4 5 6 
#
# 1 95.3910 51.4558 25.7020 4.9711 -7.5423 -16.2155
# 2 51.4558 110.0917 28.1981 1.5379 18.6340 -3.0382
# 3 25.7020 28.1981 78.3263 6.3537 -0.6509 1.8273
# 4 4.9711 1.5379 6.3537 41.1582 8.7944 -3.4800
# 5 -7.5423 18.6340 -0.6509 8.7944 24.5680 -7.2806
# 6 -16.2155 -3.0382 1.8273 -3.4800 -7.2806 47.1822
#
#
#
# Elastic Compliance Matrix: (Units=1/GPa)
#
#
# Indices 1 2 3 4 5 6 
#
# 1 0.021426 -0.012685 -0.002068 -0.005461 0.020899 0.009449
# 2 -0.012685 0.019434 -0.003336 0.005623 -0.022526 -0.006040
# 3 -0.002068 -0.003336 0.014915 -0.002647 0.002866 -0.001256
# 4 -0.005461 0.005623 -0.002647 0.028585 -0.016807 -0.001897
# 5 0.020899 -0.022526 0.002866 -0.016807 0.075026 0.015959
# 6 0.009449 -0.006040 -0.001256 -0.001897 0.015959 0.026424
#
#
# Mechanical properties :
#
#
# Convention : Reuss Voigt Hill
#
# Bulk Modulus (GPa) = 51.02994 54.94675 52.98834
# Shear Modulus (GPa) = 21.87979 34.47856 28.17918
#
# Velocity S-wave (km/s) = 3.22939 4.05391 3.66491
# Velocity P-wave (km/s) = 6.18293 6.93560 6.57005
#
# Compressibility (1/GPa) = 0.01959634
#
# Stress axis : x y z
#
# Youngs Moduli (GPa) = 46.67170 51.45541 67.04846
#
# Poissons Ratio (x) = 0.65272 0.13864
# Poissons Ratio (y) = 0.59204 0.22370
# Poissons Ratio (z) = 0.09651 0.17168
#
# Static dielectric constant tensor:
#      x y z
#    x 3.824020 0.116800 -0.285390 
#    y 0.116800 4.819810 -0.963260 
#    z -0.285390 -0.963260 4.443750 
# 
# 
# High freq. dielectric constant tensor:
#      x y z
#    x 1.824590 -0.005100 -0.020140 
#    y -0.005100 1.824220 -0.019920 
#    z -0.020140 -0.019920 1.813330 
# 
# From -- ./inp_files/139217.got.cif
#   From: 2010.06.25/outbox.cif.g09.slc.cpg/sg2_70_cif.got.tgz:139217.got - 2010.06.27 13:26:56.
