data_PCOD8009950
_publ_section_title
;
Structure prediction by ZEFSAII (Michael W. Deem and Ramdas Pophale) SiO2 
 PCOD8009950
Probable space group: P -1
;
_chemical_formula_sum "Si O2"
_cell_formula_units_Z 16
_cell_length_a 10.341126
_cell_length_b 13.123292
_cell_length_c 15.140013
_cell_angle_alpha 29.995710
_cell_angle_beta 66.265910
_cell_angle_gamma 48.166215
_cell_volume 675.458557
_symmetry_space_group_name_H-M "P -1"
_symmetry_group_IT_number 2
_symmetry_cell_setting 'triclinic'
loop_
_space_group_symop_operation_xyz
x,y,z
-x,-y,-z
loop_
_atom_site_type_symbol
_atom_site_label
_atom_site_fract_x
_atom_site_fract_y
_atom_site_fract_z
Si Si1 0.702804 0.912152 0.029648
Si Si2 0.034136 0.609734 0.029113
Si Si3 0.926789 0.888664 0.665617
Si Si4 0.218924 0.029077 0.748442
Si Si5 0.813638 0.555275 0.426529
Si Si6 0.445412 0.172562 0.297463
Si Si7 0.234450 0.783908 0.094609
Si Si8 0.501766 0.241062 0.526914
O O1 0.668023 0.155191 0.909593
O O2 0.830405 0.637503 0.264163
O O3 0.828708 0.846327 0.958873
O O4 0.500000 0.000000 0.000000
O O5 0.046711 0.353206 0.208239
O O6 0.225816 0.493386 0.120987
O O7 0.032558 0.750722 0.835204
O O8 0.698445 0.177238 0.528406
O O9 0.000000 0.000000 0.500000
O O10 0.196168 0.270329 0.621975
O O11 0.995197 0.213671 0.638566
O O12 0.371301 0.863118 0.749034
O O13 0.293759 0.782998 0.979974
O O14 0.607511 0.642959 0.434354
O O15 0.500000 0.000000 0.500000
O O16 0.429688 0.050427 0.304847
O O17 0.345511 0.464298 0.326131
O O18 0.000000 0.000000 0.000000
#
# Coordination Sequence:
#
# PCOD8009950 Si02
#       8
#     2   2   2   2   2   2   2   2
#     4  11  24  40  65  93 125 167 212 264 326 386
#     4  10  23  43  63  92 128 169 220 268 323 389
#     4  10  23  42  67  87 124 175 218 263 322 393
#     4   9  18  33  59  86 114 169 206 242 319 385
#     4   9  17  35  59  83 121 158 210 252 307 389
#     4  10  21  37  63  88 123 166 211 265 313 385
#     4  11  23  39  64  94 129 164 202 273 325 383
#     4  10  21  38  61  91 120 162 215 261 318 379
#
# _framework density 23.687611
#
# number of rings (size 3 to 8) (size 9 to 14) (size 15 to 20)
#    0.000    2.000    1.250    1.500    7.000    2.000 
#    2.250    3.125    0.000    0.000    0.000    0.000 
#    0.000    0.000    0.000    0.000    0.000    0.000 
#
# Total GULP energy -198220.447513 kJ/mol
# GULP energy per Si atom -12388.777970 kJ/mol
# Density = 2.363370 g / cm^3
# Si number density = 23.687611 Si / 1000 Ang^3
#
#
#
# Elastic Constant Matrix: (Units=GPa)
#
#
# Indices 1 2 3 4 5 6 
#
# 1 71.2069 29.4240 2.1097 -4.2210 9.6893 -23.0722
# 2 29.4240 124.2883 27.3450 22.6428 7.0586 -39.9254
# 3 2.1097 27.3450 105.6283 18.9763 5.4303 -14.6510
# 4 -4.2210 22.6428 18.9763 44.4108 -13.5868 3.3017
# 5 9.6893 7.0586 5.4303 -13.5868 32.7973 -2.1630
# 6 -23.0722 -39.9254 -14.6510 3.3017 -2.1630 40.2338
#
#
#
# Elastic Compliance Matrix: (Units=1/GPa)
#
#
# Indices 1 2 3 4 5 6 
#
# 1 0.018270 -0.001171 0.001658 -0.000640 -0.005045 0.009700
# 2 -0.001171 0.015807 0.000591 -0.011732 -0.006971 0.015818
# 3 0.001658 0.000591 0.011674 -0.007149 -0.005109 0.006100
# 4 -0.000640 -0.011732 -0.007149 0.038468 0.018728 -0.016762
# 5 -0.005045 -0.006971 -0.005109 0.018728 0.041361 -0.010984
# 6 0.009700 0.015818 0.006100 -0.016762 -0.010984 0.049120
#
#
# Mechanical properties :
#
#
# Convention : Reuss Voigt Hill
#
# Bulk Modulus (GPa) = 20.87357 46.54232 33.70794
# Shear Modulus (GPa) = 26.52329 39.63804 33.08067
#
# Velocity S-wave (km/s) = 3.34984 4.09512 3.74108
# Velocity P-wave (km/s) = 4.87781 6.48468 5.73777
#
# Compressibility (1/GPa) = 0.04790748
#
# Stress axis : x y z
#
# Youngs Moduli (GPa) = 54.73501 63.26137 85.65993
#
# Poissons Ratio (x) = 0.07408 -0.14202
# Poissons Ratio (y) = 0.06410 -0.05064
# Poissons Ratio (z) = -0.09075 -0.03740
#
# Static dielectric constant tensor:
#      x y z
#    x 4.174890 -0.403320 0.163240 
#    y -0.403320 4.455430 -0.047590 
#    z 0.163240 -0.047590 4.297900 
# 
# 
# High freq. dielectric constant tensor:
#      x y z
#    x 1.912920 -0.025460 0.010200 
#    y -0.025460 1.943900 0.004250 
#    z 0.010200 0.004250 1.941810 
# 
# From -- ./inp_files/522147.got.cif
#   From: 2010.06.25/outbox.cif.g09.slc.cpg/sg2_262_cif.got.tgz:522147.got - 2010.06.27 13:26:56.
