data_PCOD8009279
_publ_section_title
;
Structure prediction by ZEFSAII (Michael W. Deem and Ramdas Pophale) SiO2 
 PCOD8009279
Probable space group: P -1
;
_chemical_formula_sum "Si O2"
_cell_formula_units_Z 16
_cell_length_a 5.065365
_cell_length_b 17.564328
_cell_length_c 11.555087
_cell_angle_alpha 108.253848
_cell_angle_beta 64.860358
_cell_angle_gamma 74.146619
_cell_volume 778.938817
_symmetry_space_group_name_H-M "P -1"
_symmetry_group_IT_number 2
_symmetry_cell_setting 'triclinic'
loop_
_space_group_symop_operation_xyz
x,y,z
-x,-y,-z
loop_
_atom_site_type_symbol
_atom_site_label
_atom_site_fract_x
_atom_site_fract_y
_atom_site_fract_z
Si Si1 0.749123 0.626176 0.339461
Si Si2 0.575876 0.884615 0.542731
Si Si3 0.309899 0.776048 0.667079
Si Si4 0.308408 0.817675 0.134505
Si Si5 0.715343 0.742491 0.797230
Si Si6 0.876999 0.471324 0.396236
Si Si7 0.206742 0.708375 0.290494
Si Si8 0.552547 0.920980 0.300235
O O1 0.575158 0.683774 0.513455
O O2 0.917928 0.521410 0.298055
O O3 0.485731 0.644621 0.297164
O O4 0.023329 0.652241 0.253135
O O5 0.309542 0.862410 0.645288
O O6 0.476592 0.900495 0.434034
O O7 0.946138 0.800929 0.447696
O O8 0.571045 0.972398 0.643222
O O9 0.413137 0.772078 0.779382
O O10 0.945184 0.785862 0.732518
O O11 0.370401 0.731955 0.162559
O O12 0.344288 0.893911 0.238532
O O13 0.940670 0.863516 0.172690
O O14 0.574884 0.782241 0.967344
O O15 0.921566 0.634683 0.717067
O O16 0.500000 0.500000 0.500000
O O17 0.000000 0.500000 0.500000
#
# Coordination Sequence:
#
# PCOD8009279 Si02
#       8
#     2   2   2   2   2   2   2   2
#     4  11  20  36  61  90 116 142 199 250 299 325
#     4   9  21  38  65  92 116 145 202 257 292 325
#     4  11  21  36  60  88 117 150 196 243 297 337
#     4  11  23  41  58  82 124 164 194 227 299 361
#     4  12  24  40  58  85 121 163 191 233 291 368
#     4  12  22  39  60  90 119 150 195 246 291 341
#     4  10  21  36  60  89 115 152 190 249 290 346
#     4  10  22  40  63  89 115 155 198 247 292 344
#
# _framework density 20.540765
#
# number of rings (size 3 to 8) (size 9 to 14) (size 15 to 20)
#    0.000    1.250    2.500    5.250    0.000    8.500 
#    0.000    5.000    0.000    0.000    0.000    0.000 
#    0.000    0.000    0.000    0.000    0.000    0.000 
#
# Total GULP energy -198479.650750 kJ/mol
# GULP energy per Si atom -12404.978172 kJ/mol
# Density = 2.049401 g / cm^3
# Si number density = 20.540765 Si / 1000 Ang^3
#
#
#
# Elastic Constant Matrix: (Units=GPa)
#
#
# Indices 1 2 3 4 5 6 
#
# 1 83.7478 10.9829 0.0925 -3.2998 -3.6166 7.4319
# 2 10.9829 101.2382 16.6876 -6.1340 -16.5350 11.1793
# 3 0.0925 16.6876 70.5278 -11.0039 -3.2564 15.3649
# 4 -3.2998 -6.1340 -11.0039 21.0230 3.7304 -3.4244
# 5 -3.6166 -16.5350 -3.2564 3.7304 19.2831 -6.3866
# 6 7.4319 11.1793 15.3649 -3.4244 -6.3866 34.6477
#
#
#
# Elastic Compliance Matrix: (Units=1/GPa)
#
#
# Indices 1 2 3 4 5 6 
#
# 1 0.012391 -0.001069 0.001077 0.001708 0.000415 -0.002545
# 2 -0.001069 0.011999 -0.002141 0.000404 0.009341 -0.000931
# 3 0.001077 -0.002141 0.017307 0.007929 -0.002529 -0.006898
# 4 0.001708 0.000404 0.007929 0.053557 -0.008447 -0.000277
# 5 0.000415 0.009341 -0.002529 -0.008447 0.064136 0.009006
# 6 -0.002545 -0.000931 -0.006898 -0.000277 0.009006 0.034400
#
#
# Mechanical properties :
#
#
# Convention : Reuss Voigt Hill
#
# Bulk Modulus (GPa) = 26.71582 34.55995 30.63788
# Shear Modulus (GPa) = 23.74920 30.17414 26.96167
#
# Velocity S-wave (km/s) = 3.40398 3.83690 3.62690
# Velocity P-wave (km/s) = 5.33703 6.04075 5.69976
#
# Compressibility (1/GPa) = 0.03743101
#
# Stress axis : x y z
#
# Youngs Moduli (GPa) = 80.70534 83.33698 57.78049
#
# Poissons Ratio (x) = 0.08912 -0.06222
# Poissons Ratio (y) = 0.08630 0.12369
# Poissons Ratio (z) = -0.08691 0.17839
#
# Static dielectric constant tensor:
#      x y z
#    x 3.752860 0.200460 -0.074850 
#    y 0.200460 3.885620 -0.078960 
#    z -0.074850 -0.078960 3.432170 
# 
# 
# High freq. dielectric constant tensor:
#      x y z
#    x 1.818040 0.008420 -0.002110 
#    y 0.008420 1.814270 -0.014890 
#    z -0.002110 -0.014890 1.768090 
# 
# From -- ./inp_files/368667.got.cif
#   From: 2010.06.25/outbox.cif.g09.slc.cpg/sg2_185_cif.got.tgz:368667.got - 2010.06.27 13:26:56.
