data_PCOD8009484
_publ_section_title
;
Structure prediction by ZEFSAII (Michael W. Deem and Ramdas Pophale) SiO2 
 PCOD8009484
Probable space group: P -1
;
_chemical_formula_sum "Si O2"
_cell_formula_units_Z 16
_cell_length_a 18.579384
_cell_length_b 9.278053
_cell_length_c 11.717144
_cell_angle_alpha 129.658392
_cell_angle_beta 28.191897
_cell_angle_gamma 119.639890
_cell_volume 721.675915
_symmetry_space_group_name_H-M "P -1"
_symmetry_group_IT_number 2
_symmetry_cell_setting 'triclinic'
loop_
_space_group_symop_operation_xyz
x,y,z
-x,-y,-z
loop_
_atom_site_type_symbol
_atom_site_label
_atom_site_fract_x
_atom_site_fract_y
_atom_site_fract_z
Si Si1 0.078816 0.635833 0.537138
Si Si2 0.277357 0.053454 0.254022
Si Si3 0.035307 0.192362 0.998959
Si Si4 0.349320 0.038287 0.890973
Si Si5 0.642385 0.727675 0.370049
Si Si6 0.367800 0.416507 0.924030
Si Si7 0.967364 0.045951 0.796637
Si Si8 0.539837 0.695154 0.737033
O O1 0.000000 0.500000 0.500000
O O2 0.040604 0.629619 0.723325
O O3 0.261025 0.566756 0.231021
O O4 0.020698 0.848070 0.685331
O O5 0.326543 0.208458 0.347760
O O6 0.092935 0.060241 0.529291
O O7 0.310856 0.115901 0.111042
O O8 0.375680 0.844105 0.039189
O O9 0.220747 0.169465 0.726904
O O10 0.968756 0.214946 0.973652
O O11 0.000000 0.000000 0.000000
O O12 0.388081 0.207800 0.844102
O O13 0.502675 0.880693 0.591215
O O14 0.205516 0.943423 0.002847
O O15 0.701179 0.585915 0.110651
O O16 0.586427 0.624714 0.507141
O O17 0.523385 0.506288 0.737385
#
# Coordination Sequence:
#
# PCOD8009484 Si02
#       8
#     2   2   2   2   2   2   2   2
#     4  11  20  36  63  97 123 161 216 262 311 363
#     4  10  21  39  63  91 127 166 213 255 316 378
#     4  10  21  36  66  95 121 165 214 263 303 377
#     4  11  25  38  64  97 129 167 206 261 326 380
#     4  11  22  42  64  94 128 166 215 257 320 378
#     4  12  22  39  64  94 131 162 209 266 316 374
#     4  11  20  41  65  91 127 170 213 255 313 384
#     4  10  22  39  64  94 122 167 214 262 307 376
#
# _framework density 22.170617
#
# number of rings (size 3 to 8) (size 9 to 14) (size 15 to 20)
#    0.000    1.250    5.000    1.875    0.000    0.500 
#    0.000    1.250    0.000    1.500    0.000    0.000 
#    0.000    0.000    0.000    0.000    0.000    0.000 
#
# Total GULP energy -198302.216351 kJ/mol
# GULP energy per Si atom -12393.888522 kJ/mol
# Density = 2.212016 g / cm^3
# Si number density = 22.170617 Si / 1000 Ang^3
#
#
#
# Elastic Constant Matrix: (Units=GPa)
#
#
# Indices 1 2 3 4 5 6 
#
# 1 101.1846 32.1381 53.0092 -2.8915 14.3161 7.0353
# 2 32.1381 98.2190 36.0701 -27.9692 0.8100 6.8614
# 3 53.0092 36.0701 110.3937 -18.2001 10.9728 4.2408
# 4 -2.8915 -27.9692 -18.2001 28.3150 7.2776 7.4111
# 5 14.3161 0.8100 10.9728 7.2776 43.7539 -5.7481
# 6 7.0353 6.8614 4.2408 7.4111 -5.7481 26.9910
#
#
#
# Elastic Compliance Matrix: (Units=1/GPa)
#
#
# Indices 1 2 3 4 5 6 
#
# 1 0.014771 -0.004085 -0.006498 -0.005971 -0.002216 -0.000623
# 2 -0.004085 0.018338 0.000360 0.021723 -0.004084 -0.010488
# 3 -0.006498 0.000360 0.014487 0.011235 -0.003988 -0.004608
# 4 -0.005971 0.021723 0.011235 0.075939 -0.017890 -0.030392
# 5 -0.002216 -0.004084 -0.003988 -0.017890 0.029394 0.013414
# 6 -0.000623 -0.010488 -0.004608 -0.030392 0.013414 0.051804
#
#
# Mechanical properties :
#
#
# Convention : Reuss Voigt Hill
#
# Bulk Modulus (GPa) = 36.83342 61.35913 49.09628
# Shear Modulus (GPa) = 21.34658 32.38396 26.86527
#
# Velocity S-wave (km/s) = 3.10632 3.82602 3.48480
# Velocity P-wave (km/s) = 5.43280 6.87414 6.19553
#
# Compressibility (1/GPa) = 0.02714926
#
# Stress axis : x y z
#
# Youngs Moduli (GPa) = 67.69970 54.53099 69.02880
#
# Poissons Ratio (x) = 0.22278 0.44856
# Poissons Ratio (y) = 0.27658 -0.02486
# Poissons Ratio (z) = 0.43992 -0.01964
#
# Static dielectric constant tensor:
#      x y z
#    x 4.224700 0.191950 0.463130 
#    y 0.191950 3.864270 -0.236410 
#    z 0.463130 -0.236410 4.281690 
# 
# 
# High freq. dielectric constant tensor:
#      x y z
#    x 1.870490 0.015760 0.029850 
#    y 0.015760 1.862960 -0.026460 
#    z 0.029850 -0.026460 1.873720 
# 
# From -- ./inp_files/257647.got.cif
#   From: 2010.06.25/outbox.cif.g09.slc.cpg/sg2_129_cif.got.tgz:257647.got - 2010.06.27 13:26:56.
