data_PCOD8009597
_publ_section_title
;
Structure prediction by ZEFSAII (Michael W. Deem and Ramdas Pophale) SiO2 
 PCOD8009597
Probable space group: P -1
;
_chemical_formula_sum "Si O2"
_cell_formula_units_Z 10
_cell_length_a 5.007537
_cell_length_b 17.340848
_cell_length_c 5.246137
_cell_angle_alpha 82.344152
_cell_angle_beta 60.395524
_cell_angle_gamma 85.103852
_cell_volume 392.447590
_symmetry_space_group_name_H-M "P -1"
_symmetry_group_IT_number 2
_symmetry_cell_setting 'triclinic'
loop_
_space_group_symop_operation_xyz
x,y,z
-x,-y,-z
loop_
_atom_site_type_symbol
_atom_site_label
_atom_site_fract_x
_atom_site_fract_y
_atom_site_fract_z
Si Si1 0.605720 0.589051 0.917043
Si Si2 0.835865 0.031257 0.814523
Si Si3 0.516123 0.270428 0.401998
Si Si4 0.155953 0.785542 0.235299
Si Si5 0.227278 0.556455 0.517267
O O1 0.520896 0.634911 0.672258
O O2 0.500000 0.500000 0.000000
O O3 0.388963 0.623266 0.234539
O O4 0.972392 0.596835 0.810922
O O5 0.829682 0.123457 0.765848
O O6 0.000000 0.000000 0.500000
O O7 0.500000 0.000000 0.000000
O O8 0.000000 0.000000 0.000000
O O9 0.753494 0.255422 0.522443
O O10 0.190885 0.237275 0.654384
O O11 0.622615 0.234014 0.098726
O O12 0.500000 0.500000 0.500000
O O13 0.000000 0.500000 0.500000
#
# Coordination Sequence:
#
# PCOD8009597 Si02
#       5
#     2   2   2   2   2
#     4  10  23  41  64  93 127 176 234 287 340 404
#     4  12  24  44  74 107 141 183 229 281 337 413
#     4  12  26  45  69  99 142 187 229 290 351 410
#     4  12  26  47  70 105 143 183 229 281 351 419
#     4  10  21  37  58  84 117 155 210 281 335 386
#
# _framework density 25.481110000000001
#
# number of rings (size 3 to 8) (size 9 to 14) (size 15 to 20)
#    0.000    0.800    0.000    7.200    0.000    9.600 
#    0.000    0.000    0.000    0.000    0.000    0.000 
#    0.000    0.000    0.000    0.000    0.000    0.000 
#
# Total GULP energy -123904.344464 kJ/mol
# GULP energy per Si atom -12390.434446 kJ/mol
# Density = 2.542311 g / cm^3
# Si number density = 25.481110 Si / 1000 Ang^3
#
#
#
# Elastic Constant Matrix: (Units=GPa)
#
#
# Indices 1 2 3 4 5 6 
#
# 1 127.2481 24.1823 59.9490 17.9197 -12.1599 -29.1236
# 2 24.1823 141.9263 52.9847 -12.2584 -4.3962 0.3426
# 3 59.9490 52.9847 178.6757 21.9846 -15.6451 -23.8305
# 4 17.9197 -12.2584 21.9846 41.6212 -8.1467 -13.7003
# 5 -12.1599 -4.3962 -15.6451 -8.1467 72.3216 2.7587
# 6 -29.1236 0.3426 -23.8305 -13.7003 2.7587 40.7214
#
#
#
# Elastic Compliance Matrix: (Units=1/GPa)
#
#
# Indices 1 2 3 4 5 6 
#
# 1 0.010766 -0.001145 -0.002215 -0.001737 0.000846 0.005771
# 2 -0.001145 0.008676 -0.002840 0.004216 0.000239 -0.001152
# 3 -0.002215 -0.002840 0.007905 -0.003288 0.000722 0.001910
# 4 -0.001737 0.004216 -0.003288 0.030497 0.002425 0.006894
# 5 0.000846 0.000239 0.000722 0.002425 0.014380 0.000867
# 6 0.005771 -0.001152 0.001910 0.006894 0.000867 0.032073
#
#
# Mechanical properties :
#
#
# Convention : Reuss Voigt Hill
#
# Bulk Modulus (GPa) = 66.90714 80.23135 73.56924
# Shear Modulus (GPa) = 41.09185 51.64842 46.37014
#
# Velocity S-wave (km/s) = 4.02012 4.50703 4.27052
# Velocity P-wave (km/s) = 6.91832 7.65763 7.29734
#
# Compressibility (1/GPa) = 0.01494609
#
# Stress axis : x y z
#
# Youngs Moduli (GPa) = 92.88256 115.26643 126.50868
#
# Poissons Ratio (x) = 0.13201 0.28023
# Poissons Ratio (y) = 0.10638 0.35926
# Poissons Ratio (z) = 0.20574 0.32733
#
# Static dielectric constant tensor:
#      x y z
#    x 4.498310 -0.073860 0.020880 
#    y -0.073860 8.766370 7.097710 
#    z 0.020880 7.097710 18.629740 
# 
# 
# High freq. dielectric constant tensor:
#      x y z
#    x 2.038340 -0.007140 -0.012440 
#    y -0.007140 2.029010 0.010490 
#    z -0.012440 0.010490 2.052280 
# 
# From -- ./inp_files/10141.got.cif
#   From: 2010.06.25/outbox.cif.g09.slc.cpg/sg2_6_cif.got.tgz:10141.got - 2010.06.27 13:26:56.
