data_PCOD8009329
_publ_section_title
;
Structure prediction by ZEFSAII (Michael W. Deem and Ramdas Pophale) SiO2 
 PCOD8009329
Probable space group: P -1
;
_chemical_formula_sum "Si O2"
_cell_formula_units_Z 16
_cell_length_a 9.098837
_cell_length_b 20.106460
_cell_length_c 11.406067
_cell_angle_alpha 28.801272
_cell_angle_beta 107.626485
_cell_angle_gamma 119.072381
_cell_volume 840.328541
_symmetry_space_group_name_H-M "P -1"
_symmetry_group_IT_number 2
_symmetry_cell_setting 'triclinic'
loop_
_space_group_symop_operation_xyz
x,y,z
-x,-y,-z
loop_
_atom_site_type_symbol
_atom_site_label
_atom_site_fract_x
_atom_site_fract_y
_atom_site_fract_z
Si Si1 0.908245 0.810872 0.684644
Si Si2 0.670437 0.512218 0.960339
Si Si3 0.562274 0.917317 0.820502
Si Si4 0.217578 0.738988 0.620655
Si Si5 0.198155 0.733244 0.904649
Si Si6 0.196121 0.133697 0.196421
Si Si7 0.838645 0.583947 0.654123
Si Si8 0.661403 0.673522 0.281876
O O1 0.764047 0.793772 0.774513
O O2 0.046959 0.773545 0.845424
O O3 0.824290 0.686364 0.754603
O O4 0.998773 0.984906 0.379896
O O5 0.713607 0.379005 0.228539
O O6 0.500000 0.500000 0.000000
O O7 0.676518 0.507780 0.826993
O O8 0.365767 0.860393 0.819654
O O9 0.672327 0.935493 0.698049
O O10 0.642556 0.081853 0.656793
O O11 0.580310 0.791200 0.104619
O O12 0.209098 0.734357 0.765303
O O13 0.026913 0.689852 0.596555
O O14 0.159552 0.557436 0.202027
O O15 0.222829 0.268657 0.899925
O O16 0.794586 0.689466 0.392573
O O17 0.500000 0.500000 0.500000
#
# Coordination Sequence:
#
# PCOD8009329 Si02
#       8
#     2   2   2   2   2   2   2   2
#     4  11  20  38  57  92 124 146 197 251 315 341
#     4  11  24  35  60  90 121 155 193 250 312 348
#     4  10  21  36  61  90 114 157 205 246 289 349
#     4  11  21  37  58  92 117 154 202 244 303 348
#     4  11  18  34  59  88 116 152 197 251 291 349
#     4   9  22  36  60  88 119 152 195 254 293 350
#     4  11  20  39  61  81 122 157 200 244 284 368
#     4  10  21  39  61  89 115 161 214 233 291 352
#
# _framework density 19.040172999999999
#
# number of rings (size 3 to 8) (size 9 to 14) (size 15 to 20)
#    0.750    0.750    5.000    1.125    5.250    1.500 
#    0.000    0.625    2.750    0.750    0.000    0.000 
#    0.000    0.000    0.000    0.000    0.000    0.000 
#
# Total GULP energy -198238.321363 kJ/mol
# GULP energy per Si atom -12389.895085 kJ/mol
# Density = 1.899684 g / cm^3
# Si number density = 19.040173 Si / 1000 Ang^3
#
#
#
# Elastic Constant Matrix: (Units=GPa)
#
#
# Indices 1 2 3 4 5 6 
#
# 1 78.1802 22.3432 26.4619 3.3590 0.7953 3.0093
# 2 22.3432 70.2544 44.4011 -10.4256 2.4973 13.5425
# 3 26.4619 44.4011 113.6016 -6.6262 -2.2947 0.5436
# 4 3.3590 -10.4256 -6.6262 34.9378 1.8593 5.9229
# 5 0.7953 2.4973 -2.2947 1.8593 23.2216 -1.6682
# 6 3.0093 13.5425 0.5436 5.9229 -1.6682 31.2112
#
#
#
# Elastic Compliance Matrix: (Units=1/GPa)
#
#
# Indices 1 2 3 4 5 6 
#
# 1 0.014740 -0.004068 -0.002033 -0.003187 0.000058 0.000987
# 2 -0.004068 0.024376 -0.008130 0.008395 -0.004812 -0.011893
# 3 -0.002033 -0.008130 0.012449 -0.000640 0.002496 0.003762
# 4 -0.003187 0.008395 -0.000640 0.033207 -0.004223 -0.009852
# 5 0.000058 -0.004812 0.002496 -0.004223 0.044539 0.005221
# 6 0.000987 -0.011893 0.003762 -0.009852 0.005221 0.039188
#
#
# Mechanical properties :
#
#
# Convention : Reuss Voigt Hill
#
# Bulk Modulus (GPa) = 43.28653 49.82763 46.55708
# Shear Modulus (GPa) = 24.43048 29.12945 26.77997
#
# Velocity S-wave (km/s) = 3.58593 3.91563 3.75440
# Velocity P-wave (km/s) = 6.31893 6.83150 6.58021
#
# Compressibility (1/GPa) = 0.02310188
#
# Stress axis : x y z
#
# Youngs Moduli (GPa) = 67.84226 41.02455 80.32818
#
# Poissons Ratio (x) = 0.16691 0.16329
# Poissons Ratio (y) = 0.27601 0.65308
# Poissons Ratio (z) = 0.13791 0.33353
#
# Static dielectric constant tensor:
#      x y z
#    x 3.458290 0.022050 0.184870 
#    y 0.022050 3.374870 -0.289040 
#    z 0.184870 -0.289040 3.674320 
# 
# 
# High freq. dielectric constant tensor:
#      x y z
#    x 1.727670 0.009000 0.013600 
#    y 0.009000 1.724210 -0.029890 
#    z 0.013600 -0.029890 1.736570 
# 
# From -- ./inp_files/305816.got.cif
#   From: 2010.06.25/outbox.cif.g09.slc.cpg/sg2_153_cif.got.tgz:305816.got - 2010.06.27 13:26:56.
