data_PCOD8010990
_publ_section_title
;
Structure prediction by ZEFSAII (Michael W. Deem and Ramdas Pophale) SiO2 
 PCOD8010990
Probable space group: P -1
;
_chemical_formula_sum "Si O2"
_cell_formula_units_Z 16
_cell_length_a 20.129548
_cell_length_b 9.115191
_cell_length_c 20.002783
_cell_angle_alpha 54.371454
_cell_angle_beta 21.120514
_cell_angle_gamma 42.035191
_cell_volume 787.545511
_symmetry_space_group_name_H-M "P -1"
_symmetry_group_IT_number 2
_symmetry_cell_setting 'triclinic'
loop_
_space_group_symop_operation_xyz
x,y,z
-x,-y,-z
loop_
_atom_site_type_symbol
_atom_site_label
_atom_site_fract_x
_atom_site_fract_y
_atom_site_fract_z
Si Si1 0.292613 0.295727 0.791205
Si Si2 0.882796 0.428163 0.583816
Si Si3 0.366471 0.965824 0.915927
Si Si4 0.526222 0.548518 0.310823
Si Si5 0.382802 0.259981 0.566953
Si Si6 0.966023 0.995669 0.682034
Si Si7 0.836209 0.586410 0.934358
Si Si8 0.206103 0.187339 0.210777
O O1 0.334265 0.070668 0.844484
O O2 0.402618 0.385687 0.707802
O O3 0.431354 0.222278 0.610163
O O4 0.000000 0.500000 0.000000
O O5 0.873392 0.256102 0.682732
O O6 0.000000 0.500000 0.500000
O O7 0.042367 0.293933 0.402664
O O8 0.604012 0.678207 0.763214
O O9 0.378853 0.128195 0.912938
O O10 0.139192 0.991536 0.149547
O O11 0.529791 0.333625 0.379319
O O12 0.739690 0.450265 0.080093
O O13 0.264671 0.786131 0.461522
O O14 0.090132 0.467933 0.766950
O O15 0.500000 0.000000 0.500000
O O16 0.859139 0.944219 0.736387
O O17 0.867103 0.587658 0.825239
O O18 0.500000 0.000000 0.000000
#
# Coordination Sequence:
#
# PCOD8010990 Si02
#       8
#     2   2   2   2   2   2   2   2
#     4  11  21  43  69  96 131 183 222 267 338 394
#     4  12  24  39  66 103 133 172 226 277 329 395
#     4  10  21  38  65  94 135 166 219 280 312 394
#     4  11  21  43  75  93 132 185 219 269 341 400
#     4  12  25  42  69  99 137 172 229 284 326 397
#     4  11  22  44  68  98 134 179 219 265 348 404
#     4  10  22  45  64  95 139 177 218 272 340 394
#     4  11  23  43  69  94 136 180 218 272 339 400
#
# _framework density 20.316286000000002
#
# number of rings (size 3 to 8) (size 9 to 14) (size 15 to 20)
#    0.000    1.000    5.000    4.875    1.750    0.500 
#    0.000    1.250    0.000    0.000    0.000    0.000 
#    0.000    0.000    0.000    0.000    0.000    0.000 
#
# Total GULP energy -198322.619870 kJ/mol
# GULP energy per Si atom -12395.163742 kJ/mol
# Density = 2.027005 g / cm^3
# Si number density = 20.316286 Si / 1000 Ang^3
#
#
#
# Elastic Constant Matrix: (Units=GPa)
#
#
# Indices 1 2 3 4 5 6 
#
# 1 87.1114 48.1286 29.9712 -16.3996 -17.4118 -9.0233
# 2 48.1286 154.4770 53.0372 -31.0403 4.4169 -12.1867
# 3 29.9712 53.0372 94.9381 -32.6107 -4.0757 0.3882
# 4 -16.3996 -31.0403 -32.6107 44.8030 -8.2894 8.5619
# 5 -17.4118 4.4169 -4.0757 -8.2894 37.4064 -8.3922
# 6 -9.0233 -12.1867 0.3882 8.5619 -8.3922 34.4731
#
#
#
# Elastic Compliance Matrix: (Units=1/GPa)
#
#
# Indices 1 2 3 4 5 6 
#
# 1 0.017511 -0.004133 -0.001657 0.003320 0.010275 0.004818
# 2 -0.004133 0.009498 -0.003519 0.001764 -0.002768 0.001203
# 3 -0.001657 -0.003519 0.016732 0.010390 0.002932 -0.003733
# 4 0.003320 0.001764 0.010390 0.034974 0.009075 -0.005101
# 5 0.010275 -0.002768 0.002932 0.009075 0.036011 0.008191
# 6 0.004818 0.001203 -0.003733 -0.005101 0.008191 0.033998
#
#
# Mechanical properties :
#
#
# Convention : Reuss Voigt Hill
#
# Bulk Modulus (GPa) = 39.80479 66.53340 53.16909
# Shear Modulus (GPa) = 28.45469 37.02913 32.74191
#
# Velocity S-wave (km/s) = 3.74650 4.27386 4.01884
# Velocity P-wave (km/s) = 6.19275 7.56138 6.91102
#
# Compressibility (1/GPa) = 0.02512260
#
# Stress axis : x y z
#
# Youngs Moduli (GPa) = 57.10583 105.28567 59.76446
#
# Poissons Ratio (x) = 0.43519 0.09904
# Poissons Ratio (y) = 0.23604 0.21031
# Poissons Ratio (z) = 0.09463 0.37050
#
# Static dielectric constant tensor:
#      x y z
#    x 3.872580 -0.388680 0.308500 
#    y -0.388680 3.668580 -0.256420 
#    z 0.308500 -0.256420 3.819120 
# 
# 
# High freq. dielectric constant tensor:
#      x y z
#    x 1.790400 -0.023810 0.002030 
#    y -0.023810 1.795450 -0.016610 
#    z 0.002030 -0.016610 1.805900 
# 
# From -- ./inp_files/601152.got.cif
#   From: 2010.06.25/outbox.cif.g09.slc.cpg/sg2_301_cif.got.tgz:601152.got - 2010.06.27 13:26:56.
