data_PCOD8010046
_publ_section_title
;
Structure prediction by ZEFSAII (Michael W. Deem and Ramdas Pophale) SiO2 
 PCOD8010046
Probable space group: P -1
;
_chemical_formula_sum "Si O2"
_cell_formula_units_Z 16
_cell_length_a 21.664748
_cell_length_b 8.837704
_cell_length_c 8.589071
_cell_angle_alpha 52.541102
_cell_angle_beta 44.661235
_cell_angle_gamma 43.127093
_cell_volume 776.537420
_symmetry_space_group_name_H-M "P -1"
_symmetry_group_IT_number 2
_symmetry_cell_setting 'triclinic'
loop_
_space_group_symop_operation_xyz
x,y,z
-x,-y,-z
loop_
_atom_site_type_symbol
_atom_site_label
_atom_site_fract_x
_atom_site_fract_y
_atom_site_fract_z
Si Si1 0.489303 0.085655 0.138940
Si Si2 0.976182 0.869751 0.250399
Si Si3 0.708762 0.806804 0.066168
Si Si4 0.663059 0.390327 0.939203
Si Si5 0.795799 0.482581 0.856415
Si Si6 0.789562 0.884339 0.465646
Si Si7 0.656045 0.006050 0.344713
Si Si8 0.784630 0.092185 0.634005
O O1 0.429054 0.355015 0.078301
O O2 0.599909 0.999191 0.068383
O O3 0.436119 0.977905 0.400585
O O4 0.500000 0.000000 0.000000
O O5 0.914048 0.773775 0.329031
O O6 0.080894 0.674439 0.262086
O O7 0.901901 0.031973 0.423833
O O8 0.000000 0.000000 0.000000
O O9 0.695757 0.799005 0.280526
O O10 0.750888 0.563643 0.062538
O O11 0.792229 0.879400 0.842529
O O12 0.744702 0.358925 0.945373
O O13 0.720819 0.312963 0.716071
O O14 0.618605 0.236146 0.170561
O O15 0.760161 0.703609 0.679005
O O16 0.750959 0.961456 0.312144
O O17 0.733069 0.100794 0.550774
#
# Coordination Sequence:
#
# PCOD8010046 Si02
#       8
#     2   2   2   2   2   2   2   2
#     4  12  23  44  64  94 127 165 211 257 317 367
#     4  10  21  37  64  94 125 161 214 257 308 375
#     4  10  22  41  64  92 126 165 210 263 302 377
#     4  11  23  41  68  92 126 169 203 259 317 368
#     4  11  20  41  65  90 124 173 205 254 325 359
#     4   9  19  41  61  89 128 164 203 260 304 374
#     4  11  23  42  63  95 128 162 214 256 308 377
#     4   8  21  39  62  89 123 166 199 259 309 365
#
# _framework density 20.604288
#
# number of rings (size 3 to 8) (size 9 to 14) (size 15 to 20)
#    0.750    1.000    2.500    2.250    0.000    4.000 
#    0.000    0.625    0.000    0.000    0.000    0.000 
#    0.000    0.000    0.000    0.000    0.000    0.000 
#
# Total GULP energy -198246.146593 kJ/mol
# GULP energy per Si atom -12390.384162 kJ/mol
# Density = 2.055739 g / cm^3
# Si number density = 20.604288 Si / 1000 Ang^3
#
#
#
# Elastic Constant Matrix: (Units=GPa)
#
#
# Indices 1 2 3 4 5 6 
#
# 1 81.0778 25.7480 33.4291 13.7730 23.6633 13.0229
# 2 25.7480 97.9728 44.9240 15.9501 14.1567 6.0481
# 3 33.4291 44.9240 137.9493 14.9031 8.7847 9.1686
# 4 13.7730 15.9501 14.9031 31.4328 11.4762 1.5184
# 5 23.6633 14.1567 8.7847 11.4762 38.7528 8.7105
# 6 13.0229 6.0481 9.1686 1.5184 8.7105 31.8514
#
#
#
# Elastic Compliance Matrix: (Units=1/GPa)
#
#
# Indices 1 2 3 4 5 6 
#
# 1 0.017208 -0.001549 -0.002655 -0.002480 -0.007766 -0.003735
# 2 -0.001549 0.013028 -0.003340 -0.003631 -0.001942 -0.000175
# 3 -0.002655 -0.003340 0.009180 -0.002035 0.001650 -0.001277
# 4 -0.002480 -0.003631 -0.002035 0.038793 -0.008828 0.002854
# 5 -0.007766 -0.001942 0.001650 -0.008828 0.034854 -0.006042
# 6 -0.003735 -0.000175 -0.001277 0.002854 -0.006042 0.034840
#
#
# Mechanical properties :
#
#
# Convention : Reuss Voigt Hill
#
# Bulk Modulus (GPa) = 41.10313 58.35580 49.72947
# Shear Modulus (GPa) = 29.22279 34.60068 31.91173
#
# Velocity S-wave (km/s) = 3.77010 4.10237 3.93974
# Velocity P-wave (km/s) = 6.24049 7.12901 6.69950
#
# Compressibility (1/GPa) = 0.02432905
#
# Stress axis : x y z
#
# Youngs Moduli (GPa) = 58.11200 76.75861 108.93636
#
# Poissons Ratio (x) = 0.11886 0.28923
# Poissons Ratio (y) = 0.08999 0.36382
# Poissons Ratio (z) = 0.15429 0.25635
#
# Static dielectric constant tensor:
#      x y z
#    x 3.850040 0.103470 0.035360 
#    y 0.103470 3.603000 0.237620 
#    z 0.035360 0.237620 3.872650 
# 
# 
# High freq. dielectric constant tensor:
#      x y z
#    x 1.808040 0.011160 0.001820 
#    y 0.011160 1.777780 0.005810 
#    z 0.001820 0.005810 1.815070 
# 
# From -- ./inp_files/343414.got.cif
#   From: 2010.06.25/outbox.cif.g09.slc.cpg/sg2_172_cif.got.tgz:343414.got - 2010.06.27 13:26:56.
