data_PCOD8010232
_publ_section_title
;
Structure prediction by ZEFSAII (Michael W. Deem and Ramdas Pophale) SiO2 
 PCOD8010232
Probable space group: P -1
;
_chemical_formula_sum "Si O2"
_cell_formula_units_Z 16
_cell_length_a 5.264619
_cell_length_b 12.287315
_cell_length_c 16.682255
_cell_angle_alpha 128.286361
_cell_angle_beta 105.010119
_cell_angle_gamma 99.697882
_cell_volume 737.134635
_symmetry_space_group_name_H-M "P -1"
_symmetry_group_IT_number 2
_symmetry_cell_setting 'triclinic'
loop_
_space_group_symop_operation_xyz
x,y,z
-x,-y,-z
loop_
_atom_site_type_symbol
_atom_site_label
_atom_site_fract_x
_atom_site_fract_y
_atom_site_fract_z
Si Si1 0.568795 0.037423 0.614856
Si Si2 0.885582 0.126050 0.049279
Si Si3 0.370703 0.939088 0.826038
Si Si4 0.411837 0.409641 0.871027
Si Si5 0.164965 0.601871 0.634905
Si Si6 0.174548 0.608963 0.223331
Si Si7 0.146592 0.046262 0.709191
Si Si8 0.709758 0.561305 0.715256
O O1 0.707760 0.218285 0.716571
O O2 0.287392 0.972387 0.621261
O O3 0.798550 0.973022 0.632804
O O4 0.500000 0.000000 0.500000
O O5 0.736938 0.113783 0.117181
O O6 0.141699 0.298816 0.144294
O O7 0.681965 0.086629 0.934576
O O8 0.000000 0.000000 0.000000
O O9 0.365264 0.783825 0.713874
O O10 0.188457 0.999653 0.781752
O O11 0.700807 0.471517 0.868156
O O12 0.282394 0.228615 0.794401
O O13 0.175713 0.458616 0.832512
O O14 0.500000 0.500000 0.000000
O O15 0.381039 0.534637 0.657445
O O16 0.000000 0.500000 0.500000
O O17 0.902732 0.590018 0.665177
O O18 0.297976 0.590674 0.311765
#
# Coordination Sequence:
#
# PCOD8010232 Si02
#       8
#     2   2   2   2   2   2   2   2
#     4  10  22  41  60  85 119 153 196 247 291 345
#     4  10  21  39  61  85 125 159 196 252 289 356
#     4  10  23  39  59  91 122 157 203 243 300 354
#     4  10  21  38  55  85 119 149 185 238 284 339
#     4  11  24  41  60  88 122 153 200 252 291 350
#     4  10  22  38  58  85 115 148 196 235 281 350
#     4  10  23  37  61  89 114 154 199 238 292 355
#     4  11  23  40  62  89 116 161 200 236 305 353
#
# _framework density 21.705670000000001
#
# number of rings (size 3 to 8) (size 9 to 14) (size 15 to 20)
#    0.000    1.750    1.250    1.875    3.500    3.000 
#    0.000    0.000    0.000    0.000    0.000    0.000 
#    0.000    0.000    0.000    0.000    0.000    0.000 
#
# Total GULP energy -198254.340442 kJ/mol
# GULP energy per Si atom -12390.896278 kJ/mol
# Density = 2.165627 g / cm^3
# Si number density = 21.705670 Si / 1000 Ang^3
#
#
#
# Elastic Constant Matrix: (Units=GPa)
#
#
# Indices 1 2 3 4 5 6 
#
# 1 126.1643 26.4900 48.6276 -4.2831 4.6453 -30.1934
# 2 26.4900 63.6891 23.8480 -27.5181 11.8494 -20.0824
# 3 48.6276 23.8480 144.9003 -17.6707 7.2044 -17.1870
# 4 -4.2831 -27.5181 -17.6707 26.3253 -11.0952 12.0603
# 5 4.6453 11.8494 7.2044 -11.0952 35.2453 -11.6473
# 6 -30.1934 -20.0824 -17.1870 12.0603 -11.6473 31.4185
#
#
#
# Elastic Compliance Matrix: (Units=1/GPa)
#
#
# Indices 1 2 3 4 5 6 
#
# 1 0.012620 -0.004992 -0.003352 -0.010121 0.001305 0.011472
# 2 -0.004992 0.032631 0.000709 0.032195 0.001173 0.004524
# 3 -0.003352 0.000709 0.008617 0.006266 0.000299 -0.000348
# 4 -0.010121 0.032195 0.006266 0.085586 0.011435 -0.014334
# 5 0.001305 0.001173 0.000299 0.011435 0.034884 0.010710
# 6 0.011472 0.004524 -0.000348 -0.014334 0.010710 0.055027
#
#
# Mechanical properties :
#
#
# Convention : Reuss Voigt Hill
#
# Bulk Modulus (GPa) = 25.90750 59.18723 42.54736
# Shear Modulus (GPa) = 19.41734 34.31702 26.86718
#
# Velocity S-wave (km/s) = 2.99419 3.98051 3.52205
# Velocity P-wave (km/s) = 4.89033 6.96084 6.01534
#
# Compressibility (1/GPa) = 0.03859887
#
# Stress axis : x y z
#
# Youngs Moduli (GPa) = 79.23778 30.64581 116.04355
#
# Poissons Ratio (x) = 0.15299 0.38898
# Poissons Ratio (y) = 0.39558 -0.08232
# Poissons Ratio (z) = 0.26561 -0.02174
#
# Static dielectric constant tensor:
#      x y z
#    x 4.510350 -0.168430 0.238100 
#    y -0.168430 3.850140 0.144560 
#    z 0.238100 0.144560 3.583280 
# 
# 
# High freq. dielectric constant tensor:
#      x y z
#    x 1.860680 -0.015990 0.000020 
#    y -0.015990 1.840920 -0.005100 
#    z 0.000020 -0.005100 1.853430 
# 
# From -- ./inp_files/68589.got.cif
#   From: 2010.06.25/outbox.cif.g09.slc.cpg/sg2_35_cif.got.tgz:68589.got - 2010.06.27 13:26:56.
