data_PCOD8010379
_publ_section_title
;
Structure prediction by ZEFSAII (Michael W. Deem and Ramdas Pophale) SiO2 
 PCOD8010379
Probable space group: P -1
;
_chemical_formula_sum "Si O2"
_cell_formula_units_Z 12
_cell_length_a 11.224136
_cell_length_b 13.200670
_cell_length_c 11.636496
_cell_angle_alpha 56.896480
_cell_angle_beta 141.215873
_cell_angle_gamma 147.918953
_cell_volume 538.664006
_symmetry_space_group_name_H-M "P -1"
_symmetry_group_IT_number 2
_symmetry_cell_setting 'triclinic'
loop_
_space_group_symop_operation_xyz
x,y,z
-x,-y,-z
loop_
_atom_site_type_symbol
_atom_site_label
_atom_site_fract_x
_atom_site_fract_y
_atom_site_fract_z
Si Si1 0.218345 0.262620 0.958516
Si Si2 0.286512 0.898024 0.788997
Si Si3 0.091951 0.527380 0.180081
Si Si4 0.692790 0.165858 0.710690
Si Si5 0.224870 0.112103 0.276167
Si Si6 0.710748 0.726132 0.545686
O O1 0.878691 0.154885 0.793292
O O2 0.500000 0.500000 0.000000
O O3 0.333726 0.236714 0.165317
O O4 0.121799 0.129451 0.858221
O O5 0.071597 0.668776 0.761788
O O6 0.039430 0.885329 0.621812
O O7 0.475770 0.998254 0.751501
O O8 0.500000 0.000000 0.000000
O O9 0.025436 0.610172 0.156948
O O10 0.481790 0.720517 0.344489
O O11 0.000000 0.500000 0.000000
O O12 0.488427 0.144440 0.483625
O O13 0.191344 0.199989 0.293107
O O14 0.500000 0.500000 0.500000
#
# Coordination Sequence:
#
# PCOD8010379 Si02
#       6
#     2   2   2   2   2   2
#     4  11  26  46  69  94 128 174 228 283 322 386
#     4  11  21  38  63  95 136 173 209 266 324 393
#     4  10  21  38  59  96 130 171 213 255 321 394
#     4  11  24  43  65  95 133 172 218 271 330 389
#     4  10  24  45  67  98 129 170 227 267 333 394
#     4   9  21  39  64  96 134 168 210 264 325 396
#
# _framework density 22.277336999999999
#
# number of rings (size 3 to 8) (size 9 to 14) (size 15 to 20)
#    0.000    1.667    1.667    1.500    2.333   11.333 
#    3.000    0.000    0.000    0.000    0.000    0.000 
#    0.000    0.000    0.000    0.000    0.000    0.000 
#
# Total GULP energy -148682.204321 kJ/mol
# GULP energy per Si atom -12390.183693 kJ/mol
# Density = 2.222663 g / cm^3
# Si number density = 22.277337 Si / 1000 Ang^3
#
#
#
# Elastic Constant Matrix: (Units=GPa)
#
#
# Indices 1 2 3 4 5 6 
#
# 1 99.2981 41.6736 44.8498 13.3126 -13.8151 -1.9014
# 2 41.6736 131.4856 52.2273 11.9859 -9.8139 4.3255
# 3 44.8498 52.2273 113.5007 -2.0052 -17.9740 4.7120
# 4 13.3126 11.9859 -2.0052 40.5273 -7.3598 -5.4425
# 5 -13.8151 -9.8139 -17.9740 -7.3598 45.7249 13.0281
# 6 -1.9014 4.3255 4.7120 -5.4425 13.0281 33.3410
#
#
#
# Elastic Compliance Matrix: (Units=1/GPa)
#
#
# Indices 1 2 3 4 5 6 
#
# 1 0.013598 -0.002209 -0.004258 -0.003729 0.001192 0.000589
# 2 -0.002209 0.010080 -0.003762 -0.002624 -0.000029 -0.001319
# 3 -0.004258 -0.003762 0.013101 0.003593 0.004417 -0.002746
# 4 -0.003729 -0.002624 0.003593 0.027851 0.003397 0.002839
# 5 0.001192 -0.000029 0.004417 0.003397 0.027576 -0.010774
# 6 0.000589 -0.001319 -0.002746 0.002839 -0.010774 0.035259
#
#
# Mechanical properties :
#
#
# Convention : Reuss Voigt Hill
#
# Bulk Modulus (GPa) = 61.26973 69.08731 65.17852
# Shear Modulus (GPa) = 32.60201 37.62088 35.11144
#
# Velocity S-wave (km/s) = 3.82967 4.11390 3.97433
# Velocity P-wave (km/s) = 6.86426 7.32429 7.09800
#
# Compressibility (1/GPa) = 0.01632127
#
# Stress axis : x y z
#
# Youngs Moduli (GPa) = 73.53945 99.20522 76.32974
#
# Poissons Ratio (x) = 0.21913 0.32504
# Poissons Ratio (y) = 0.16244 0.28713
# Poissons Ratio (z) = 0.31316 0.37318
#
# Static dielectric constant tensor:
#      x y z
#    x 4.513430 -0.724200 -0.135380 
#    y -0.724200 4.575800 0.524670 
#    z -0.135380 0.524670 4.549450 
# 
# 
# High freq. dielectric constant tensor:
#      x y z
#    x 1.876240 -0.027810 -0.005390 
#    y -0.027810 1.879340 0.005910 
#    z -0.005390 0.005910 1.890110 
# 
# From -- ./inp_files/170977.got.cif
#   From: 2010.06.25/outbox.cif.g09.slc.cpg/sg2_86_cif.got.tgz:170977.got - 2010.06.27 13:26:56.
