data_PCOD8010554
_publ_section_title
;
Structure prediction by ZEFSAII (Michael W. Deem and Ramdas Pophale) SiO2 
 PCOD8010554
Probable space group: P -1
;
_chemical_formula_sum "Si O2"
_cell_formula_units_Z 16
_cell_length_a 5.485243
_cell_length_b 9.272835
_cell_length_c 21.600216
_cell_angle_alpha 126.128870
_cell_angle_beta 123.454793
_cell_angle_gamma 51.352928
_cell_volume 663.231763
_symmetry_space_group_name_H-M "P -1"
_symmetry_group_IT_number 2
_symmetry_cell_setting 'triclinic'
loop_
_space_group_symop_operation_xyz
x,y,z
-x,-y,-z
loop_
_atom_site_type_symbol
_atom_site_label
_atom_site_fract_x
_atom_site_fract_y
_atom_site_fract_z
Si Si1 0.233157 0.267926 0.475841
Si Si2 0.097697 0.946312 0.430643
Si Si3 0.377808 0.962225 0.168773
Si Si4 0.522384 0.283312 0.215875
Si Si5 0.956402 0.255881 0.738554
Si Si6 0.803915 0.299894 0.006050
Si Si7 0.812521 0.931592 0.692404
Si Si8 0.508908 0.205741 0.062686
O O1 0.520587 0.216616 0.552843
O O2 0.362344 0.175729 0.401057
O O3 0.000000 0.500000 0.500000
O O4 0.027080 0.150950 0.437832
O O5 0.920817 0.838724 0.337921
O O6 0.000000 0.000000 0.500000
O O7 0.156265 0.868715 0.082732
O O8 0.748603 0.784902 0.182970
O O9 0.345579 0.140893 0.164615
O O10 0.292489 0.045443 0.246344
O O11 0.265528 0.511887 0.242061
O O12 0.684101 0.229331 0.155764
O O13 0.800861 0.224870 0.292167
O O14 0.748343 0.145434 0.708445
O O15 0.500000 0.500000 0.000000
O O16 0.710624 0.241612 0.044911
O O17 0.118210 0.346637 0.056175
O O18 0.500000 0.000000 0.000000
#
# Coordination Sequence:
#
# PCOD8010554 Si02
#       8
#     2   2   2   2   2   2   2   2
#     4  10  21  38  61  91 123 163 206 258 318 380
#     4  10  21  38  62  89 125 160 208 260 312 384
#     4  11  24  41  62  90 126 164 211 267 321 387
#     4  11  24  40  64  88 127 165 212 265 323 387
#     4  10  23  41  60  92 123 165 208 260 324 384
#     4  12  27  44  70  98 132 176 225 275 334 395
#     4  10  23  40  61  90 127 162 208 263 320 385
#     4  12  25  45  68  97 133 174 224 276 332 393
#
# _framework density 24.124298
#
# number of rings (size 3 to 8) (size 9 to 14) (size 15 to 20)
#    0.000    1.250    1.250    3.750    5.250    2.500 
#    0.000    0.000    0.000    0.000    0.000    0.000 
#    0.000    0.000    0.000    0.000    0.000    0.000 
#
# Total GULP energy -198251.906393 kJ/mol
# GULP energy per Si atom -12390.744150 kJ/mol
# Density = 2.406939 g / cm^3
# Si number density = 24.124298 Si / 1000 Ang^3
#
#
#
# Elastic Constant Matrix: (Units=GPa)
#
#
# Indices 1 2 3 4 5 6 
#
# 1 59.7975 -0.0609 15.0914 -8.7580 -14.8537 5.5657
# 2 -0.0609 153.0479 16.8376 3.1757 -2.4558 4.7072
# 3 15.0914 16.8376 130.3761 -8.7016 -18.3033 14.1928
# 4 -8.7580 3.1757 -8.7016 32.5609 -7.3908 -2.1095
# 5 -14.8537 -2.4558 -18.3033 -7.3908 53.0990 -5.4089
# 6 5.5657 4.7072 14.1928 -2.1095 -5.4089 16.4725
#
#
#
# Elastic Compliance Matrix: (Units=1/GPa)
#
#
# Indices 1 2 3 4 5 6 
#
# 1 0.019539 0.000153 -0.000698 0.006139 0.005743 -0.003372
# 2 0.000153 0.006685 -0.000818 -0.000972 -0.000213 -0.001452
# 3 -0.000698 -0.000818 0.009061 0.002507 0.002612 -0.006159
# 4 0.006139 -0.000972 0.002507 0.035082 0.007733 0.003075
# 5 0.005743 -0.000213 0.002612 0.007733 0.022851 0.004363
# 6 -0.003372 -0.001452 -0.006159 0.003075 0.004363 0.069394
#
#
# Mechanical properties :
#
#
# Convention : Reuss Voigt Hill
#
# Bulk Modulus (GPa) = 30.71332 45.21752 37.96542
# Shear Modulus (GPa) = 28.37814 41.18337 34.78076
#
# Velocity S-wave (km/s) = 3.43349 4.13623 3.80113
# Velocity P-wave (km/s) = 5.33642 6.44945 5.91916
#
# Compressibility (1/GPa) = 0.03255916
#
# Stress axis : x y z
#
# Youngs Moduli (GPa) = 51.17941 149.58110 110.36297
#
# Poissons Ratio (x) = -0.02290 0.07708
# Poissons Ratio (y) = -0.00783 0.09026
# Poissons Ratio (z) = 0.03574 0.12233
#
# Static dielectric constant tensor:
#      x y z
#    x 5.206580 -0.235830 0.671530 
#    y -0.235830 4.543570 -0.528150 
#    z 0.671530 -0.528150 5.502680 
# 
# 
# High freq. dielectric constant tensor:
#      x y z
#    x 1.944060 -0.013950 -0.004900 
#    y -0.013950 1.964360 -0.019390 
#    z -0.004900 -0.019390 1.978880 
# 
# From -- ./inp_files/47674.got.cif
#   From: 2010.06.25/outbox.cif.g09.slc.cpg/sg2_24_cif.got.tgz:47674.got - 2010.06.27 13:26:56.
