data_PCOD8010147
_publ_section_title
;
Structure prediction by ZEFSAII (Michael W. Deem and Ramdas Pophale) SiO2 
 PCOD8010147
Probable space group: P -1
;
_chemical_formula_sum "Si O2"
_cell_formula_units_Z 14
_cell_length_a 19.524489
_cell_length_b 8.630246
_cell_length_c 24.102075
_cell_angle_alpha 38.460923
_cell_angle_beta 162.838979
_cell_angle_gamma 148.387179
_cell_volume 615.651522
_symmetry_space_group_name_H-M "P -1"
_symmetry_group_IT_number 2
_symmetry_cell_setting 'triclinic'
loop_
_space_group_symop_operation_xyz
x,y,z
-x,-y,-z
loop_
_atom_site_type_symbol
_atom_site_label
_atom_site_fract_x
_atom_site_fract_y
_atom_site_fract_z
Si Si1 0.049472 0.411310 0.888152
Si Si2 0.879453 0.659334 0.486690
Si Si3 0.008372 0.213504 0.091689
Si Si4 0.637905 0.734846 0.741774
Si Si5 0.821531 0.758601 0.664304
Si Si6 0.908587 0.602865 0.347526
Si Si7 0.550755 0.577673 0.880984
O O1 0.966383 0.644019 0.768906
O O2 0.237143 0.412537 0.082590
O O3 0.229735 0.508973 0.942244
O O4 0.764344 0.079475 0.757935
O O5 0.699024 0.454595 0.457332
O O6 0.118055 0.600367 0.669797
O O7 0.674359 0.538814 0.309214
O O8 0.000000 0.000000 0.500000
O O9 0.295211 0.289930 0.263294
O O10 0.006077 0.123165 0.178343
O O11 0.000000 0.500000 0.000000
O O12 0.736561 0.942216 0.925232
O O13 0.500000 0.500000 0.500000
O O14 0.856115 0.045670 0.580846
O O15 0.000000 0.500000 0.500000
O O16 0.609077 0.551941 0.146896
#
# Coordination Sequence:
#
# PCOD8010147 Si02
#       7
#     2   2   2   2   2   2   2
#     4   9  18  38  65  96 126 174 217 273 324 387
#     4  10  21  37  66  96 127 182 219 265 331 394
#     4  11  23  38  68  98 128 176 214 272 335 386
#     4   9  18  37  62  93 134 169 219 266 327 398
#     4  12  26  40  67 104 133 172 228 275 328 400
#     4  10  24  44  65  94 140 176 216 279 338 385
#     4   9  22  41  65  91 132 174 224 266 321 405
#
# _framework density 22.740138999999999
#
# number of rings (size 3 to 8) (size 9 to 14) (size 15 to 20)
#    0.000    2.000    1.429    1.714    6.000    2.286 
#    0.000   12.143    0.000    0.000    0.000    0.000 
#    0.000    0.000    0.000    0.000    0.000    0.000 
#
# Total GULP energy -173488.370359 kJ/mol
# GULP energy per Si atom -12392.026454 kJ/mol
# Density = 2.268838 g / cm^3
# Si number density = 22.740139 Si / 1000 Ang^3
#
#
#
# Elastic Constant Matrix: (Units=GPa)
#
#
# Indices 1 2 3 4 5 6 
#
# 1 143.2541 82.0576 56.1236 8.6601 51.8724 -13.9337
# 2 82.0576 154.1430 42.3142 3.3682 19.2856 -12.3127
# 3 56.1236 42.3142 61.6993 12.2350 24.4155 -7.5686
# 4 8.6601 3.3682 12.2350 33.9943 3.6075 4.3700
# 5 51.8724 19.2856 24.4155 3.6075 50.5405 0.7116
# 6 -13.9337 -12.3127 -7.5686 4.3700 0.7116 43.8820
#
#
#
# Elastic Compliance Matrix: (Units=1/GPa)
#
#
# Indices 1 2 3 4 5 6 
#
# 1 0.018033 -0.005858 -0.006714 -0.000626 -0.013031 0.003198
# 2 -0.005858 0.010020 -0.003205 0.001238 0.003645 0.000216
# 3 -0.006714 -0.003205 0.028463 -0.008030 -0.005102 0.002760
# 4 -0.000626 0.001238 -0.008030 0.032737 0.001776 -0.004525
# 5 -0.013031 0.003645 -0.005102 0.001776 0.034173 -0.004726
# 6 0.003198 0.000216 0.002760 -0.004525 -0.004726 0.024868
#
#
# Mechanical properties :
#
#
# Convention : Reuss Voigt Hill
#
# Bulk Modulus (GPa) = 40.05938 80.00971 60.03455
# Shear Modulus (GPa) = 26.57209 37.59009 32.08109
#
# Velocity S-wave (km/s) = 3.42206 4.07016 3.76010
# Velocity P-wave (km/s) = 5.76787 7.57291 6.73117
#
# Compressibility (1/GPa) = 0.02496294
#
# Stress axis : x y z
#
# Youngs Moduli (GPa) = 55.45241 99.80357 35.13393
#
# Poissons Ratio (x) = 0.58461 0.23588
# Poissons Ratio (y) = 0.32482 0.11260
# Poissons Ratio (z) = 0.37230 0.31987
#
# Static dielectric constant tensor:
#      x y z
#    x 4.682000 -0.141120 0.781110 
#    y -0.141120 3.870390 0.131360 
#    z 0.781110 0.131360 4.163080 
# 
# 
# High freq. dielectric constant tensor:
#      x y z
#    x 1.918640 -0.015070 0.035880 
#    y -0.015070 1.886080 0.011620 
#    z 0.035880 0.011620 1.868120 
# 
# From -- ./inp_files/620624.got.cif
#   From: 2010.06.25/outbox.cif.g09.slc.cpg/sg2_311_cif.got.tgz:620624.got - 2010.06.27 13:26:56.
