data_PCOD8010452
_publ_section_title
;
Structure prediction by ZEFSAII (Michael W. Deem and Ramdas Pophale) SiO2 
 PCOD8010452
Probable space group: P -1
;
_chemical_formula_sum "Si O2"
_cell_formula_units_Z 16
_cell_length_a 9.442285
_cell_length_b 10.788255
_cell_length_c 13.653941
_cell_angle_alpha 138.901717
_cell_angle_beta 116.132792
_cell_angle_gamma 81.172064
_cell_volume 782.404052
_symmetry_space_group_name_H-M "P -1"
_symmetry_group_IT_number 2
_symmetry_cell_setting 'triclinic'
loop_
_space_group_symop_operation_xyz
x,y,z
-x,-y,-z
loop_
_atom_site_type_symbol
_atom_site_label
_atom_site_fract_x
_atom_site_fract_y
_atom_site_fract_z
Si Si1 0.843176 0.787265 0.410364
Si Si2 0.664482 0.573630 0.532840
Si Si3 0.195481 0.568119 0.249240
Si Si4 0.525728 0.532698 0.255144
Si Si5 0.281940 0.133701 0.923616
Si Si6 0.845930 0.838138 0.899059
Si Si7 0.977572 0.789506 0.241731
Si Si8 0.175774 0.737146 0.539643
O O1 0.653349 0.650828 0.282914
O O2 0.866979 0.799156 0.308287
O O3 0.977219 0.699677 0.453460
O O4 0.871531 0.005207 0.594599
O O5 0.500000 0.500000 0.500000
O O6 0.628595 0.593862 0.421715
O O7 0.745895 0.783047 0.734525
O O8 0.783943 0.435065 0.489764
O O9 0.358799 0.595179 0.250220
O O10 0.127069 0.359120 0.161583
O O11 0.239887 0.738814 0.448458
O O12 0.052623 0.605821 0.159433
O O13 0.464332 0.296463 0.072122
O O14 0.142285 0.234805 0.903732
O O15 0.275254 0.945838 0.743706
O O16 0.243610 0.071102 0.989085
O O17 0.000000 0.000000 0.000000
#
# Coordination Sequence:
#
# PCOD8010452 Si02
#       8
#     2   2   2   2   2   2   2   2
#     4   9  20  37  59  87 115 154 196 246 289 356
#     4  11  20  41  59  82 124 161 185 247 296 351
#     4   9  19  40  63  84 121 161 192 237 297 352
#     4  11  22  36  59  90 120 154 197 242 301 336
#     4  10  21  38  60  91 119 153 197 250 286 346
#     4  10  22  38  59  87 121 152 197 238 290 349
#     4   9  19  39  61  82 120 156 199 239 292 346
#     4   9  19  38  61  83 115 162 194 226 298 352
#
# _framework density 20.449791999999999
#
# number of rings (size 3 to 8) (size 9 to 14) (size 15 to 20)
#    0.000    2.250    3.750    0.750    3.500    4.000 
#    4.500    0.000    2.750    0.000    0.000    0.000 
#    0.000    0.000    0.000    0.000    0.000    0.000 
#
# Total GULP energy -198227.868031 kJ/mol
# GULP energy per Si atom -12389.241752 kJ/mol
# Density = 2.040325 g / cm^3
# Si number density = 20.449792 Si / 1000 Ang^3
#
#
#
# Elastic Constant Matrix: (Units=GPa)
#
#
# Indices 1 2 3 4 5 6 
#
# 1 86.3270 20.6995 46.7981 22.5346 14.1496 12.2617
# 2 20.6995 43.9058 16.4735 -4.1557 6.1545 2.0203
# 3 46.7981 16.4735 136.7822 -0.9976 9.4974 22.7122
# 4 22.5346 -4.1557 -0.9976 30.1789 8.1323 6.8980
# 5 14.1496 6.1545 9.4974 8.1323 36.6051 10.4953
# 6 12.2617 2.0203 22.7122 6.8980 10.4953 32.2036
#
#
#
# Elastic Compliance Matrix: (Units=1/GPa)
#
#
# Indices 1 2 3 4 5 6 
#
# 1 0.022304 -0.009535 -0.006705 -0.018032 -0.001624 0.001226
# 2 -0.009535 0.028931 0.000063 0.012076 -0.004019 0.000494
# 3 -0.006705 0.000063 0.010719 0.006819 0.000155 -0.006522
# 4 -0.018032 0.012076 0.006819 0.051927 -0.006121 -0.007829
# 5 -0.001624 -0.004019 0.000155 -0.006121 0.032373 -0.008478
# 6 0.001226 0.000494 -0.006522 -0.007829 -0.008478 0.039594
#
#
# Mechanical properties :
#
#
# Convention : Reuss Voigt Hill
#
# Bulk Modulus (GPa) = 33.78316 48.32856 41.05586
# Shear Modulus (GPa) = 21.92320 32.00046 26.96183
#
# Velocity S-wave (km/s) = 3.27777 3.96009 3.63497
# Velocity P-wave (km/s) = 5.55706 6.67786 6.14308
#
# Compressibility (1/GPa) = 0.02960054
#
# Stress axis : x y z
#
# Youngs Moduli (GPa) = 44.83527 34.56466 93.29018
#
# Poissons Ratio (x) = 0.32957 0.62551
# Poissons Ratio (y) = 0.42750 -0.00587
# Poissons Ratio (z) = 0.30062 -0.00218
#
# Static dielectric constant tensor:
#      x y z
#    x 3.322120 -0.436570 -0.208430 
#    y -0.436570 3.361810 -0.154070 
#    z -0.208430 -0.154070 3.919630 
# 
# 
# High freq. dielectric constant tensor:
#      x y z
#    x 1.779400 -0.003800 -0.013860 
#    y -0.003800 1.781860 -0.013120 
#    z -0.013860 -0.013120 1.817590 
# 
# From -- ./inp_files/311339.got.cif
#   From: 2010.06.25/outbox.cif.g09.slc.cpg/sg2_156_cif.got.tgz:311339.got - 2010.06.27 13:26:56.
