data_PCOD8010760
_publ_section_title
;
Structure prediction by ZEFSAII (Michael W. Deem and Ramdas Pophale) SiO2 
 PCOD8010760
Probable space group: P -1
;
_chemical_formula_sum "Si O2"
_cell_formula_units_Z 16
_cell_length_a 8.195617
_cell_length_b 19.373426
_cell_length_c 11.032136
_cell_angle_alpha 156.541054
_cell_angle_beta 78.670499
_cell_angle_gamma 104.402280
_cell_volume 673.114606
_symmetry_space_group_name_H-M "P -1"
_symmetry_group_IT_number 2
_symmetry_cell_setting 'triclinic'
loop_
_space_group_symop_operation_xyz
x,y,z
-x,-y,-z
loop_
_atom_site_type_symbol
_atom_site_label
_atom_site_fract_x
_atom_site_fract_y
_atom_site_fract_z
Si Si1 0.354315 0.435506 0.570262
Si Si2 0.171004 0.703397 0.612370
Si Si3 0.467297 0.191910 0.338852
Si Si4 0.066301 0.692747 0.349848
Si Si5 0.726999 0.916688 0.391795
Si Si6 0.256755 0.417715 0.296696
Si Si7 0.340584 0.775899 0.261949
Si Si8 0.177797 0.069900 0.337839
O O1 0.346726 0.253764 0.352209
O O2 0.224345 0.397023 0.413171
O O3 0.546877 0.500480 0.607534
O O4 0.296296 0.582459 0.899527
O O5 0.350261 0.683766 0.489981
O O6 0.044894 0.687198 0.490242
O O7 0.137332 0.542932 0.455063
O O8 0.167308 0.880751 0.971777
O O9 0.362586 0.188880 0.474430
O O10 0.500000 0.000000 0.000000
O O11 0.258902 0.760789 0.384215
O O12 0.964545 0.834237 0.539630
O O13 0.000000 0.500000 0.000000
O O14 0.537864 0.852256 0.364682
O O15 0.846017 0.950918 0.547833
O O16 0.746802 0.096797 0.605352
O O17 0.788149 0.772393 0.064815
#
# Coordination Sequence:
#
# PCOD8010760 Si02
#       8
#     2   2   2   2   2   2   2   2
#     4   9  17  33  56  86 118 150 189 238 294 348
#     4  10  21  39  60  85 117 157 202 247 294 350
#     4   9  19  34  61  90 115 151 200 249 291 344
#     4  12  25  40  59  85 124 162 197 241 296 359
#     4  10  21  38  63  92 118 151 200 252 297 345
#     4   9  18  33  58  87 115 146 190 246 296 342
#     4  10  22  39  62  90 122 157 196 246 298 352
#     4  11  22  38  60  86 120 158 198 245 298 356
#
# _framework density 23.770098000000001
#
# number of rings (size 3 to 8) (size 9 to 14) (size 15 to 20)
#    0.000    2.000    0.000    3.375    0.000    8.500 
#    0.000    6.250    0.000    5.250    0.000    0.000 
#    0.000    0.000    0.000    0.000    0.000    0.000 
#
# Total GULP energy -198349.108349 kJ/mol
# GULP energy per Si atom -12396.819272 kJ/mol
# Density = 2.371600 g / cm^3
# Si number density = 23.770098 Si / 1000 Ang^3
#
#
#
# Elastic Constant Matrix: (Units=GPa)
#
#
# Indices 1 2 3 4 5 6 
#
# 1 31.9961 13.1315 30.7133 5.9514 -8.6192 -30.2391
# 2 13.1315 137.1639 67.2149 -2.1276 -9.5852 -48.7706
# 3 30.7133 67.2149 142.5413 8.6069 -19.8259 -35.7913
# 4 5.9514 -2.1276 8.6069 41.8618 -13.2920 -2.1959
# 5 -8.6192 -9.5852 -19.8259 -13.2920 30.0323 2.2281
# 6 -30.2391 -48.7706 -35.7913 -2.1959 2.2281 54.7091
#
#
#
# Elastic Compliance Matrix: (Units=1/GPa)
#
#
# Indices 1 2 3 4 5 6 
#
# 1 0.106557 0.022471 -0.012707 -0.000068 0.024169 0.069628
# 2 0.022471 0.016991 -0.006140 0.002430 0.007161 0.023356
# 3 -0.012707 -0.006140 0.011766 -0.000443 0.002329 -0.004912
# 4 -0.000068 0.002430 -0.000443 0.028309 0.012811 0.002454
# 5 0.024169 0.007161 0.002329 0.012811 0.048257 0.019816
# 6 0.069628 0.023356 -0.004912 0.002454 0.019816 0.073662
#
#
# Mechanical properties :
#
#
# Convention : Reuss Voigt Hill
#
# Bulk Modulus (GPa) = 7.01448 59.31341 33.16395
# Shear Modulus (GPa) = 15.34615 38.69676 27.02145
#
# Velocity S-wave (km/s) = 2.54364 4.03918 3.37528
# Velocity P-wave (km/s) = 3.40355 6.83816 5.40114
#
# Compressibility (1/GPa) = 0.14256217
#
# Stress axis : x y z
#
# Youngs Moduli (GPa) = 9.38463 58.85626 84.99055
#
# Poissons Ratio (x) = -1.32254 1.07995
# Poissons Ratio (y) = -0.21088 0.52183
# Poissons Ratio (z) = 0.11925 0.36137
#
# Static dielectric constant tensor:
#      x y z
#    x 4.323700 0.240040 -0.126840 
#    y 0.240040 5.386180 0.873760 
#    z -0.126840 0.873760 5.087900 
# 
# 
# High freq. dielectric constant tensor:
#      x y z
#    x 1.934690 -0.002910 -0.017580 
#    y -0.002910 1.960900 0.007260 
#    z -0.017580 0.007260 1.931930 
# 
# From -- ./inp_files/405769.got.cif
#   From: 2010.06.25/outbox.cif.g09.slc.cpg/sg2_203_cif.got.tgz:405769.got - 2010.06.27 13:26:56.
