data_PCOD8010608
_publ_section_title
;
Structure prediction by ZEFSAII (Michael W. Deem and Ramdas Pophale) SiO2 
 PCOD8010608
Probable space group: P -1
;
_chemical_formula_sum "Si O2"
_cell_formula_units_Z 16
_cell_length_a 6.277783
_cell_length_b 7.364530
_cell_length_c 17.499148
_cell_angle_alpha 74.249319
_cell_angle_beta 69.247727
_cell_angle_gamma 68.562771
_cell_volume 694.780691
_symmetry_space_group_name_H-M "P -1"
_symmetry_group_IT_number 2
_symmetry_cell_setting 'triclinic'
loop_
_space_group_symop_operation_xyz
x,y,z
-x,-y,-z
loop_
_atom_site_type_symbol
_atom_site_label
_atom_site_fract_x
_atom_site_fract_y
_atom_site_fract_z
Si Si1 0.388894 0.229813 0.071325
Si Si2 0.333920 0.887168 0.390331
Si Si3 0.091525 0.206982 0.494555
Si Si4 0.213074 0.434305 0.583612
Si Si5 0.882267 0.325948 0.167273
Si Si6 0.372057 0.988707 0.788026
Si Si7 0.996801 0.382604 0.768106
Si Si8 0.462395 0.595292 0.099965
O O1 0.539231 0.076275 0.130822
O O2 0.366726 0.453236 0.073764
O O3 0.120942 0.213520 0.102211
O O4 0.517218 0.212140 0.973125
O O5 0.063653 0.878205 0.415422
O O6 0.515606 0.665016 0.409215
O O7 0.414321 0.985100 0.294815
O O8 0.308991 0.039179 0.447244
O O9 0.892866 0.329179 0.442907
O O10 0.212329 0.343018 0.510338
O O11 0.035871 0.379909 0.672720
O O12 0.739288 0.168040 0.221828
O O13 0.960682 0.418900 0.223657
O O14 0.720036 0.497046 0.114987
O O15 0.180993 0.195950 0.805011
O O16 0.735943 0.352412 0.814123
#
# Coordination Sequence:
#
# PCOD8010608 Si02
#       8
#     2   2   2   2   2   2   2   2
#     4   9  19  37  61  90 122 158 204 248 295 360
#     4  10  22  41  60  93 121 156 205 248 306 368
#     4  10  22  40  66  84 122 162 194 256 310 360
#     4  10  22  41  60  93 121 156 205 248 306 368
#     4  10  21  38  62  86 118 170 196 246 306 350
#     4  10  23  40  60  91 123 158 201 252 298 363
#     4  10  23  40  60  91 123 158 201 252 298 363
#     4   9  19  37  61  90 122 158 204 248 295 360
#
# _framework density 23.028851
#
# number of rings (size 3 to 8) (size 9 to 14) (size 15 to 20)
#    0.000    2.250    0.000    1.125    5.250    6.500 
#   11.250    1.250    0.000    0.000    0.000    0.000 
#    0.000    0.000    0.000    0.000    0.000    0.000 
#
# Total GULP energy -198238.819927 kJ/mol
# GULP energy per Si atom -12389.926245 kJ/mol
# Density = 2.297644 g / cm^3
# Si number density = 23.028851 Si / 1000 Ang^3
#
#
#
# Elastic Constant Matrix: (Units=GPa)
#
#
# Indices 1 2 3 4 5 6 
#
# 1 56.5868 6.5677 22.3024 -3.0767 -6.5293 -15.0064
# 2 6.5677 59.7851 10.4571 -5.3462 -6.4045 -9.7139
# 3 22.3024 10.4571 76.2406 -5.8981 -12.8827 -16.5833
# 4 -3.0767 -5.3462 -5.8981 32.9824 -1.7455 -4.2766
# 5 -6.5293 -6.4045 -12.8827 -1.7455 26.0683 10.4483
# 6 -15.0064 -9.7139 -16.5833 -4.2766 10.4483 22.1256
#
#
#
# Elastic Compliance Matrix: (Units=1/GPa)
#
#
# Indices 1 2 3 4 5 6 
#
# 1 0.022863 0.000607 -0.003626 0.003372 -0.001461 0.014397
# 2 0.000607 0.018623 -0.000319 0.004194 0.001455 0.008473
# 3 -0.003626 -0.000319 0.017227 0.004096 0.004133 0.009153
# 4 0.003372 0.004194 0.004096 0.033820 0.000812 0.013352
# 5 -0.001461 0.001455 0.004133 0.000812 0.048457 -0.019980
# 6 0.014397 0.008473 0.009153 0.013352 -0.019980 0.077558
#
#
# Mechanical properties :
#
#
# Convention : Reuss Voigt Hill
#
# Bulk Modulus (GPa) = 19.21658 30.14076 24.67867
# Shear Modulus (GPa) = 20.61262 26.45426 23.53344
#
# Velocity S-wave (km/s) = 2.99503 3.39299 3.20020
# Velocity P-wave (km/s) = 4.50810 5.33540 4.93910
#
# Compressibility (1/GPa) = 0.05203841
#
# Stress axis : x y z
#
# Youngs Moduli (GPa) = 43.73802 53.69650 58.04920
#
# Poissons Ratio (x) = -0.03259 0.21047
# Poissons Ratio (y) = -0.02654 0.01850
# Poissons Ratio (z) = 0.15858 0.01711
#
# Static dielectric constant tensor:
#      x y z
#    x 3.916920 -0.130710 -0.290520 
#    y -0.130710 4.169340 -0.074300 
#    z -0.290520 -0.074300 4.251920 
# 
# 
# High freq. dielectric constant tensor:
#      x y z
#    x 1.896230 -0.012840 -0.017680 
#    y -0.012840 1.904270 -0.006970 
#    z -0.017680 -0.006970 1.912570 
# 
# From -- ./inp_files/56446.got.cif
#   From: 2010.06.25/outbox.cif.g09.slc.cpg/sg2_29_cif.got.tgz:56446.got - 2010.06.27 13:26:56.
