data_PCOD8010037
_publ_section_title
;
Structure prediction by ZEFSAII (Michael W. Deem and Ramdas Pophale) SiO2 
 PCOD8010037
Probable space group: P -1
;
_chemical_formula_sum "Si O2"
_cell_formula_units_Z 16
_cell_length_a 11.446214
_cell_length_b 16.807328
_cell_length_c 11.288435
_cell_angle_alpha 30.761127
_cell_angle_beta 130.126298
_cell_angle_gamma 115.239635
_cell_volume 802.961272
_symmetry_space_group_name_H-M "P -1"
_symmetry_group_IT_number 2
_symmetry_cell_setting 'triclinic'
loop_
_space_group_symop_operation_xyz
x,y,z
-x,-y,-z
loop_
_atom_site_type_symbol
_atom_site_label
_atom_site_fract_x
_atom_site_fract_y
_atom_site_fract_z
Si Si1 0.352818 0.471693 0.512693
Si Si2 0.765550 0.272992 0.412937
Si Si3 0.656087 0.608050 0.794646
Si Si4 0.719280 0.291919 0.620579
Si Si5 0.115849 0.087709 0.811940
Si Si6 0.562902 0.812238 0.684673
Si Si7 0.628644 0.843878 0.941969
Si Si8 0.152707 0.372052 0.320035
O O1 0.500000 0.500000 0.500000
O O2 0.261748 0.605302 0.382826
O O3 0.211288 0.471847 0.330958
O O4 0.424127 0.290856 0.847729
O O5 0.781323 0.337512 0.475294
O O6 0.611113 0.212428 0.379006
O O7 0.930066 0.123693 0.684266
O O8 0.744904 0.413499 0.120418
O O9 0.469767 0.657511 0.583522
O O10 0.682712 0.687594 0.833229
O O11 0.718883 0.686465 0.625885
O O12 0.806934 0.097623 0.948964
O O13 0.120926 0.210226 0.553024
O O14 0.218225 0.118118 0.951027
O O15 0.667623 0.783332 0.909796
O O16 0.528285 0.993488 0.375109
O O17 0.000000 0.500000 0.000000
#
# Coordination Sequence:
#
# PCOD8010037 Si02
#       8
#     2   2   2   2   2   2   2   2
#     4  11  23  40  64  87 125 165 208 254 302 369
#     4  11  21  38  67  89 129 165 199 254 314 369
#     4  11  20  38  65  89 122 165 208 248 302 373
#     4  11  22  40  64  98 116 161 219 246 307 373
#     4  11  23  41  66  91 129 163 201 262 307 365
#     4  10  21  37  64  93 125 158 210 250 305 371
#     4  10  21  39  59  96 125 155 203 254 311 355
#     4  11  24  43  61  88 127 162 205 253 318 357
#
# _framework density 19.926238999999999
#
# number of rings (size 3 to 8) (size 9 to 14) (size 15 to 20)
#    0.000    1.250    5.000    3.375    0.000    1.500 
#    2.250    2.500    0.000    0.000    0.000    0.000 
#    0.000    0.000    0.000    0.000    0.000    0.000 
#
# Total GULP energy -198287.420977 kJ/mol
# GULP energy per Si atom -12392.963811 kJ/mol
# Density = 1.988089 g / cm^3
# Si number density = 19.926239 Si / 1000 Ang^3
#
#
#
# Elastic Constant Matrix: (Units=GPa)
#
#
# Indices 1 2 3 4 5 6 
#
# 1 131.7856 -18.2827 -43.2825 -9.6536 60.8290 -48.4683
# 2 -18.2827 154.5870 138.3619 1.1895 -88.3554 29.9008
# 3 -43.2825 138.3619 260.9019 20.6265 -138.9135 51.4512
# 4 -9.6536 1.1895 20.6265 25.9802 -15.4852 1.4380
# 5 60.8290 -88.3554 -138.9135 -15.4852 141.2515 -54.8031
# 6 -48.4683 29.9008 51.4512 1.4380 -54.8031 39.3453
#
#
#
# Elastic Compliance Matrix: (Units=1/GPa)
#
#
# Indices 1 2 3 4 5 6 
#
# 1 0.015230 -0.000725 -0.001558 0.006125 0.000704 0.022106
# 2 -0.000725 0.014011 -0.005934 0.006754 0.005262 0.003301
# 3 -0.001558 -0.005934 0.010874 -0.005336 0.005727 -0.003458
# 4 0.006125 0.006754 -0.005336 0.049600 0.010264 0.021873
# 5 0.000704 0.005262 0.005727 0.010264 0.027326 0.027067
# 6 0.022106 0.003301 -0.003458 0.021873 0.027067 0.091562
#
#
# Mechanical properties :
#
#
# Convention : Reuss Voigt Hill
#
# Bulk Modulus (GPa) = 42.22691 77.87421 60.05056
# Shear Modulus (GPa) = 21.46552 72.68059 47.07305
#
# Velocity S-wave (km/s) = 3.28571 6.04599 4.86569
# Velocity P-wave (km/s) = 5.96926 9.37575 7.85929
#
# Compressibility (1/GPa) = 0.02368158
#
# Stress axis : x y z
#
# Youngs Moduli (GPa) = 65.66115 71.37026 91.96033
#
# Poissons Ratio (x) = 0.05175 0.14323
# Poissons Ratio (y) = 0.04761 0.54571
# Poissons Ratio (z) = 0.10227 0.42352
#
# Static dielectric constant tensor:
#      x y z
#    x 3.364360 -0.091630 -0.200970 
#    y -0.091630 3.947490 -0.106280 
#    z -0.200970 -0.106280 3.835530 
# 
# 
# High freq. dielectric constant tensor:
#      x y z
#    x 1.769350 -0.011880 -0.014970 
#    y -0.011880 1.772890 0.003100 
#    z -0.014970 0.003100 1.791470 
# 
# From -- ./inp_files/218959.got.cif
#   From: 2010.06.25/outbox.cif.g09.slc.cpg/sg2_110_cif.got.tgz:218959.got - 2010.06.27 13:26:56.
