data_PCOD8010104
_publ_section_title
;
Structure prediction by ZEFSAII (Michael W. Deem and Ramdas Pophale) SiO2 
 PCOD8010104
Probable space group: P -1
;
_chemical_formula_sum "Si O2"
_cell_formula_units_Z 14
_cell_length_a 21.710322
_cell_length_b 9.258411
_cell_length_c 9.717228
_cell_angle_alpha 45.621694
_cell_angle_beta 30.050946
_cell_angle_gamma 45.502996
_cell_volume 673.745191
_symmetry_space_group_name_H-M "P -1"
_symmetry_group_IT_number 2
_symmetry_cell_setting 'triclinic'
loop_
_space_group_symop_operation_xyz
x,y,z
-x,-y,-z
loop_
_atom_site_type_symbol
_atom_site_label
_atom_site_fract_x
_atom_site_fract_y
_atom_site_fract_z
Si Si1 0.700237 0.626469 0.753103
Si Si2 0.054847 0.327432 0.894198
Si Si3 0.529070 0.954279 0.690306
Si Si4 0.381847 0.406620 0.765656
Si Si5 0.213327 0.555920 0.743460
Si Si6 0.231439 0.094730 0.914379
Si Si7 0.326556 0.727637 0.149983
O O1 0.846309 0.599644 0.444123
O O2 0.610704 0.855670 0.733030
O O3 0.644896 0.456767 0.893996
O O4 0.697661 0.593321 0.942257
O O5 0.128634 0.115240 0.975146
O O6 0.000000 0.500000 0.000000
O O7 0.934402 0.302811 0.053364
O O8 0.624755 0.991297 0.363641
O O9 0.427948 0.171494 0.776199
O O10 0.456871 0.790192 0.881444
O O11 0.500000 0.500000 0.500000
O O12 0.286628 0.559794 0.741883
O O13 0.215082 0.319049 0.864714
O O14 0.280253 0.655221 0.430053
O O15 0.216333 0.925327 0.169960
#
# Coordination Sequence:
#
# PCOD8010104 Si02
#       7
#     2   2   2   2   2   2   2
#     4  11  23  39  67  96 126 175 207 268 321 374
#     4   9  19  43  63  93 129 161 221 272 300 371
#     4  11  22  40  64  95 131 165 217 266 314 388
#     4  12  26  41  62  96 140 166 206 265 332 381
#     4  11  23  42  62  95 128 171 214 267 306 384
#     4  10  21  37  65  95 123 165 217 268 305 370
#     4  12  21  37  70  96 124 168 219 258 321 371
#
# _framework density 20.779368000000002
#
# number of rings (size 3 to 8) (size 9 to 14) (size 15 to 20)
#    0.000    1.143    5.714    3.000    2.000    1.143 
#    0.000    0.000    0.000    8.571    0.000    0.000 
#    0.000    0.000    0.000    0.000    0.000    0.000 
#
# Total GULP energy -173582.659835 kJ/mol
# GULP energy per Si atom -12398.761417 kJ/mol
# Density = 2.073207 g / cm^3
# Si number density = 20.779368 Si / 1000 Ang^3
#
#
#
# Elastic Constant Matrix: (Units=GPa)
#
#
# Indices 1 2 3 4 5 6 
#
# 1 351.9081 114.1307 352.4464 -5.2122 86.4997 -55.5701
# 2 114.1307 88.4248 150.2696 -6.1068 34.3330 -27.6938
# 3 352.4464 150.2696 503.8026 0.3355 136.2086 -51.2053
# 4 -5.2122 -6.1068 0.3355 33.0817 -11.2963 5.2871
# 5 86.4997 34.3330 136.2086 -11.2963 80.0439 -11.8834
# 6 -55.5701 -27.6938 -51.2053 5.2871 -11.8834 39.5384
#
#
#
# Elastic Compliance Matrix: (Units=1/GPa)
#
#
# Indices 1 2 3 4 5 6 
#
# 1 0.010877 0.000006 -0.007661 0.001670 0.002387 0.005863
# 2 0.000006 0.026859 -0.008478 0.005354 0.004933 0.008609
# 3 -0.007661 -0.008478 0.012411 -0.006005 -0.010495 -0.002983
# 4 0.001670 0.005354 -0.006005 0.035704 0.010674 -0.003246
# 5 0.002387 0.004933 -0.010495 0.010674 0.027156 -0.000048
# 6 0.005863 0.008609 -0.002983 -0.003246 -0.000048 0.036118
#
#
# Mechanical properties :
#
#
# Convention : Reuss Voigt Hill
#
# Bulk Modulus (GPa) = 55.92545 241.98098 148.95321
# Shear Modulus (GPa) = 26.68788 52.35206 39.51997
#
# Velocity S-wave (km/s) = 3.58766 5.02483 4.36579
# Velocity P-wave (km/s) = 6.64335 12.26257 9.86166
#
# Compressibility (1/GPa) = 0.01788095
#
# Stress axis : x y z
#
# Youngs Moduli (GPa) = 91.94106 37.23164 80.57205
#
# Poissons Ratio (x) = -0.00022 0.61727
# Poissons Ratio (y) = -0.00054 0.68306
# Poissons Ratio (z) = 0.70437 0.31563
#
# Static dielectric constant tensor:
#      x y z
#    x 4.390480 -0.604080 -0.181780 
#    y -0.604080 3.923760 0.016740 
#    z -0.181780 0.016740 3.846810 
# 
# 
# High freq. dielectric constant tensor:
#      x y z
#    x 1.819200 -0.029220 0.002460 
#    y -0.029220 1.799620 -0.004730 
#    z 0.002460 -0.004730 1.811340 
# 
# From -- ./inp_files/233266.got.cif
#   From: 2010.06.25/outbox.cif.g09.slc.cpg/sg2_117_cif.got.tgz:233266.got - 2010.06.27 13:26:56.
