data_PCOD8010803
_publ_section_title
;
Structure prediction by ZEFSAII (Michael W. Deem and Ramdas Pophale) SiO2 
 PCOD8010803
Probable space group: P -1
;
_chemical_formula_sum "Si O2"
_cell_formula_units_Z 14
_cell_length_a 8.543098
_cell_length_b 9.010022
_cell_length_c 11.403918
_cell_angle_alpha 71.544672
_cell_angle_beta 59.997177
_cell_angle_gamma 100.943773
_cell_volume 653.119892
_symmetry_space_group_name_H-M "P -1"
_symmetry_group_IT_number 2
_symmetry_cell_setting 'triclinic'
loop_
_space_group_symop_operation_xyz
x,y,z
-x,-y,-z
loop_
_atom_site_type_symbol
_atom_site_label
_atom_site_fract_x
_atom_site_fract_y
_atom_site_fract_z
Si Si1 0.209696 0.154604 0.413466
Si Si2 0.597407 0.483649 0.846371
Si Si3 0.486239 0.990871 0.275414
Si Si4 0.684676 0.585448 0.246204
Si Si5 0.574668 0.759902 0.458259
Si Si6 0.314128 0.831743 0.152454
Si Si7 0.915510 0.138185 0.964259
O O1 0.226081 0.333214 0.305656
O O2 0.238665 0.170802 0.539312
O O3 0.395503 0.127353 0.297673
O O4 0.000000 0.000000 0.500000
O O5 0.425363 0.413066 0.832004
O O6 0.689681 0.344511 0.854889
O O7 0.500000 0.500000 0.000000
O O8 0.498914 0.904484 0.415767
O O9 0.330456 0.840206 0.285668
O O10 0.708381 0.097618 0.116468
O O11 0.644719 0.707436 0.324545
O O12 0.613938 0.395073 0.372980
O O13 0.920359 0.671966 0.107428
O O14 0.122100 0.852172 0.164774
O O15 0.500000 0.000000 0.000000
O O16 0.000000 0.000000 0.000000
#
# Coordination Sequence:
#
# PCOD8010803 Si02
#       7
#     2   2   2   2   2   2   2
#     4  11  27  43  65  98 137 181 219 272 334 388
#     4  11  22  44  67  95 135 172 219 282 327 387
#     4  11  22  42  65  96 131 172 224 270 321 397
#     4  10  21  39  65  97 126 177 212 270 332 390
#     4  10  21  42  64  91 138 170 221 264 325 398
#     4  10  21  38  63  97 129 166 218 271 328 389
#     4  11  21  37  64  97 125 166 216 269 325 387
#
# _framework density 21.435573999999999
#
# number of rings (size 3 to 8) (size 9 to 14) (size 15 to 20)
#    0.000    1.429    2.857    3.000    2.000    2.286 
#    0.000    7.857    0.000    0.000    0.000    0.000 
#    0.000    0.000    0.000    0.000    0.000    0.000 
#
# Total GULP energy -173538.442728 kJ/mol
# GULP energy per Si atom -12395.603052 kJ/mol
# Density = 2.138679 g / cm^3
# Si number density = 21.435574 Si / 1000 Ang^3
#
#
#
# Elastic Constant Matrix: (Units=GPa)
#
#
# Indices 1 2 3 4 5 6 
#
# 1 137.3638 51.5082 70.1463 -18.7607 8.1120 18.1756
# 2 51.5082 112.5987 48.2962 -9.4393 4.9551 7.7554
# 3 70.1463 48.2962 93.0221 -11.6956 7.7084 11.2738
# 4 -18.7607 -9.4393 -11.6956 46.9107 5.2557 1.4945
# 5 8.1120 4.9551 7.7084 5.2557 44.1323 -1.8977
# 6 18.1756 7.7554 11.2738 1.4945 -1.8977 46.3674
#
#
#
# Elastic Compliance Matrix: (Units=1/GPa)
#
#
# Indices 1 2 3 4 5 6 
#
# 1 0.012935 -0.002035 -0.007850 0.003043 -0.001268 -0.002972
# 2 -0.002035 0.011799 -0.004502 0.000467 -0.000225 -0.000106
# 3 -0.007850 -0.004502 0.019384 0.000998 -0.001598 -0.000980
# 4 0.003043 0.000467 0.000998 0.023365 -0.003673 -0.002417
# 5 -0.001268 -0.000225 -0.001598 -0.003673 0.023721 0.002013
# 6 -0.002972 -0.000106 -0.000980 -0.002417 0.002013 0.023148
#
#
# Mechanical properties :
#
#
# Convention : Reuss Voigt Hill
#
# Bulk Modulus (GPa) = 65.16594 75.87622 70.52108
# Shear Modulus (GPa) = 33.72922 39.01767 36.37345
#
# Velocity S-wave (km/s) = 3.97106 4.27104 4.12378
# Velocity P-wave (km/s) = 7.17583 7.73283 7.45953
#
# Compressibility (1/GPa) = 0.01534544
#
# Stress axis : x y z
#
# Youngs Moduli (GPa) = 77.30774 84.75347 51.58990
#
# Poissons Ratio (x) = 0.17243 0.40499
# Poissons Ratio (y) = 0.15729 0.23224
# Poissons Ratio (z) = 0.60687 0.38152
#
# Static dielectric constant tensor:
#      x y z
#    x 4.470360 0.327240 0.448390 
#    y 0.327240 4.031800 -0.068220 
#    z 0.448390 -0.068220 3.947070 
# 
# 
# High freq. dielectric constant tensor:
#      x y z
#    x 1.848570 0.010720 0.022230 
#    y 0.010720 1.838240 -0.011850 
#    z 0.022230 -0.011850 1.837050 
# 
# From -- ./inp_files/279680.got.cif
#   From: 2010.06.25/outbox.cif.g09.slc.cpg/sg2_140_cif.got.tgz:279680.got - 2010.06.27 13:26:56.
