data_PCOD8010626
_publ_section_title
;
Structure prediction by ZEFSAII (Michael W. Deem and Ramdas Pophale) SiO2 
 PCOD8010626
Probable space group: P -1
;
_chemical_formula_sum "Si O2"
_cell_formula_units_Z 16
_cell_length_a 23.258483
_cell_length_b 14.873488
_cell_length_c 8.784671
_cell_angle_alpha 37.343825
_cell_angle_beta 145.721173
_cell_angle_gamma 153.575473
_cell_volume 743.098706
_symmetry_space_group_name_H-M "P -1"
_symmetry_group_IT_number 2
_symmetry_cell_setting 'triclinic'
loop_
_space_group_symop_operation_xyz
x,y,z
-x,-y,-z
loop_
_atom_site_type_symbol
_atom_site_label
_atom_site_fract_x
_atom_site_fract_y
_atom_site_fract_z
Si Si1 0.630798 0.061234 0.901167
Si Si2 0.841768 0.533017 0.737227
Si Si3 0.057653 0.167902 0.022944
Si Si4 0.770629 0.499653 0.288440
Si Si5 0.360899 0.942047 0.423759
Si Si6 0.123070 0.915956 0.989111
Si Si7 0.248765 0.276796 0.559393
Si Si8 0.477241 0.354428 0.774312
O O1 0.779143 0.300135 0.930740
O O2 0.602485 0.981374 0.772862
O O3 0.506067 0.052260 0.685833
O O4 0.611061 0.877477 0.181272
O O5 0.845147 0.594688 0.488030
O O6 0.741810 0.543956 0.601759
O O7 0.003103 0.696084 0.934940
O O8 0.171333 0.196583 0.335237
O O9 0.929245 0.098841 0.937170
O O10 0.128344 0.370277 0.809078
O O11 0.000000 0.000000 0.000000
O O12 0.741475 0.299938 0.472574
O O13 0.629803 0.457735 0.031891
O O14 0.272846 0.985148 0.249026
O O15 0.151874 0.092279 0.717523
O O16 0.399589 0.351252 0.755278
O O17 0.500000 0.500000 0.500000
#
# Coordination Sequence:
#
# PCOD8010626 Si02
#       8
#     2   2   2   2   2   2   2   2
#     4   9  19  39  62  89 127 160 206 255 307 367
#     4  10  22  39  63  97 123 162 206 261 303 363
#     4  11  22  40  59  86 127 164 204 256 313 365
#     4  10  21  38  62  88 126 161 202 252 317 362
#     4   9  19  37  61  89 121 166 201 253 305 367
#     4  11  22  39  65  92 126 164 209 255 304 368
#     4  11  22  40  64  90 126 160 211 259 305 365
#     4  11  21  40  65  89 122 168 206 256 313 368
#
# _framework density 21.531459000000002
#
# number of rings (size 3 to 8) (size 9 to 14) (size 15 to 20)
#    0.000    1.750    2.500    3.750    0.000    3.000 
#    4.500    0.625    0.000    0.000    0.000    0.000 
#    0.000    0.000    0.000    0.000    0.000    0.000 
#
# Total GULP energy -198283.457669 kJ/mol
# GULP energy per Si atom -12392.716104 kJ/mol
# Density = 2.148245 g / cm^3
# Si number density = 21.531459 Si / 1000 Ang^3
#
#
#
# Elastic Constant Matrix: (Units=GPa)
#
#
# Indices 1 2 3 4 5 6 
#
# 1 112.3384 34.0010 37.8312 -3.4978 -9.0151 20.4241
# 2 34.0010 68.6731 24.3492 -23.2960 -7.1528 10.7062
# 3 37.8312 24.3492 84.6394 -20.8798 -1.2508 9.0635
# 4 -3.4978 -23.2960 -20.8798 28.3909 3.0126 0.0764
# 5 -9.0151 -7.1528 -1.2508 3.0126 32.2798 0.6159
# 6 20.4241 10.7062 9.0635 0.0764 0.6159 30.4646
#
#
#
# Elastic Compliance Matrix: (Units=1/GPa)
#
#
# Indices 1 2 3 4 5 6 
#
# 1 0.013680 -0.006330 -0.005646 -0.007970 0.003044 -0.005309
# 2 -0.006330 0.025277 0.001231 0.020663 0.002050 -0.005099
# 3 -0.005646 0.001231 0.017446 0.013345 -0.001839 -0.001834
# 4 -0.007970 0.020663 0.013345 0.061317 -0.002738 -0.005987
# 5 0.003044 0.002050 -0.001839 -0.002738 0.032523 -0.002865
# 6 -0.005309 -0.005099 -0.001834 -0.005987 -0.002865 0.038795
#
#
# Mechanical properties :
#
#
# Convention : Reuss Voigt Hill
#
# Bulk Modulus (GPa) = 28.64282 50.89042 39.76662
# Shear Modulus (GPa) = 22.50574 29.52502 26.01538
#
# Velocity S-wave (km/s) = 3.23654 3.70706 3.47976
# Velocity P-wave (km/s) = 5.22480 6.48149 5.88678
#
# Compressibility (1/GPa) = 0.03491277
#
# Stress axis : x y z
#
# Youngs Moduli (GPa) = 73.09721 39.56100 57.32112
#
# Poissons Ratio (x) = 0.25044 0.32365
# Poissons Ratio (y) = 0.46273 -0.07058
# Poissons Ratio (z) = 0.41273 -0.04871
#
# Static dielectric constant tensor:
#      x y z
#    x 3.629370 0.044800 0.266330 
#    y 0.044800 3.934220 0.214360 
#    z 0.266330 0.214360 3.981950 
# 
# 
# High freq. dielectric constant tensor:
#      x y z
#    x 1.835110 0.016690 0.010840 
#    y 0.016690 1.844670 -0.015970 
#    z 0.010840 -0.015970 1.841800 
# 
# From -- ./inp_files/347478.got.cif
#   From: 2010.06.25/outbox.cif.g09.slc.cpg/sg2_174_cif.got.tgz:347478.got - 2010.06.27 13:26:56.
