data_PCOD8010375
_publ_section_title
;
Structure prediction by ZEFSAII (Michael W. Deem and Ramdas Pophale) SiO2 
 PCOD8010375
Probable space group: P -1
;
_chemical_formula_sum "Si O2"
_cell_formula_units_Z 16
_cell_length_a 10.927526
_cell_length_b 14.756692
_cell_length_c 6.602883
_cell_angle_alpha 95.296454
_cell_angle_beta 111.293476
_cell_angle_gamma 127.198418
_cell_volume 717.069235
_symmetry_space_group_name_H-M "P -1"
_symmetry_group_IT_number 2
_symmetry_cell_setting 'triclinic'
loop_
_space_group_symop_operation_xyz
x,y,z
-x,-y,-z
loop_
_atom_site_type_symbol
_atom_site_label
_atom_site_fract_x
_atom_site_fract_y
_atom_site_fract_z
Si Si1 0.609110 0.337539 0.187556
Si Si2 0.226815 0.193759 0.813476
Si Si3 0.211603 0.598603 0.093199
Si Si4 0.665200 0.506089 0.592575
Si Si5 0.264756 0.934680 0.478617
Si Si6 0.949749 0.077607 0.310482
Si Si7 0.441556 0.834582 0.535805
Si Si8 0.945202 0.770239 0.970885
O O1 0.662620 0.454353 0.364006
O O2 0.555812 0.231028 0.284739
O O3 0.434999 0.268487 0.925089
O O4 0.770654 0.390949 0.139455
O O5 0.147124 0.193366 0.553286
O O6 0.089365 0.047568 0.758917
O O7 0.217173 0.259256 0.008783
O O8 0.327338 0.567396 0.242124
O O9 0.297058 0.730916 0.262978
O O10 0.000000 0.500000 0.000000
O O11 0.500000 0.500000 0.500000
O O12 0.857953 0.647871 0.762540
O O13 0.208260 0.951308 0.660344
O O14 0.394240 0.912457 0.603943
O O15 0.363535 0.061747 0.434647
O O16 0.093436 0.810358 0.231978
O O17 0.948721 0.113372 0.091588
#
# Coordination Sequence:
#
# PCOD8010375 Si02
#       8
#     2   2   2   2   2   2   2   2
#     4  11  24  42  70  90 130 174 215 266 332 378
#     4  10  21  38  59  94 124 161 210 261 320 385
#     4  11  26  45  67  95 134 174 223 272 324 389
#     4  11  25  43  64  99 130 173 226 273 317 386
#     4  10  22  41  64  97 128 164 211 272 317 388
#     4  10  22  36  63  93 126 165 207 258 328 387
#     4  10  23  42  66  94 129 165 219 264 321 391
#     4  11  22  39  63  89 131 165 209 264 323 381
#
# _framework density 22.313047000000001
#
# number of rings (size 3 to 8) (size 9 to 14) (size 15 to 20)
#    0.000    1.500    1.250    2.625    1.750    9.500 
#    0.000    3.125    0.000    0.000    0.000    0.000 
#    0.000    0.000    0.000    0.000    0.000    0.000 
#
# Total GULP energy -198356.018031 kJ/mol
# GULP energy per Si atom -12397.251127 kJ/mol
# Density = 2.226226 g / cm^3
# Si number density = 22.313047 Si / 1000 Ang^3
#
#
#
# Elastic Constant Matrix: (Units=GPa)
#
#
# Indices 1 2 3 4 5 6 
#
# 1 85.3665 21.4874 27.6966 -3.0543 1.7305 8.6467
# 2 21.4874 66.4667 15.0583 14.4316 -0.8569 3.0097
# 3 27.6966 15.0583 74.1131 12.7926 -8.8030 5.9972
# 4 -3.0543 14.4316 12.7926 39.3637 2.8983 2.4090
# 5 1.7305 -0.8569 -8.8030 2.8983 23.1681 1.6319
# 6 8.6467 3.0097 5.9972 2.4090 1.6319 36.5985
#
#
#
# Elastic Compliance Matrix: (Units=1/GPa)
#
#
# Indices 1 2 3 4 5 6 
#
# 1 0.015361 -0.004705 -0.005991 0.005314 -0.004092 -0.002428
# 2 -0.004705 0.018227 -0.000543 -0.007001 0.001689 0.000087
# 3 -0.005991 -0.000543 0.018086 -0.006662 0.008234 -0.001432
# 4 0.005314 -0.007001 -0.006662 0.031144 -0.006990 -0.001326
# 5 -0.004092 0.001689 0.008234 -0.006990 0.047688 -0.002188
# 6 -0.002428 0.000087 -0.001432 -0.001326 -0.002188 0.028309
#
#
# Mechanical properties :
#
#
# Convention : Reuss Voigt Hill
#
# Bulk Modulus (GPa) = 34.25228 39.38121 36.81674
# Shear Modulus (GPa) = 26.17426 30.60632 28.39029
#
# Velocity S-wave (km/s) = 3.42869 3.70764 3.57089
# Velocity P-wave (km/s) = 5.57303 6.00137 5.79116
#
# Compressibility (1/GPa) = 0.02919514
#
# Stress axis : x y z
#
# Youngs Moduli (GPa) = 65.09812 54.86319 55.29118
#
# Poissons Ratio (x) = 0.25815 0.33127
# Poissons Ratio (y) = 0.30630 0.03002
# Poissons Ratio (z) = 0.39003 0.02979
#
# Static dielectric constant tensor:
#      x y z
#    x 3.931400 -0.100300 -0.025880 
#    y -0.100300 3.896140 0.114120 
#    z -0.025880 0.114120 4.013280 
# 
# 
# High freq. dielectric constant tensor:
#      x y z
#    x 1.876390 -0.002200 -0.003940 
#    y -0.002200 1.874250 0.012470 
#    z -0.003940 0.012470 1.885360 
# 
# From -- ./inp_files/77939.got.cif
#   From: 2010.06.25/outbox.cif.g09.slc.cpg/sg2_39_cif.got.tgz:77939.got - 2010.06.27 13:26:56.
