data_PCOD8010629
_publ_section_title
;
Structure prediction by ZEFSAII (Michael W. Deem and Ramdas Pophale) SiO2 
 PCOD8010629
Probable space group: P -1
;
_chemical_formula_sum "Si O2"
_cell_formula_units_Z 12
_cell_length_a 20.123915
_cell_length_b 6.701228
_cell_length_c 16.308144
_cell_angle_alpha 63.584298
_cell_angle_beta 162.783230
_cell_angle_gamma 119.106521
_cell_volume 567.080206
_symmetry_space_group_name_H-M "P -1"
_symmetry_group_IT_number 2
_symmetry_cell_setting 'triclinic'
loop_
_space_group_symop_operation_xyz
x,y,z
-x,-y,-z
loop_
_atom_site_type_symbol
_atom_site_label
_atom_site_fract_x
_atom_site_fract_y
_atom_site_fract_z
Si Si1 0.205672 0.866908 0.255579
Si Si2 0.037799 0.459712 0.252764
Si Si3 0.865790 0.953704 0.478427
Si Si4 0.714566 0.794645 0.164145
Si Si5 0.620129 0.284666 0.681364
Si Si6 0.798351 0.374672 0.420146
O O1 0.232116 0.758440 0.216730
O O2 0.171430 0.647144 0.313015
O O3 0.434097 0.048759 0.519365
O O4 0.000000 0.000000 0.000000
O O5 0.178822 0.266091 0.473872
O O6 0.025213 0.583220 0.302838
O O7 0.787365 0.334806 0.947216
O O8 0.686272 0.907460 0.199303
O O9 0.838303 0.161099 0.460386
O O10 0.129984 0.013917 0.745320
O O11 0.846751 0.592356 0.376717
O O12 0.468659 0.687104 0.852532
O O13 0.500000 0.500000 0.500000
#
# Coordination Sequence:
#
# PCOD8010629 Si02
#       6
#     2   2   2   2   2   2
#     4  11  25  45  68  91 128 170 210 264 319 385
#     4  11  25  40  62 101 122 161 217 257 313 376
#     4  10  21  38  62  88 128 160 205 260 303 373
#     4   9  20  40  58  90 121 167 205 242 320 368
#     4  11  25  45  68  92 126 172 210 260 326 380
#     4  10  21  38  63  89 126 160 206 259 303 374
#
# _framework density 21.161028000000002
#
# number of rings (size 3 to 8) (size 9 to 14) (size 15 to 20)
#    0.000    1.667    1.667    1.500    4.667    0.000 
#    0.000    0.000    0.000    0.000    0.000    0.000 
#    0.000    0.000    0.000    0.000    0.000    0.000 
#
# Total GULP energy -148680.705831 kJ/mol
# GULP energy per Si atom -12390.058819 kJ/mol
# Density = 2.111286 g / cm^3
# Si number density = 21.161028 Si / 1000 Ang^3
#
#
#
# Elastic Constant Matrix: (Units=GPa)
#
#
# Indices 1 2 3 4 5 6 
#
# 1 104.4924 77.8413 62.6894 -10.2885 -12.3765 -13.5686
# 2 77.8413 149.0818 35.8106 11.2457 -4.9712 -14.7672
# 3 62.6894 35.8106 89.0585 22.5817 -19.0205 -15.1471
# 4 -10.2885 11.2457 22.5817 35.3443 -11.2050 1.7652
# 5 -12.3765 -4.9712 -19.0205 -11.2050 32.6697 8.2412
# 6 -13.5686 -14.7672 -15.1471 1.7652 8.2412 63.1423
#
#
#
# Elastic Compliance Matrix: (Units=1/GPa)
#
#
# Indices 1 2 3 4 5 6 
#
# 1 0.077353 -0.032461 -0.058400 0.076691 0.019092 -0.009615
# 2 -0.032461 0.021169 0.021706 -0.033227 -0.009174 0.005309
# 3 -0.058400 0.021706 0.060027 -0.065562 -0.008861 0.009916
# 4 0.076691 -0.033227 -0.065562 0.112625 0.027939 -0.013814
# 5 0.019092 -0.009174 -0.008861 0.027939 0.042509 -0.006498
# 6 -0.009615 0.005309 0.009916 -0.013814 -0.006498 0.018626
#
#
# Mechanical properties :
#
#
# Convention : Reuss Voigt Hill
#
# Bulk Modulus (GPa) = 49.41022 77.25726 63.33374
# Shear Modulus (GPa) = 10.47415 37.31736 23.89576
#
# Velocity S-wave (km/s) = 2.22721 4.20395 3.36405
# Velocity P-wave (km/s) = 5.47853 7.75582 6.71443
#
# Compressibility (1/GPa) = 0.02023873
#
# Stress axis : x y z
#
# Youngs Moduli (GPa) = 12.92776 47.23799 16.65912
#
# Poissons Ratio (x) = 1.53342 0.97290
# Poissons Ratio (y) = 0.41965 -0.36161
# Poissons Ratio (z) = 0.75498 -1.02536
#
# Static dielectric constant tensor:
#      x y z
#    x 3.552120 -0.375040 -0.647310 
#    y -0.375040 3.870570 -0.422070 
#    z -0.647310 -0.422070 2.542160 
# 
# 
# High freq. dielectric constant tensor:
#      x y z
#    x 1.816490 -0.005250 -0.010340 
#    y -0.005250 1.862850 0.018910 
#    z -0.010340 0.018910 1.814810 
# 
# From -- ./inp_files/74517.got.cif
#   From: 2010.06.25/outbox.cif.g09.slc.cpg/sg2_38_cif.got.tgz:74517.got - 2010.06.27 13:26:56.
