data_PCOD8010992
_publ_section_title
;
Structure prediction by ZEFSAII (Michael W. Deem and Ramdas Pophale) SiO2 
 PCOD8010992
Probable space group: P -1
;
_chemical_formula_sum "Si O2"
_cell_formula_units_Z 14
_cell_length_a 9.019838
_cell_length_b 11.736878
_cell_length_c 10.191343
_cell_angle_alpha 125.565428
_cell_angle_beta 118.316188
_cell_angle_gamma 96.878319
_cell_volume 643.992565
_symmetry_space_group_name_H-M "P -1"
_symmetry_group_IT_number 2
_symmetry_cell_setting 'triclinic'
loop_
_space_group_symop_operation_xyz
x,y,z
-x,-y,-z
loop_
_atom_site_type_symbol
_atom_site_label
_atom_site_fract_x
_atom_site_fract_y
_atom_site_fract_z
Si Si1 0.843334 0.509612 0.302156
Si Si2 0.681322 0.898718 0.951423
Si Si3 0.290946 0.851770 0.075676
Si Si4 0.149073 0.272613 0.763975
Si Si5 0.892340 0.712736 0.950605
Si Si6 0.744003 0.434888 0.491419
Si Si7 0.287799 0.031598 0.692302
O O1 0.759627 0.578809 0.204989
O O2 0.781673 0.536957 0.439132
O O3 0.084839 0.606221 0.450967
O O4 0.738762 0.311163 0.115214
O O5 0.850062 0.855566 0.998507
O O6 0.470581 0.737538 0.707342
O O7 0.756078 0.048550 0.981320
O O8 0.666434 0.964447 0.131094
O O9 0.523411 0.957532 0.294768
O O10 0.132309 0.796471 0.090467
O O11 0.277834 0.189918 0.753345
O O12 0.168326 0.350424 0.967780
O O13 0.914735 0.138416 0.547105
O O14 0.758483 0.552738 0.694168
#
# Coordination Sequence:
#
# PCOD8010992 Si02
#       7
#     2   2   2   2   2   2   2
#     4  10  22  38  65  94 119 159 207 248 294 364
#     4  11  21  40  64  93 121 158 203 257 295 359
#     4  11  22  38  64  94 120 158 205 254 299 352
#     4  10  23  43  60  88 127 163 199 245 304 365
#     4  10  24  41  61  91 127 157 198 251 311 354
#     4  10  21  38  65  95 117 158 205 250 303 351
#     4  10  22  39  64  87 121 165 204 244 299 360
#
# _framework density 21.739381999999999
#
# number of rings (size 3 to 8) (size 9 to 14) (size 15 to 20)
#    0.000    1.714    1.429    2.143    6.000    3.429 
#    2.571    1.429    0.000    0.000    0.000    0.000 
#    0.000    0.000    0.000    0.000    0.000    0.000 
#
# Total GULP energy -173623.203321 kJ/mol
# GULP energy per Si atom -12401.657380 kJ/mol
# Density = 2.168990 g / cm^3
# Si number density = 21.739382 Si / 1000 Ang^3
#
#
#
# Elastic Constant Matrix: (Units=GPa)
#
#
# Indices 1 2 3 4 5 6 
#
# 1 57.1897 7.5418 19.5205 -1.8356 2.5915 -0.0298
# 2 7.5418 137.4182 29.0100 -21.6031 -21.2651 -9.0962
# 3 19.5205 29.0100 82.7989 -6.7249 -13.0652 2.8967
# 4 -1.8356 -21.6031 -6.7249 25.2233 0.5708 1.8081
# 5 2.5915 -21.2651 -13.0652 0.5708 34.3483 -2.1313
# 6 -0.0298 -9.0962 2.8967 1.8081 -2.1313 17.6643
#
#
#
# Elastic Compliance Matrix: (Units=1/GPa)
#
#
# Indices 1 2 3 4 5 6 
#
# 1 0.019429 -0.000650 -0.004980 -0.000393 -0.003750 0.000102
# 2 -0.000650 0.010212 -0.002085 0.007617 0.005794 0.005519
# 3 -0.004980 -0.002085 0.014971 0.001969 0.004549 -0.003190
# 4 -0.000393 0.007617 0.001969 0.046603 0.004682 -0.000607
# 5 -0.003750 0.005794 0.004549 0.004682 0.035007 0.005976
# 6 0.000102 0.005519 -0.003190 -0.000607 0.005976 0.060760
#
#
# Mechanical properties :
#
#
# Convention : Reuss Voigt Hill
#
# Bulk Modulus (GPa) = 34.26759 43.28348 38.77554
# Shear Modulus (GPa) = 23.56942 30.20283 26.88613
#
# Velocity S-wave (km/s) = 3.29626 3.73139 3.52056
# Velocity P-wave (km/s) = 5.50311 6.20627 5.86524
#
# Compressibility (1/GPa) = 0.02918210
#
# Stress axis : x y z
#
# Youngs Moduli (GPa) = 51.47078 97.92159 66.79458
#
# Poissons Ratio (x) = 0.06368 0.33262
# Poissons Ratio (y) = 0.03347 0.13926
# Poissons Ratio (z) = 0.25631 0.20415
#
# Static dielectric constant tensor:
#      x y z
#    x 4.032060 -0.122970 0.132570 
#    y -0.122970 3.813670 -0.133130 
#    z 0.132570 -0.133130 3.906130 
# 
# 
# High freq. dielectric constant tensor:
#      x y z
#    x 1.855310 -0.005590 0.011710 
#    y -0.005590 1.848540 -0.000810 
#    z 0.011710 -0.000810 1.849980 
# 
# From -- ./inp_files/156752.got.cif
#   From: 2010.06.25/outbox.cif.g09.slc.cpg/sg2_79_cif.got.tgz:156752.got - 2010.06.27 13:26:56.
