data_PCOD8010779
_publ_section_title
;
Structure prediction by ZEFSAII (Michael W. Deem and Ramdas Pophale) SiO2 
 PCOD8010779
Probable space group: P -1
;
_chemical_formula_sum "Si O2"
_cell_formula_units_Z 16
_cell_length_a 21.400161
_cell_length_b 5.386342
_cell_length_c 7.809828
_cell_angle_alpha 61.963863
_cell_angle_beta 120.380898
_cell_angle_gamma 114.087233
_cell_volume 668.089357
_symmetry_space_group_name_H-M "P -1"
_symmetry_group_IT_number 2
_symmetry_cell_setting 'triclinic'
loop_
_space_group_symop_operation_xyz
x,y,z
-x,-y,-z
loop_
_atom_site_type_symbol
_atom_site_label
_atom_site_fract_x
_atom_site_fract_y
_atom_site_fract_z
Si Si1 0.163516 0.216827 0.160330
Si Si2 0.914431 0.004679 0.379192
Si Si3 0.529845 0.138784 0.729939
Si Si4 0.566362 0.729787 0.170551
Si Si5 0.161586 0.564755 0.692826
Si Si6 0.712488 0.045612 0.459891
Si Si7 0.913717 0.350310 0.932977
Si Si8 0.391178 0.799292 0.498339
O O1 0.126423 0.380428 0.202088
O O2 0.244073 0.202727 0.351185
O O3 0.115773 0.880670 0.185416
O O4 0.169940 0.397655 0.934693
O O5 0.887566 0.188914 0.435548
O O6 0.874547 0.665967 0.428248
O O7 0.893156 0.158612 0.133138
O O8 0.000000 0.000000 0.500000
O O9 0.509776 0.319341 0.804858
O O10 0.600351 0.297438 0.657667
O O11 0.456004 0.086245 0.524587
O O12 0.551563 0.850308 0.926110
O O13 0.589481 0.431693 0.266697
O O14 0.634691 0.937869 0.293657
O O15 0.241508 0.714849 0.680968
O O16 0.691507 0.167149 0.576986
O O17 0.000000 0.500000 0.000000
#
# Coordination Sequence:
#
# PCOD8010779 Si02
#       8
#     2   2   2   2   2   2   2   2
#     4  10  24  42  60  92 132 165 215 268 325 392
#     4  10  22  40  66  92 121 165 214 271 328 384
#     4   9  20  40  62  94 126 162 212 280 306 382
#     4  10  21  38  63  93 125 167 218 257 330 382
#     4  10  24  42  60  92 132 165 215 268 325 392
#     4  11  26  38  62  92 126 178 212 262 336 396
#     4  10  22  40  66  92 121 165 214 271 328 384
#     4  10  21  38  63  93 125 167 218 257 330 382
#
# _framework density 23.948893000000002
#
# number of rings (size 3 to 8) (size 9 to 14) (size 15 to 20)
#    0.000    2.000    0.000    1.500    7.000    2.000 
#    2.250    2.500    0.000    0.000    0.000    0.000 
#    0.000    0.000    0.000    0.000    0.000    0.000 
#
# Total GULP energy -198218.339443 kJ/mol
# GULP energy per Si atom -12388.646215 kJ/mol
# Density = 2.389438 g / cm^3
# Si number density = 23.948893 Si / 1000 Ang^3
#
#
#
# Elastic Constant Matrix: (Units=GPa)
#
#
# Indices 1 2 3 4 5 6 
#
# 1 172.6340 55.4135 41.4559 -9.2416 17.3570 -9.4850
# 2 55.4135 115.6581 21.8324 -13.5903 3.4719 -18.5223
# 3 41.4559 21.8324 74.5762 -10.2458 15.9586 -15.5599
# 4 -9.2416 -13.5903 -10.2458 35.1235 -8.2920 8.8988
# 5 17.3570 3.4719 15.9586 -8.2920 26.0214 -7.8162
# 6 -9.4850 -18.5223 -15.5599 8.8988 -7.8162 32.0012
#
#
#
# Elastic Compliance Matrix: (Units=1/GPa)
#
#
# Indices 1 2 3 4 5 6 
#
# 1 0.007867 -0.003450 -0.003049 -0.000539 -0.003657 -0.001891
# 2 -0.003450 0.011528 -0.000738 0.002851 0.003751 0.005414
# 3 -0.003049 -0.000738 0.018108 0.001170 -0.006964 0.005447
# 4 -0.000539 0.002851 0.001170 0.033015 0.008248 -0.005107
# 5 -0.003657 0.003751 -0.006964 0.008248 0.049521 0.007503
# 6 -0.001891 0.005414 0.005447 -0.005107 0.007503 0.039723
#
#
# Mechanical properties :
#
#
# Convention : Reuss Voigt Hill
#
# Bulk Modulus (GPa) = 43.42614 66.69688 55.06151
# Shear Modulus (GPa) = 27.48558 34.90699 31.19629
#
# Velocity S-wave (km/s) = 3.39141 3.82194 3.61310
# Velocity P-wave (km/s) = 5.78859 6.88378 6.35981
#
# Compressibility (1/GPa) = 0.02302760
#
# Stress axis : x y z
#
# Youngs Moduli (GPa) = 127.10959 86.74520 55.22506
#
# Poissons Ratio (x) = 0.29928 0.16840
# Poissons Ratio (y) = 0.43854 0.04077
# Poissons Ratio (z) = 0.38759 0.06404
#
# Static dielectric constant tensor:
#      x y z
#    x 4.456300 -0.364660 -0.048760 
#    y -0.364660 4.447980 -0.124930 
#    z -0.048760 -0.124930 4.179480 
# 
# 
# High freq. dielectric constant tensor:
#      x y z
#    x 1.955900 -0.011720 -0.006280 
#    y -0.011720 1.945520 -0.017260 
#    z -0.006280 -0.017260 1.947900 
# 
# From -- ./inp_files/44860.got.cif
#   From: 2010.06.25/outbox.cif.g09.slc.cpg/sg2_23_cif.got.tgz:44860.got - 2010.06.27 13:26:56.
