data_PCOD8010193
_publ_section_title
;
Structure prediction by ZEFSAII (Michael W. Deem and Ramdas Pophale) SiO2 
 PCOD8010193
Probable space group: P -1
;
_chemical_formula_sum "Si O2"
_cell_formula_units_Z 16
_cell_length_a 8.218033
_cell_length_b 12.466446
_cell_length_c 9.076205
_cell_angle_alpha 123.358863
_cell_angle_beta 115.352125
_cell_angle_gamma 72.494260
_cell_volume 699.221419
_symmetry_space_group_name_H-M "P -1"
_symmetry_group_IT_number 2
_symmetry_cell_setting 'triclinic'
loop_
_space_group_symop_operation_xyz
x,y,z
-x,-y,-z
loop_
_atom_site_type_symbol
_atom_site_label
_atom_site_fract_x
_atom_site_fract_y
_atom_site_fract_z
Si Si1 0.660129 0.651043 0.804790
Si Si2 0.780018 0.140265 0.996592
Si Si3 0.157776 0.113073 0.030136
Si Si4 0.344256 0.403510 0.887633
Si Si5 0.546444 0.874094 0.322024
Si Si6 0.974233 0.473045 0.641588
Si Si7 0.289080 0.731024 0.627600
Si Si8 0.183418 0.984988 0.648102
O O1 0.686434 0.800551 0.893707
O O2 0.825892 0.573413 0.731685
O O3 0.471310 0.631663 0.629712
O O4 0.663591 0.623166 0.959663
O O5 0.704304 0.206412 0.163261
O O6 0.970672 0.193477 0.065942
O O7 0.639016 0.177406 0.842903
O O8 0.784522 0.983556 0.886591
O O9 0.114923 0.018484 0.810043
O O10 0.366380 0.268081 0.697610
O O11 0.158620 0.475620 0.808011
O O12 0.500000 0.500000 0.000000
O O13 0.500000 0.000000 0.500000
O O14 0.677070 0.916944 0.277820
O O15 0.893409 0.335850 0.521405
O O16 0.000000 0.500000 0.500000
O O17 0.284675 0.839986 0.579853
O O18 0.000000 0.000000 0.500000
#
# Coordination Sequence:
#
# PCOD8010193 Si02
#       8
#     2   2   2   2   2   2   2   2
#     4  12  24  46  73 100 143 196 248 296 374 438
#     4  10  21  41  67 103 141 182 227 293 371 429
#     4  10  21  37  68  96 134 184 229 283 359 434
#     4  12  28  50  74 104 152 199 246 305 378 444
#     4  12  25  43  71 103 142 183 241 297 363 435
#     4  12  28  47  72 104 145 193 255 305 364 445
#     4  11  23  42  72 102 141 182 238 302 361 433
#     4  11  22  40  64 101 141 178 230 298 363 427
#
# _framework density 22.882595999999999
#
# number of rings (size 3 to 8) (size 9 to 14) (size 15 to 20)
#    0.000    0.750    2.500    4.500    1.750    7.000 
#    0.000    0.000    0.000    0.000    0.000    0.000 
#    0.000    0.000    0.000    0.000    0.000    0.000 
#
# Total GULP energy -198219.993248 kJ/mol
# GULP energy per Si atom -12388.749578 kJ/mol
# Density = 2.283051 g / cm^3
# Si number density = 22.882596 Si / 1000 Ang^3
#
#
#
# Elastic Constant Matrix: (Units=GPa)
#
#
# Indices 1 2 3 4 5 6 
#
# 1 127.6604 52.8071 31.8683 -3.4840 14.8450 -6.0984
# 2 52.8071 111.9796 33.6585 -0.3533 5.5107 -2.6060
# 3 31.8683 33.6585 70.1499 -2.4413 11.5367 -9.6354
# 4 -3.4840 -0.3533 -2.4413 43.1796 -8.2081 7.6587
# 5 14.8450 5.5107 11.5367 -8.2081 46.3970 2.1076
# 6 -6.0984 -2.6060 -9.6354 7.6587 2.1076 51.4914
#
#
#
# Elastic Compliance Matrix: (Units=1/GPa)
#
#
# Indices 1 2 3 4 5 6 
#
# 1 0.010396 -0.004086 -0.002291 0.000124 -0.002280 0.000671
# 2 -0.004086 0.012050 -0.004174 -0.000175 0.000913 -0.000666
# 3 -0.002291 -0.004174 0.018298 -0.000415 -0.003538 0.003148
# 4 0.000124 -0.000175 -0.000415 0.024724 0.004637 -0.003939
# 5 -0.002280 0.000913 -0.003538 0.004637 0.023990 -0.002558
# 6 0.000671 -0.000666 0.003148 -0.003939 -0.002558 0.020746
#
#
# Mechanical properties :
#
#
# Convention : Reuss Voigt Hill
#
# Bulk Modulus (GPa) = 50.90618 60.71752 55.81185
# Shear Modulus (GPa) = 36.27037 40.97734 38.62386
#
# Velocity S-wave (km/s) = 3.98561 4.23633 4.11288
# Velocity P-wave (km/s) = 6.59356 7.10779 6.85550
#
# Compressibility (1/GPa) = 0.01964398
#
# Stress axis : x y z
#
# Youngs Moduli (GPa) = 96.19335 82.98502 54.65004
#
# Poissons Ratio (x) = 0.33904 0.12520
# Poissons Ratio (y) = 0.39301 0.22809
# Poissons Ratio (z) = 0.22038 0.34635
#
# Static dielectric constant tensor:
#      x y z
#    x 4.385110 0.037230 0.208090 
#    y 0.037230 4.341170 -0.124190 
#    z 0.208090 -0.124190 3.831030 
# 
# 
# High freq. dielectric constant tensor:
#      x y z
#    x 1.919070 -0.006030 0.009820 
#    y -0.006030 1.914800 0.005110 
#    z 0.009820 0.005110 1.891440 
# 
# From -- ./inp_files/184865.got.cif
#   From: 2010.06.25/outbox.cif.g09.slc.cpg/sg2_93_cif.got.tgz:184865.got - 2010.06.27 13:26:56.
