data_PCOD8010086
_publ_section_title
;
Structure prediction by ZEFSAII (Michael W. Deem and Ramdas Pophale) SiO2 
 PCOD8010086
Probable space group: P -1
;
_chemical_formula_sum "Si O2"
_cell_formula_units_Z 16
_cell_length_a 19.906972
_cell_length_b 9.482335
_cell_length_c 6.157139
_cell_angle_alpha 68.958597
_cell_angle_beta 126.441897
_cell_angle_gamma 130.109945
_cell_volume 714.555467
_symmetry_space_group_name_H-M "P -1"
_symmetry_group_IT_number 2
_symmetry_cell_setting 'triclinic'
loop_
_space_group_symop_operation_xyz
x,y,z
-x,-y,-z
loop_
_atom_site_type_symbol
_atom_site_label
_atom_site_fract_x
_atom_site_fract_y
_atom_site_fract_z
Si Si1 0.442543 0.293424 0.622419
Si Si2 0.246108 0.430753 0.611389
Si Si3 0.378076 0.050707 0.008625
Si Si4 0.558202 0.394739 0.392541
Si Si5 0.262729 0.141297 0.043306
Si Si6 0.101650 0.462853 0.038771
Si Si7 0.871655 0.230495 0.777542
Si Si8 0.243759 0.674189 0.812955
O O1 0.391221 0.100787 0.750928
O O2 0.543289 0.346503 0.650276
O O3 0.470941 0.454547 0.764891
O O4 0.362243 0.278427 0.303057
O O5 0.328059 0.504798 0.532622
O O6 0.223505 0.252682 0.792405
O O7 0.285781 0.595175 0.768830
O O8 0.141311 0.376786 0.330360
O O9 0.290175 0.056031 0.949558
O O10 0.339473 0.836228 0.053147
O O11 0.486915 0.198482 0.243918
O O12 0.175530 0.976520 0.116259
O O13 0.159564 0.509666 0.895279
O O14 0.982990 0.309499 0.851838
O O15 0.120115 0.647896 0.070374
O O16 0.804269 0.231956 0.455777
#
# Coordination Sequence:
#
# PCOD8010086 Si02
#       8
#     2   2   2   2   2   2   2   2
#     4  10  21  37  65  92 123 169 219 257 301 370
#     4  11  26  39  60  99 135 164 202 266 325 361
#     4  11  21  39  65  93 122 172 220 248 302 387
#     4  10  23  37  61  93 130 168 212 257 309 371
#     4  11  22  39  67  96 125 164 213 263 307 378
#     4  10  23  43  66  91 131 166 206 266 317 374
#     4  10  21  43  70  94 117 170 222 251 309 388
#     4  11  23  42  66  94 129 166 210 261 319 371
#
# _framework density 22.391542999999999
#
# number of rings (size 3 to 8) (size 9 to 14) (size 15 to 20)
#    0.000    1.500    3.750    0.750    5.250    1.000 
#    0.000    1.875    0.000    0.000    0.000    0.000 
#    0.000    0.000    0.000    0.000    0.000    0.000 
#
# Total GULP energy -198308.651311 kJ/mol
# GULP energy per Si atom -12394.290707 kJ/mol
# Density = 2.234058 g / cm^3
# Si number density = 22.391543 Si / 1000 Ang^3
#
#
#
# Elastic Constant Matrix: (Units=GPa)
#
#
# Indices 1 2 3 4 5 6 
#
# 1 88.7899 31.3976 21.4799 -4.7738 -21.6383 4.3506
# 2 31.3976 97.1971 26.5006 -6.1885 -4.7443 11.2316
# 3 21.4799 26.5006 60.3027 -8.3876 -9.0191 1.4948
# 4 -4.7738 -6.1885 -8.3876 32.5103 1.1156 -8.4904
# 5 -21.6383 -4.7443 -9.0191 1.1156 32.5855 -3.6873
# 6 4.3506 11.2316 1.4948 -8.4904 -3.6873 35.3677
#
#
#
# Elastic Compliance Matrix: (Units=1/GPa)
#
#
# Indices 1 2 3 4 5 6 
#
# 1 0.015438 -0.003929 -0.002324 0.000758 0.009076 0.000575
# 2 -0.003929 0.013138 -0.004667 -0.000187 -0.002410 -0.003788
# 3 -0.002324 -0.004667 0.020575 0.004575 0.003584 0.002370
# 4 0.000758 -0.000187 0.004575 0.034082 0.001493 0.008110
# 5 0.009076 -0.002410 0.003584 0.001493 0.037734 0.003790
# 6 0.000575 -0.003788 0.002370 0.008110 0.003790 0.031648
#
#
# Mechanical properties :
#
#
# Convention : Reuss Voigt Hill
#
# Bulk Modulus (GPa) = 36.61288 45.00511 40.80900
# Shear Modulus (GPa) = 27.23913 31.22013 29.22963
#
# Velocity S-wave (km/s) = 3.49161 3.73806 3.61693
# Velocity P-wave (km/s) = 5.71330 6.22684 5.97559
#
# Compressibility (1/GPa) = 0.02731279
#
# Stress axis : x y z
#
# Youngs Moduli (GPa) = 64.77379 76.11523 48.60204
#
# Poissons Ratio (x) = 0.29902 0.11296
# Poissons Ratio (y) = 0.25447 0.22681
# Poissons Ratio (z) = 0.15054 0.35521
#
# Static dielectric constant tensor:
#      x y z
#    x 4.025910 0.083880 -0.265710 
#    y 0.083880 3.958230 -0.002430 
#    z -0.265710 -0.002430 3.914200 
# 
# 
# High freq. dielectric constant tensor:
#      x y z
#    x 1.877140 0.009240 -0.024620 
#    y 0.009240 1.882500 -0.002130 
#    z -0.024620 -0.002130 1.873000 
# 
# From -- ./inp_files/116852.got.cif
#   From: 2010.06.25/outbox.cif.g09.slc.cpg/sg2_59_cif.got.tgz:116852.got - 2010.06.27 13:26:56.
