data_PCOD8010826
_publ_section_title
;
Structure prediction by ZEFSAII (Michael W. Deem and Ramdas Pophale) SiO2 
 PCOD8010826
Probable space group: P -1
;
_chemical_formula_sum "Si O2"
_cell_formula_units_Z 16
_cell_length_a 13.705213
_cell_length_b 7.757593
_cell_length_c 13.695097
_cell_angle_alpha 51.961055
_cell_angle_beta 136.302252
_cell_angle_gamma 124.724694
_cell_volume 771.365104
_symmetry_space_group_name_H-M "P -1"
_symmetry_group_IT_number 2
_symmetry_cell_setting 'triclinic'
loop_
_space_group_symop_operation_xyz
x,y,z
-x,-y,-z
loop_
_atom_site_type_symbol
_atom_site_label
_atom_site_fract_x
_atom_site_fract_y
_atom_site_fract_z
Si Si1 0.490102 0.115420 0.849446
Si Si2 0.797252 0.759952 0.423761
Si Si3 0.236072 0.678572 0.341714
Si Si4 0.953396 0.473782 0.086150
Si Si5 0.990514 0.027784 0.330525
Si Si6 0.333656 0.379615 0.179914
Si Si7 0.260517 0.021939 0.401651
Si Si8 0.456854 0.021167 0.272372
O O1 0.322832 0.094768 0.708405
O O2 0.562983 0.376692 0.821713
O O3 0.551695 0.988137 0.849108
O O4 0.500000 0.000000 0.000000
O O5 0.726166 0.502634 0.491274
O O6 0.874096 0.798959 0.358135
O O7 0.923927 0.853288 0.557022
O O8 0.220568 0.888455 0.320143
O O9 0.368190 0.775074 0.329848
O O10 0.089992 0.584803 0.211305
O O11 0.824638 0.594128 0.977951
O O12 0.903083 0.205346 0.162252
O O13 0.000000 0.500000 0.000000
O O14 0.106273 0.976171 0.357446
O O15 0.321909 0.275776 0.317830
O O16 0.393719 0.228240 0.195473
O O17 0.378523 0.945215 0.581617
#
# Coordination Sequence:
#
# PCOD8010826 Si02
#       8
#     2   2   2   2   2   2   2   2
#     4  12  25  42  66  95 126 175 215 253 327 389
#     4  10  21  40  60  90 126 164 214 260 309 381
#     4  10  23  39  64  97 121 165 214 257 326 379
#     4  11  21  40  61  92 128 169 211 258 316 376
#     4  10  21  38  64  88 125 169 208 262 312 367
#     4  11  24  42  65  97 132 163 211 271 313 379
#     4  11  21  41  65  96 126 162 214 264 317 375
#     4  11  24  42  67  97 129 164 213 270 319 374
#
# _framework density 20.742446999999999
#
# number of rings (size 3 to 8) (size 9 to 14) (size 15 to 20)
#    0.000    1.250    2.500    4.500    1.750    4.000 
#    4.500    0.000    0.000    0.000    0.000    0.000 
#    0.000    0.000    0.000    0.000    0.000    0.000 
#
# Total GULP energy -198288.625078 kJ/mol
# GULP energy per Si atom -12393.039067 kJ/mol
# Density = 2.069524 g / cm^3
# Si number density = 20.742447 Si / 1000 Ang^3
#
#
#
# Elastic Constant Matrix: (Units=GPa)
#
#
# Indices 1 2 3 4 5 6 
#
# 1 148.7172 36.5092 57.3183 -7.6811 -8.6117 -0.3039
# 2 36.5092 64.3732 27.9217 -3.2780 -10.5843 -0.6580
# 3 57.3183 27.9217 120.6271 -8.3694 1.6633 -6.9837
# 4 -7.6811 -3.2780 -8.3694 19.3582 1.3245 -5.5694
# 5 -8.6117 -10.5843 1.6633 1.3245 43.3226 -3.5619
# 6 -0.3039 -0.6580 -6.9837 -5.5694 -3.5619 22.6987
#
#
#
# Elastic Compliance Matrix: (Units=1/GPa)
#
#
# Indices 1 2 3 4 5 6 
#
# 1 0.009011 -0.003386 -0.003456 0.001275 0.001011 -0.000570
# 2 -0.003386 0.019428 -0.002885 0.000533 0.004203 0.000420
# 3 -0.003456 -0.002885 0.011154 0.004250 -0.001614 0.004091
# 4 0.001275 0.000533 0.004250 0.058622 -0.000283 0.015679
# 5 0.001011 0.004203 -0.001614 -0.000283 0.024664 0.003440
# 6 -0.000570 0.000420 0.004091 0.015679 0.003440 0.049705
#
#
# Mechanical properties :
#
#
# Convention : Reuss Voigt Hill
#
# Bulk Modulus (GPa) = 49.65501 64.13510 56.89506
# Shear Modulus (GPa) = 25.15705 31.20713 28.18209
#
# Velocity S-wave (km/s) = 3.48635 3.88300 3.69001
# Velocity P-wave (km/s) = 6.34011 7.14776 6.75601
#
# Compressibility (1/GPa) = 0.02013895
#
# Stress axis : x y z
#
# Youngs Moduli (GPa) = 110.97853 51.47082 89.65289
#
# Poissons Ratio (x) = 0.17428 0.30987
# Poissons Ratio (y) = 0.37577 0.25864
# Poissons Ratio (z) = 0.38358 0.14849
#
# Static dielectric constant tensor:
#      x y z
#    x 3.380930 -0.212350 0.356410 
#    y -0.212350 3.445050 0.110780 
#    z 0.356410 0.110780 3.726740 
# 
# 
# High freq. dielectric constant tensor:
#      x y z
#    x 1.819710 0.014370 -0.001220 
#    y 0.014370 1.802170 -0.002930 
#    z -0.001220 -0.002930 1.819110 
# 
# From -- ./inp_files/528141.got.cif
#   From: 2010.06.25/outbox.cif.g09.slc.cpg/sg2_265_cif.got.tgz:528141.got - 2010.06.27 13:26:56.
