data_PCOD8011863
_publ_section_title
;
Structure prediction by ZEFSAII (Michael W. Deem and Ramdas Pophale) SiO2 
 PCOD8011863
Probable space group: P -1
;
_chemical_formula_sum "Si O2"
_cell_formula_units_Z 16
_cell_length_a 23.303741
_cell_length_b 20.308771
_cell_length_c 9.423859
_cell_angle_alpha 144.946358
_cell_angle_beta 143.451078
_cell_angle_gamma 17.456626
_cell_volume 761.892070
_symmetry_space_group_name_H-M "P -1"
_symmetry_group_IT_number 2
_symmetry_cell_setting 'triclinic'
loop_
_space_group_symop_operation_xyz
x,y,z
-x,-y,-z
loop_
_atom_site_type_symbol
_atom_site_label
_atom_site_fract_x
_atom_site_fract_y
_atom_site_fract_z
Si Si1 0.276803 0.687172 0.248789
Si Si2 0.481102 0.154671 0.092012
Si Si3 0.040872 0.584015 0.896030
Si Si4 0.597054 0.533071 0.601076
Si Si5 0.028796 0.805912 0.437507
Si Si6 0.917746 0.711626 0.566033
Si Si7 0.519281 0.867386 0.617939
Si Si8 0.858739 0.359378 0.312442
O O1 0.473901 0.546948 0.345675
O O2 0.319642 0.556405 0.232094
O O3 0.123098 0.937784 0.440749
O O4 0.195658 0.702624 0.981171
O O5 0.544357 0.209146 0.239915
O O6 0.498314 0.153690 0.292239
O O7 0.264726 0.356870 0.971448
O O8 0.594174 0.923364 0.858735
O O9 0.978069 0.516189 0.672965
O O10 0.997509 0.670328 0.802990
O O11 0.943055 0.775585 0.147622
O O12 0.770095 0.364573 0.535459
O O13 0.060853 0.754094 0.575241
O O14 0.969173 0.754383 0.628553
O O15 0.687623 0.936180 0.519791
O O16 0.672206 0.632898 0.425567
#
# Coordination Sequence:
#
# PCOD8011863 Si02
#       8
#     2   2   2   2   2   2   2   2
#     4  11  26  40  61  91 121 164 223 250 301 362
#     4   9  18  40  66  88 124 160 200 248 316 374
#     4   9  19  43  62  92 127 167 202 251 316 373
#     4  10  22  44  64  85 119 169 206 262 303 368
#     4  11  23  41  64  85 124 168 204 258 312 358
#     4  10  23  38  66  94 129 158 203 260 311 374
#     4  10  21  39  64  95 125 162 193 252 325 371
#     4  12  24  39  60  98 126 159 211 261 302 370
#
# _framework density 21.000350000000001
#
# number of rings (size 3 to 8) (size 9 to 14) (size 15 to 20)
#    0.000    1.750    2.500    2.250    1.750    5.000 
#    0.000    8.750    0.000    0.000    0.000    0.000 
#    0.000    0.000    0.000    0.000    0.000    0.000 
#
# Total GULP energy -198363.305813 kJ/mol
# GULP energy per Si atom -12397.706613 kJ/mol
# Density = 2.095255 g / cm^3
# Si number density = 21.000350 Si / 1000 Ang^3
#
#
#
# Elastic Constant Matrix: (Units=GPa)
#
#
# Indices 1 2 3 4 5 6 
#
# 1 93.0681 12.0593 28.5957 -13.1576 2.9935 30.4267
# 2 12.0593 60.0662 19.9957 12.0657 -2.5170 13.9923
# 3 28.5957 19.9957 136.8743 5.4054 -8.5202 16.4394
# 4 -13.1576 12.0657 5.4054 38.8100 8.2160 0.8680
# 5 2.9935 -2.5170 -8.5202 8.2160 28.0250 -0.3109
# 6 30.4267 13.9923 16.4394 0.8680 -0.3109 34.6054
#
#
#
# Elastic Compliance Matrix: (Units=1/GPa)
#
#
# Indices 1 2 3 4 5 6 
#
# 1 0.017563 -0.001304 -0.002446 0.008130 -0.005276 -0.014004
# 2 -0.001304 0.020442 -0.001460 -0.007212 0.003577 -0.006212
# 3 -0.002446 -0.001460 0.008471 -0.002237 0.003348 -0.001197
# 4 0.008130 -0.007212 -0.002237 0.033737 -0.012133 -0.004125
# 5 -0.005276 0.003577 0.003348 -0.012133 0.041167 0.002276
# 6 -0.014004 -0.006212 -0.001197 -0.004125 0.002276 0.044415
#
#
# Mechanical properties :
#
#
# Convention : Reuss Voigt Hill
#
# Bulk Modulus (GPa) = 27.73533 45.70110 36.71822
# Shear Modulus (GPa) = 26.56265 35.57859 31.07062
#
# Velocity S-wave (km/s) = 3.56036 4.12052 3.85064
# Velocity P-wave (km/s) = 5.48974 6.66690 6.10675
#
# Compressibility (1/GPa) = 0.03605510
#
# Stress axis : x y z
#
# Youngs Moduli (GPa) = 56.93805 48.91907 118.05174
#
# Poissons Ratio (x) = 0.06378 0.28879
# Poissons Ratio (y) = 0.07423 0.17240
# Poissons Ratio (z) = 0.13929 0.07144
#
# Static dielectric constant tensor:
#      x y z
#    x 3.735410 0.299900 0.320450 
#    y 0.299900 3.646000 0.210250 
#    z 0.320450 0.210250 4.206800 
# 
# 
# High freq. dielectric constant tensor:
#      x y z
#    x 1.814540 0.023070 0.009060 
#    y 0.023070 1.823640 -0.002170 
#    z 0.009060 -0.002170 1.832130 
# 
# From -- ./inp_files/239560.got.cif
#   From: 2010.06.25/outbox.cif.g09.slc.cpg/sg2_120_cif.got.tgz:239560.got - 2010.06.27 13:26:56.
