data_PCOD8011950
_publ_section_title
;
Structure prediction by ZEFSAII (Michael W. Deem and Ramdas Pophale) SiO2 
 PCOD8011950
Probable space group: P -1
;
_chemical_formula_sum "Si O2"
_cell_formula_units_Z 16
_cell_length_a 5.936624
_cell_length_b 25.578602
_cell_length_c 15.591989
_cell_angle_alpha 17.852472
_cell_angle_beta 101.763901
_cell_angle_gamma 98.526393
_cell_volume 702.277009
_symmetry_space_group_name_H-M "P -1"
_symmetry_group_IT_number 2
_symmetry_cell_setting 'triclinic'
loop_
_space_group_symop_operation_xyz
x,y,z
-x,-y,-z
loop_
_atom_site_type_symbol
_atom_site_label
_atom_site_fract_x
_atom_site_fract_y
_atom_site_fract_z
Si Si1 0.103447 0.218752 0.681489
Si Si2 0.269908 0.626885 0.264507
Si Si3 0.107030 0.749894 0.657313
Si Si4 0.457504 0.232108 0.067341
Si Si5 0.718265 0.630080 0.696888
Si Si6 0.162536 0.955937 0.499403
Si Si7 0.879352 0.431930 0.478381
Si Si8 0.271606 0.893828 0.285393
O O1 0.209743 0.360720 0.412057
O O2 0.910007 0.306488 0.595915
O O3 0.976968 0.119833 0.754619
O O4 0.305150 0.087551 0.954072
O O5 0.500000 0.500000 0.500000
O O6 0.140194 0.681908 0.258768
O O7 0.103886 0.528466 0.347497
O O8 0.353523 0.784685 0.971010
O O9 0.036087 0.853488 0.578210
O O10 0.245335 0.873085 0.418059
O O11 0.876903 0.710149 0.653868
O O12 0.280077 0.570763 0.967895
O O13 0.595210 0.162200 0.272064
O O14 0.239064 0.129583 0.193255
O O15 0.354824 0.431443 0.764383
O O16 0.464442 0.740562 0.508301
O O17 0.000000 0.000000 0.500000
#
# Coordination Sequence:
#
# PCOD8011950 Si02
#       8
#     2   2   2   2   2   2   2   2
#     4  10  23  38  65  96 125 163 214 268 327 387
#     4   9  20  38  59  89 126 163 215 256 314 386
#     4  10  24  42  65  95 127 171 217 267 325 393
#     4  10  23  40  60  93 126 173 218 261 322 391
#     4  10  22  42  68  96 125 168 220 267 329 386
#     4  11  25  42  63  93 134 168 217 271 324 387
#     4  10  21  39  65  91 128 169 213 268 321 395
#     4  10  22  43  61  94 131 160 213 272 327 384
#
# _framework density 22.783031999999999
#
# number of rings (size 3 to 8) (size 9 to 14) (size 15 to 20)
#    0.000    2.000    0.000    1.500    5.250    7.000 
#    0.000    3.750    0.000    0.000    0.000    0.000 
#    0.000    0.000    0.000    0.000    0.000    0.000 
#
# Total GULP energy -198286.844591 kJ/mol
# GULP energy per Si atom -12392.927787 kJ/mol
# Density = 2.273118 g / cm^3
# Si number density = 22.783032 Si / 1000 Ang^3
#
#
#
# Elastic Constant Matrix: (Units=GPa)
#
#
# Indices 1 2 3 4 5 6 
#
# 1 74.5357 28.0152 31.4300 8.5884 -7.1044 -18.3100
# 2 28.0152 126.8176 51.8295 2.3692 -6.2794 -30.7438
# 3 31.4300 51.8295 130.5712 25.4774 2.2963 -12.6160
# 4 8.5884 2.3692 25.4774 30.7465 -4.2173 0.4404
# 5 -7.1044 -6.2794 2.2963 -4.2173 47.1625 6.5709
# 6 -18.3100 -30.7438 -12.6160 0.4404 6.5709 32.4729
#
#
#
# Elastic Compliance Matrix: (Units=1/GPa)
#
#
# Indices 1 2 3 4 5 6 
#
# 1 0.017098 -0.000727 -0.002623 -0.002477 0.001312 0.007702
# 2 -0.000727 0.011969 -0.004248 0.002762 0.000670 0.009099
# 3 -0.002623 -0.004248 0.011732 -0.008969 -0.002284 -0.000359
# 4 -0.002477 0.002762 -0.008969 0.041125 0.004633 -0.003762
# 5 0.001312 0.000670 -0.002284 0.004633 0.022594 -0.004148
# 6 0.007702 0.009099 -0.000359 -0.003762 -0.004148 0.044503
#
#
# Mechanical properties :
#
#
# Convention : Reuss Voigt Hill
#
# Bulk Modulus (GPa) = 39.05602 61.60821 50.33212
# Shear Modulus (GPa) = 28.94360 36.78635 32.86498
#
# Velocity S-wave (km/s) = 3.56814 4.02262 3.80217
# Velocity P-wave (km/s) = 5.84425 6.97676 6.43547
#
# Compressibility (1/GPa) = 0.02560425
#
# Stress axis : x y z
#
# Youngs Moduli (GPa) = 58.48642 83.54701 85.23860
#
# Poissons Ratio (x) = 0.06073 0.22356
# Poissons Ratio (y) = 0.04251 0.36208
# Poissons Ratio (z) = 0.15340 0.35489
#
# Static dielectric constant tensor:
#      x y z
#    x 4.127590 -0.248630 -0.329760 
#    y -0.248630 4.122140 0.683120 
#    z -0.329760 0.683120 4.678930 
# 
# 
# High freq. dielectric constant tensor:
#      x y z
#    x 1.890910 -0.007490 0.004250 
#    y -0.007490 1.886370 0.030150 
#    z 0.004250 0.030150 1.907080 
# 
# From -- ./inp_files/485945.got.cif
#   From: 2010.06.25/outbox.cif.g09.slc.cpg/sg2_243_cif.got.tgz:485945.got - 2010.06.27 13:26:56.
