data_PCOD8011458
_publ_section_title
;
Structure prediction by ZEFSAII (Michael W. Deem and Ramdas Pophale) SiO2 
 PCOD8011458
Probable space group: P -1
;
_chemical_formula_sum "Si O2"
_cell_formula_units_Z 16
_cell_length_a 12.595662
_cell_length_b 13.094709
_cell_length_c 9.431122
_cell_angle_alpha 63.535681
_cell_angle_beta 35.028434
_cell_angle_gamma 79.093602
_cell_volume 751.103486
_symmetry_space_group_name_H-M "P -1"
_symmetry_group_IT_number 2
_symmetry_cell_setting 'triclinic'
loop_
_space_group_symop_operation_xyz
x,y,z
-x,-y,-z
loop_
_atom_site_type_symbol
_atom_site_label
_atom_site_fract_x
_atom_site_fract_y
_atom_site_fract_z
Si Si1 0.371817 0.213508 0.665024
Si Si2 0.992556 0.124120 0.289575
Si Si3 0.188107 0.774376 0.805364
Si Si4 0.827066 0.605899 0.719740
Si Si5 0.722052 0.022361 0.213690
Si Si6 0.985633 0.121897 0.620016
Si Si7 0.101665 0.475405 0.607271
Si Si8 0.548188 0.516495 0.605087
O O1 0.584222 0.208493 0.475718
O O2 0.391456 0.343545 0.501737
O O3 0.262005 0.112939 0.725961
O O4 0.231407 0.181982 0.977138
O O5 0.900680 0.213902 0.256352
O O6 0.926209 0.128347 0.519320
O O7 0.915699 0.983587 0.405650
O O8 0.151339 0.884346 0.865293
O O9 0.076583 0.646217 0.079986
O O10 0.791483 0.544702 0.641171
O O11 0.869127 0.748708 0.566219
O O12 0.008278 0.579955 0.616175
O O13 0.637613 0.558665 0.054632
O O14 0.500000 0.000000 0.500000
O O15 0.784930 0.085209 0.952938
O O16 0.263420 0.519931 0.529595
O O17 0.500000 0.500000 0.500000
#
# Coordination Sequence:
#
# PCOD8011458 Si02
#       8
#     2   2   2   2   2   2   2   2
#     4  10  21  39  61  93 126 158 209 262 304 373
#     4  10  22  39  64  90 129 158 210 257 313 380
#     4  11  20  40  66  95 118 165 212 258 318 371
#     4  11  24  43  64  91 136 162 213 264 314 378
#     4   9  20  37  64  93 120 154 206 254 311 370
#     4  10  21  41  61  91 126 169 194 262 323 365
#     4  11  24  41  65  94 126 170 215 261 317 370
#     4  12  25  41  63  94 129 170 217 259 311 379
#
# _framework density 21.301991999999998
#
# number of rings (size 3 to 8) (size 9 to 14) (size 15 to 20)
#    0.000    1.500    3.750    1.125    0.000    4.500 
#    0.000   13.750    0.000    0.000    0.000    0.000 
#    0.000    0.000    0.000    0.000    0.000    0.000 
#
# Total GULP energy -198272.852837 kJ/mol
# GULP energy per Si atom -12392.053302 kJ/mol
# Density = 2.125351 g / cm^3
# Si number density = 21.301992 Si / 1000 Ang^3
#
#
#
# Elastic Constant Matrix: (Units=GPa)
#
#
# Indices 1 2 3 4 5 6 
#
# 1 85.1305 2.0816 18.1129 13.3061 -2.6252 -14.6140
# 2 2.0816 59.3345 19.5442 -11.7053 -4.3659 -1.7114
# 3 18.1129 19.5442 124.1653 1.4289 0.9600 -4.3899
# 4 13.3061 -11.7053 1.4289 30.4692 -2.5756 -1.1348
# 5 -2.6252 -4.3659 0.9600 -2.5756 28.4425 -1.8466
# 6 -14.6140 -1.7114 -4.3899 -1.1348 -1.8466 22.4090
#
#
#
# Elastic Compliance Matrix: (Units=1/GPa)
#
#
# Indices 1 2 3 4 5 6 
#
# 1 0.014665 -0.000849 -0.001627 -0.006210 0.001298 0.008972
# 2 -0.000849 0.019910 -0.003099 0.008539 0.003928 0.001116
# 3 -0.001627 -0.003099 0.008808 -0.000966 -0.000991 0.000297
# 4 -0.006210 0.008539 -0.000966 0.039169 0.004236 -0.001255
# 5 0.001298 0.003928 -0.000991 0.004236 0.036570 0.004180
# 6 0.008972 0.001116 0.000297 -0.001255 0.004180 0.050901
#
#
# Mechanical properties :
#
#
# Convention : Reuss Voigt Hill
#
# Bulk Modulus (GPa) = 31.02528 38.67861 34.85195
# Shear Modulus (GPa) = 26.05293 31.52358 28.78826
#
# Velocity S-wave (km/s) = 3.50098 3.85104 3.68017
# Velocity P-wave (km/s) = 5.56224 6.16204 5.86981
#
# Compressibility (1/GPa) = 0.03223178
#
# Stress axis : x y z
#
# Youngs Moduli (GPa) = 68.19167 50.22623 113.53031
#
# Poissons Ratio (x) = 0.04266 0.18470
# Poissons Ratio (y) = 0.05792 0.35185
# Poissons Ratio (z) = 0.11094 0.15566
#
# Static dielectric constant tensor:
#      x y z
#    x 3.599170 0.160200 0.093540 
#    y 0.160200 4.382920 -0.082800 
#    z 0.093540 -0.082800 4.066200 
# 
# 
# High freq. dielectric constant tensor:
#      x y z
#    x 1.806070 0.002470 0.008670 
#    y 0.002470 1.844110 -0.005210 
#    z 0.008670 -0.005210 1.853580 
# 
# From -- ./inp_files/272058.got.cif
#   From: 2010.06.25/outbox.cif.g09.slc.cpg/sg2_137_cif.got.tgz:272058.got - 2010.06.27 13:26:56.
