data_PCOD8011403
_publ_section_title
;
Structure prediction by ZEFSAII (Michael W. Deem and Ramdas Pophale) SiO2 
 PCOD8011403
Probable space group: P -1
;
_chemical_formula_sum "Si O2"
_cell_formula_units_Z 16
_cell_length_a 9.060031
_cell_length_b 12.398441
_cell_length_c 9.244033
_cell_angle_alpha 92.317437
_cell_angle_beta 89.774436
_cell_angle_gamma 131.675189
_cell_volume 774.595854
_symmetry_space_group_name_H-M "P -1"
_symmetry_group_IT_number 2
_symmetry_cell_setting 'triclinic'
loop_
_space_group_symop_operation_xyz
x,y,z
-x,-y,-z
loop_
_atom_site_type_symbol
_atom_site_label
_atom_site_fract_x
_atom_site_fract_y
_atom_site_fract_z
Si Si1 0.083392 0.155242 0.044234
Si Si2 0.779419 0.105654 0.871025
Si Si3 0.833087 0.469743 0.603608
Si Si4 0.698129 0.031151 0.538435
Si Si5 0.454120 0.220527 0.093046
Si Si6 0.192535 0.636665 0.087904
Si Si7 0.433901 0.262150 0.420826
Si Si8 0.924613 0.756568 0.646411
O O1 0.317080 0.255462 0.053400
O O2 0.005366 0.155453 0.200582
O O3 0.008683 0.197314 0.920045
O O4 0.000000 0.000000 0.000000
O O5 0.761061 0.092560 0.701006
O O6 0.745093 0.209079 0.934128
O O7 0.640367 0.946142 0.938241
O O8 0.813185 0.385455 0.741173
O O9 0.626827 0.386346 0.517088
O O10 0.883367 0.611891 0.669746
O O11 0.000000 0.500000 0.500000
O O12 0.885019 0.152779 0.450005
O O13 0.500000 0.000000 0.500000
O O14 0.666242 0.888729 0.509695
O O15 0.510506 0.262422 0.262931
O O16 0.631021 0.336811 0.992849
O O17 0.000000 0.500000 0.000000
O O18 0.268874 0.276922 0.420712
#
# Coordination Sequence:
#
# PCOD8011403 Si02
#       8
#     2   2   2   2   2   2   2   2
#     4   9  20  39  63  90 119 154 198 252 303 356
#     4  10  21  39  61  88 118 155 199 250 303 357
#     4  12  25  42  61  89 127 165 204 250 304 367
#     4  11  23  39  63  94 123 158 204 254 304 360
#     4   9  21  40  62  86 118 153 200 253 302 355
#     4  12  24  38  58  88 121 161 202 246 302 362
#     4  10  22  41  63  90 120 158 204 254 304 360
#     4  11  23  42  64  89 124 164 203 251 307 363
#
# _framework density 20.655933000000001
#
# number of rings (size 3 to 8) (size 9 to 14) (size 15 to 20)
#    0.000    1.500    0.000    5.625    0.000    8.000 
#    0.000    6.875    0.000    0.000    0.000    0.000 
#    0.000    0.000    0.000    0.000    0.000    0.000 
#
# Total GULP energy -198259.267233 kJ/mol
# GULP energy per Si atom -12391.204202 kJ/mol
# Density = 2.060892 g / cm^3
# Si number density = 20.655933 Si / 1000 Ang^3
#
#
#
# Elastic Constant Matrix: (Units=GPa)
#
#
# Indices 1 2 3 4 5 6 
#
# 1 126.5474 32.8469 61.7827 -6.6382 9.8735 12.4633
# 2 32.8469 74.2861 36.2582 3.1693 -4.5356 6.8559
# 3 61.7827 36.2582 111.7490 4.7241 15.2254 25.5891
# 4 -6.6382 3.1693 4.7241 34.3180 3.6128 -1.5402
# 5 9.8735 -4.5356 15.2254 3.6128 37.3480 -0.3665
# 6 12.4633 6.8559 25.5891 -1.5402 -0.3665 38.3205
#
#
#
# Elastic Compliance Matrix: (Units=1/GPa)
#
#
# Indices 1 2 3 4 5 6 
#
# 1 0.011569 -0.002659 -0.005621 0.003433 -0.001416 0.000591
# 2 -0.002659 0.017381 -0.005025 -0.001912 0.005058 0.001083
# 3 -0.005621 -0.005025 0.016511 -0.002678 -0.005679 -0.008460
# 4 0.003433 -0.001912 -0.002678 0.030764 -0.003002 0.002221
# 5 -0.001416 0.005058 -0.005679 -0.003002 0.030404 0.003518
# 6 0.000591 0.001083 -0.008460 0.002221 0.003518 0.031482
#
#
# Mechanical properties :
#
#
# Convention : Reuss Voigt Hill
#
# Bulk Modulus (GPa) = 53.05120 63.81756 58.43438
# Shear Modulus (GPa) = 29.23895 34.11029 31.67462
#
# Velocity S-wave (km/s) = 3.76643 4.06810 3.92016
# Velocity P-wave (km/s) = 6.68234 7.28206 6.98864
#
# Compressibility (1/GPa) = 0.01884972
#
# Stress axis : x y z
#
# Youngs Moduli (GPa) = 86.43796 57.53538 60.56604
#
# Poissons Ratio (x) = 0.15301 0.34042
# Poissons Ratio (y) = 0.22988 0.30436
# Poissons Ratio (z) = 0.48584 0.28913
#
# Static dielectric constant tensor:
#      x y z
#    x 4.173620 0.028430 0.646940 
#    y 0.028430 3.813740 0.100580 
#    z 0.646940 0.100580 3.452540 
# 
# 
# High freq. dielectric constant tensor:
#      x y z
#    x 1.825580 -0.003770 0.007030 
#    y -0.003770 1.805350 0.013930 
#    z 0.007030 0.013930 1.812260 
# 
# From -- ./inp_files/158720.got.cif
#   From: 2010.06.25/outbox.cif.g09.slc.cpg/sg2_80_cif.got.tgz:158720.got - 2010.06.27 13:26:56.
