data_PCOD8011288
_publ_section_title
;
Structure prediction by ZEFSAII (Michael W. Deem and Ramdas Pophale) SiO2 
 PCOD8011288
Probable space group: P -1
;
_chemical_formula_sum "Si O2"
_cell_formula_units_Z 14
_cell_length_a 6.715471
_cell_length_b 9.899550
_cell_length_c 17.311211
_cell_angle_alpha 63.471859
_cell_angle_beta 126.504810
_cell_angle_gamma 135.968912
_cell_volume 642.594122
_symmetry_space_group_name_H-M "P -1"
_symmetry_group_IT_number 2
_symmetry_cell_setting 'triclinic'
loop_
_space_group_symop_operation_xyz
x,y,z
-x,-y,-z
loop_
_atom_site_type_symbol
_atom_site_label
_atom_site_fract_x
_atom_site_fract_y
_atom_site_fract_z
Si Si1 0.828548 0.138432 0.995631
Si Si2 0.790001 0.498642 0.085327
Si Si3 0.767372 0.596700 0.365270
Si Si4 0.629460 0.086045 0.667683
Si Si5 0.863608 0.299560 0.421194
Si Si6 0.780588 0.425294 0.701380
Si Si7 0.670004 0.909777 0.869278
O O1 0.951365 0.360313 0.958844
O O2 0.824523 0.088101 0.917319
O O3 0.089276 0.128270 0.095938
O O4 0.500000 0.000000 0.000000
O O5 0.636685 0.272638 0.106734
O O6 0.960592 0.573301 0.190305
O O7 0.500000 0.500000 0.000000
O O8 0.694609 0.396058 0.375053
O O9 0.443344 0.568510 0.292788
O O10 0.012694 0.773340 0.319079
O O11 0.896034 0.650509 0.468228
O O12 0.565424 0.230071 0.648431
O O13 0.387662 0.935927 0.583725
O O14 0.566390 0.945949 0.757633
O O15 0.055483 0.387890 0.363137
#
# Coordination Sequence:
#
# PCOD8011288 Si02
#       7
#     2   2   2   2   2   2   2
#     4  10  22  39  61  85 117 156 209 252 303 362
#     4  10  21  40  61  85 124 162 199 249 309 357
#     4  10  24  40  64  94 126 159 212 256 305 372
#     4  11  22  38  65  90 127 162 204 254 313 365
#     4  10  22  44  63  90 128 167 199 259 317 361
#     4  11  22  40  64  93 123 164 210 256 304 370
#     4  10  21  39  59  84 122 162 196 254 309 362
#
# _framework density 21.786691999999999
#
# number of rings (size 3 to 8) (size 9 to 14) (size 15 to 20)
#    0.000    1.714    2.857    0.857    2.000    2.286 
#    2.571    0.000    0.000    0.000    0.000    0.000 
#    0.000    0.000    0.000    0.000    0.000    0.000 
#
# Total GULP energy -173443.545348 kJ/mol
# GULP energy per Si atom -12388.824668 kJ/mol
# Density = 2.173710 g / cm^3
# Si number density = 21.786692 Si / 1000 Ang^3
#
#
#
# Elastic Constant Matrix: (Units=GPa)
#
#
# Indices 1 2 3 4 5 6 
#
# 1 92.8107 29.6569 12.5043 -9.0239 7.4505 15.5621
# 2 29.6569 105.9147 12.4795 -2.0342 9.0449 8.0165
# 3 12.5043 12.4795 69.5586 -7.7048 1.3207 5.2510
# 4 -9.0239 -2.0342 -7.7048 37.1945 6.2747 -14.1797
# 5 7.4505 9.0449 1.3207 6.2747 17.9314 -4.2160
# 6 15.5621 8.0165 5.2510 -14.1797 -4.2160 32.3512
#
#
#
# Elastic Compliance Matrix: (Units=1/GPa)
#
#
# Indices 1 2 3 4 5 6 
#
# 1 0.013374 -0.002626 -0.001201 0.001734 -0.006072 -0.005619
# 2 -0.002626 0.010867 -0.001271 -0.000261 -0.004663 -0.001945
# 3 -0.001201 -0.001271 0.015185 0.002776 -0.001066 -0.000494
# 4 0.001734 -0.000261 0.002776 0.034307 -0.009852 0.012533
# 5 -0.006072 -0.004663 -0.001066 -0.009852 0.066180 0.008555
# 6 -0.005619 -0.001945 -0.000494 0.012533 0.008555 0.040784
#
#
# Mechanical properties :
#
#
# Convention : Reuss Voigt Hill
#
# Bulk Modulus (GPa) = 34.21275 41.95171 38.08223
# Shear Modulus (GPa) = 24.92050 31.73830 28.32940
#
# Velocity S-wave (km/s) = 3.38574 3.82091 3.60989
# Velocity P-wave (km/s) = 5.56973 6.22602 5.90700
#
# Compressibility (1/GPa) = 0.02922887
#
# Stress axis : x y z
#
# Youngs Moduli (GPa) = 74.77313 92.02109 65.85266
#
# Poissons Ratio (x) = 0.24166 0.07912
# Poissons Ratio (y) = 0.19636 0.08371
# Poissons Ratio (z) = 0.08984 0.11697
#
# Static dielectric constant tensor:
#      x y z
#    x 3.570140 0.126090 -0.095950 
#    y 0.126090 4.322410 -0.052550 
#    z -0.095950 -0.052550 3.866380 
# 
# 
# High freq. dielectric constant tensor:
#      x y z
#    x 1.822790 0.012630 -0.011200 
#    y 0.012630 1.876020 -0.009280 
#    z -0.011200 -0.009280 1.856110 
# 
# From -- ./inp_files/49208.got.cif
#   From: 2010.06.25/outbox.cif.g09.slc.cpg/sg2_25_cif.got.tgz:49208.got - 2010.06.27 13:26:56.
