data_PCOD8011330
_publ_section_title
;
Structure prediction by ZEFSAII (Michael W. Deem and Ramdas Pophale) SiO2 
 PCOD8011330
Probable space group: P -1
;
_chemical_formula_sum "Si O2"
_cell_formula_units_Z 14
_cell_length_a 14.746321
_cell_length_b 8.338657
_cell_length_c 10.575331
_cell_angle_alpha 78.152271
_cell_angle_beta 61.807524
_cell_angle_gamma 126.978180
_cell_volume 658.142016
_symmetry_space_group_name_H-M "P -1"
_symmetry_group_IT_number 2
_symmetry_cell_setting 'triclinic'
loop_
_space_group_symop_operation_xyz
x,y,z
-x,-y,-z
loop_
_atom_site_type_symbol
_atom_site_label
_atom_site_fract_x
_atom_site_fract_y
_atom_site_fract_z
Si Si1 0.751285 0.091252 0.020271
Si Si2 0.794296 0.503784 0.012157
Si Si3 0.127151 0.814462 0.351328
Si Si4 0.426943 0.554547 0.216322
Si Si5 0.490764 0.285079 0.138027
Si Si6 0.051965 0.117829 0.638104
Si Si7 0.032160 0.222729 0.898159
O O1 0.820431 0.363388 0.950746
O O2 0.785125 0.076553 0.859271
O O3 0.854497 0.102324 0.044841
O O4 0.538914 0.795423 0.213026
O O5 0.590912 0.293029 0.166187
O O6 0.827853 0.521407 0.137049
O O7 0.923282 0.803510 0.813620
O O8 0.000000 0.500000 0.500000
O O9 0.033861 0.873732 0.414485
O O10 0.280442 0.988782 0.326095
O O11 0.527643 0.514374 0.127862
O O12 0.231326 0.275012 0.441296
O O13 0.423104 0.640722 0.068833
O O14 0.098624 0.297564 0.697550
O O15 0.000000 0.000000 0.000000
#
# Coordination Sequence:
#
# PCOD8011330 Si02
#       7
#     2   2   2   2   2   2   2
#     4  10  22  38  61  89 118 154 196 241 295 342
#     4  11  22  38  63  88 119 157 194 242 294 347
#     4  10  23  38  59  87 123 153 196 245 288 351
#     4  10  21  39  60  86 121 155 197 239 289 352
#     4  10  22  37  58  86 121 158 190 239 299 346
#     4  10  22  38  64  86 117 159 200 238 290 348
#     4   9  19  42  63  83 116 159 197 239 290 347
#
# _framework density 21.272003000000002
#
# number of rings (size 3 to 8) (size 9 to 14) (size 15 to 20)
#    0.000    2.000    0.000    4.714    6.000    2.286 
#    0.000    7.143    0.000    0.000    0.000    0.000 
#    0.000    0.000    0.000    0.000    0.000    0.000 
#
# Total GULP energy -173497.725233 kJ/mol
# GULP energy per Si atom -12392.694659 kJ/mol
# Density = 2.122359 g / cm^3
# Si number density = 21.272003 Si / 1000 Ang^3
#
#
#
# Elastic Constant Matrix: (Units=GPa)
#
#
# Indices 1 2 3 4 5 6 
#
# 1 131.2941 58.2181 41.4782 -21.8210 -28.1572 8.5127
# 2 58.2181 114.3534 29.5887 -25.4574 -14.0408 4.6010
# 3 41.4782 29.5887 78.6243 -16.7359 -16.4179 4.8157
# 4 -21.8210 -25.4574 -16.7359 28.4413 -4.0626 -1.0404
# 5 -28.1572 -14.0408 -16.4179 -4.0626 26.4740 -8.4150
# 6 8.5127 4.6010 4.8157 -1.0404 -8.4150 43.6631
#
#
#
# Elastic Compliance Matrix: (Units=1/GPa)
#
#
# Indices 1 2 3 4 5 6 
#
# 1 0.013822 -0.002966 -0.001365 0.009156 0.013897 0.000665
# 2 -0.002966 0.013241 -0.000088 0.010339 0.005563 0.000511
# 3 -0.001365 -0.000088 0.018323 0.011381 0.011870 0.000813
# 4 0.009156 0.010339 0.011381 0.063008 0.033144 0.003759
# 5 0.013897 0.005563 0.011870 0.033144 0.071094 0.009886
# 6 0.000665 0.000511 0.000813 0.003759 0.009886 0.024624
#
#
# Mechanical properties :
#
#
# Convention : Reuss Voigt Hill
#
# Bulk Modulus (GPa) = 27.36007 64.76022 46.06014
# Shear Modulus (GPa) = 22.20902 32.71480 27.46191
#
# Velocity S-wave (km/s) = 3.23468 3.92590 3.59693
# Velocity P-wave (km/s) = 5.18081 7.14564 6.24103
#
# Compressibility (1/GPa) = 0.03654962
#
# Stress axis : x y z
#
# Youngs Moduli (GPa) = 72.34886 75.52069 54.57503
#
# Poissons Ratio (x) = 0.22396 0.07452
# Poissons Ratio (y) = 0.21455 0.00478
# Poissons Ratio (z) = 0.09879 0.00661
#
# Static dielectric constant tensor:
#      x y z
#    x 4.066100 0.433190 -0.218270 
#    y 0.433190 4.431300 -0.098090 
#    z -0.218270 -0.098090 3.686340 
# 
# 
# High freq. dielectric constant tensor:
#      x y z
#    x 1.836370 0.003990 -0.024050 
#    y 0.003990 1.847600 -0.011830 
#    z -0.024050 -0.011830 1.797480 
# 
# From -- ./inp_files/179592.got.cif
#   From: 2010.06.25/outbox.cif.g09.slc.cpg/sg2_90_cif.got.tgz:179592.got - 2010.06.27 13:26:56.
