data_PCOD8011072
_publ_section_title
;
Structure prediction by ZEFSAII (Michael W. Deem and Ramdas Pophale) SiO2 
 PCOD8011072
Probable space group: P -1
;
_chemical_formula_sum "Si O2"
_cell_formula_units_Z 16
_cell_length_a 11.335436
_cell_length_b 14.971857
_cell_length_c 11.903781
_cell_angle_alpha 153.032400
_cell_angle_beta 46.406750
_cell_angle_gamma 124.951113
_cell_volume 658.155135
_symmetry_space_group_name_H-M "P -1"
_symmetry_group_IT_number 2
_symmetry_cell_setting 'triclinic'
loop_
_space_group_symop_operation_xyz
x,y,z
-x,-y,-z
loop_
_atom_site_type_symbol
_atom_site_label
_atom_site_fract_x
_atom_site_fract_y
_atom_site_fract_z
Si Si1 0.740018 0.434672 0.101374
Si Si2 0.984639 0.585536 0.278106
Si Si3 0.435800 0.721353 0.252747
Si Si4 0.925475 0.096511 0.270822
Si Si5 0.278834 0.888229 0.080853
Si Si6 0.071465 0.150712 0.799123
Si Si7 0.416662 0.988995 0.372447
Si Si8 0.509025 0.805200 0.648845
O O1 0.664561 0.245755 0.995021
O O2 0.595302 0.586851 0.311081
O O3 0.820498 0.547911 0.278116
O O4 0.877208 0.353786 0.830274
O O5 0.954711 0.760441 0.586974
O O6 0.058607 0.386556 0.069688
O O7 0.254068 0.778791 0.488723
O O8 0.565131 0.860102 0.368356
O O9 0.433514 0.764926 0.165320
O O10 0.500000 0.500000 0.000000
O O11 0.909131 0.910418 0.152702
O O12 0.000000 0.000000 0.000000
O O13 0.350749 0.773566 0.791975
O O14 0.083124 0.930271 0.249614
O O15 0.354376 0.093914 0.257884
O O16 0.231968 0.051909 0.514223
O O17 0.541867 0.046061 0.257026
#
# Coordination Sequence:
#
# PCOD8011072 Si02
#       8
#     2   2   2   2   2   2   2   2
#     4  10  21  38  66  96 133 173 222 271 323 403
#     4  10  21  39  65 100 131 173 224 272 324 397
#     4  10  23  43  66  94 124 172 229 278 325 395
#     4  11  25  41  68  97 137 176 220 277 342 395
#     4  10  24  37  62  95 137 172 213 269 349 390
#     4  10  21  42  64  93 129 172 222 271 327 401
#     4  10  22  39  65  92 124 168 224 277 321 391
#     4  11  22  39  61  96 134 171 215 278 328 402
#
# _framework density 24.310376999999999
#
# number of rings (size 3 to 8) (size 9 to 14) (size 15 to 20)
#    0.000    1.750    1.250    1.875    5.250    1.000 
#    0.000    0.000    0.000    0.000    0.000    0.000 
#    0.000    0.000    0.000    0.000    0.000    0.000 
#
# Total GULP energy -198326.542156 kJ/mol
# GULP energy per Si atom -12395.408885 kJ/mol
# Density = 2.425505 g / cm^3
# Si number density = 24.310377 Si / 1000 Ang^3
#
#
#
# Elastic Constant Matrix: (Units=GPa)
#
#
# Indices 1 2 3 4 5 6 
#
# 1 56.1490 13.3182 19.4728 5.2766 -11.3942 -6.8251
# 2 13.3182 130.1226 44.5650 13.7625 -17.8717 -26.6738
# 3 19.4728 44.5650 98.2009 12.7602 -3.8121 -19.2329
# 4 5.2766 13.7625 12.7602 39.4597 -6.1142 0.7083
# 5 -11.3942 -17.8717 -3.8121 -6.1142 36.7461 8.4510
# 6 -6.8251 -26.6738 -19.2329 0.7083 8.4510 45.7499
#
#
#
# Elastic Compliance Matrix: (Units=1/GPa)
#
#
# Indices 1 2 3 4 5 6 
#
# 1 0.020352 0.000153 -0.003689 -0.000698 0.005767 0.000520
# 2 0.000153 0.010400 -0.003574 -0.002023 0.003485 0.003972
# 3 -0.003689 -0.003574 0.013547 -0.003146 -0.002836 0.003633
# 4 -0.000698 -0.002023 -0.003146 0.027842 0.003973 -0.003771
# 5 0.005767 0.003485 -0.002836 0.003973 0.032048 -0.004282
# 6 0.000520 0.003972 0.003633 -0.003771 -0.004282 0.026628
#
#
# Mechanical properties :
#
#
# Convention : Reuss Voigt Hill
#
# Bulk Modulus (GPa) = 33.24578 48.79829 41.02203
# Shear Modulus (GPa) = 32.24497 38.19891 35.22194
#
# Velocity S-wave (km/s) = 3.64591 3.96826 3.81050
# Velocity P-wave (km/s) = 5.60614 6.41192 6.02252
#
# Compressibility (1/GPa) = 0.03007901
#
# Stress axis : x y z
#
# Youngs Moduli (GPa) = 49.13583 96.15170 73.81793
#
# Poissons Ratio (x) = -0.01468 0.27228
# Poissons Ratio (y) = -0.00750 0.26383
# Poissons Ratio (z) = 0.18124 0.34365
#
# Static dielectric constant tensor:
#      x y z
#    x 4.583310 -0.136540 0.048770 
#    y -0.136540 4.646010 0.103760 
#    z 0.048770 0.103760 4.188870 
# 
# 
# High freq. dielectric constant tensor:
#      x y z
#    x 1.966600 -0.008000 0.006130 
#    y -0.008000 1.977300 0.020100 
#    z 0.006130 0.020100 1.947000 
# 
# From -- ./inp_files/433440.got.cif
#   From: 2010.06.25/outbox.cif.g09.slc.cpg/sg2_217_cif.got.tgz:433440.got - 2010.06.27 13:26:56.
