data_PCOD8011897
_publ_section_title
;
Structure prediction by ZEFSAII (Michael W. Deem and Ramdas Pophale) SiO2 
 PCOD8011897
Probable space group: P -1
;
_chemical_formula_sum "Si O2"
_cell_formula_units_Z 16
_cell_length_a 15.070956
_cell_length_b 14.991583
_cell_length_c 6.960534
_cell_angle_alpha 67.778031
_cell_angle_beta 50.054576
_cell_angle_gamma 38.540178
_cell_volume 725.460191
_symmetry_space_group_name_H-M "P -1"
_symmetry_group_IT_number 2
_symmetry_cell_setting 'triclinic'
loop_
_space_group_symop_operation_xyz
x,y,z
-x,-y,-z
loop_
_atom_site_type_symbol
_atom_site_label
_atom_site_fract_x
_atom_site_fract_y
_atom_site_fract_z
Si Si1 0.274250 0.232320 0.749074
Si Si2 0.230507 0.930698 0.740621
Si Si3 0.607426 0.637486 0.612624
Si Si4 0.141633 0.322516 0.253447
Si Si5 0.078671 0.903031 0.662662
Si Si6 0.800386 0.501669 0.824728
Si Si7 0.312690 0.572860 0.635149
Si Si8 0.329539 0.076218 0.448913
O O1 0.267753 0.349493 0.614263
O O2 0.221925 0.203029 0.661584
O O3 0.466490 0.073339 0.674153
O O4 0.127941 0.309799 0.055619
O O5 0.405757 0.792192 0.726026
O O6 0.221962 0.879702 0.591637
O O7 0.223639 0.045231 0.592708
O O8 0.075526 0.009959 0.039908
O O9 0.629127 0.603672 0.837964
O O10 0.661385 0.511817 0.514504
O O11 0.182405 0.409304 0.156829
O O12 0.314819 0.153519 0.220800
O O13 0.971724 0.384331 0.544136
O O14 0.175897 0.741026 0.615346
O O15 0.000000 0.000000 0.500000
O O16 0.778772 0.427691 0.062726
O O17 0.500000 0.500000 0.500000
#
# Coordination Sequence:
#
# PCOD8011897 Si02
#       8
#     2   2   2   2   2   2   2   2
#     4  10  21  39  65 100 135 181 229 276 349 414
#     4  10  24  44  68  99 143 175 232 294 339 417
#     4  11  23  44  71  99 138 188 228 287 350 415
#     4  11  22  41  64 100 142 181 225 285 340 422
#     4  11  26  47  71 101 132 181 235 292 353 409
#     4  11  26  40  68 100 142 182 230 283 352 412
#     4  12  26  47  72 104 138 182 239 295 349 419
#     4  10  21  39  66  98 137 179 224 283 347 416
#
# _framework density 22.054967000000001
#
# number of rings (size 3 to 8) (size 9 to 14) (size 15 to 20)
#    0.000    1.250    3.750    1.125    1.750    7.000 
#    0.000    0.000    0.000    0.000    0.000    0.000 
#    0.000    0.000    0.000    0.000    0.000    0.000 
#
# Total GULP energy -198364.236106 kJ/mol
# GULP energy per Si atom -12397.764757 kJ/mol
# Density = 2.200477 g / cm^3
# Si number density = 22.054967 Si / 1000 Ang^3
#
#
#
# Elastic Constant Matrix: (Units=GPa)
#
#
# Indices 1 2 3 4 5 6 
#
# 1 83.3427 27.0645 12.8911 7.6791 -4.9290 15.3502
# 2 27.0645 118.4850 36.4842 -19.3185 2.4426 20.9710
# 3 12.8911 36.4842 70.6753 8.1840 -9.6793 3.7284
# 4 7.6791 -19.3185 8.1840 24.1385 12.0934 12.6145
# 5 -4.9290 2.4426 -9.6793 12.0934 27.8809 -6.0071
# 6 15.3502 20.9710 3.7284 12.6145 -6.0071 37.6046
#
#
#
# Elastic Compliance Matrix: (Units=1/GPa)
#
#
# Indices 1 2 3 4 5 6 
#
# 1 0.011608 0.006528 -0.008833 0.020036 -0.013817 -0.016431
# 2 0.006528 -0.024247 0.026675 -0.083874 0.058774 0.045737
# 3 -0.008833 0.026675 -0.011384 0.075991 -0.050218 -0.043655
# 4 0.020036 -0.083874 0.075991 -0.194219 0.147315 0.119745
# 5 -0.013817 0.058774 -0.050218 0.147315 -0.070920 -0.082904
# 6 -0.016431 0.045737 -0.043655 0.119745 -0.082904 -0.041290
#
#
# Mechanical properties :
#
#
# Convention : Reuss Voigt Hill
#
# Bulk Modulus (GPa) = 40.45714 47.26475 43.86095
# Shear Modulus (GPa) = -13.47877 30.99568 8.75845
#
# Velocity S-wave (km/s) = -2.47482 3.75291 1.99495
# Velocity P-wave (km/s) = 3.19645 6.34477 5.02361
#
# Compressibility (1/GPa) = 0.02471752
#
# Stress axis : x y z
#
# Youngs Moduli (GPa) = 86.14709 -41.24187 -87.84101
#
# Poissons Ratio (x) = 0.26923 -0.77589
# Poissons Ratio (y) = -0.56238 2.34317
# Poissons Ratio (z) = 0.76092 1.10013
#
# Static dielectric constant tensor:
#      x y z
#    x 5.681150 0.424740 -0.449250 
#    y 0.424740 4.263440 -0.255440 
#    z -0.449250 -0.255440 4.132770 
# 
# 
# High freq. dielectric constant tensor:
#      x y z
#    x 1.871940 0.000390 0.009160 
#    y 0.000390 1.886980 -0.002940 
#    z 0.009160 -0.002940 1.863520 
# 
# From -- ./inp_files/97660.got.cif
#   From: 2010.06.25/outbox.cif.g09.slc.cpg/sg2_49_cif.got.tgz:97660.got - 2010.06.27 13:26:56.
