data_PCOD8011353
_publ_section_title
;
Structure prediction by ZEFSAII (Michael W. Deem and Ramdas Pophale) SiO2 
 PCOD8011353
Probable space group: P -1
;
_chemical_formula_sum "Si O2"
_cell_formula_units_Z 16
_cell_length_a 20.660519
_cell_length_b 5.144702
_cell_length_c 12.157217
_cell_angle_alpha 90.944055
_cell_angle_beta 35.174086
_cell_angle_gamma 89.552337
_cell_volume 743.789046
_symmetry_space_group_name_H-M "P -1"
_symmetry_group_IT_number 2
_symmetry_cell_setting 'triclinic'
loop_
_space_group_symop_operation_xyz
x,y,z
-x,-y,-z
loop_
_atom_site_type_symbol
_atom_site_label
_atom_site_fract_x
_atom_site_fract_y
_atom_site_fract_z
Si Si1 0.975593 0.793865 0.442035
Si Si2 0.377458 0.367003 0.003389
Si Si3 0.748101 0.724238 0.363296
Si Si4 0.097001 0.255953 0.046242
Si Si5 0.044281 0.214348 0.768328
Si Si6 0.620857 0.103508 0.860431
Si Si7 0.838268 0.584887 0.816971
Si Si8 0.368179 0.782575 0.393927
O O1 0.891559 0.607892 0.620733
O O2 0.916299 0.879894 0.410593
O O3 0.098425 0.678843 0.231112
O O4 0.000000 0.000000 0.500000
O O5 0.498494 0.277400 0.788492
O O6 0.389018 0.624632 0.060653
O O7 0.295495 0.430121 0.013935
O O8 0.321547 0.129360 0.148147
O O9 0.694966 0.459278 0.472336
O O10 0.849607 0.800133 0.300893
O O11 0.655493 0.961187 0.497632
O O12 0.791685 0.687977 0.177992
O O13 0.006257 0.492065 0.157924
O O14 0.132902 0.210060 0.124820
O O15 0.045051 0.993903 0.068842
O O16 0.679856 0.157139 0.662179
O O17 0.500000 0.000000 0.000000
#
# Coordination Sequence:
#
# PCOD8011353 Si02
#       8
#     2   2   2   2   2   2   2   2
#     4  10  21  40  59  94 125 154 204 257 304 369
#     4  11  23  40  64  90 126 169 199 244 315 374
#     4  12  24  40  65  89 124 165 206 262 298 352
#     4  11  23  44  61  90 123 165 210 250 304 367
#     4  11  23  39  65  90 124 160 204 254 317 368
#     4  10  21  39  60  88 127 160 198 252 303 362
#     4  10  24  39  63  89 127 164 200 250 309 369
#     4  11  23  40  58  94 123 157 212 252 298 362
#
# _framework density 21.511475000000001
#
# number of rings (size 3 to 8) (size 9 to 14) (size 15 to 20)
#    0.000    1.250    1.250    6.000    5.250    0.000 
#    0.000    1.250    0.000    0.000    0.000    0.000 
#    0.000    0.000    0.000    0.000    0.000    0.000 
#
# Total GULP energy -198281.846459 kJ/mol
# GULP energy per Si atom -12392.615404 kJ/mol
# Density = 2.146251 g / cm^3
# Si number density = 21.511475 Si / 1000 Ang^3
#
#
#
# Elastic Constant Matrix: (Units=GPa)
#
#
# Indices 1 2 3 4 5 6 
#
# 1 80.1049 6.1477 28.2563 8.5984 -4.7933 -8.4287
# 2 6.1477 113.5761 23.9101 -6.6958 4.0345 -5.6759
# 3 28.2563 23.9101 89.8090 -4.6381 10.8628 -11.8291
# 4 8.5984 -6.6958 -4.6381 38.1571 -0.2720 5.9202
# 5 -4.7933 4.0345 10.8628 -0.2720 27.9431 0.8492
# 6 -8.4287 -5.6759 -11.8291 5.9202 0.8492 15.1936
#
#
#
# Elastic Compliance Matrix: (Units=1/GPa)
#
#
# Indices 1 2 3 4 5 6 
#
# 1 0.015710 0.000052 -0.004861 -0.005132 0.004323 0.006708
# 2 0.000052 0.009425 -0.002218 0.001151 -0.000521 0.001403
# 3 -0.004861 -0.002218 0.015205 0.001234 -0.006662 0.008204
# 4 -0.005132 0.001151 0.001234 0.029725 -0.000842 -0.012992
# 5 0.004323 -0.000521 -0.006662 -0.000842 0.039333 -0.004853
# 6 0.006708 0.001403 0.008204 -0.012992 -0.004853 0.081783
#
#
# Mechanical properties :
#
#
# Convention : Reuss Voigt Hill
#
# Bulk Modulus (GPa) = 38.04415 44.45758 41.25086
# Shear Modulus (GPa) = 23.36472 31.27048 27.31760
#
# Velocity S-wave (km/s) = 3.29926 3.81683 3.56744
# Velocity P-wave (km/s) = 5.67780 6.33530 6.01554
#
# Compressibility (1/GPa) = 0.02628525
#
# Stress axis : x y z
#
# Youngs Moduli (GPa) = 63.65529 106.09657 65.76859
#
# Poissons Ratio (x) = -0.00553 0.31970
# Poissons Ratio (y) = -0.00332 0.14590
# Poissons Ratio (z) = 0.30943 0.23537
#
# Static dielectric constant tensor:
#      x y z
#    x 2.710810 0.227440 -1.451660 
#    y 0.227440 4.008910 0.406830 
#    z -1.451660 0.406830 2.335550 
# 
# 
# High freq. dielectric constant tensor:
#      x y z
#    x 1.833690 -0.002870 0.005800 
#    y -0.002870 1.856770 0.001510 
#    z 0.005800 0.001510 1.836880 
# 
# From -- ./inp_files/118707.got.cif
#   From: 2010.06.25/outbox.cif.g09.slc.cpg/sg2_60_cif.got.tgz:118707.got - 2010.06.27 13:26:56.
