data_PCOD8011100
_publ_section_title
;
Structure prediction by ZEFSAII (Michael W. Deem and Ramdas Pophale) SiO2 
 PCOD8011100
Probable space group: P -1
;
_chemical_formula_sum "Si O2"
_cell_formula_units_Z 14
_cell_length_a 9.303448
_cell_length_b 12.470442
_cell_length_c 17.527754
_cell_angle_alpha 31.729470
_cell_angle_beta 115.867269
_cell_angle_gamma 137.736753
_cell_volume 602.512014
_symmetry_space_group_name_H-M "P -1"
_symmetry_group_IT_number 2
_symmetry_cell_setting 'triclinic'
loop_
_space_group_symop_operation_xyz
x,y,z
-x,-y,-z
loop_
_atom_site_type_symbol
_atom_site_label
_atom_site_fract_x
_atom_site_fract_y
_atom_site_fract_z
Si Si1 0.257379 0.118481 0.662213
Si Si2 0.272084 0.796934 0.463846
Si Si3 0.818405 0.960434 0.590166
Si Si4 0.842329 0.053610 0.791268
Si Si5 0.214721 0.833333 0.679310
Si Si6 0.291596 0.209835 0.928474
Si Si7 0.088893 0.872078 0.936615
O O1 0.500000 0.500000 0.500000
O O2 0.319732 0.009971 0.679031
O O3 0.212075 0.969990 0.823028
O O4 0.004086 0.978614 0.658348
O O5 0.311516 0.986114 0.286008
O O6 0.114909 0.435674 0.629705
O O7 0.139795 0.788451 0.505877
O O8 0.556224 0.007224 0.420244
O O9 0.521130 0.599947 0.747428
O O10 0.903968 0.096873 0.439883
O O11 0.889162 0.862131 0.896431
O O12 0.675963 0.906159 0.920231
O O13 0.027481 0.461038 0.870608
O O14 0.302855 0.115245 0.905262
O O15 0.000000 0.000000 0.000000
#
# Coordination Sequence:
#
# PCOD8011100 Si02
#       7
#     2   2   2   2   2   2   2
#     4  12  27  49  71  96 140 186 234 282 341 409
#     4  11  22  39  71 104 138 173 236 278 349 402
#     4  12  25  45  73 103 138 182 230 283 347 407
#     4  10  21  38  67 105 137 179 218 290 341 403
#     4  12  26  43  71 104 138 182 230 285 342 414
#     4  10  21  40  70 100 139 172 223 280 344 395
#     4  11  23  46  66 100 140 180 227 282 344 407
#
# _framework density 23.236052999999998
#
# number of rings (size 3 to 8) (size 9 to 14) (size 15 to 20)
#    0.000    0.857    1.429    7.286    4.000    1.143 
#    0.000    1.429    0.000    0.000    0.000    0.000 
#    0.000    0.000    0.000    0.000    0.000    0.000 
#
# Total GULP energy -173526.461195 kJ/mol
# GULP energy per Si atom -12394.747228 kJ/mol
# Density = 2.318317 g / cm^3
# Si number density = 23.236053 Si / 1000 Ang^3
#
#
#
# Elastic Constant Matrix: (Units=GPa)
#
#
# Indices 1 2 3 4 5 6 
#
# 1 43.6527 9.9775 23.9414 -5.1879 -2.9962 -9.7299
# 2 9.9775 104.9127 58.8082 8.6706 -5.2388 -19.9551
# 3 23.9414 58.8082 163.6763 17.3040 -0.6928 -1.7603
# 4 -5.1879 8.6706 17.3040 49.4252 -9.0308 -13.1873
# 5 -2.9962 -5.2388 -0.6928 -9.0308 26.3541 -1.3688
# 6 -9.7299 -19.9551 -1.7603 -13.1873 -1.3688 38.6559
#
#
#
# Elastic Compliance Matrix: (Units=1/GPa)
#
#
# Indices 1 2 3 4 5 6 
#
# 1 0.030035 0.002463 -0.006117 0.009469 0.007614 0.012053
# 2 0.002463 0.014097 -0.005619 0.002898 0.004384 0.008785
# 3 -0.006117 -0.005619 0.009497 -0.005231 -0.003663 -0.005922
# 4 0.009469 0.002898 -0.005231 0.028405 0.011963 0.013755
# 5 0.007614 0.004384 -0.003663 0.011963 0.044187 0.009659
# 6 0.012053 0.008785 -0.005922 0.013755 0.009659 0.038203
#
#
# Mechanical properties :
#
#
# Convention : Reuss Voigt Hill
#
# Bulk Modulus (GPa) = 28.50411 55.29955 41.90183
# Shear Modulus (GPa) = 25.68511 37.52134 31.60323
#
# Velocity S-wave (km/s) = 3.32836 4.02280 3.69195
# Velocity P-wave (km/s) = 5.20235 6.74003 6.02048
#
# Compressibility (1/GPa) = 0.03508266
#
# Stress axis : x y z
#
# Youngs Moduli (GPa) = 33.29474 70.93465 105.29627
#
# Poissons Ratio (x) = -0.17470 0.64414
# Poissons Ratio (y) = -0.08200 0.59163
# Poissons Ratio (z) = 0.20368 0.39856
#
# Static dielectric constant tensor:
#      x y z
#    x 4.188200 -0.389750 -0.132330 
#    y -0.389750 4.728780 0.454600 
#    z -0.132330 0.454600 4.344670 
# 
# 
# High freq. dielectric constant tensor:
#      x y z
#    x 1.887970 -0.016250 0.000700 
#    y -0.016250 1.939970 0.015700 
#    z 0.000700 0.015700 1.934630 
# 
# From -- ./inp_files/402749.got.cif
#   From: 2010.06.25/outbox.cif.g09.slc.cpg/sg2_202_cif.got.tgz:402749.got - 2010.06.27 13:26:56.
