data_PCOD8011532
_publ_section_title
;
Structure prediction by ZEFSAII (Michael W. Deem and Ramdas Pophale) SiO2 
 PCOD8011532
Probable space group: P -1
;
_chemical_formula_sum "Si O2"
_cell_formula_units_Z 16
_cell_length_a 26.211666
_cell_length_b 8.453844
_cell_length_c 26.263772
_cell_angle_alpha 139.138814
_cell_angle_beta 11.031041
_cell_angle_gamma 138.934227
_cell_volume 725.370216
_symmetry_space_group_name_H-M "P -1"
_symmetry_group_IT_number 2
_symmetry_cell_setting 'triclinic'
loop_
_space_group_symop_operation_xyz
x,y,z
-x,-y,-z
loop_
_atom_site_type_symbol
_atom_site_label
_atom_site_fract_x
_atom_site_fract_y
_atom_site_fract_z
Si Si1 0.885820 0.855438 0.027888
Si Si2 0.669158 0.116279 0.476283
Si Si3 0.457776 0.731947 0.954902
Si Si4 0.457348 0.358605 0.955449
Si Si5 0.077229 0.867536 0.605336
Si Si6 0.986422 0.380606 0.865624
Si Si7 0.493794 0.348336 0.417694
Si Si8 0.905704 0.507443 0.411756
O O1 0.579899 0.882014 0.318310
O O2 0.907848 0.571148 0.946966
O O3 0.077106 0.968614 0.823136
O O4 0.000000 0.000000 0.000000
O O5 0.776645 0.382017 0.456774
O O6 0.595343 0.933557 0.550829
O O7 0.455213 0.554208 0.961279
O O8 0.714032 0.709336 0.663762
O O9 0.196144 0.658505 0.158141
O O10 0.500000 0.000000 0.000000
O O11 0.665639 0.162131 0.689383
O O12 0.500000 0.500000 0.000000
O O13 0.171782 0.211583 0.205864
O O14 0.080335 0.703272 0.612103
O O15 0.041064 0.138223 0.723663
O O16 0.271906 0.472329 0.632715
O O17 0.767269 0.351791 0.118629
O O18 0.500000 0.500000 0.500000
#
# Coordination Sequence:
#
# PCOD8011532 Si02
#       8
#     2   2   2   2   2   2   2   2
#     4  12  26  45  64  94 141 179 209 275 350 391
#     4  12  24  43  68  96 131 173 227 268 330 398
#     4  10  21  39  62  91 124 162 203 261 322 382
#     4  10  21  39  62  90 123 162 205 254 321 385
#     4  10  21  39  65  89 124 165 208 267 319 372
#     4  12  24  43  66  96 135 170 223 270 335 391
#     4  12  24  41  70  99 124 170 231 276 311 397
#     4  10  21  39  65  90 124 164 212 267 320 372
#
# _framework density 22.057703
#
# number of rings (size 3 to 8) (size 9 to 14) (size 15 to 20)
#    0.000    1.000    1.250    6.000    3.500    0.000 
#    6.750    0.000    0.000    0.000    0.000    0.000 
#    0.000    0.000    0.000    0.000    0.000    0.000 
#
# Total GULP energy -198332.793118 kJ/mol
# GULP energy per Si atom -12395.799570 kJ/mol
# Density = 2.200750 g / cm^3
# Si number density = 22.057703 Si / 1000 Ang^3
#
#
#
# Elastic Constant Matrix: (Units=GPa)
#
#
# Indices 1 2 3 4 5 6 
#
# 1 66.6320 8.9869 32.9565 -7.6090 -4.9992 26.3144
# 2 8.9869 88.3363 35.9063 4.9260 -2.6865 19.7497
# 3 32.9565 35.9063 130.9276 1.7443 -7.6181 13.9994
# 4 -7.6090 4.9260 1.7443 28.8437 16.4954 -2.2038
# 5 -4.9992 -2.6865 -7.6181 16.4954 38.7396 -4.7267
# 6 26.3144 19.7497 13.9994 -2.2038 -4.7267 43.3462
#
#
#
# Elastic Compliance Matrix: (Units=1/GPa)
#
#
# Indices 1 2 3 4 5 6 
#
# 1 0.023090 0.002344 -0.005240 0.006229 -0.002165 -0.013312
# 2 0.002344 0.014268 -0.003695 -0.002595 0.000844 -0.006770
# 3 -0.005240 -0.003695 0.009950 -0.002547 0.002325 0.001776
# 4 0.006229 -0.002595 -0.002547 0.048684 -0.020799 -0.001569
# 5 -0.002165 0.000844 0.002325 -0.020799 0.035268 0.002967
# 6 -0.013312 -0.006770 0.001776 -0.001569 0.002967 0.033907
#
#
# Mechanical properties :
#
#
# Convention : Reuss Voigt Hill
#
# Bulk Modulus (GPa) = 29.30488 49.06615 39.18551
# Shear Modulus (GPa) = 26.35402 36.05564 31.20483
#
# Velocity S-wave (km/s) = 3.46030 4.04741 3.76532
# Velocity P-wave (km/s) = 5.41104 6.64340 6.05864
#
# Compressibility (1/GPa) = 0.03412401
#
# Stress axis : x y z
#
# Youngs Moduli (GPa) = 43.30943 70.08680 100.50526
#
# Poissons Ratio (x) = -0.16429 0.52669
# Poissons Ratio (y) = -0.10152 0.37141
# Poissons Ratio (z) = 0.22696 0.25900
#
# Static dielectric constant tensor:
#      x y z
#    x 3.638340 -0.020070 -0.176950 
#    y -0.020070 4.019000 -0.125040 
#    z -0.176950 -0.125040 4.604190 
# 
# 
# High freq. dielectric constant tensor:
#      x y z
#    x 1.864130 0.019340 -0.006570 
#    y 0.019340 1.869060 0.000880 
#    z -0.006570 0.000880 1.888120 
# 
# From -- ./inp_files/358009.got.cif
#   From: 2010.06.25/outbox.cif.g09.slc.cpg/sg2_180_cif.got.tgz:358009.got - 2010.06.27 13:26:56.
