data_PCOD8011018
_publ_section_title
;
Structure prediction by ZEFSAII (Michael W. Deem and Ramdas Pophale) SiO2 
 PCOD8011018
Probable space group: P -1
;
_chemical_formula_sum "Si O2"
_cell_formula_units_Z 16
_cell_length_a 5.342333
_cell_length_b 8.556262
_cell_length_c 21.680065
_cell_angle_alpha 53.238766
_cell_angle_beta 117.752820
_cell_angle_gamma 99.040108
_cell_volume 692.195020
_symmetry_space_group_name_H-M "P -1"
_symmetry_group_IT_number 2
_symmetry_cell_setting 'triclinic'
loop_
_space_group_symop_operation_xyz
x,y,z
-x,-y,-z
loop_
_atom_site_type_symbol
_atom_site_label
_atom_site_fract_x
_atom_site_fract_y
_atom_site_fract_z
Si Si1 0.181795 0.798313 0.996237
Si Si2 0.418306 0.008881 0.292673
Si Si3 0.054534 0.465355 0.250596
Si Si4 0.572307 0.996789 0.908822
Si Si5 0.967583 0.782910 0.262421
Si Si6 0.416522 0.436951 0.173163
Si Si7 0.294971 0.036530 0.409632
Si Si8 0.050872 0.293760 0.588519
O O1 0.366997 0.851200 0.947163
O O2 0.842197 0.880334 0.928551
O O3 0.224461 0.560783 0.068395
O O4 0.299445 0.883820 0.051596
O O5 0.619238 0.806740 0.344091
O O6 0.100402 0.983090 0.240948
O O7 0.483184 0.204046 0.219041
O O8 0.463604 0.033352 0.365390
O O9 0.123316 0.644037 0.258799
O O10 0.715421 0.517989 0.186912
O O11 0.244070 0.466219 0.211028
O O12 0.107221 0.255792 0.342291
O O13 0.373093 0.148740 0.804576
O O14 0.043958 0.657880 0.363546
O O15 0.500000 0.000000 0.500000
O O16 0.105923 0.863361 0.428190
O O17 0.000000 0.500000 0.500000
#
# Coordination Sequence:
#
# PCOD8011018 Si02
#       8
#     2   2   2   2   2   2   2   2
#     4  10  21  38  65  98 137 170 229 281 329 394
#     4  10  25  44  65  92 140 178 220 279 347 403
#     4  11  24  40  70 100 131 182 232 273 338 400
#     4  10  22  38  63 101 135 175 220 284 334 392
#     4  11  26  42  66 100 137 180 224 280 345 409
#     4  11  22  45  67  99 135 181 226 280 333 400
#     4  10  24  44  64  96 131 174 230 286 332 405
#     4  11  26  44  67  96 136 181 221 282 343 408
#
# _framework density 23.114871999999998
#
# number of rings (size 3 to 8) (size 9 to 14) (size 15 to 20)
#    0.000    1.500    2.500    0.750   10.500    2.500 
#    0.000    1.250    0.000    0.000    0.000    0.000 
#    0.000    0.000    0.000    0.000    0.000    0.000 
#
# Total GULP energy -198332.924105 kJ/mol
# GULP energy per Si atom -12395.807757 kJ/mol
# Density = 2.306226 g / cm^3
# Si number density = 23.114872 Si / 1000 Ang^3
#
#
#
# Elastic Constant Matrix: (Units=GPa)
#
#
# Indices 1 2 3 4 5 6 
#
# 1 108.1432 20.3093 22.3311 -3.1896 10.1758 7.2334
# 2 20.3093 74.3561 45.7707 -11.0149 -2.4897 -1.8295
# 3 22.3311 45.7707 109.4622 -20.4588 4.5423 5.7665
# 4 -3.1896 -11.0149 -20.4588 43.8316 3.2264 2.0603
# 5 10.1758 -2.4897 4.5423 3.2264 32.4386 -8.7974
# 6 7.2334 -1.8295 5.7665 2.0603 -8.7974 24.6974
#
#
#
# Elastic Compliance Matrix: (Units=1/GPa)
#
#
# Indices 1 2 3 4 5 6 
#
# 1 0.010689 -0.002882 -0.000420 0.000457 -0.004928 -0.005040
# 2 -0.002882 0.019562 -0.008067 0.000282 0.005129 0.005980
# 3 -0.000420 -0.008067 0.014041 0.005102 -0.004532 -0.005793
# 4 0.000457 0.000282 0.005102 0.025898 -0.004817 -0.005180
# 5 -0.004928 0.005129 -0.004532 -0.004817 0.038489 0.016993
# 6 -0.005040 0.005980 -0.005793 -0.005180 0.016993 0.050247
#
#
# Mechanical properties :
#
#
# Convention : Reuss Voigt Hill
#
# Bulk Modulus (GPa) = 46.39464 52.08706 49.24085
# Shear Modulus (GPa) = 26.47593 33.76355 30.11974
#
# Velocity S-wave (km/s) = 3.38806 3.82604 3.61369
# Velocity P-wave (km/s) = 5.95148 6.48853 6.22580
#
# Compressibility (1/GPa) = 0.02155421
#
# Stress axis : x y z
#
# Youngs Moduli (GPa) = 93.55161 51.11825 71.21893
#
# Poissons Ratio (x) = 0.14734 0.02992
# Poissons Ratio (y) = 0.26965 0.57452
# Poissons Ratio (z) = 0.03930 0.41237
#
# Static dielectric constant tensor:
#      x y z
#    x 4.246100 0.038780 0.069010 
#    y 0.038780 4.160290 -0.170220 
#    z 0.069010 -0.170220 4.212470 
# 
# 
# High freq. dielectric constant tensor:
#      x y z
#    x 1.911840 0.005540 0.004090 
#    y 0.005540 1.906560 -0.008370 
#    z 0.004090 -0.008370 1.918490 
# 
# From -- ./inp_files/38911.got.cif
#   From: 2010.06.25/outbox.cif.g09.slc.cpg/sg2_20_cif.got.tgz:38911.got - 2010.06.27 13:26:56.
