data_PCOD8011495
_publ_section_title
;
Structure prediction by ZEFSAII (Michael W. Deem and Ramdas Pophale) SiO2 
 PCOD8011495
Probable space group: P -1
;
_chemical_formula_sum "Si O2"
_cell_formula_units_Z 16
_cell_length_a 6.280770
_cell_length_b 20.367406
_cell_length_c 20.047760
_cell_angle_alpha 158.648271
_cell_angle_beta 114.580485
_cell_angle_gamma 77.235556
_cell_volume 733.982318
_symmetry_space_group_name_H-M "P -1"
_symmetry_group_IT_number 2
_symmetry_cell_setting 'triclinic'
loop_
_space_group_symop_operation_xyz
x,y,z
-x,-y,-z
loop_
_atom_site_type_symbol
_atom_site_label
_atom_site_fract_x
_atom_site_fract_y
_atom_site_fract_z
Si Si1 0.871538 0.687021 0.603912
Si Si2 0.731567 0.037425 0.193950
Si Si3 0.820986 0.097922 0.640176
Si Si4 0.809373 0.677482 0.223213
Si Si5 0.440100 0.737157 0.524555
Si Si6 0.001781 0.581758 0.916432
Si Si7 0.926518 0.154384 0.941233
Si Si8 0.114832 0.725643 0.808814
O O1 0.581078 0.661965 0.526283
O O2 0.871681 0.481278 0.389393
O O3 0.930288 0.738087 0.738116
O O4 0.103429 0.875232 0.770008
O O5 0.833415 0.883957 0.091486
O O6 0.779453 0.219082 0.424944
O O7 0.415213 0.920457 0.025528
O O8 0.987362 0.253296 0.747955
O O9 0.500000 0.000000 0.500000
O O10 0.851326 0.895810 0.462020
O O11 0.953703 0.246574 0.861045
O O12 0.893671 0.571386 0.191080
O O13 0.500000 0.500000 0.000000
O O14 0.308373 0.564520 0.285728
O O15 0.650436 0.939452 0.704152
O O16 0.144270 0.707534 0.986518
O O17 0.016326 0.267252 0.131514
#
# Coordination Sequence:
#
# PCOD8011495 Si02
#       8
#     2   2   2   2   2   2   2   2
#     4  10  21  39  62  87 125 174 223 280 328 392
#     4  10  21  40  59  89 127 167 230 269 330 391
#     4  11  26  48  73 107 136 173 230 271 333 413
#     4  11  26  48  73 108 134 177 225 274 335 408
#     4  10  24  41  60  97 131 172 224 270 341 395
#     4  12  25  44  72  95 141 177 211 281 335 397
#     4  10  24  41  61  98 130 172 224 272 334 402
#     4  10  21  39  62  88 126 170 227 278 327 392
#
# _framework density 21.79889
#
# number of rings (size 3 to 8) (size 9 to 14) (size 15 to 20)
#    0.000    1.500    1.250    2.250    3.500    5.500 
#    6.750    3.125    0.000    0.000    0.000    0.000 
#    0.000    0.000    0.000    0.000    0.000    0.000 
#
# Total GULP energy -198299.773230 kJ/mol
# GULP energy per Si atom -12393.735827 kJ/mol
# Density = 2.174927 g / cm^3
# Si number density = 21.798890 Si / 1000 Ang^3
#
#
#
# Elastic Constant Matrix: (Units=GPa)
#
#
# Indices 1 2 3 4 5 6 
#
# 1 110.0900 68.4043 41.1548 -10.6051 -8.0203 -2.9705
# 2 68.4043 182.3401 78.6485 1.5905 -8.7777 -7.3170
# 3 41.1548 78.6485 148.8166 -15.6536 -3.7121 -7.2229
# 4 -10.6051 1.5905 -15.6536 47.7555 -2.1140 1.6164
# 5 -8.0203 -8.7777 -3.7121 -2.1140 35.3969 -0.6602
# 6 -2.9705 -7.3170 -7.2229 1.6164 -0.6602 28.1372
#
#
#
# Elastic Compliance Matrix: (Units=1/GPa)
#
#
# Indices 1 2 3 4 5 6 
#
# 1 0.012426 -0.004221 -0.000882 0.002696 0.001835 -0.000124
# 2 -0.004221 0.008732 -0.003634 -0.002424 0.000703 0.001048
# 3 -0.000882 -0.003634 0.009250 0.002920 0.000065 0.001170
# 4 0.002696 -0.002424 0.002920 0.022679 0.001655 -0.000860
# 5 0.001835 0.000703 0.000065 0.001655 0.028965 0.000978
# 6 -0.000124 0.001048 0.001170 -0.000860 0.000978 0.036172
#
#
# Mechanical properties :
#
#
# Convention : Reuss Voigt Hill
#
# Bulk Modulus (GPa) = 77.32020 90.85133 84.08577
# Shear Modulus (GPa) = 35.71138 39.12718 37.41928
#
# Velocity S-wave (km/s) = 4.05188 4.24124 4.14764
# Velocity P-wave (km/s) = 7.57873 8.10874 7.84821
#
# Compressibility (1/GPa) = 0.01293323
#
# Stress axis : x y z
#
# Youngs Moduli (GPa) = 80.47481 114.51547 108.10941
#
# Poissons Ratio (x) = 0.48341 0.09537
# Poissons Ratio (y) = 0.33971 0.39289
# Poissons Ratio (z) = 0.07099 0.41617
#
# Static dielectric constant tensor:
#      x y z
#    x 4.006110 -0.067580 -0.182920 
#    y -0.067580 4.077360 0.132910 
#    z -0.182920 0.132910 4.348700 
# 
# 
# High freq. dielectric constant tensor:
#      x y z
#    x 1.845350 -0.004000 -0.006680 
#    y -0.004000 1.857720 0.010600 
#    z -0.006680 0.010600 1.883490 
# 
# From -- ./inp_files/584345.got.cif
#   From: 2010.06.25/outbox.cif.g09.slc.cpg/sg2_293_cif.got.tgz:584345.got - 2010.06.27 13:26:56.
