data_PCOD8011894
_publ_section_title
;
Structure prediction by ZEFSAII (Michael W. Deem and Ramdas Pophale) SiO2 
 PCOD8011894
Probable space group: P -1
;
_chemical_formula_sum "Si O2"
_cell_formula_units_Z 16
_cell_length_a 8.072974
_cell_length_b 14.792064
_cell_length_c 11.029586
_cell_angle_alpha 117.684414
_cell_angle_beta 67.522753
_cell_angle_gamma 62.397694
_cell_volume 669.921880
_symmetry_space_group_name_H-M "P -1"
_symmetry_group_IT_number 2
_symmetry_cell_setting 'triclinic'
loop_
_space_group_symop_operation_xyz
x,y,z
-x,-y,-z
loop_
_atom_site_type_symbol
_atom_site_label
_atom_site_fract_x
_atom_site_fract_y
_atom_site_fract_z
Si Si1 0.657703 0.004733 0.119363
Si Si2 0.748747 0.130701 0.479920
Si Si3 0.352468 0.417045 0.125720
Si Si4 0.620376 0.804302 0.926833
Si Si5 0.897946 0.201149 0.707664
Si Si6 0.232789 0.763864 0.709636
Si Si7 0.226332 0.531737 0.496038
Si Si8 0.769604 0.740431 0.393809
O O1 0.588139 0.067108 0.040266
O O2 0.452966 0.150460 0.363041
O O3 0.648510 0.886089 0.063294
O O4 0.991453 0.893446 0.962766
O O5 0.814448 0.190971 0.594518
O O6 0.814474 0.145497 0.337868
O O7 0.417001 0.235118 0.642298
O O8 0.953341 0.944413 0.334035
O O9 0.491035 0.241964 0.993238
O O10 0.295781 0.503034 0.317816
O O11 0.047058 0.546833 0.222341
O O12 0.594666 0.372592 0.957668
O O13 0.912614 0.627978 0.675448
O O14 0.116697 0.198242 0.634731
O O15 0.217493 0.652356 0.612478
O O16 0.545918 0.642387 0.605902
#
# Coordination Sequence:
#
# PCOD8011894 Si02
#       8
#     2   2   2   2   2   2   2   2
#     4  10  23  38  66 100 139 178 217 284 340 407
#     4  11  26  47  73  98 136 184 233 286 335 411
#     4  12  24  42  71 100 136 184 229 280 341 418
#     4  10  21  39  64  99 136 177 221 269 354 406
#     4  11  28  48  68  97 139 185 234 287 337 393
#     4  10  22  41  65 102 140 175 222 280 350 405
#     4  10  21  39  65 103 142 175 214 286 349 407
#     4  12  26  46  71 103 138 179 234 287 336 406
#
# _framework density 23.883381
#
# number of rings (size 3 to 8) (size 9 to 14) (size 15 to 20)
#    0.000    1.250    1.250    3.375   10.500    1.000 
#    0.000    0.000    0.000    0.000    0.000    0.000 
#    0.000    0.000    0.000    0.000    0.000    0.000 
#
# Total GULP energy -198323.255556 kJ/mol
# GULP energy per Si atom -12395.203472 kJ/mol
# Density = 2.382902 g / cm^3
# Si number density = 23.883381 Si / 1000 Ang^3
#
#
#
# Elastic Constant Matrix: (Units=GPa)
#
#
# Indices 1 2 3 4 5 6 
#
# 1 72.0712 23.0322 13.0496 -6.1778 -22.8848 3.8656
# 2 23.0322 111.1439 27.6146 7.2954 -14.2685 7.9861
# 3 13.0496 27.6146 92.1207 -1.4144 -25.9415 -0.3177
# 4 -6.1778 7.2954 -1.4144 25.1054 0.3205 -6.4559
# 5 -22.8848 -14.2685 -25.9415 0.3205 28.7053 8.0387
# 6 3.8656 7.9861 -0.3177 -6.4559 8.0387 34.8383
#
#
#
# Elastic Compliance Matrix: (Units=1/GPa)
#
#
# Indices 1 2 3 4 5 6 
#
# 1 0.021192 -0.002549 0.003541 0.004454 0.020348 -0.005605
# 2 -0.002549 0.011014 -0.002347 -0.004953 0.002425 -0.003741
# 3 0.003541 -0.002347 0.015819 0.001367 0.016876 -0.003351
# 4 0.004454 -0.004953 0.001367 0.044800 -0.000731 0.009124
# 5 0.020348 0.002425 0.016876 -0.000731 0.073025 -0.019645
# 6 -0.005605 -0.003741 -0.003351 0.009124 -0.019645 0.036376
#
#
# Mechanical properties :
#
#
# Convention : Reuss Voigt Hill
#
# Bulk Modulus (GPa) = 22.06720 44.74761 33.40740
# Shear Modulus (GPa) = 22.72319 31.83909 27.28114
#
# Velocity S-wave (km/s) = 3.08786 3.65513 3.38341
# Velocity P-wave (km/s) = 4.68752 6.04896 5.41122
#
# Compressibility (1/GPa) = 0.04531612
#
# Stress axis : x y z
#
# Youngs Moduli (GPa) = 47.18745 90.79586 63.21577
#
# Poissons Ratio (x) = 0.23142 -0.22386
# Poissons Ratio (y) = 0.12027 0.14834
# Poissons Ratio (z) = -0.16710 0.21306
#
# Static dielectric constant tensor:
#      x y z
#    x 4.601740 -0.028490 -0.345260 
#    y -0.028490 4.273160 0.263040 
#    z -0.345260 0.263040 4.359200 
# 
# 
# High freq. dielectric constant tensor:
#      x y z
#    x 1.954190 0.012720 -0.015830 
#    y 0.012720 1.949190 0.016280 
#    z -0.015830 0.016280 1.951200 
# 
# From -- ./inp_files/233505.got.cif
#   From: 2010.06.25/outbox.cif.g09.slc.cpg/sg2_117_cif.got.tgz:233505.got - 2010.06.27 13:26:56.
