data_PCOD8011928
_publ_section_title
;
Structure prediction by ZEFSAII (Michael W. Deem and Ramdas Pophale) SiO2 
 PCOD8011928
Probable space group: P -1
;
_chemical_formula_sum "Si O2"
_cell_formula_units_Z 14
_cell_length_a 23.956709
_cell_length_b 8.553108
_cell_length_c 15.098761
_cell_angle_alpha 124.294995
_cell_angle_beta 24.779496
_cell_angle_gamma 140.458306
_cell_volume 708.957270
_symmetry_space_group_name_H-M "P -1"
_symmetry_group_IT_number 2
_symmetry_cell_setting 'triclinic'
loop_
_space_group_symop_operation_xyz
x,y,z
-x,-y,-z
loop_
_atom_site_type_symbol
_atom_site_label
_atom_site_fract_x
_atom_site_fract_y
_atom_site_fract_z
Si Si1 0.407120 0.028190 0.413044
Si Si2 0.571963 0.627589 0.649872
Si Si3 0.405283 0.151858 0.965652
Si Si4 0.162622 0.070602 0.133923
Si Si5 0.744098 0.801297 0.643994
Si Si6 0.017501 0.542046 0.092018
Si Si7 0.607729 0.284744 0.384593
O O1 0.384823 0.165398 0.416669
O O2 0.484371 0.206393 0.449272
O O3 0.565070 0.038341 0.156009
O O4 0.191778 0.703371 0.634463
O O5 0.716347 0.822022 0.587489
O O6 0.626950 0.482352 0.484732
O O7 0.339793 0.383948 0.935889
O O8 0.617645 0.480009 0.747899
O O9 0.233828 0.054655 0.118251
O O10 0.333049 0.104778 0.155638
O O11 0.976668 0.012502 0.399252
O O12 0.101837 0.841654 0.080713
O O13 0.000000 0.500000 0.000000
O O14 0.170288 0.546164 0.909959
O O15 0.500000 0.000000 0.500000
#
# Coordination Sequence:
#
# PCOD8011928 Si02
#       7
#     2   2   2   2   2   2   2
#     4  12  24  40  59  94 127 154 196 249 310 354
#     4  11  25  39  60  91 128 158 192 252 305 354
#     4  10  21  39  65  90 118 159 204 253 291 350
#     4  11  20  40  63  89 115 161 208 243 294 354
#     4  10  21  40  64  90 118 158 210 245 291 357
#     4  12  22  35  66  88 115 160 200 244 294 359
#     4  12  21  40  62  86 121 157 205 244 292 355
#
# _framework density 19.747312000000001
#
# number of rings (size 3 to 8) (size 9 to 14) (size 15 to 20)
#    0.000    0.857    5.714    2.571    0.000    2.286 
#    0.000    0.714    0.000    0.000    0.000    0.000 
#    0.000    0.000    0.000    0.000    0.000    0.000 
#
# Total GULP energy -173672.420342 kJ/mol
# GULP energy per Si atom -12405.172882 kJ/mol
# Density = 1.970237 g / cm^3
# Si number density = 19.747312 Si / 1000 Ang^3
#
#
#
# Elastic Constant Matrix: (Units=GPa)
#
#
# Indices 1 2 3 4 5 6 
#
# 1 114.5413 38.9285 51.8082 4.0068 7.0262 -0.7210
# 2 38.9285 65.4609 29.3735 7.3699 10.3049 5.6133
# 3 51.8082 29.3735 103.9660 7.6512 -14.0114 1.8221
# 4 4.0068 7.3699 7.6512 27.4070 12.6338 1.2631
# 5 7.0262 10.3049 -14.0114 12.6338 31.5223 -0.6225
# 6 -0.7210 5.6133 1.8221 1.2631 -0.6225 31.8207
#
#
#
# Elastic Compliance Matrix: (Units=1/GPa)
#
#
# Indices 1 2 3 4 5 6 
#
# 1 0.013499 -0.004740 -0.006465 0.003722 -0.005800 0.001251
# 2 -0.004740 0.021950 -0.004936 0.000263 -0.008495 -0.003873
# 3 -0.006465 -0.004936 0.016786 -0.008933 0.014104 0.000394
# 4 0.003722 0.000263 -0.008933 0.049954 -0.024945 -0.001921
# 5 -0.005800 -0.008495 0.014104 -0.024945 0.052111 0.002569
# 6 0.001251 -0.003873 0.000394 -0.001921 0.002569 0.032242
#
#
# Mechanical properties :
#
#
# Convention : Reuss Voigt Hill
#
# Bulk Modulus (GPa) = 50.11744 58.24318 54.18031
# Shear Modulus (GPa) = 22.17555 29.07388 25.62471
#
# Velocity S-wave (km/s) = 3.35470 3.84121 3.60617
# Velocity P-wave (km/s) = 6.35923 7.01651 6.69594
#
# Compressibility (1/GPa) = 0.01995314
#
# Stress axis : x y z
#
# Youngs Moduli (GPa) = 74.07867 45.55900 59.57318
#
# Poissons Ratio (x) = 0.21595 0.38516
# Poissons Ratio (y) = 0.35113 0.29403
# Poissons Ratio (z) = 0.47894 0.22486
#
# Static dielectric constant tensor:
#      x y z
#    x 3.647100 0.140270 -0.124730 
#    y 0.140270 4.368430 0.014720 
#    z -0.124730 0.014720 3.807080 
# 
# 
# High freq. dielectric constant tensor:
#      x y z
#    x 1.766360 0.023400 -0.007940 
#    y 0.023400 1.758600 0.009280 
#    z -0.007940 0.009280 1.780820 
# 
# From -- ./inp_files/45388.got.cif
#   From: 2010.06.25/outbox.cif.g09.slc.cpg/sg2_23_cif.got.tgz:45388.got - 2010.06.27 13:26:56.
