data_PCOD8011793
_publ_section_title
;
Structure prediction by ZEFSAII (Michael W. Deem and Ramdas Pophale) SiO2 
 PCOD8011793
Probable space group: P -1
;
_chemical_formula_sum "Si O2"
_cell_formula_units_Z 16
_cell_length_a 9.222448
_cell_length_b 14.496034
_cell_length_c 17.773834
_cell_angle_alpha 23.905266
_cell_angle_beta 59.963860
_cell_angle_gamma 74.535599
_cell_volume 699.244001
_symmetry_space_group_name_H-M "P -1"
_symmetry_group_IT_number 2
_symmetry_cell_setting 'triclinic'
loop_
_space_group_symop_operation_xyz
x,y,z
-x,-y,-z
loop_
_atom_site_type_symbol
_atom_site_label
_atom_site_fract_x
_atom_site_fract_y
_atom_site_fract_z
Si Si1 0.382221 0.429050 0.324394
Si Si2 0.349644 0.578555 0.505873
Si Si3 0.915163 0.893831 0.486484
Si Si4 0.586093 0.982947 0.274425
Si Si5 0.231895 0.906751 0.495917
Si Si6 0.180597 0.348514 0.968012
Si Si7 0.983955 0.136961 0.021457
Si Si8 0.813240 0.518610 0.527613
O O1 0.234477 0.339332 0.358566
O O2 0.369691 0.177156 0.555946
O O3 0.319823 0.578026 0.289683
O O4 0.609370 0.625808 0.091064
O O5 0.500000 0.500000 0.500000
O O6 0.441400 0.802188 0.379351
O O7 0.307604 0.680516 0.362801
O O8 0.141752 0.321116 0.780705
O O9 0.066576 0.821683 0.537010
O O10 0.783549 0.912103 0.572128
O O11 0.039728 0.185724 0.195956
O O12 0.460013 0.091479 0.266165
O O13 0.808679 0.205365 0.020447
O O14 0.200545 0.634533 0.742579
O O15 0.091212 0.177875 0.042609
O O16 0.876908 0.822157 0.261838
O O17 0.000000 0.500000 0.500000
#
# Coordination Sequence:
#
# PCOD8011793 Si02
#       8
#     2   2   2   2   2   2   2   2
#     4  10  21  42  63  93 129 166 215 268 313 387
#     4  12  21  40  65  87 125 165 214 262 303 382
#     4  11  23  45  66  95 136 163 210 279 316 380
#     4  10  21  39  64  90 124 167 213 260 320 379
#     4  10  24  44  66  98 128 169 217 261 328 388
#     4  11  21  43  70  92 128 175 211 262 326 383
#     4  11  21  41  66  90 127 167 213 260 316 378
#     4  11  24  39  62  92 127 168 208 262 320 366
#
# _framework density 22.881854000000001
#
# number of rings (size 3 to 8) (size 9 to 14) (size 15 to 20)
#    0.000    1.250    7.500    0.750    1.750    2.000 
#    6.750    3.750    0.000    0.000    0.000    0.000 
#    0.000    0.000    0.000    0.000    0.000    0.000 
#
# Total GULP energy -198305.527839 kJ/mol
# GULP energy per Si atom -12394.095490 kJ/mol
# Density = 2.282977 g / cm^3
# Si number density = 22.881854 Si / 1000 Ang^3
#
#
#
# Elastic Constant Matrix: (Units=GPa)
#
#
# Indices 1 2 3 4 5 6 
#
# 1 138.4446 54.8696 27.5574 25.1233 -30.0490 -0.6691
# 2 54.8696 100.1369 30.8214 37.0850 -17.3204 0.0183
# 3 27.5574 30.8214 72.3683 22.8778 -30.8689 -7.3764
# 4 25.1233 37.0850 22.8778 30.0214 -10.7608 -14.6108
# 5 -30.0490 -17.3204 -30.8689 -10.7608 35.2270 8.2495
# 6 -0.6691 0.0183 -7.3764 -14.6108 8.2495 51.0672
#
#
#
# Elastic Compliance Matrix: (Units=1/GPa)
#
#
# Indices 1 2 3 4 5 6 
#
# 1 0.010827 -0.003485 0.002214 -0.004419 0.008627 -0.002195
# 2 -0.003485 0.022959 0.000940 -0.029654 0.002129 -0.008746
# 3 0.002214 0.000940 0.027070 -0.018211 0.021625 -0.004765
# 4 -0.004419 -0.029654 -0.018211 0.096560 -0.011073 0.026738
# 5 0.008627 0.002129 0.021625 -0.011073 0.054403 -0.008721
# 6 -0.002195 -0.008746 -0.004765 0.026738 -0.008721 0.027927
#
#
# Mechanical properties :
#
#
# Convention : Reuss Voigt Hill
#
# Bulk Modulus (GPa) = 16.61252 59.71629 38.16441
# Shear Modulus (GPa) = 19.19592 36.44320 27.81956
#
# Velocity S-wave (km/s) = 2.89954 3.99515 3.49060
# Velocity P-wave (km/s) = 4.29950 6.88738 5.74115
#
# Compressibility (1/GPa) = 0.06019555
#
# Stress axis : x y z
#
# Youngs Moduli (GPa) = 92.35835 43.55665 36.94085
#
# Poissons Ratio (x) = 0.15181 -0.08180
# Poissons Ratio (y) = 0.32189 -0.03474
# Poissons Ratio (z) = -0.20452 -0.04096
#
# Static dielectric constant tensor:
#      x y z
#    x 3.733520 -0.407030 -0.434700 
#    y -0.407030 3.945380 0.449970 
#    z -0.434700 0.449970 4.120170 
# 
# 
# High freq. dielectric constant tensor:
#      x y z
#    x 1.918390 0.004770 -0.025790 
#    y 0.004770 1.907210 0.028600 
#    z -0.025790 0.028600 1.880380 
# 
# From -- ./inp_files/495440.got.cif
#   From: 2010.06.25/outbox.cif.g09.slc.cpg/sg2_248_cif.got.tgz:495440.got - 2010.06.27 13:26:56.
