data_PCOD8011339
_publ_section_title
;
Structure prediction by ZEFSAII (Michael W. Deem and Ramdas Pophale) SiO2 
 PCOD8011339
Probable space group: P -1
;
_chemical_formula_sum "Si O2"
_cell_formula_units_Z 16
_cell_length_a 14.974167
_cell_length_b 8.801011
_cell_length_c 21.719828
_cell_angle_alpha 122.545594
_cell_angle_beta 19.273386
_cell_angle_gamma 117.831387
_cell_volume 787.770200
_symmetry_space_group_name_H-M "P -1"
_symmetry_group_IT_number 2
_symmetry_cell_setting 'triclinic'
loop_
_space_group_symop_operation_xyz
x,y,z
-x,-y,-z
loop_
_atom_site_type_symbol
_atom_site_label
_atom_site_fract_x
_atom_site_fract_y
_atom_site_fract_z
Si Si1 0.536010 0.460017 0.896399
Si Si2 0.792833 0.316601 0.471866
Si Si3 0.057320 0.546371 0.726261
Si Si4 0.823874 0.249516 0.195745
Si Si5 0.136687 0.297233 0.449323
Si Si6 0.303454 0.182825 0.181960
Si Si7 0.625017 0.893914 0.248017
Si Si8 0.650538 0.806928 0.584153
O O1 0.549307 0.644115 0.890451
O O2 0.808239 0.315567 0.675971
O O3 0.500000 0.500000 0.000000
O O4 0.262646 0.382088 0.036279
O O5 0.841323 0.354793 0.377673
O O6 0.771023 0.502225 0.566823
O O7 0.518158 0.224445 0.635928
O O8 0.043608 0.178760 0.306039
O O9 0.231554 0.595440 0.682304
O O10 0.099268 0.327682 0.639839
O O11 0.619954 0.289100 0.278136
O O12 0.767849 0.056698 0.221297
O O13 0.137256 0.241150 0.969484
O O14 0.217843 0.189674 0.310718
O O15 0.296805 0.179694 0.374575
O O16 0.500000 0.000000 0.000000
O O17 0.393083 0.988689 0.370867
#
# Coordination Sequence:
#
# PCOD8011339 Si02
#       8
#     2   2   2   2   2   2   2   2
#     4  11  20  41  62  89 124 162 201 239 301 370
#     4  10  21  39  60  87 120 159 197 245 305 352
#     4  11  21  36  66  86 119 162 200 243 297 359
#     4   9  21  38  62  87 117 159 205 244 300 356
#     4  10  22  41  63  85 125 160 198 244 302 369
#     4  11  25  39  58  95 123 152 202 254 300 356
#     4   9  21  39  60  83 122 155 203 249 296 351
#     4   9  19  40  60  86 121 151 205 242 296 350
#
# _framework density 20.310490000000001
#
# number of rings (size 3 to 8) (size 9 to 14) (size 15 to 20)
#    0.750    1.250    3.750    1.875    5.250    1.500 
#    0.000    3.750    2.750    0.000    0.000    0.000 
#    0.000    0.000    0.000    0.000    0.000    0.000 
#
# Total GULP energy -198264.321522 kJ/mol
# GULP energy per Si atom -12391.520095 kJ/mol
# Density = 2.026426 g / cm^3
# Si number density = 20.310490 Si / 1000 Ang^3
#
#
#
# Elastic Constant Matrix: (Units=GPa)
#
#
# Indices 1 2 3 4 5 6 
#
# 1 92.7456 6.2318 54.0853 5.2347 2.6939 -10.7808
# 2 6.2318 43.8912 35.5830 -24.7086 -3.5938 -9.4813
# 3 54.0853 35.5830 122.3780 -11.0026 4.8152 -8.3045
# 4 5.2347 -24.7086 -11.0026 36.8506 2.6814 -2.5760
# 5 2.6939 -3.5938 4.8152 2.6814 30.6854 2.4097
# 6 -10.7808 -9.4813 -8.3045 -2.5760 2.4097 21.3954
#
#
#
# Elastic Compliance Matrix: (Units=1/GPa)
#
#
# Indices 1 2 3 4 5 6 
#
# 1 0.016166 0.005990 -0.008402 -0.000267 0.000035 0.007503
# 2 0.005990 0.062689 -0.015613 0.038278 0.003649 0.028936
# 3 -0.008402 -0.015613 0.015745 -0.004746 -0.002730 -0.005305
# 4 -0.000267 0.038278 -0.004746 0.053003 -0.001068 0.021488
# 5 0.000035 0.003649 -0.002730 -0.001068 0.033799 -0.003360
# 6 0.007503 0.028936 -0.005305 0.021488 -0.003360 0.064249
#
#
# Mechanical properties :
#
#
# Convention : Reuss Voigt Hill
#
# Bulk Modulus (GPa) = 17.07989 50.09056 33.58522
# Shear Modulus (GPa) = 16.59924 28.66060 22.62992
#
# Velocity S-wave (km/s) = 2.86190 3.76057 3.34158
# Velocity P-wave (km/s) = 4.39867 6.60089 5.60892
#
# Compressibility (1/GPa) = 0.05854840
#
# Stress axis : x y z
#
# Youngs Moduli (GPa) = 61.85890 15.95173 63.51071
#
# Poissons Ratio (x) = -0.09555 0.53364
# Poissons Ratio (y) = -0.37053 0.99162
# Poissons Ratio (z) = 0.51977 0.24906
#
# Static dielectric constant tensor:
#      x y z
#    x 3.673370 0.090590 -0.314290 
#    y 0.090590 3.592490 -0.218600 
#    z -0.314290 -0.218600 3.992310 
# 
# 
# High freq. dielectric constant tensor:
#      x y z
#    x 1.785680 0.002050 -0.009290 
#    y 0.002050 1.771860 -0.000360 
#    z -0.009290 -0.000360 1.797800 
# 
# From -- ./inp_files/597408.got.cif
#   From: 2010.06.25/outbox.cif.g09.slc.cpg/sg2_299_cif.got.tgz:597408.got - 2010.06.27 13:26:56.
