data_PCOD8011666
_publ_section_title
;
Structure prediction by ZEFSAII (Michael W. Deem and Ramdas Pophale) SiO2 
 PCOD8011666
Probable space group: P -1
;
_chemical_formula_sum "Si O2"
_cell_formula_units_Z 16
_cell_length_a 25.226085
_cell_length_b 20.112750
_cell_length_c 8.081435
_cell_angle_alpha 134.896442
_cell_angle_beta 145.175909
_cell_angle_gamma 20.054280
_cell_volume 756.948189
_symmetry_space_group_name_H-M "P -1"
_symmetry_group_IT_number 2
_symmetry_cell_setting 'triclinic'
loop_
_space_group_symop_operation_xyz
x,y,z
-x,-y,-z
loop_
_atom_site_type_symbol
_atom_site_label
_atom_site_fract_x
_atom_site_fract_y
_atom_site_fract_z
Si Si1 0.341114 0.030378 0.315897
Si Si2 0.498701 0.516252 0.833015
Si Si3 0.323205 0.849679 0.815108
Si Si4 0.328979 0.497678 0.162136
Si Si5 0.265823 0.353339 0.832066
Si Si6 0.375576 0.062483 0.119998
Si Si7 0.809568 0.745261 0.348179
Si Si8 0.072526 0.832595 0.838512
O O1 0.561706 0.883781 0.628791
O O2 0.208813 0.175467 0.392803
O O3 0.244339 0.153578 0.107063
O O4 0.355961 0.904655 0.125591
O O5 0.335260 0.742751 0.762521
O O6 0.432548 0.480998 0.512954
O O7 0.500000 0.500000 0.000000
O O8 0.724646 0.342312 0.056614
O O9 0.502170 0.690753 0.861953
O O10 0.104973 0.056198 0.528014
O O11 0.264955 0.466289 0.057333
O O12 0.129776 0.718027 0.944933
O O13 0.419123 0.186259 0.784867
O O14 0.314245 0.243179 0.924442
O O15 0.043319 0.515746 0.499753
O O16 0.267093 0.130892 0.792140
O O17 0.000000 0.000000 0.000000
#
# Coordination Sequence:
#
# PCOD8011666 Si02
#       8
#     2   2   2   2   2   2   2   2
#     4  10  21  39  65  93 122 165 219 253 307 386
#     4  11  25  41  62  97 127 159 205 266 327 371
#     4  11  22  43  64  92 129 160 216 264 305 386
#     4  11  22  40  67  91 123 168 213 256 320 382
#     4  10  21  39  63  91 128 160 210 262 311 375
#     4  10  21  42  64  88 128 174 205 259 322 370
#     4  10  23  42  62  94 131 168 210 264 317 372
#     4  11  21  43  68  86 121 171 208 257 312 376
#
# _framework density 21.137511
#
# number of rings (size 3 to 8) (size 9 to 14) (size 15 to 20)
#    0.000    1.500    3.750    2.250    1.750    3.500 
#    2.250   18.750    0.000    0.000    0.000    0.000 
#    0.000    0.000    0.000    0.000    0.000    0.000 
#
# Total GULP energy -198242.805450 kJ/mol
# GULP energy per Si atom -12390.175341 kJ/mol
# Density = 2.108940 g / cm^3
# Si number density = 21.137511 Si / 1000 Ang^3
#
#
#
# Elastic Constant Matrix: (Units=GPa)
#
#
# Indices 1 2 3 4 5 6 
#
# 1 111.7008 40.3064 35.0713 8.9252 -24.6329 11.5219
# 2 40.3064 95.6731 51.8036 11.0938 -9.4975 10.1428
# 3 35.0713 51.8036 78.8510 15.6216 -4.2979 10.9405
# 4 8.9252 11.0938 15.6216 38.0458 7.5426 7.4276
# 5 -24.6329 -9.4975 -4.2979 7.5426 39.1268 11.8836
# 6 11.5219 10.1428 10.9405 7.4276 11.8836 19.5888
#
#
#
# Elastic Compliance Matrix: (Units=1/GPa)
#
#
# Indices 1 2 3 4 5 6 
#
# 1 0.014860 -0.002063 -0.002273 -0.001887 0.013112 -0.013642
# 2 -0.002063 0.017354 -0.009644 -0.000439 0.003203 -0.004162
# 3 -0.002273 -0.009644 0.021661 -0.004854 0.000902 -0.004474
# 4 -0.001887 -0.000439 -0.004854 0.030877 -0.006686 -0.003604
# 5 0.013112 0.003203 0.000902 -0.006686 0.046837 -0.035753
# 6 -0.013642 -0.004162 -0.004474 -0.003604 -0.035753 0.086784
#
#
# Mechanical properties :
#
#
# Convention : Reuss Voigt Hill
#
# Bulk Modulus (GPa) = 38.58907 60.06525 49.32716
# Shear Modulus (GPa) = 19.61015 29.95518 24.78267
#
# Velocity S-wave (km/s) = 3.04919 3.76860 3.42782
# Velocity P-wave (km/s) = 5.54009 6.88582 6.24929
#
# Compressibility (1/GPa) = 0.02591407
#
# Stress axis : x y z
#
# Youngs Moduli (GPa) = 67.29494 57.62498 46.16663
#
# Poissons Ratio (x) = 0.11889 0.10492
# Poissons Ratio (y) = 0.13884 0.44525
# Poissons Ratio (z) = 0.15293 0.55576
#
# Static dielectric constant tensor:
#      x y z
#    x 3.979030 0.215000 0.022340 
#    y 0.215000 3.890880 -0.061390 
#    z 0.022340 -0.061390 3.728090 
# 
# 
# High freq. dielectric constant tensor:
#      x y z
#    x 1.829540 0.009010 0.004160 
#    y 0.009010 1.826040 0.006030 
#    z 0.004160 0.006030 1.819360 
# 
# From -- ./inp_files/357807.got.cif
#   From: 2010.06.25/outbox.cif.g09.slc.cpg/sg2_179_cif.got.tgz:357807.got - 2010.06.27 13:26:56.
