data_PCOD8011954
_publ_section_title
;
Structure prediction by ZEFSAII (Michael W. Deem and Ramdas Pophale) SiO2 
 PCOD8011954
Probable space group: P -1
;
_chemical_formula_sum "Si O2"
_cell_formula_units_Z 16
_cell_length_a 23.610823
_cell_length_b 20.867718
_cell_length_c 6.632270
_cell_angle_alpha 60.772911
_cell_angle_beta 51.782214
_cell_angle_gamma 18.241206
_cell_volume 735.217637
_symmetry_space_group_name_H-M "P -1"
_symmetry_group_IT_number 2
_symmetry_cell_setting 'triclinic'
loop_
_space_group_symop_operation_xyz
x,y,z
-x,-y,-z
loop_
_atom_site_type_symbol
_atom_site_label
_atom_site_fract_x
_atom_site_fract_y
_atom_site_fract_z
Si Si1 0.878894 0.838017 0.048468
Si Si2 0.643490 0.191370 0.791055
Si Si3 0.749067 0.418739 0.220633
Si Si4 0.158859 0.245812 0.455712
Si Si5 0.476365 0.608167 0.865330
Si Si6 0.727611 0.733487 0.571235
Si Si7 0.759021 0.823128 0.077675
Si Si8 0.066964 0.019218 0.860972
O O1 0.107010 0.654817 0.891077
O O2 0.714110 0.053653 0.978395
O O3 0.783052 0.891893 0.379574
O O4 0.909923 0.739167 0.982804
O O5 0.462032 0.343317 0.791680
O O6 0.851626 0.025592 0.464807
O O7 0.531289 0.354772 0.946167
O O8 0.679971 0.438696 0.539626
O O9 0.868446 0.255048 0.037431
O O10 0.314747 0.155553 0.358854
O O11 0.898057 0.515227 0.641541
O O12 0.195849 0.211753 0.196195
O O13 0.254205 0.844922 0.882426
O O14 0.500000 0.500000 0.000000
O O15 0.823401 0.680275 0.238723
O O16 0.503145 0.909024 0.734449
O O17 0.000000 0.000000 0.000000
#
# Coordination Sequence:
#
# PCOD8011954 Si02
#       8
#     2   2   2   2   2   2   2   2
#     4  11  26  42  61  98 129 178 213 253 335 396
#     4  11  26  44  64  95 135 169 218 273 324 394
#     4  11  26  44  64  95 135 169 217 275 322 394
#     4  10  21  39  65  92 130 163 215 259 316 383
#     4  11  24  43  70  99 124 170 224 270 332 388
#     4   9  20  40  62  98 120 163 213 266 310 369
#     4  10  21  39  65  91 131 163 212 263 315 379
#     4  11  24  43  70  98 126 169 222 275 327 388
#
# _framework density 21.762266
#
# number of rings (size 3 to 8) (size 9 to 14) (size 15 to 20)
#    0.000    1.500    1.250    2.250    7.000    3.000 
#    0.000    0.000    0.000    0.000    0.000    0.000 
#    0.000    0.000    0.000    0.000    0.000    0.000 
#
# Total GULP energy -198260.603130 kJ/mol
# GULP energy per Si atom -12391.287696 kJ/mol
# Density = 2.171273 g / cm^3
# Si number density = 21.762266 Si / 1000 Ang^3
#
#
#
# Elastic Constant Matrix: (Units=GPa)
#
#
# Indices 1 2 3 4 5 6 
#
# 1 112.9762 27.0300 67.9530 -3.7310 -17.9552 -20.9236
# 2 27.0300 89.8725 47.3360 -23.2021 -10.3793 -6.4710
# 3 67.9530 47.3360 181.6587 -20.3908 17.6269 10.0054
# 4 -3.7310 -23.2021 -20.3908 41.4060 -1.1794 -0.5986
# 5 -17.9552 -10.3793 17.6269 -1.1794 32.2187 -7.1954
# 6 -20.9236 -6.4710 10.0054 -0.5986 -7.1954 32.1160
#
#
#
# Elastic Compliance Matrix: (Units=1/GPa)
#
#
# Indices 1 2 3 4 5 6 
#
# 1 0.033040 0.008315 -0.020748 -0.000849 0.041089 0.038855
# 2 0.008315 0.019692 -0.010378 0.007518 0.020821 0.017423
# 3 -0.020748 -0.010378 0.020926 0.001258 -0.032891 -0.029473
# 4 -0.000849 0.007518 0.001258 0.029009 0.002706 0.001717
# 5 0.041089 0.020821 -0.032891 0.002706 0.092586 0.062005
# 6 0.038855 0.017423 -0.029473 0.001717 0.062005 0.083067
#
#
# Mechanical properties :
#
#
# Convention : Reuss Voigt Hill
#
# Bulk Modulus (GPa) = 35.66831 74.34948 55.00890
# Shear Modulus (GPa) = 15.00204 37.29405 26.14804
#
# Velocity S-wave (km/s) = 2.62841 4.14418 3.47007
# Velocity P-wave (km/s) = 5.06330 7.55894 6.43329
#
# Compressibility (1/GPa) = 0.02803609
#
# Stress axis : x y z
#
# Youngs Moduli (GPa) = 30.26632 50.78170 47.78670
#
# Poissons Ratio (x) = -0.42224 0.99149
# Poissons Ratio (y) = -0.25166 0.49592
# Poissons Ratio (z) = 0.62797 0.52700
#
# Static dielectric constant tensor:
#      x y z
#    x 4.019990 -0.080350 0.135710 
#    y -0.080350 3.063680 -0.274670 
#    z 0.135710 -0.274670 4.202840 
# 
# 
# High freq. dielectric constant tensor:
#      x y z
#    x 1.859390 -0.020310 0.005750 
#    y -0.020310 1.854510 -0.020000 
#    z 0.005750 -0.020000 1.861960 
# 
# From -- ./inp_files/125005.got.cif
#   From: 2010.06.25/outbox.cif.g09.slc.cpg/sg2_63_cif.got.tgz:125005.got - 2010.06.27 13:26:56.
