data_PCOD8011806
_publ_section_title
;
Structure prediction by ZEFSAII (Michael W. Deem and Ramdas Pophale) SiO2 
 PCOD8011806
Probable space group: P -1
;
_chemical_formula_sum "Si O2"
_cell_formula_units_Z 16
_cell_length_a 9.287832
_cell_length_b 21.527553
_cell_length_c 9.604777
_cell_angle_alpha 28.854758
_cell_angle_beta 57.638773
_cell_angle_gamma 60.434196
_cell_volume 781.410689
_symmetry_space_group_name_H-M "P -1"
_symmetry_group_IT_number 2
_symmetry_cell_setting 'triclinic'
loop_
_space_group_symop_operation_xyz
x,y,z
-x,-y,-z
loop_
_atom_site_type_symbol
_atom_site_label
_atom_site_fract_x
_atom_site_fract_y
_atom_site_fract_z
Si Si1 0.383566 0.382996 0.321466
Si Si2 0.375693 0.411201 0.810381
Si Si3 0.760432 0.704283 0.153805
Si Si4 0.823108 0.482421 0.052187
Si Si5 0.407107 0.839183 0.747843
Si Si6 0.914825 0.139866 0.304823
Si Si7 0.706962 0.218055 0.520780
Si Si8 0.550496 0.092143 0.102173
O O1 0.297417 0.387216 0.510946
O O2 0.515114 0.256770 0.484408
O O3 0.500000 0.500000 0.000000
O O4 0.225650 0.399095 0.262739
O O5 0.500000 0.500000 0.500000
O O6 0.236274 0.370854 0.847960
O O7 0.307447 0.507718 0.773842
O O8 0.471449 0.288718 0.072804
O O9 0.628074 0.826463 0.974945
O O10 0.947812 0.752348 0.985712
O O11 0.808903 0.343274 0.262430
O O12 0.000000 0.500000 0.000000
O O13 0.224630 0.814944 0.825189
O O14 0.365271 0.884268 0.838283
O O15 0.505981 0.943968 0.402969
O O16 0.822186 0.137102 0.508668
O O17 0.000000 0.000000 0.500000
O O18 0.684699 0.127206 0.844913
#
# Coordination Sequence:
#
# PCOD8011806 Si02
#       8
#     2   2   2   2   2   2   2   2
#     4   9  19  39  62  89 120 164 206 248 307 376
#     4  11  22  40  67  91 120 167 209 247 310 378
#     4  10  21  39  64  91 128 162 204 262 312 369
#     4  11  22  39  60  92 126 157 202 263 311 365
#     4  10  21  39  67  92 125 163 215 256 308 379
#     4  12  24  41  60  95 131 163 205 263 322 367
#     4  10  22  41  64  86 127 166 210 258 308 379
#     4   9  19  41  65  87 120 169 213 255 306 369
#
# _framework density 20.475787
#
# number of rings (size 3 to 8) (size 9 to 14) (size 15 to 20)
#    0.000    1.750    1.250    4.500    0.000    3.500 
#    2.250    4.375    0.000    0.000    0.000    0.000 
#    0.000    0.000    0.000    0.000    0.000    0.000 
#
# Total GULP energy -198330.290479 kJ/mol
# GULP energy per Si atom -12395.643155 kJ/mol
# Density = 2.042918 g / cm^3
# Si number density = 20.475787 Si / 1000 Ang^3
#
#
#
# Elastic Constant Matrix: (Units=GPa)
#
#
# Indices 1 2 3 4 5 6 
#
# 1 149.4012 26.1008 40.3930 5.9186 3.1095 14.0315
# 2 26.1008 111.4234 30.8937 10.6856 6.8451 8.5946
# 3 40.3930 30.8937 117.8619 13.9632 4.1922 5.8235
# 4 5.9186 10.6856 13.9632 32.3369 5.9570 -3.1680
# 5 3.1095 6.8451 4.1922 5.9570 25.4471 1.6949
# 6 14.0315 8.5946 5.8235 -3.1680 1.6949 15.5641
#
#
#
# Elastic Compliance Matrix: (Units=1/GPa)
#
#
# Indices 1 2 3 4 5 6 
#
# 1 0.008020 -0.000724 -0.002145 -0.000952 0.000207 -0.006244
# 2 -0.000724 0.010377 -0.001866 -0.002691 -0.001448 -0.004770
# 3 -0.002145 -0.001866 0.010207 -0.003557 0.000020 -0.001582
# 4 -0.000952 -0.002691 -0.003557 0.036129 -0.007823 0.011882
# 5 0.000207 -0.001448 0.000020 -0.007823 0.041859 -0.005545
# 6 -0.006244 -0.004770 -0.001582 0.011882 -0.005545 0.076128
#
#
# Mechanical properties :
#
#
# Convention : Reuss Voigt Hill
#
# Bulk Modulus (GPa) = 52.26008 63.71795 57.98902
# Shear Modulus (GPa) = 25.18054 33.42288 29.30171
#
# Velocity S-wave (km/s) = 3.51061 4.04457 3.78702
# Velocity P-wave (km/s) = 6.48158 7.27995 6.89233
#
# Compressibility (1/GPa) = 0.01913506
#
# Stress axis : x y z
#
# Youngs Moduli (GPa) = 124.69536 96.37098 97.96756
#
# Poissons Ratio (x) = 0.06974 0.21011
# Poissons Ratio (y) = 0.09023 0.18280
# Poissons Ratio (z) = 0.26744 0.17982
#
# Static dielectric constant tensor:
#      x y z
#    x 4.301050 0.169830 0.196310 
#    y 0.169830 3.384490 0.119190 
#    z 0.196310 0.119190 3.819150 
# 
# 
# High freq. dielectric constant tensor:
#      x y z
#    x 1.803690 0.009700 0.006690 
#    y 0.009700 1.795490 0.009140 
#    z 0.006690 0.009140 1.803130 
# 
# From -- ./inp_files/178213.got.cif
#   From: 2010.06.25/outbox.cif.g09.slc.cpg/sg2_90_cif.got.tgz:178213.got - 2010.06.27 13:26:56.
