data_PCOD8011442
_publ_section_title
;
Structure prediction by ZEFSAII (Michael W. Deem and Ramdas Pophale) SiO2 
 PCOD8011442
Probable space group: P -1
;
_chemical_formula_sum "Si O2"
_cell_formula_units_Z 16
_cell_length_a 7.754639
_cell_length_b 21.746059
_cell_length_c 27.122275
_cell_angle_alpha 11.165738
_cell_angle_beta 127.590492
_cell_angle_gamma 127.159750
_cell_volume 701.347958
_symmetry_space_group_name_H-M "P -1"
_symmetry_group_IT_number 2
_symmetry_cell_setting 'triclinic'
loop_
_space_group_symop_operation_xyz
x,y,z
-x,-y,-z
loop_
_atom_site_type_symbol
_atom_site_label
_atom_site_fract_x
_atom_site_fract_y
_atom_site_fract_z
Si Si1 0.760259 0.861033 0.160334
Si Si2 0.082002 0.719071 0.063130
Si Si3 0.810684 0.361773 0.639173
Si Si4 0.915818 0.262669 0.544132
Si Si5 0.791581 0.836747 0.772745
Si Si6 0.706033 0.136184 0.334809
Si Si7 0.982414 0.032602 0.555495
Si Si8 0.435481 0.236911 0.896845
O O1 0.686289 0.625356 0.378238
O O2 0.568610 0.884458 0.066617
O O3 0.950459 0.693093 0.296578
O O4 0.863195 0.192930 0.939264
O O5 0.960215 0.379265 0.303278
O O6 0.316858 0.710434 0.083373
O O7 0.924656 0.982425 0.806934
O O8 0.871495 0.501843 0.594466
O O9 0.668365 0.039942 0.869402
O O10 0.688467 0.438398 0.372542
O O11 0.926717 0.103203 0.617816
O O12 0.546516 0.944930 0.637162
O O13 0.777823 0.507735 0.058920
O O14 0.914271 0.791233 0.777670
O O15 0.821417 0.962102 0.536928
O O16 0.777365 0.015208 0.387843
#
# Coordination Sequence:
#
# PCOD8011442 Si02
#       8
#     2   2   2   2   2   2   2   2
#     4   9  19  37  57  87 121 163 212 253 300 367
#     4  11  23  39  61  93 125 159 210 261 302 367
#     4   9  20  37  61  85 124 167 205 255 306 357
#     4  10  21  39  61  91 127 157 208 260 302 369
#     4  11  22  41  70  91 121 170 200 251 331 373
#     4  10  23  44  65  93 127 153 208 262 310 388
#     4  11  23  41  66  94 126 160 205 261 314 378
#     4  11  22  39  61  86 125 171 204 252 313 356
#
# _framework density 22.813213000000001
#
# number of rings (size 3 to 8) (size 9 to 14) (size 15 to 20)
#    0.000    1.750    1.250    4.125    3.500    2.000 
#    2.250    0.000    0.000    0.000    0.000    0.000 
#    0.000    0.000    0.000    0.000    0.000    0.000 
#
# Total GULP energy -198343.775469 kJ/mol
# GULP energy per Si atom -12396.485967 kJ/mol
# Density = 2.276129 g / cm^3
# Si number density = 22.813213 Si / 1000 Ang^3
#
#
#
# Elastic Constant Matrix: (Units=GPa)
#
#
# Indices 1 2 3 4 5 6 
#
# 1 65.8993 30.1348 5.9290 4.1587 -2.4857 -11.9744
# 2 30.1348 85.4648 17.1136 -1.5771 -4.1568 -14.3128
# 3 5.9290 17.1136 51.1455 -5.2566 7.1165 3.6630
# 4 4.1587 -1.5771 -5.2566 30.5724 -4.5100 2.9361
# 5 -2.4857 -4.1568 7.1165 -4.5100 29.9944 -2.2498
# 6 -11.9744 -14.3128 3.6630 2.9361 -2.2498 34.1983
#
#
#
# Elastic Compliance Matrix: (Units=1/GPa)
#
#
# Indices 1 2 3 4 5 6 
#
# 1 0.018988 -0.005701 -0.001105 -0.003390 0.000891 0.004731
# 2 -0.005701 0.015898 -0.005471 0.000656 0.003534 0.005420
# 3 -0.001105 -0.005471 0.023161 0.003490 -0.006260 -0.005869
# 4 -0.003390 0.000656 0.003490 0.034766 0.003908 -0.004014
# 5 0.000891 0.003534 -0.006260 0.003908 0.036315 0.004515
# 6 0.004731 0.005420 -0.005869 -0.004014 0.004515 0.034436
#
#
# Mechanical properties :
#
#
# Convention : Reuss Voigt Hill
#
# Bulk Modulus (GPa) = 29.85667 34.31824 32.08745
# Shear Modulus (GPa) = 25.08998 28.90850 26.99924
#
# Velocity S-wave (km/s) = 3.31992 3.56361 3.44392
# Velocity P-wave (km/s) = 5.27368 5.65758 5.46900
#
# Compressibility (1/GPa) = 0.03349336
#
# Stress axis : x y z
#
# Youngs Moduli (GPa) = 52.66446 62.90073 43.17608
#
# Poissons Ratio (x) = 0.35860 0.04770
# Poissons Ratio (y) = 0.30024 0.23622
# Poissons Ratio (z) = 0.05818 0.34414
#
# Static dielectric constant tensor:
#      x y z
#    x 3.948610 -0.097590 0.285540 
#    y -0.097590 4.097270 0.088150 
#    z 0.285540 0.088150 4.056550 
# 
# 
# High freq. dielectric constant tensor:
#      x y z
#    x 1.888610 -0.005620 0.020650 
#    y -0.005620 1.898460 0.000840 
#    z 0.020650 0.000840 1.901400 
# 
# From -- ./inp_files/622740.got.cif
#   From: 2010.06.25/outbox.cif.g09.slc.cpg/sg2_312_cif.got.tgz:622740.got - 2010.06.27 13:26:56.
