data_PCOD8011285
_publ_section_title
;
Structure prediction by ZEFSAII (Michael W. Deem and Ramdas Pophale) SiO2 
 PCOD8011285
Probable space group: P -1
;
_chemical_formula_sum "Si O2"
_cell_formula_units_Z 14
_cell_length_a 15.867818
_cell_length_b 5.106328
_cell_length_c 23.104707
_cell_angle_alpha 90.237052
_cell_angle_beta 152.845188
_cell_angle_gamma 107.198554
_cell_volume 644.918852
_symmetry_space_group_name_H-M "P -1"
_symmetry_group_IT_number 2
_symmetry_cell_setting 'triclinic'
loop_
_space_group_symop_operation_xyz
x,y,z
-x,-y,-z
loop_
_atom_site_type_symbol
_atom_site_label
_atom_site_fract_x
_atom_site_fract_y
_atom_site_fract_z
Si Si1 0.217493 0.441905 0.093271
Si Si2 0.719828 0.023664 0.939935
Si Si3 0.809458 0.535715 0.170067
Si Si4 0.235042 0.479759 0.301833
Si Si5 0.683151 0.226577 0.530281
Si Si6 0.305164 0.182669 0.247584
Si Si7 0.423662 0.195318 0.025510
O O1 0.358249 0.825197 0.153883
O O2 0.319802 0.467314 0.219823
O O3 0.271139 0.244293 0.085673
O O4 0.920156 0.204065 0.915301
O O5 0.980355 0.365401 0.124093
O O6 0.534850 0.823519 0.880995
O O7 0.754115 0.717471 0.090910
O O8 0.099313 0.763353 0.356854
O O9 0.699581 0.164815 0.080239
O O10 0.686518 0.496591 0.156687
O O11 0.223750 0.473584 0.364750
O O12 0.258355 0.211334 0.287280
O O13 0.465080 0.856898 0.422525
O O14 0.564940 0.272736 0.403361
#
# Coordination Sequence:
#
# PCOD8011285 Si02
#       7
#     2   2   2   2   2   2   2
#     4  10  23  36  61  80 116 158 201 229 282 324
#     4  11  20  38  60  85 112 153 193 244 273 343
#     4  10  22  37  59  86 115 154 183 235 292 348
#     4  10  22  32  56  85 122 148 186 230 301 342
#     4  11  21  35  56  86 121 152 183 235 294 353
#     4  10  22  37  54  83 121 157 195 234 275 351
#     4  10  21  39  59  84 117 146 194 235 287 343
#
# _framework density 21.708158000000001
#
# number of rings (size 3 to 8) (size 9 to 14) (size 15 to 20)
#    0.000    1.714    2.857    1.286    4.000    2.857 
#    0.000    0.000    0.000    1.714    0.000    0.000 
#    0.000    0.000    0.000    0.000    0.000    0.000 
#
# Total GULP energy -173516.022426 kJ/mol
# GULP energy per Si atom -12394.001602 kJ/mol
# Density = 2.165875 g / cm^3
# Si number density = 21.708158 Si / 1000 Ang^3
#
#
#
# Elastic Constant Matrix: (Units=GPa)
#
#
# Indices 1 2 3 4 5 6 
#
# 1 78.4863 9.6694 42.8688 -13.1431 17.7177 18.5861
# 2 9.6694 86.9682 29.9707 -26.1227 11.3525 13.7901
# 3 42.8688 29.9707 14.6693 -44.9029 -15.0942 -45.7056
# 4 -13.1431 -26.1227 -44.9029 32.6289 -8.8456 -14.0926
# 5 17.7177 11.3525 -15.0942 -8.8456 6.7118 -16.2382
# 6 18.5861 13.7901 -45.7056 -14.0926 -16.2382 6.1367
#
#
#
# Elastic Compliance Matrix: (Units=1/GPa)
#
#
# Indices 1 2 3 4 5 6 
#
# 1 0.012486 0.000548 0.003479 0.010912 -0.003177 0.003515
# 2 0.000548 0.015741 0.002394 0.014343 -0.005449 -0.000687
# 3 0.003479 0.002394 0.006986 0.002772 -0.020163 -0.010869
# 4 0.010912 0.014343 0.002772 0.039608 -0.021739 -0.011204
# 5 -0.003177 -0.005449 -0.020163 -0.021739 0.062680 -0.012367
# 6 0.003515 -0.000687 -0.010869 -0.011204 -0.012367 0.014449
#
#
# Mechanical properties :
#
#
# Convention : Reuss Voigt Hill
#
# Bulk Modulus (GPa) = 20.81001 38.34905 29.57953
# Shear Modulus (GPa) = 32.23142 15.60312 23.91727
#
# Velocity S-wave (km/s) = 3.85744 2.68389 3.32288
# Velocity P-wave (km/s) = 5.42650 5.22575 5.32707
#
# Compressibility (1/GPa) = 0.04805379
#
# Stress axis : x y z
#
# Youngs Moduli (GPa) = 80.09195 63.52757 143.13692
#
# Poissons Ratio (x) = -0.03482 -0.49794
# Poissons Ratio (y) = -0.04390 -0.34260
# Poissons Ratio (z) = -0.27862 -0.15205
#
# Static dielectric constant tensor:
#      x y z
#    x 4.343270 0.019670 -0.017570 
#    y 0.019670 3.939640 -0.220870 
#    z -0.017570 -0.220870 3.972370 
# 
# 
# High freq. dielectric constant tensor:
#      x y z
#    x 1.849290 -0.010790 -0.008980 
#    y -0.010790 1.857680 -0.014120 
#    z -0.008980 -0.014120 1.815770 
# 
# From -- ./inp_files/68424.got.cif
#   From: 2010.06.25/outbox.cif.g09.slc.cpg/sg2_35_cif.got.tgz:68424.got - 2010.06.27 13:26:56.
