data_PCOD8011376
_publ_section_title
;
Structure prediction by ZEFSAII (Michael W. Deem and Ramdas Pophale) SiO2 
 PCOD8011376
Probable space group: P -1
;
_chemical_formula_sum "Si O2"
_cell_formula_units_Z 16
_cell_length_a 18.353972
_cell_length_b 23.003172
_cell_length_c 12.615115
_cell_angle_alpha 144.905489
_cell_angle_beta 25.201242
_cell_angle_gamma 158.842118
_cell_volume 807.101744
_symmetry_space_group_name_H-M "P -1"
_symmetry_group_IT_number 2
_symmetry_cell_setting 'triclinic'
loop_
_space_group_symop_operation_xyz
x,y,z
-x,-y,-z
loop_
_atom_site_type_symbol
_atom_site_label
_atom_site_fract_x
_atom_site_fract_y
_atom_site_fract_z
Si Si1 0.314752 0.166391 0.574266
Si Si2 0.705785 0.613966 0.993506
Si Si3 0.234544 0.688764 0.947827
Si Si4 0.518414 0.071450 0.836150
Si Si5 0.294466 0.115365 0.016411
Si Si6 0.230880 0.755830 0.830377
Si Si7 0.186653 0.519129 0.202759
Si Si8 0.751431 0.079462 0.355227
O O1 0.323167 0.288879 0.772960
O O2 0.471578 0.227248 0.344890
O O3 0.489070 0.182487 0.455427
O O4 0.002233 0.974885 0.692581
O O5 0.500000 0.500000 0.000000
O O6 0.678042 0.514974 0.970487
O O7 0.000220 0.735192 0.732618
O O8 0.125943 0.704686 0.014402
O O9 0.280639 0.779328 0.124488
O O10 0.000000 0.500000 0.000000
O O11 0.381430 0.083673 0.951450
O O12 0.704656 0.074731 0.534219
O O13 0.282421 0.897446 0.946521
O O14 0.548738 0.305255 0.937493
O O15 0.211632 0.020513 0.873636
O O16 0.005671 0.604391 0.823918
O O17 0.000000 0.500000 0.500000
O O18 0.500000 0.000000 0.500000
#
# Coordination Sequence:
#
# PCOD8011376 Si02
#       8
#     2   2   2   2   2   2   2   2
#     4   9  23  41  57  89 130 155 207 253 321 351
#     4  11  23  38  60  93 127 160 195 261 311 365
#     4  10  23  40  64  88 123 162 214 260 301 370
#     4  11  20  38  67  87 120 168 212 251 309 365
#     4  10  21  39  60  94 129 160 199 261 314 362
#     4  10  22  40  62  91 120 162 214 251 299 380
#     4  12  22  38  65  94 127 166 208 246 306 378
#     4   9  19  35  59  87 118 158 199 241 304 366
#
# _framework density 19.824020000000001
#
# number of rings (size 3 to 8) (size 9 to 14) (size 15 to 20)
#    0.750    1.000    0.000    6.375    1.750    1.500 
#    0.000    3.125    0.000    3.000    0.000    0.000 
#    0.000    0.000    0.000    0.000    0.000    0.000 
#
# Total GULP energy -198220.474930 kJ/mol
# GULP energy per Si atom -12388.779683 kJ/mol
# Density = 1.977890 g / cm^3
# Si number density = 19.824020 Si / 1000 Ang^3
#
#
#
# Elastic Constant Matrix: (Units=GPa)
#
#
# Indices 1 2 3 4 5 6 
#
# 1 138.5662 77.8292 40.3633 -5.4662 4.9094 3.0458
# 2 77.8292 173.7262 52.8369 -21.4326 11.1382 1.6415
# 3 40.3633 52.8369 75.4398 -17.9994 9.6871 8.9761
# 4 -5.4662 -21.4326 -17.9994 39.6363 3.7181 9.8811
# 5 4.9094 11.1382 9.6871 3.7181 34.7177 5.0889
# 6 3.0458 1.6415 8.9761 9.8811 5.0889 43.5707
#
#
#
# Elastic Compliance Matrix: (Units=1/GPa)
#
#
# Indices 1 2 3 4 5 6 
#
# 1 0.010311 -0.003914 -0.003592 -0.002576 0.000982 0.000636
# 2 -0.003914 0.008984 -0.003287 0.002953 -0.001750 0.000147
# 3 -0.003592 -0.003287 0.020829 0.008954 -0.004412 -0.005431
# 4 -0.002576 0.002953 0.008954 0.033204 -0.005365 -0.008679
# 5 0.000982 -0.001750 -0.004412 -0.005365 0.031256 -0.001528
# 6 0.000636 0.000147 -0.005431 -0.008679 -0.001528 0.026167
#
#
# Mechanical properties :
#
#
# Convention : Reuss Voigt Hill
#
# Bulk Modulus (GPa) = 53.94103 81.08789 67.51446
# Shear Modulus (GPa) = 31.54277 38.03179 34.78728
#
# Velocity S-wave (km/s) = 3.99324 4.38479 4.19358
# Velocity P-wave (km/s) = 6.96637 8.16258 7.58808
#
# Compressibility (1/GPa) = 0.01853876
#
# Stress axis : x y z
#
# Youngs Moduli (GPa) = 96.98470 111.30655 48.01087
#
# Poissons Ratio (x) = 0.43561 0.17247
# Poissons Ratio (y) = 0.37956 0.15779
# Poissons Ratio (z) = 0.34840 0.36582
#
# Static dielectric constant tensor:
#      x y z
#    x 3.647180 0.038520 0.342100 
#    y 0.038520 3.852650 0.167610 
#    z 0.342100 0.167610 4.464850 
# 
# 
# High freq. dielectric constant tensor:
#      x y z
#    x 1.772930 0.000950 0.008090 
#    y 0.000950 1.785400 -0.009350 
#    z 0.008090 -0.009350 1.758890 
# 
# From -- ./inp_files/467460.got.cif
#   From: 2010.06.25/outbox.cif.g09.slc.cpg/sg2_234_cif.got.tgz:467460.got - 2010.06.27 13:26:56.
