data_PCOD8012164
_publ_section_title
;
Structure prediction by ZEFSAII (Michael W. Deem and Ramdas Pophale) SiO2 
 PCOD8012164
Probable space group: P -1
;
_chemical_formula_sum "Si O2"
_cell_formula_units_Z 14
_cell_length_a 6.712604
_cell_length_b 19.588297
_cell_length_c 8.141463
_cell_angle_alpha 122.412235
_cell_angle_beta 60.725522
_cell_angle_gamma 136.514574
_cell_volume 612.625123
_symmetry_space_group_name_H-M "P -1"
_symmetry_group_IT_number 2
_symmetry_cell_setting 'triclinic'
loop_
_space_group_symop_operation_xyz
x,y,z
-x,-y,-z
loop_
_atom_site_type_symbol
_atom_site_label
_atom_site_fract_x
_atom_site_fract_y
_atom_site_fract_z
Si Si1 0.859659 0.881047 0.892763
Si Si2 0.167483 0.944408 0.531167
Si Si3 0.300517 0.678267 0.866541
Si Si4 0.706976 0.485862 0.799461
Si Si5 0.367611 0.391787 0.491286
Si Si6 0.778676 0.334058 0.745346
Si Si7 0.857922 0.870766 0.241377
O O1 0.499101 0.803459 0.917361
O O2 0.990307 0.866563 0.658161
O O3 0.928621 0.851914 0.004510
O O4 0.000000 0.000000 0.000000
O O5 0.070730 0.883832 0.316573
O O6 0.500000 0.000000 0.500000
O O7 0.109949 0.026335 0.651450
O O8 0.554464 0.666262 0.731157
O O9 0.011566 0.600410 0.768100
O O10 0.159834 0.646780 0.061988
O O11 0.527896 0.411633 0.624049
O O12 0.809144 0.431563 0.792608
O O13 0.500000 0.500000 0.000000
O O14 0.500000 0.500000 0.500000
O O15 0.018496 0.326315 0.563152
O O16 0.464534 0.225816 0.693121
#
# Coordination Sequence:
#
# PCOD8012164 Si02
#       7
#     2   2   2   2   2   2   2
#     4   9  21  42  65  93 131 171 220 279 330 396
#     4  10  21  39  67  92 127 167 220 269 335 393
#     4  11  23  43  67  95 134 175 223 276 334 399
#     4  12  24  42  67  95 135 180 216 272 338 398
#     4  12  25  40  67  96 133 177 223 271 332 400
#     4  11  24  44  63  93 140 165 223 279 329 401
#     4   9  22  41  62  93 127 171 212 277 331 390
#
# _framework density 22.852474000000001
#
# number of rings (size 3 to 8) (size 9 to 14) (size 15 to 20)
#    0.000    1.429    2.857    1.714    4.000    0.571 
#    2.571    0.000    0.000    0.000    0.000    0.000 
#    0.000    0.000    0.000    0.000    0.000    0.000 
#
# Total GULP energy -173473.392709 kJ/mol
# GULP energy per Si atom -12390.956622 kJ/mol
# Density = 2.280046 g / cm^3
# Si number density = 22.852474 Si / 1000 Ang^3
#
#
#
# Elastic Constant Matrix: (Units=GPa)
#
#
# Indices 1 2 3 4 5 6 
#
# 1 83.8635 34.9732 35.2796 -17.6264 9.2527 28.0985
# 2 34.9732 145.3088 20.7051 -16.8225 9.8183 24.7403
# 3 35.2796 20.7051 96.7344 -25.0689 9.4797 8.5161
# 4 -17.6264 -16.8225 -25.0689 38.2130 1.0125 -1.6598
# 5 9.2527 9.8183 9.4797 1.0125 46.1926 2.8006
# 6 28.0985 24.7403 8.5161 -1.6598 2.8006 34.1429
#
#
#
# Elastic Compliance Matrix: (Units=1/GPa)
#
#
# Indices 1 2 3 4 5 6 
#
# 1 0.020464 -0.001035 -0.004290 0.005596 -0.002238 -0.014565
# 2 -0.001035 0.008427 -0.000080 0.002999 -0.001331 -0.004980
# 3 -0.004290 -0.000080 0.013949 0.007222 -0.002183 0.000640
# 4 0.005596 0.002999 0.007222 0.034617 -0.003599 -0.006602
# 5 -0.002238 -0.001331 -0.002183 -0.003599 0.022828 0.001304
# 6 -0.014565 -0.004980 0.000640 -0.006602 0.001304 0.044296
#
#
# Mechanical properties :
#
#
# Convention : Reuss Voigt Hill
#
# Bulk Modulus (GPa) = 31.22136 56.42473 43.82304
# Shear Modulus (GPa) = 30.10820 39.37296 34.74058
#
# Velocity S-wave (km/s) = 3.63368 4.15531 3.90322
# Velocity P-wave (km/s) = 5.59434 6.91134 6.28742
#
# Compressibility (1/GPa) = 0.03202936
#
# Stress axis : x y z
#
# Youngs Moduli (GPa) = 48.86716 118.65990 71.69184
#
# Poissons Ratio (x) = 0.12281 0.30755
# Poissons Ratio (y) = 0.05058 0.00576
# Poissons Ratio (z) = 0.20963 0.00953
#
# Static dielectric constant tensor:
#      x y z
#    x 2.529870 -0.176510 0.243660 
#    y -0.176510 4.191460 -0.517250 
#    z 0.243660 -0.517250 4.225770 
# 
# 
# High freq. dielectric constant tensor:
#      x y z
#    x 1.870980 0.010100 0.019840 
#    y 0.010100 1.926490 -0.002590 
#    z 0.019840 -0.002590 1.908790 
# 
# From -- ./inp_files/46931.got.cif
#   From: 2010.06.25/outbox.cif.g09.slc.cpg/sg2_24_cif.got.tgz:46931.got - 2010.06.27 13:26:56.
