data_PCOD8012923
_publ_section_title
;
Structure prediction by ZEFSAII (Michael W. Deem and Ramdas Pophale) SiO2 
 PCOD8012923
Probable space group: P -1
;
_chemical_formula_sum "Si O2"
_cell_formula_units_Z 16
_cell_length_a 27.553710
_cell_length_b 21.863327
_cell_length_c 11.454130
_cell_angle_alpha 145.627444
_cell_angle_beta 145.638079
_cell_angle_gamma 11.245736
_cell_volume 751.698683
_symmetry_space_group_name_H-M "P -1"
_symmetry_group_IT_number 2
_symmetry_cell_setting 'triclinic'
loop_
_space_group_symop_operation_xyz
x,y,z
-x,-y,-z
loop_
_atom_site_type_symbol
_atom_site_label
_atom_site_fract_x
_atom_site_fract_y
_atom_site_fract_z
Si Si1 0.559637 0.640752 0.366133
Si Si2 0.363039 0.098024 0.780145
Si Si3 0.496198 0.593953 0.938068
Si Si4 0.317071 0.517506 0.073921
Si Si5 0.064166 0.946120 0.673859
Si Si6 0.133334 0.025810 0.251949
Si Si7 0.590972 0.829457 0.240579
Si Si8 0.102639 0.483394 0.413306
O O1 0.791908 0.324056 0.405854
O O2 0.527966 0.805515 0.590001
O O3 0.304397 0.880600 0.266069
O O4 0.599719 0.562908 0.186033
O O5 0.299396 0.255771 0.797353
O O6 0.107099 0.359964 0.743410
O O7 0.500000 0.000000 0.000000
O O8 0.464428 0.685329 0.890430
O O9 0.233953 0.854254 0.873034
O O10 0.699362 0.257174 0.790003
O O11 0.424990 0.280848 0.971033
O O12 0.208862 0.717703 0.279196
O O13 0.084918 0.779919 0.938678
O O14 0.000000 0.000000 0.500000
O O15 0.016715 0.261967 0.469981
O O16 0.773962 0.648610 0.422477
O O17 0.307629 0.206783 0.289829
#
# Coordination Sequence:
#
# PCOD8012923 Si02
#       8
#     2   2   2   2   2   2   2   2
#     4  10  21  40  64  92 114 163 212 249 303 359
#     4  11  25  41  63  90 125 167 207 252 312 368
#     4  11  21  38  67  93 118 155 211 253 300 364
#     4  11  22  36  64  93 120 162 201 248 307 354
#     4  11  24  41  62  91 132 158 192 254 312 368
#     4   9  17  37  62  93 119 147 202 264 293 348
#     4  10  23  40  62  90 126 159 212 255 299 365
#     4   9  21  40  64  92 119 162 206 259 309 354
#
# _framework density 21.285124
#
# number of rings (size 3 to 8) (size 9 to 14) (size 15 to 20)
#    0.000    1.750    2.500    1.500    7.000    2.000 
#    0.000    0.000    0.000    0.000    0.000    0.000 
#    0.000    0.000    0.000    0.000    0.000    0.000 
#
# Total GULP energy -198351.206308 kJ/mol
# GULP energy per Si atom -12396.950394 kJ/mol
# Density = 2.123668 g / cm^3
# Si number density = 21.285124 Si / 1000 Ang^3
#
#
#
# Elastic Constant Matrix: (Units=GPa)
#
#
# Indices 1 2 3 4 5 6 
#
# 1 79.7631 1.8877 41.2462 8.2689 4.9748 6.3506
# 2 1.8877 63.7411 34.8784 16.8576 -0.3301 -3.1427
# 3 41.2462 34.8784 92.1490 10.1276 -0.2922 7.0868
# 4 8.2689 16.8576 10.1276 29.0270 3.9265 0.2874
# 5 4.9748 -0.3301 -0.2922 3.9265 32.8633 4.1054
# 6 6.3506 -3.1427 7.0868 0.2874 4.1054 23.2520
#
#
#
# Elastic Compliance Matrix: (Units=1/GPa)
#
#
# Indices 1 2 3 4 5 6 
#
# 1 0.018206 0.006148 -0.009877 -0.005020 -0.002095 -0.000699
# 2 0.006148 0.025305 -0.011362 -0.012543 0.000053 0.005350
# 3 -0.009877 -0.011362 0.019726 0.002320 0.001931 -0.005220
# 4 -0.005020 -0.012543 0.002320 0.042956 -0.004379 -0.000789
# 5 -0.002095 0.000053 0.001931 -0.004379 0.031987 -0.005603
# 6 -0.000699 0.005350 -0.005220 -0.000789 -0.005603 0.046511
#
#
# Mechanical properties :
#
#
# Convention : Reuss Voigt Hill
#
# Bulk Modulus (GPa) = 30.25373 43.51977 36.88675
# Shear Modulus (GPa) = 22.13441 27.53787 24.83614
#
# Velocity S-wave (km/s) = 3.22825 3.60079 3.41960
# Velocity P-wave (km/s) = 5.30470 6.14639 5.74099
#
# Compressibility (1/GPa) = 0.03305377
#
# Stress axis : x y z
#
# Youngs Moduli (GPa) = 54.92716 39.51771 50.69385
#
# Poissons Ratio (x) = -0.24295 0.50071
# Poissons Ratio (y) = -0.33768 0.57601
# Poissons Ratio (z) = 0.54252 0.44902
#
# Static dielectric constant tensor:
#      x y z
#    x 3.899840 -0.145280 0.192910 
#    y -0.145280 3.956960 0.313480 
#    z 0.192910 0.313480 3.857570 
# 
# 
# High freq. dielectric constant tensor:
#      x y z
#    x 1.834550 -0.009690 0.010940 
#    y -0.009690 1.830100 0.019200 
#    z 0.010940 0.019200 1.819790 
# 
# From -- ./inp_files/279891.got.cif
#   From: 2010.06.25/outbox.cif.g09.slc.cpg/sg2_140_cif.got.tgz:279891.got - 2010.06.27 13:26:56.
