data_PCOD8012504
_publ_section_title
;
Structure prediction by ZEFSAII (Michael W. Deem and Ramdas Pophale) SiO2 
 PCOD8012504
Probable space group: P -1
;
_chemical_formula_sum "Si O2"
_cell_formula_units_Z 14
_cell_length_a 8.266646
_cell_length_b 12.152974
_cell_length_c 8.981448
_cell_angle_alpha 94.470083
_cell_angle_beta 88.140472
_cell_angle_gamma 50.258966
_cell_volume 687.721961
_symmetry_space_group_name_H-M "P -1"
_symmetry_group_IT_number 2
_symmetry_cell_setting 'triclinic'
loop_
_space_group_symop_operation_xyz
x,y,z
-x,-y,-z
loop_
_atom_site_type_symbol
_atom_site_label
_atom_site_fract_x
_atom_site_fract_y
_atom_site_fract_z
Si Si1 0.454546 0.333089 0.250746
Si Si2 0.754255 0.212079 0.485665
Si Si3 0.359389 0.137738 0.210861
Si Si4 0.177437 0.122865 0.924956
Si Si5 0.224069 0.831788 0.040119
Si Si6 0.187634 0.659629 0.231704
Si Si7 0.201501 0.995765 0.320826
O O1 0.555599 0.331689 0.401626
O O2 0.320672 0.280196 0.279949
O O3 0.297433 0.493314 0.208870
O O4 0.639517 0.223085 0.117751
O O5 0.815042 0.287388 0.597534
O O6 0.949925 0.100219 0.359788
O O7 0.693326 0.127668 0.569250
O O8 0.286632 0.083871 0.335815
O O9 0.607935 0.015198 0.164931
O O10 0.219250 0.181691 0.071728
O O11 0.029932 0.080821 0.971765
O O12 0.052659 0.247640 0.814634
O O13 0.310298 0.689982 0.121167
O O14 0.262909 0.924901 0.146682
#
# Coordination Sequence:
#
# PCOD8012504 Si02
#       7
#     2   2   2   2   2   2   2
#     4  12  22  36  63  91 120 151 194 238 299 344
#     4  10  22  40  64  83 115 158 198 243 280 350
#     4  11  22  34  59  92 118 150 190 248 293 346
#     4   9  20  38  59  88 116 153 195 242 288 334
#     4   9  19  38  64  85 112 155 201 242 276 336
#     4   9  22  41  60  85 119 157 197 236 283 351
#     4  10  21  40  60  90 115 151 200 244 293 331
#
# _framework density 20.357064000000001
#
# number of rings (size 3 to 8) (size 9 to 14) (size 15 to 20)
#    0.857    1.143    0.000    4.286    2.000    2.857 
#    0.000    0.714    3.143    0.000    0.000    0.000 
#    0.000    0.000    0.000    0.000    0.000    0.000 
#
# Total GULP energy -173558.001257 kJ/mol
# GULP energy per Si atom -12397.000090 kJ/mol
# Density = 2.031073 g / cm^3
# Si number density = 20.357064 Si / 1000 Ang^3
#
#
#
# Elastic Constant Matrix: (Units=GPa)
#
#
# Indices 1 2 3 4 5 6 
#
# 1 97.5055 57.3417 37.8649 -7.9201 8.2600 9.5232
# 2 57.3417 66.7290 29.0504 -13.4603 -0.1983 7.4356
# 3 37.8649 29.0504 84.3429 -6.7018 6.2100 -2.4734
# 4 -7.9201 -13.4603 -6.7018 22.6171 -0.9219 7.3494
# 5 8.2600 -0.1983 6.2100 -0.9219 23.2970 -11.6740
# 6 9.5232 7.4356 -2.4734 7.3494 -11.6740 27.3954
#
#
#
# Elastic Compliance Matrix: (Units=1/GPa)
#
#
# Indices 1 2 3 4 5 6 
#
# 1 0.024623 -0.018749 -0.004066 -0.001425 -0.012199 -0.008654
# 2 -0.018749 0.036513 -0.003457 0.016199 0.005705 -0.005620
# 3 -0.004066 -0.003457 0.015026 -0.000158 -0.000916 0.003360
# 4 -0.001425 0.016199 -0.000158 0.060752 -0.008951 -0.024028
# 5 -0.012199 0.005705 -0.000916 -0.008951 0.063192 0.031939
# 6 -0.008654 -0.005620 0.003360 -0.024028 0.031939 0.061395
#
#
# Mechanical properties :
#
#
# Convention : Reuss Voigt Hill
#
# Bulk Modulus (GPa) = 42.33794 55.23238 48.78516
# Shear Modulus (GPa) = 15.53192 22.94992 19.24092
#
# Velocity S-wave (km/s) = 2.76520 3.36127 3.07770
# Velocity P-wave (km/s) = 5.57117 6.50038 6.05363
#
# Compressibility (1/GPa) = 0.02361948
#
# Stress axis : x y z
#
# Youngs Moduli (GPa) = 40.61162 27.38746 66.55312
#
# Poissons Ratio (x) = 0.51349 0.27058
# Poissons Ratio (y) = 0.76143 0.23006
# Poissons Ratio (z) = 0.16511 0.09467
#
# Static dielectric constant tensor:
#      x y z
#    x 3.595990 0.160620 0.060440 
#    y 0.160620 3.576270 -0.228520 
#    z 0.060440 -0.228520 3.596200 
# 
# 
# High freq. dielectric constant tensor:
#      x y z
#    x 1.782570 0.012380 0.008310 
#    y 0.012380 1.790230 -0.020750 
#    z 0.008310 -0.020750 1.793400 
# 
# From -- ./inp_files/180267.got.cif
#   From: 2010.06.25/outbox.cif.g09.slc.cpg/sg2_91_cif.got.tgz:180267.got - 2010.06.27 13:26:56.
