data_PCOD8012887
_publ_section_title
;
Structure prediction by ZEFSAII (Michael W. Deem and Ramdas Pophale) SiO2 
 PCOD8012887
Probable space group: P -1
;
_chemical_formula_sum "Si O2"
_cell_formula_units_Z 16
_cell_length_a 20.154283
_cell_length_b 8.830232
_cell_length_c 6.586280
_cell_angle_alpha 81.286889
_cell_angle_beta 91.834077
_cell_angle_gamma 41.312474
_cell_volume 745.542176
_symmetry_space_group_name_H-M "P -1"
_symmetry_group_IT_number 2
_symmetry_cell_setting 'triclinic'
loop_
_space_group_symop_operation_xyz
x,y,z
-x,-y,-z
loop_
_atom_site_type_symbol
_atom_site_label
_atom_site_fract_x
_atom_site_fract_y
_atom_site_fract_z
Si Si1 0.589627 0.748910 0.674616
Si Si2 0.164772 0.963519 0.871181
Si Si3 0.409524 0.540329 0.515771
Si Si4 0.982158 0.203452 0.516100
Si Si5 0.345158 0.426584 0.865026
Si Si6 0.256566 0.359941 0.541056
Si Si7 0.236666 0.059591 0.536820
Si Si8 0.071381 0.263742 0.183828
O O1 0.589498 0.569298 0.658224
O O2 0.699636 0.626572 0.650263
O O3 0.500000 0.000000 0.500000
O O4 0.580121 0.774356 0.912291
O O5 0.248099 0.681894 0.908799
O O6 0.207037 0.043242 0.755231
O O7 0.056717 0.110861 0.727842
O O8 0.144892 0.032304 0.092046
O O9 0.500000 0.500000 0.500000
O O10 0.415036 0.418596 0.738343
O O11 0.305889 0.819903 0.464841
O O12 0.865580 0.428507 0.529482
O O13 0.001544 0.274165 0.307801
O O14 0.000000 0.000000 0.500000
O O15 0.301032 0.362026 0.745920
O O16 0.294653 0.116521 0.577463
O O17 0.136701 0.255987 0.344129
O O18 0.000000 0.500000 0.000000
#
# Coordination Sequence:
#
# PCOD8012887 Si02
#       8
#     2   2   2   2   2   2   2   2
#     4  11  25  44  66  93 128 165 207 266 320 377
#     4  10  21  40  64  89 127 168 215 259 310 373
#     4  10  22  43  68  93 121 158 209 264 321 378
#     4  11  23  39  61  94 133 172 212 266 314 372
#     4  10  23  41  65  94 123 166 210 256 321 382
#     4  11  23  40  63  93 131 165 211 260 316 376
#     4  10  22  41  63  91 129 166 208 265 311 369
#     4  11  23  38  61  91 128 172 219 258 314 374
#
# _framework density 21.460889999999999
#
# number of rings (size 3 to 8) (size 9 to 14) (size 15 to 20)
#    0.000    1.500    1.250    3.000    3.500    8.000 
#    0.000    5.000    0.000    0.000    0.000    0.000 
#    0.000    0.000    0.000    0.000    0.000    0.000 
#
# Total GULP energy -198390.066758 kJ/mol
# GULP energy per Si atom -12399.379172 kJ/mol
# Density = 2.141204 g / cm^3
# Si number density = 21.460890 Si / 1000 Ang^3
#
#
#
# Elastic Constant Matrix: (Units=GPa)
#
#
# Indices 1 2 3 4 5 6 
#
# 1 161.5592 36.3219 49.1664 2.5978 -5.6850 12.1756
# 2 36.3219 70.6468 29.0315 3.9033 1.3773 12.9955
# 3 49.1664 29.0315 112.2774 -9.9746 -3.0443 -1.1772
# 4 2.5978 3.9033 -9.9746 34.9684 -0.0857 -0.3941
# 5 -5.6850 1.3773 -3.0443 -0.0857 17.9793 7.9254
# 6 12.1756 12.9955 -1.1772 -0.3941 7.9254 44.3475
#
#
#
# Elastic Compliance Matrix: (Units=1/GPa)
#
#
# Indices 1 2 3 4 5 6 
#
# 1 0.007906 -0.002509 -0.002852 -0.001137 0.003120 -0.002079
# 2 -0.002509 0.018080 -0.003914 -0.003002 -0.000831 -0.004591
# 3 -0.002852 -0.003914 0.011554 0.003970 0.000404 0.002200
# 4 -0.001137 -0.003002 0.003970 0.030167 -0.000004 0.001566
# 5 0.003120 -0.000831 0.000404 -0.000004 0.061878 -0.011661
# 6 -0.002079 -0.004591 0.002200 0.001566 -0.011661 0.026622
#
#
# Mechanical properties :
#
#
# Convention : Reuss Voigt Hill
#
# Bulk Modulus (GPa) = 52.65411 63.72478 58.18944
# Shear Modulus (GPa) = 27.61136 34.78996 31.20066
#
# Velocity S-wave (km/s) = 3.59080 4.03064 3.81706
# Velocity P-wave (km/s) = 6.46374 7.17073 6.82639
#
# Compressibility (1/GPa) = 0.01899187
#
# Stress axis : x y z
#
# Youngs Moduli (GPa) = 126.48218 55.31100 86.55060
#
# Poissons Ratio (x) = 0.13875 0.24681
# Poissons Ratio (y) = 0.31730 0.33873
# Poissons Ratio (z) = 0.36069 0.21647
#
# Static dielectric constant tensor:
#      x y z
#    x 4.176020 0.040090 -0.161820 
#    y 0.040090 3.976560 0.222850 
#    z -0.161820 0.222850 3.844110 
# 
# 
# High freq. dielectric constant tensor:
#      x y z
#    x 1.848840 0.005700 -0.003470 
#    y 0.005700 1.855290 0.009710 
#    z -0.003470 0.009710 1.837140 
# 
# From -- ./inp_files/39447.got.cif
#   From: 2010.06.25/outbox.cif.g09.slc.cpg/sg2_20_cif.got.tgz:39447.got - 2010.06.27 13:26:56.
