data_PCOD8012357
_publ_section_title
;
Structure prediction by ZEFSAII (Michael W. Deem and Ramdas Pophale) SiO2 
 PCOD8012357
Probable space group: P -1
;
_chemical_formula_sum "Si O2"
_cell_formula_units_Z 16
_cell_length_a 9.045630
_cell_length_b 11.650829
_cell_length_c 9.063390
_cell_angle_alpha 85.170138
_cell_angle_beta 129.470423
_cell_angle_gamma 106.484856
_cell_volume 701.052132
_symmetry_space_group_name_H-M "P -1"
_symmetry_group_IT_number 2
_symmetry_cell_setting 'triclinic'
loop_
_space_group_symop_operation_xyz
x,y,z
-x,-y,-z
loop_
_atom_site_type_symbol
_atom_site_label
_atom_site_fract_x
_atom_site_fract_y
_atom_site_fract_z
Si Si1 0.354539 0.194821 0.876488
Si Si2 0.850806 0.822989 0.567371
Si Si3 0.491478 0.362068 0.482263
Si Si4 0.153917 0.735767 0.210467
Si Si5 0.019396 0.952993 0.181638
Si Si6 0.802481 0.241165 0.091893
Si Si7 0.814465 0.502944 0.122735
Si Si8 0.480736 0.588740 0.825578
O O1 0.236545 0.193118 0.649796
O O2 0.210628 0.094031 0.901015
O O3 0.567724 0.172818 0.979344
O O4 0.405267 0.321279 0.981699
O O5 0.730466 0.712913 0.606047
O O6 0.078558 0.815825 0.708747
O O7 0.849566 0.946491 0.633503
O O8 0.500000 0.500000 0.500000
O O9 0.639987 0.299941 0.665591
O O10 0.539302 0.343124 0.343437
O O11 0.135367 0.850760 0.278423
O O12 0.995532 0.620148 0.193134
O O13 0.120534 0.777581 0.020074
O O14 0.000000 0.000000 0.000000
O O15 0.874721 0.385383 0.135755
O O16 0.738903 0.490753 0.247858
O O17 0.624304 0.504087 0.897874
#
# Coordination Sequence:
#
# PCOD8012357 Si02
#       8
#     2   2   2   2   2   2   2   2
#     4  11  25  49  72 104 143 187 245 294 355 428
#     4  12  26  47  72 105 143 191 240 296 357 421
#     4  12  26  43  74 111 147 185 236 295 365 432
#     4  12  23  44  72 107 142 191 238 295 360 427
#     4  12  26  48  74 100 145 191 241 301 354 420
#     4  11  23  45  73 108 143 185 237 295 363 425
#     4  10  21  39  70 100 142 183 230 287 359 423
#     4  10  22  42  67 103 149 184 223 298 356 423
#
# _framework density 22.822838999999998
#
# number of rings (size 3 to 8) (size 9 to 14) (size 15 to 20)
#    0.000    0.750    3.750    3.750    3.500    3.500 
#    0.000    0.000    0.000    0.000    0.000    0.000 
#    0.000    0.000    0.000    0.000    0.000    0.000 
#
# Total GULP energy -198274.814419 kJ/mol
# GULP energy per Si atom -12392.175901 kJ/mol
# Density = 2.277089 g / cm^3
# Si number density = 22.822839 Si / 1000 Ang^3
#
#
#
# Elastic Constant Matrix: (Units=GPa)
#
#
# Indices 1 2 3 4 5 6 
#
# 1 128.3168 58.9122 59.9820 -6.4956 -2.4926 14.1671
# 2 58.9122 124.2217 33.7209 16.3493 7.0362 -7.4395
# 3 59.9820 33.7209 123.0763 -3.0400 0.2869 -2.4408
# 4 -6.4956 16.3493 -3.0400 24.4091 -4.6583 -5.3319
# 5 -2.4926 7.0362 0.2869 -4.6583 37.4047 -9.8521
# 6 14.1671 -7.4395 -2.4408 -5.3319 -9.8521 52.1488
#
#
#
# Elastic Compliance Matrix: (Units=1/GPa)
#
#
# Indices 1 2 3 4 5 6 
#
# 1 0.013897 -0.006533 -0.004890 0.007021 0.002058 -0.003829
# 2 -0.006533 0.013074 -0.000623 -0.010905 -0.003779 0.001782
# 3 -0.004890 -0.000623 0.010739 0.000930 0.000325 0.001899
# 4 0.007021 -0.010905 0.000930 0.053051 0.010152 0.003922
# 5 0.002058 -0.003779 0.000325 0.010152 0.030342 0.005687
# 6 -0.003829 0.001782 0.001899 0.003922 0.005687 0.022035
#
#
# Mechanical properties :
#
#
# Convention : Reuss Voigt Hill
#
# Bulk Modulus (GPa) = 73.44024 75.64944 74.54484
# Shear Modulus (GPa) = 29.10893 37.65917 33.38405
#
# Velocity S-wave (km/s) = 3.57519 4.06651 3.82874
# Velocity P-wave (km/s) = 7.02075 7.43418 7.23042
#
# Compressibility (1/GPa) = 0.01361651
#
# Stress axis : x y z
#
# Youngs Moduli (GPa) = 71.95943 76.49020 93.12000
#
# Poissons Ratio (x) = 0.49972 0.45536
# Poissons Ratio (y) = 0.47012 0.05803
# Poissons Ratio (z) = 0.35188 0.04767
#
# Static dielectric constant tensor:
#      x y z
#    x 4.589800 0.003150 0.009810 
#    y 0.003150 4.143860 -0.010070 
#    z 0.009810 -0.010070 3.932540 
# 
# 
# High freq. dielectric constant tensor:
#      x y z
#    x 1.922420 0.003030 -0.004330 
#    y 0.003030 1.905410 -0.006380 
#    z -0.004330 -0.006380 1.883790 
# 
# From -- ./inp_files/188063.got.cif
#   From: 2010.06.25/outbox.cif.g09.slc.cpg/sg2_95_cif.got.tgz:188063.got - 2010.06.27 13:26:56.
