data_PCOD8012221
_publ_section_title
;
Structure prediction by ZEFSAII (Michael W. Deem and Ramdas Pophale) SiO2 
 PCOD8012221
Probable space group: P -1
;
_chemical_formula_sum "Si O2"
_cell_formula_units_Z 16
_cell_length_a 13.027091
_cell_length_b 18.876543
_cell_length_c 9.285527
_cell_angle_alpha 124.378045
_cell_angle_beta 137.757983
_cell_angle_gamma 30.112765
_cell_volume 750.454727
_symmetry_space_group_name_H-M "P -1"
_symmetry_group_IT_number 2
_symmetry_cell_setting 'triclinic'
loop_
_space_group_symop_operation_xyz
x,y,z
-x,-y,-z
loop_
_atom_site_type_symbol
_atom_site_label
_atom_site_fract_x
_atom_site_fract_y
_atom_site_fract_z
Si Si1 0.534556 0.365987 0.430790
Si Si2 0.167508 0.936079 0.236065
Si Si3 0.377212 0.125435 0.915196
Si Si4 0.896390 0.343910 0.849736
Si Si5 0.732152 0.915216 0.539798
Si Si6 0.541543 0.608981 0.298731
Si Si7 0.854423 0.356492 0.143351
Si Si8 0.779317 0.092189 0.263180
O O1 0.817296 0.280125 0.662091
O O2 0.367715 0.490711 0.281671
O O3 0.381827 0.420877 0.486714
O O4 0.577421 0.259007 0.268755
O O5 0.281574 0.980264 0.408554
O O6 0.936887 0.024044 0.204812
O O7 0.399599 0.762089 0.286659
O O8 0.000000 0.000000 0.000000
O O9 0.277787 0.137448 0.672941
O O10 0.129280 0.273905 0.913440
O O11 0.607841 0.085702 0.082516
O O12 0.500000 0.000000 0.000000
O O13 0.981597 0.322483 0.080638
O O14 0.982300 0.777794 0.734684
O O15 0.500000 0.000000 0.500000
O O16 0.783473 0.478420 0.293293
O O17 0.382865 0.593924 0.095244
O O18 0.000000 0.000000 0.500000
#
# Coordination Sequence:
#
# PCOD8012221 Si02
#       8
#     2   2   2   2   2   2   2   2
#     4  10  21  40  69  95 137 174 226 270 334 400
#     4  12  24  40  69 101 134 173 229 275 331 399
#     4  12  26  42  67  96 137 175 222 278 342 394
#     4  10  22  41  68 102 133 177 219 274 336 403
#     4  12  25  44  68  98 139 178 217 275 347 403
#     4  10  21  39  67  98 133 174 224 278 319 398
#     4  10  22  41  66  99 134 175 224 268 334 398
#     4  12  25  43  68  99 128 173 226 282 332 405
#
# _framework density 21.320405999999998
#
# number of rings (size 3 to 8) (size 9 to 14) (size 15 to 20)
#    0.000    1.000    2.500    4.500    3.500    2.500 
#    0.000    0.625    0.000    0.000    0.000    0.000 
#    0.000    0.000    0.000    0.000    0.000    0.000 
#
# Total GULP energy -198228.148848 kJ/mol
# GULP energy per Si atom -12389.259303 kJ/mol
# Density = 2.127188 g / cm^3
# Si number density = 21.320406 Si / 1000 Ang^3
#
#
#
# Elastic Constant Matrix: (Units=GPa)
#
#
# Indices 1 2 3 4 5 6 
#
# 1 140.5507 50.1945 39.1187 11.9420 0.2438 -7.6032
# 2 50.1945 107.7652 26.8893 22.9560 -8.0114 2.7535
# 3 39.1187 26.8893 70.3060 -0.6795 -7.1616 9.3578
# 4 11.9420 22.9560 -0.6795 26.5796 7.1121 -3.3228
# 5 0.2438 -8.0114 -7.1616 7.1121 41.8088 -2.0893
# 6 -7.6032 2.7535 9.3578 -3.3228 -2.0893 39.5639
#
#
#
# Elastic Compliance Matrix: (Units=1/GPa)
#
#
# Indices 1 2 3 4 5 6 
#
# 1 0.009902 -0.003399 -0.004758 -0.000921 -0.001211 0.003124
# 2 -0.003399 0.014722 -0.003184 -0.012656 0.004360 -0.001757
# 3 -0.004758 -0.003184 0.018930 0.004330 0.001688 -0.004717
# 4 -0.000921 -0.012656 0.004330 0.052300 -0.010399 0.003523
# 5 -0.001211 0.004360 0.001688 -0.010399 0.026799 -0.000394
# 6 0.003124 -0.001757 -0.004717 0.003523 -0.000394 0.027389
#
#
# Mechanical properties :
#
#
# Convention : Reuss Voigt Hill
#
# Bulk Modulus (GPa) = 47.90724 61.22520 54.56622
# Shear Modulus (GPa) = 27.82711 35.08510 31.45610
#
# Velocity S-wave (km/s) = 3.61666 4.06101 3.84526
# Velocity P-wave (km/s) = 6.32133 7.12518 6.73526
#
# Compressibility (1/GPa) = 0.02087367
#
# Stress axis : x y z
#
# Youngs Moduli (GPa) = 100.98803 67.92638 52.82601
#
# Poissons Ratio (x) = 0.23087 0.25133
# Poissons Ratio (y) = 0.34324 0.16818
# Poissons Ratio (z) = 0.48047 0.21625
#
# Static dielectric constant tensor:
#      x y z
#    x 4.492020 -0.184710 -0.146810 
#    y -0.184710 4.148330 0.113920 
#    z -0.146810 0.113920 4.024930 
# 
# 
# High freq. dielectric constant tensor:
#      x y z
#    x 1.839850 -0.002640 -0.024160 
#    y -0.002640 1.843160 0.005000 
#    z -0.024160 0.005000 1.837550 
# 
# From -- ./inp_files/209288.got.cif
#   From: 2010.06.25/outbox.cif.g09.slc.cpg/sg2_105_cif.got.tgz:209288.got - 2010.06.27 13:26:56.
