data_PCOD8012984
_publ_section_title
;
Structure prediction by ZEFSAII (Michael W. Deem and Ramdas Pophale) SiO2 
 PCOD8012984
Probable space group: P -1
;
_chemical_formula_sum "Si O2"
_cell_formula_units_Z 16
_cell_length_a 13.860956
_cell_length_b 8.332437
_cell_length_c 11.443447
_cell_angle_alpha 88.530557
_cell_angle_beta 75.664630
_cell_angle_gamma 143.904682
_cell_volume 692.901027
_symmetry_space_group_name_H-M "P -1"
_symmetry_group_IT_number 2
_symmetry_cell_setting 'triclinic'
loop_
_space_group_symop_operation_xyz
x,y,z
-x,-y,-z
loop_
_atom_site_type_symbol
_atom_site_label
_atom_site_fract_x
_atom_site_fract_y
_atom_site_fract_z
Si Si1 0.432780 0.087699 0.022074
Si Si2 0.806567 0.761663 0.908286
Si Si3 0.131833 0.609159 0.305308
Si Si4 0.740532 0.170190 0.156592
Si Si5 0.840532 0.731101 0.640024
Si Si6 0.442257 0.745628 0.432559
Si Si7 0.023367 0.790274 0.969802
Si Si8 0.742394 0.175815 0.488669
O O1 0.251134 0.846426 0.161207
O O2 0.598646 0.426834 0.008722
O O3 0.500000 0.000000 0.000000
O O4 0.383469 0.069074 0.906128
O O5 0.831834 0.825142 0.759378
O O6 0.963527 0.848888 0.898725
O O7 0.844292 0.973251 0.967677
O O8 0.151127 0.443154 0.317444
O O9 0.209876 0.804735 0.393406
O O10 0.919218 0.370068 0.352472
O O11 0.840479 0.469302 0.086471
O O12 0.615366 0.054011 0.303832
O O13 0.881957 0.216344 0.140199
O O14 0.660309 0.519295 0.616316
O O15 0.000000 0.000000 0.500000
O O16 0.299210 0.689826 0.513419
O O17 0.554415 0.826161 0.509905
#
# Coordination Sequence:
#
# PCOD8012984 Si02
#       8
#     2   2   2   2   2   2   2   2
#     4  12  20  39  72  95 130 174 213 267 330 395
#     4  11  23  45  63  98 137 171 218 270 333 393
#     4  10  21  40  64  96 127 172 220 264 327 394
#     4  11  22  41  69  99 129 171 218 271 330 394
#     4  11  23  42  63  87 132 182 213 266 335 387
#     4  10  21  40  65  90 124 168 222 266 317 387
#     4  10  25  39  65 103 131 170 215 277 332 387
#     4   9  21  38  61  93 124 159 219 273 303 387
#
# _framework density 23.091322000000002
#
# number of rings (size 3 to 8) (size 9 to 14) (size 15 to 20)
#    0.000    1.500    3.750    0.750    5.250    3.500 
#    4.500    0.625    0.000    0.000    0.000    0.000 
#    0.000    0.000    0.000    0.000    0.000    0.000 
#
# Total GULP energy -198263.939929 kJ/mol
# GULP energy per Si atom -12391.496246 kJ/mol
# Density = 2.303876 g / cm^3
# Si number density = 23.091322 Si / 1000 Ang^3
#
#
#
# Elastic Constant Matrix: (Units=GPa)
#
#
# Indices 1 2 3 4 5 6 
#
# 1 46.9109 5.5687 3.1168 -0.9904 -11.9171 10.8352
# 2 5.5687 132.2196 18.0741 13.9330 -1.3152 12.9522
# 3 3.1168 18.0741 82.9182 -4.3271 -15.7898 -10.4722
# 4 -0.9904 13.9330 -4.3271 33.7039 3.6579 -5.1652
# 5 -11.9171 -1.3152 -15.7898 3.6579 26.1650 -3.2825
# 6 10.8352 12.9522 -10.4722 -5.1652 -3.2825 27.1254
#
#
#
# Elastic Compliance Matrix: (Units=1/GPa)
#
#
# Indices 1 2 3 4 5 6 
#
# 1 0.026289 0.000219 -0.000314 -0.002038 0.010851 -0.009802
# 2 0.000219 0.009252 -0.003512 -0.005163 -0.001718 -0.007052
# 3 -0.000314 -0.003512 0.016259 0.003966 0.010201 0.010069
# 4 -0.002038 -0.005163 0.003966 0.034186 -0.002187 0.011056
# 5 0.010851 -0.001718 0.010201 -0.002187 0.050301 0.006095
# 6 -0.009802 -0.007052 0.010069 0.011056 0.006095 0.050878
#
#
# Mechanical properties :
#
#
# Convention : Reuss Voigt Hill
#
# Bulk Modulus (GPa) = 22.42914 35.06312 28.74613
# Shear Modulus (GPa) = 23.89588 33.08480 28.49034
#
# Velocity S-wave (km/s) = 3.22039 3.78932 3.51638
# Velocity P-wave (km/s) = 4.85409 5.86197 5.38168
#
# Compressibility (1/GPa) = 0.04458486
#
# Stress axis : x y z
#
# Youngs Moduli (GPa) = 38.03833 108.08586 61.50614
#
# Poissons Ratio (x) = -0.02362 0.01930
# Poissons Ratio (y) = -0.00831 0.21602
# Poissons Ratio (z) = 0.01194 0.37961
#
# Static dielectric constant tensor:
#      x y z
#    x 3.908380 0.479150 -0.263470 
#    y 0.479150 4.708160 0.128710 
#    z -0.263470 0.128710 4.391630 
# 
# 
# High freq. dielectric constant tensor:
#      x y z
#    x 1.890090 0.034950 -0.014700 
#    y 0.034950 1.923920 0.022750 
#    z -0.014700 0.022750 1.911640 
# 
# From -- ./inp_files/447513.got.cif
#   From: 2010.06.25/outbox.cif.g09.slc.cpg/sg2_224_cif.got.tgz:447513.got - 2010.06.27 13:26:56.
