data_PCOD8012024
_publ_section_title
;
Structure prediction by ZEFSAII (Michael W. Deem and Ramdas Pophale) SiO2 
 PCOD8012024
Probable space group: P -1
;
_chemical_formula_sum "Si O2"
_cell_formula_units_Z 16
_cell_length_a 31.613223
_cell_length_b 5.046962
_cell_length_c 9.598866
_cell_angle_alpha 80.204588
_cell_angle_beta 30.419987
_cell_angle_gamma 90.444252
_cell_volume 726.610728
_symmetry_space_group_name_H-M "P -1"
_symmetry_group_IT_number 2
_symmetry_cell_setting 'triclinic'
loop_
_space_group_symop_operation_xyz
x,y,z
-x,-y,-z
loop_
_atom_site_type_symbol
_atom_site_label
_atom_site_fract_x
_atom_site_fract_y
_atom_site_fract_z
Si Si1 0.763445 0.449887 0.460149
Si Si2 0.799991 0.053622 0.186126
Si Si3 0.407558 0.224868 0.672861
Si Si4 0.986222 0.100397 0.683479
Si Si5 0.933284 0.653625 0.117394
Si Si6 0.242078 0.914281 0.013031
Si Si7 0.858231 0.702541 0.605433
Si Si8 0.601068 0.346806 0.118678
O O1 0.792679 0.727551 0.256448
O O2 0.840614 0.435659 0.347485
O O3 0.742972 0.173791 0.444788
O O4 0.676878 0.469207 0.780994
O O5 0.903662 0.222387 0.902252
O O6 0.767921 0.095999 0.121762
O O7 0.507399 0.354408 0.321341
O O8 0.378351 0.465564 0.815581
O O9 0.403264 0.975016 0.815242
O O10 0.342366 0.098467 0.742193
O O11 0.072732 0.344652 0.470165
O O12 0.000000 0.000000 0.500000
O O13 0.976034 0.856992 0.850622
O O14 0.906642 0.813387 0.311025
O O15 0.000000 0.500000 0.000000
O O16 0.219047 0.594807 0.165065
O O17 0.177481 0.051168 0.262003
#
# Coordination Sequence:
#
# PCOD8012024 Si02
#       8
#     2   2   2   2   2   2   2   2
#     4  11  23  42  63  90 129 170 211 259 329 377
#     4  11  25  41  61  90 126 172 216 259 308 404
#     4  10  21  39  65  98 125 157 206 268 315 389
#     4  11  24  44  63  91 132 176 217 265 327 387
#     4  11  24  41  64  97 128 165 223 277 317 378
#     4  12  24  41  65  93 128 164 217 261 326 371
#     4  12  25  41  67  92 128 170 219 269 320 376
#     4  10  21  40  67  94 125 162 206 256 333 381
#
# _framework density 22.020045
#
# number of rings (size 3 to 8) (size 9 to 14) (size 15 to 20)
#    0.000    1.000    1.250    5.625    1.750    5.500 
#    0.000    1.250    0.000    0.000    0.000    0.000 
#    0.000    0.000    0.000    0.000    0.000    0.000 
#
# Total GULP energy -198401.471598 kJ/mol
# GULP energy per Si atom -12400.091975 kJ/mol
# Density = 2.196993 g / cm^3
# Si number density = 22.020045 Si / 1000 Ang^3
#
#
#
# Elastic Constant Matrix: (Units=GPa)
#
#
# Indices 1 2 3 4 5 6 
#
# 1 132.2115 30.3165 62.0027 8.5259 2.0875 12.7790
# 2 30.3165 87.1113 27.6564 13.4664 3.7039 12.5802
# 3 62.0027 27.6564 115.6592 21.7380 -4.8473 11.3398
# 4 8.5259 13.4664 21.7380 33.2655 7.5071 0.7157
# 5 2.0875 3.7039 -4.8473 7.5071 37.9588 -1.5622
# 6 12.7790 12.5802 11.3398 0.7157 -1.5622 32.0687
#
#
#
# Elastic Compliance Matrix: (Units=1/GPa)
#
#
# Indices 1 2 3 4 5 6 
#
# 1 0.010663 -0.001969 -0.005541 0.002077 -0.001580 -0.001641
# 2 -0.001969 0.013780 -0.001089 -0.004106 -0.000735 -0.004180
# 3 -0.005541 -0.001089 0.013690 -0.007866 0.003639 -0.001853
# 4 0.002077 -0.004106 -0.007866 0.038124 -0.008162 0.002316
# 5 -0.001580 -0.000735 0.003639 -0.008162 0.028632 0.001208
# 6 -0.001641 -0.004180 -0.001853 0.002316 0.001208 0.034139
#
#
# Mechanical properties :
#
#
# Convention : Reuss Voigt Hill
#
# Bulk Modulus (GPa) = 47.76631 63.88146 55.82389
# Shear Modulus (GPa) = 30.63649 34.99237 32.81443
#
# Velocity S-wave (km/s) = 3.73406 3.99069 3.86451
# Velocity P-wave (km/s) = 6.35061 7.09280 6.73194
#
# Compressibility (1/GPa) = 0.02093526
#
# Stress axis : x y z
#
# Youngs Moduli (GPa) = 93.77853 72.56784 73.04779
#
# Poissons Ratio (x) = 0.14287 0.40479
# Poissons Ratio (y) = 0.18462 0.07954
# Poissons Ratio (z) = 0.51967 0.07902
#
# Static dielectric constant tensor:
#      x y z
#    x 4.140470 0.182990 -0.243250 
#    y 0.182990 3.859260 0.007340 
#    z -0.243250 0.007340 4.128120 
# 
# 
# High freq. dielectric constant tensor:
#      x y z
#    x 1.864720 0.011250 -0.008770 
#    y 0.011250 1.870110 0.007510 
#    z -0.008770 0.007510 1.863830 
# 
# From -- ./inp_files/110706.got.cif
#   From: 2010.06.25/outbox.cif.g09.slc.cpg/sg2_56_cif.got.tgz:110706.got - 2010.06.27 13:26:56.
