data_PCOD8012588
_publ_section_title
;
Structure prediction by ZEFSAII (Michael W. Deem and Ramdas Pophale) SiO2 
 PCOD8012588
Probable space group: P -1
;
_chemical_formula_sum "Si O2"
_cell_formula_units_Z 16
_cell_length_a 17.865377
_cell_length_b 8.984180
_cell_length_c 7.763299
_cell_angle_alpha 126.057657
_cell_angle_beta 61.782930
_cell_angle_gamma 129.948807
_cell_volume 763.144691
_symmetry_space_group_name_H-M "P -1"
_symmetry_group_IT_number 2
_symmetry_cell_setting 'triclinic'
loop_
_space_group_symop_operation_xyz
x,y,z
-x,-y,-z
loop_
_atom_site_type_symbol
_atom_site_label
_atom_site_fract_x
_atom_site_fract_y
_atom_site_fract_z
Si Si1 0.935906 0.662748 0.525850
Si Si2 0.936852 0.609480 0.116546
Si Si3 0.425014 0.916283 0.182836
Si Si4 0.452693 0.627952 0.557107
Si Si5 0.794260 0.754484 0.958970
Si Si6 0.932710 0.227198 0.226211
Si Si7 0.412724 0.538475 0.155868
Si Si8 0.266790 0.583830 0.929327
O O1 0.955630 0.751439 0.366595
O O2 0.850510 0.697425 0.715040
O O3 0.903555 0.410801 0.379583
O O4 0.032127 0.786483 0.627766
O O5 0.818906 0.430442 0.110831
O O6 0.000000 0.500000 0.000000
O O7 0.979328 0.738373 0.978588
O O8 0.438044 0.757494 0.185136
O O9 0.453675 0.130320 0.403311
O O10 0.310973 0.790474 0.150824
O O11 0.500000 0.000000 0.000000
O O12 0.500000 0.500000 0.500000
O O13 0.400266 0.543597 0.375732
O O14 0.364111 0.606507 0.754287
O O15 0.684738 0.666374 0.949263
O O16 0.791423 0.640162 0.061240
O O17 0.838704 0.003772 0.121087
O O18 0.500000 0.500000 0.000000
#
# Coordination Sequence:
#
# PCOD8012588 Si02
#       8
#     2   2   2   2   2   2   2   2
#     4  10  21  40  65  89 126 167 216 257 325 378
#     4  10  21  40  61  94 128 167 215 268 317 390
#     4   9  20  40  66  89 122 168 206 268 331 382
#     4  11  22  43  64  96 129 168 217 270 332 399
#     4  11  22  42  65  92 127 169 213 269 324 386
#     4  10  22  42  62  91 128 166 211 267 315 383
#     4  11  23  43  63  94 129 166 218 271 328 400
#     4  10  21  40  63  91 127 162 211 267 323 386
#
# _framework density 20.965879999999999
#
# number of rings (size 3 to 8) (size 9 to 14) (size 15 to 20)
#    0.000    1.750    1.250    3.750    0.000    0.500 
#   27.000    0.000    0.000    0.000    0.000    0.000 
#    0.000    0.000    0.000    0.000    0.000    0.000 
#
# Total GULP energy -198246.312932 kJ/mol
# GULP energy per Si atom -12390.394558 kJ/mol
# Density = 2.091816 g / cm^3
# Si number density = 20.965880 Si / 1000 Ang^3
#
#
#
# Elastic Constant Matrix: (Units=GPa)
#
#
# Indices 1 2 3 4 5 6 
#
# 1 144.4120 43.5315 47.2849 13.8135 10.6612 17.0013
# 2 43.5315 95.2801 43.2189 25.3672 11.1422 13.3542
# 3 47.2849 43.2189 105.5021 9.6469 11.6780 8.0363
# 4 13.8135 25.3672 9.6469 38.3461 -2.2277 9.4023
# 5 10.6612 11.1422 11.6780 -2.2277 39.3709 -7.2363
# 6 17.0013 13.3542 8.0363 9.4023 -7.2363 28.5391
#
#
#
# Elastic Compliance Matrix: (Units=1/GPa)
#
#
# Indices 1 2 3 4 5 6 
#
# 1 0.009065 -0.002052 -0.002679 -0.000351 -0.001841 -0.004037
# 2 -0.002052 0.016673 -0.004419 -0.008545 -0.003984 -0.003530
# 3 -0.002679 -0.004419 0.012674 0.000744 -0.001855 -0.000621
# 4 -0.000351 -0.008545 0.000744 0.033373 0.003036 -0.006227
# 5 -0.001841 -0.003984 -0.001855 0.003036 0.029583 0.009984
# 6 -0.004037 -0.003530 -0.000621 -0.006227 0.009984 0.043854
#
#
# Mechanical properties :
#
#
# Convention : Reuss Voigt Hill
#
# Bulk Modulus (GPa) = 49.72095 68.14054 58.93075
# Shear Modulus (GPa) = 29.37255 35.32846 32.35051
#
# Velocity S-wave (km/s) = 3.74701 4.10938 3.93237
# Velocity P-wave (km/s) = 6.51819 7.42208 6.98477
#
# Compressibility (1/GPa) = 0.02011225
#
# Stress axis : x y z
#
# Youngs Moduli (GPa) = 110.31326 59.97699 78.90135
#
# Poissons Ratio (x) = 0.12306 0.21137
# Poissons Ratio (y) = 0.22634 0.34868
# Poissons Ratio (z) = 0.29552 0.26505
#
# Static dielectric constant tensor:
#      x y z
#    x 3.816860 -0.078990 0.221360 
#    y -0.078990 4.019120 -0.255820 
#    z 0.221360 -0.255820 4.043350 
# 
# 
# High freq. dielectric constant tensor:
#      x y z
#    x 1.830200 0.003820 0.018950 
#    y 0.003820 1.811330 -0.004960 
#    z 0.018950 -0.004960 1.825910 
# 
# From -- ./inp_files/327994.got.cif
#   From: 2010.06.25/outbox.cif.g09.slc.cpg/sg2_164_cif.got.tgz:327994.got - 2010.06.27 13:26:56.
