data_PCOD8012657
_publ_section_title
;
Structure prediction by ZEFSAII (Michael W. Deem and Ramdas Pophale) SiO2 
 PCOD8012657
Probable space group: P -1
;
_chemical_formula_sum "Si O2"
_cell_formula_units_Z 16
_cell_length_a 10.021745
_cell_length_b 8.872056
_cell_length_c 21.466112
_cell_angle_alpha 65.712026
_cell_angle_beta 132.588172
_cell_angle_gamma 75.204874
_cell_volume 776.427580
_symmetry_space_group_name_H-M "P -1"
_symmetry_group_IT_number 2
_symmetry_cell_setting 'triclinic'
loop_
_space_group_symop_operation_xyz
x,y,z
-x,-y,-z
loop_
_atom_site_type_symbol
_atom_site_label
_atom_site_fract_x
_atom_site_fract_y
_atom_site_fract_z
Si Si1 0.048766 0.368877 0.412355
Si Si2 0.583374 0.421641 0.968983
Si Si3 0.123741 0.121773 0.859618
Si Si4 0.502911 0.972335 0.108913
Si Si5 0.580170 0.621145 0.529146
Si Si6 0.938715 0.912853 0.632075
Si Si7 0.316187 0.321495 0.104858
Si Si8 0.890652 0.946610 0.423925
O O1 0.263694 0.375096 0.474598
O O2 0.181605 0.130825 0.449313
O O3 0.029052 0.298763 0.487044
O O4 0.714916 0.660421 0.238431
O O5 0.736850 0.476954 0.985798
O O6 0.271364 0.608972 0.804185
O O7 0.500000 0.500000 0.000000
O O8 0.842822 0.100060 0.091372
O O9 0.798015 0.430955 0.689157
O O10 0.347305 0.006308 0.893973
O O11 0.202620 0.132563 0.951439
O O12 0.443823 0.089174 0.138349
O O13 0.500000 0.500000 0.500000
O O14 0.281786 0.930699 0.405257
O O15 0.947036 0.099984 0.579230
O O16 0.536938 0.197266 0.253979
O O17 0.000000 0.500000 0.000000
O O18 0.000000 0.000000 0.500000
#
# Coordination Sequence:
#
# PCOD8012657 Si02
#       8
#     2   2   2   2   2   2   2   2
#     4  10  21  41  65  85 122 170 213 249 320 380
#     4  11  20  38  67  89 121 169 211 254 322 381
#     4  10  21  40  63  92 127 164 204 265 320 373
#     4  10  21  40  64  94 122 162 214 261 316 381
#     4  11  24  37  59  99 131 154 212 272 310 369
#     4  10  21  40  62  91 121 163 215 257 310 381
#     4  11  25  41  63  95 132 163 216 269 314 383
#     4   9  22  42  65  87 124 171 213 255 318 384
#
# _framework density 20.607202999999998
#
# number of rings (size 3 to 8) (size 9 to 14) (size 15 to 20)
#    0.000    1.750    2.500    1.125    5.250    4.500 
#    2.250    0.625    0.000    0.000    0.000    0.000 
#    0.000    0.000    0.000    0.000    0.000    0.000 
#
# Total GULP energy -198264.321962 kJ/mol
# GULP energy per Si atom -12391.520123 kJ/mol
# Density = 2.056030 g / cm^3
# Si number density = 20.607203 Si / 1000 Ang^3
#
#
#
# Elastic Constant Matrix: (Units=GPa)
#
#
# Indices 1 2 3 4 5 6 
#
# 1 104.5547 31.4808 47.8156 1.9803 -9.9176 23.6947
# 2 31.4808 91.1261 22.9903 2.9252 2.5250 11.1219
# 3 47.8156 22.9903 76.4289 8.4211 -2.1666 10.3782
# 4 1.9803 2.9252 8.4211 37.4707 5.0894 -2.8687
# 5 -9.9176 2.5250 -2.1666 5.0894 36.0987 -6.2622
# 6 23.6947 11.1219 10.3782 -2.8687 -6.2622 34.0569
#
#
#
# Elastic Compliance Matrix: (Units=1/GPa)
#
#
# Indices 1 2 3 4 5 6 
#
# 1 0.016010 -0.002670 -0.008180 0.000266 0.002801 -0.007237
# 2 -0.002670 0.012698 -0.001886 -0.000309 -0.002059 -0.002119
# 3 -0.008180 -0.001886 0.019148 -0.003658 -0.000436 0.000084
# 4 0.000266 -0.000309 -0.003658 0.028222 -0.003628 0.002741
# 5 0.002801 -0.002059 -0.000436 -0.003628 0.029800 0.004030
# 6 -0.007237 -0.002119 0.000084 0.002741 0.004030 0.036036
#
#
# Mechanical properties :
#
#
# Convention : Reuss Voigt Hill
#
# Bulk Modulus (GPa) = 44.67500 52.96479 48.81990
# Shear Modulus (GPa) = 28.59637 32.84680 30.72159
#
# Velocity S-wave (km/s) = 3.72921 3.99676 3.86530
# Velocity P-wave (km/s) = 6.34579 6.85978 6.60779
#
# Compressibility (1/GPa) = 0.02238388
#
# Stress axis : x y z
#
# Youngs Moduli (GPa) = 62.46072 78.75557 52.22361
#
# Poissons Ratio (x) = 0.21028 0.42721
# Poissons Ratio (y) = 0.16677 0.09848
# Poissons Ratio (z) = 0.51095 0.14851
#
# Static dielectric constant tensor:
#      x y z
#    x 3.999940 0.280590 -0.426010 
#    y 0.280590 3.604620 0.068900 
#    z -0.426010 0.068900 4.198710 
# 
# 
# High freq. dielectric constant tensor:
#      x y z
#    x 1.797700 0.019750 -0.014480 
#    y 0.019750 1.799190 0.007730 
#    z -0.014480 0.007730 1.807470 
# 
# From -- ./inp_files/258221.got.cif
#   From: 2010.06.25/outbox.cif.g09.slc.cpg/sg2_130_cif.got.tgz:258221.got - 2010.06.27 13:26:56.
