data_PCOD8012488
_publ_section_title
;
Structure prediction by ZEFSAII (Michael W. Deem and Ramdas Pophale) SiO2 
 PCOD8012488
Probable space group: P -1
;
_chemical_formula_sum "Si O2"
_cell_formula_units_Z 16
_cell_length_a 9.689687
_cell_length_b 16.653313
_cell_length_c 13.453093
_cell_angle_alpha 23.340060
_cell_angle_beta 80.146880
_cell_angle_gamma 69.030066
_cell_volume 726.718707
_symmetry_space_group_name_H-M "P -1"
_symmetry_group_IT_number 2
_symmetry_cell_setting 'triclinic'
loop_
_space_group_symop_operation_xyz
x,y,z
-x,-y,-z
loop_
_atom_site_type_symbol
_atom_site_label
_atom_site_fract_x
_atom_site_fract_y
_atom_site_fract_z
Si Si1 0.986151 0.086006 0.147014
Si Si2 0.488724 0.182821 0.519071
Si Si3 0.121829 0.159856 0.864154
Si Si4 0.785260 0.259071 0.790526
Si Si5 0.758677 0.296743 0.329199
Si Si6 0.241101 0.682541 0.918285
Si Si7 0.616225 0.749485 0.319679
Si Si8 0.490994 0.834031 0.772142
O O1 0.109467 0.142978 0.005039
O O2 0.087861 0.819224 0.481745
O O3 0.905858 0.260990 0.052247
O O4 0.841840 0.126064 0.042855
O O5 0.665466 0.153163 0.520866
O O6 0.428239 0.242436 0.570817
O O7 0.486571 0.951492 0.745803
O O8 0.368064 0.403383 0.214214
O O9 0.252557 0.895324 0.105226
O O10 0.194546 0.320585 0.638735
O O11 0.943118 0.261380 0.721326
O O12 0.624717 0.521342 0.525426
O O13 0.826868 0.244112 0.268112
O O14 0.649396 0.573316 0.050383
O O15 0.329418 0.821880 0.787219
O O16 0.500000 0.000000 0.000000
O O17 0.500000 0.000000 0.500000
#
# Coordination Sequence:
#
# PCOD8012488 Si02
#       8
#     2   2   2   2   2   2   2   2
#     4  10  21  40  60  87 118 158 192 237 292 342
#     4  11  22  39  60  88 116 158 192 235 297 342
#     4   9  21  41  62  82 119 157 193 236 289 343
#     4   9  21  41  60  79 123 153 194 232 294 336
#     4  11  22  38  61  86 121 152 194 241 289 343
#     4  11  21  39  64  83 117 157 193 239 290 347
#     4  12  24  37  62  93 116 149 198 242 287 345
#     4  11  21  39  62  83 118 154 195 238 290 344
#
# _framework density 22.016772
#
# number of rings (size 3 to 8) (size 9 to 14) (size 15 to 20)
#    0.750    0.750    3.750    2.250    1.750    1.500 
#    0.000    1.875    0.000    0.000    0.000    0.000 
#    0.000    0.000    0.000    0.000    0.000    0.000 
#
# Total GULP energy -198253.745590 kJ/mol
# GULP energy per Si atom -12390.859099 kJ/mol
# Density = 2.196666 g / cm^3
# Si number density = 22.016772 Si / 1000 Ang^3
#
#
#
# Elastic Constant Matrix: (Units=GPa)
#
#
# Indices 1 2 3 4 5 6 
#
# 1 22.3895 18.0079 23.9532 -2.6154 -2.1429 0.3184
# 2 18.0079 143.7234 37.0068 -8.5216 -14.7098 -12.4084
# 3 23.9532 37.0068 109.2961 -18.4463 9.7743 12.1570
# 4 -2.6154 -8.5216 -18.4463 45.4223 5.5218 -5.5933
# 5 -2.1429 -14.7098 9.7743 5.5218 32.2461 -1.8683
# 6 0.3184 -12.4084 12.1570 -5.5933 -1.8683 18.9311
#
#
#
# Elastic Compliance Matrix: (Units=1/GPa)
#
#
# Indices 1 2 3 4 5 6 
#
# 1 0.063231 -0.002861 -0.014891 -0.003153 0.008328 0.006514
# 2 -0.002861 0.009970 -0.004355 0.000430 0.006191 0.010118
# 3 -0.014891 -0.004355 0.017023 0.004810 -0.009717 -0.013074
# 4 -0.003153 0.000430 0.004810 0.025044 -0.005522 0.004101
# 5 0.008328 0.006191 -0.009717 -0.005522 0.038997 0.012375
# 6 0.006514 0.010118 -0.013074 0.004101 0.012375 0.070174
#
#
# Mechanical properties :
#
#
# Convention : Reuss Voigt Hill
#
# Bulk Modulus (GPa) = 21.73405 48.14943 34.94174
# Shear Modulus (GPa) = 17.60626 32.41598 25.01112
#
# Velocity S-wave (km/s) = 2.83092 3.84126 3.37412
# Velocity P-wave (km/s) = 4.53635 6.44908 5.57535
#
# Compressibility (1/GPa) = 0.04601075
#
# Stress axis : x y z
#
# Youngs Moduli (GPa) = 15.81496 100.29698 58.74559
#
# Poissons Ratio (x) = 0.28692 0.87476
# Poissons Ratio (y) = 0.04524 0.25586
# Poissons Ratio (z) = 0.23550 0.43683
#
# Static dielectric constant tensor:
#      x y z
#    x 3.824930 -0.146120 -0.263060 
#    y -0.146120 4.136130 0.052510 
#    z -0.263060 0.052510 4.610310 
# 
# 
# High freq. dielectric constant tensor:
#      x y z
#    x 1.829680 -0.012230 0.008560 
#    y -0.012230 1.882220 -0.006540 
#    z 0.008560 -0.006540 1.863740 
# 
# From -- ./inp_files/523406.got.cif
#   From: 2010.06.25/outbox.cif.g09.slc.cpg/sg2_262_cif.got.tgz:523406.got - 2010.06.27 13:26:56.
