data_PCOD8012021
_publ_section_title
;
Structure prediction by ZEFSAII (Michael W. Deem and Ramdas Pophale) SiO2 
 PCOD8012021
Probable space group: P -1
;
_chemical_formula_sum "Si O2"
_cell_formula_units_Z 16
_cell_length_a 14.468897
_cell_length_b 9.242342
_cell_length_c 23.217576
_cell_angle_alpha 69.539341
_cell_angle_beta 160.287606
_cell_angle_gamma 121.037537
_cell_volume 792.050221
_symmetry_space_group_name_H-M "P -1"
_symmetry_group_IT_number 2
_symmetry_cell_setting 'triclinic'
loop_
_space_group_symop_operation_xyz
x,y,z
-x,-y,-z
loop_
_atom_site_type_symbol
_atom_site_label
_atom_site_fract_x
_atom_site_fract_y
_atom_site_fract_z
Si Si1 0.738493 0.789260 0.399929
Si Si2 0.801167 0.335154 0.272510
Si Si3 0.740823 0.649564 0.004504
Si Si4 0.663819 0.351036 0.927983
Si Si5 0.270761 0.111709 0.396162
Si Si6 0.067171 0.711434 0.308849
Si Si7 0.341166 0.717390 0.288830
Si Si8 0.409956 0.986108 0.014282
O O1 0.454335 0.651166 0.205605
O O2 0.554037 0.811703 0.342468
O O3 0.921001 0.687728 0.535225
O O4 0.000000 0.000000 0.500000
O O5 0.499892 0.278155 0.149879
O O6 0.960889 0.549348 0.315781
O O7 0.628547 0.200270 0.135245
O O8 0.530529 0.437331 0.882493
O O9 0.808042 0.636871 0.113349
O O10 0.100236 0.783298 0.160455
O O11 0.496358 0.133876 0.877673
O O12 0.078482 0.487612 0.156117
O O13 0.568640 0.215588 0.510861
O O14 0.387394 0.224884 0.509588
O O15 0.990946 0.124705 0.200281
O O16 0.108114 0.887807 0.341349
O O17 0.500000 0.000000 0.000000
#
# Coordination Sequence:
#
# PCOD8012021 Si02
#       8
#     2   2   2   2   2   2   2   2
#     4  12  25  45  65  93 127 176 226 272 314 380
#     4  12  24  40  68  95 133 169 220 264 326 388
#     4   9  21  41  66  95 128 166 208 267 329 384
#     4  10  24  44  67  87 135 171 220 262 325 380
#     4  10  22  38  65  97 133 161 211 263 328 393
#     4  10  21  39  65  97 132 167 202 270 332 387
#     4   9  23  44  66  89 131 174 212 269 328 378
#     4  12  24  37  66 103 129 171 210 266 329 394
#
# _framework density 20.200738999999999
#
# number of rings (size 3 to 8) (size 9 to 14) (size 15 to 20)
#    0.750    0.750    2.500    2.250    3.500    1.000 
#    0.000    0.625    0.000    0.000    0.000    0.000 
#    0.000    0.000    0.000    0.000    0.000    0.000 
#
# Total GULP energy -198256.736591 kJ/mol
# GULP energy per Si atom -12391.046037 kJ/mol
# Density = 2.015476 g / cm^3
# Si number density = 20.200739 Si / 1000 Ang^3
#
#
#
# Elastic Constant Matrix: (Units=GPa)
#
#
# Indices 1 2 3 4 5 6 
#
# 1 92.1511 37.3621 40.8809 -14.0965 4.8281 0.4575
# 2 37.3621 76.0847 37.5991 -5.0029 5.6575 -1.8982
# 3 40.8809 37.5991 97.2957 -10.0817 -18.0514 -5.1402
# 4 -14.0965 -5.0029 -10.0817 31.7364 -5.4465 0.2607
# 5 4.8281 5.6575 -18.0514 -5.4465 35.0677 3.2022
# 6 0.4575 -1.8982 -5.1402 0.2607 3.2022 24.0951
#
#
#
# Elastic Compliance Matrix: (Units=1/GPa)
#
#
# Indices 1 2 3 4 5 6 
#
# 1 0.015849 -0.004812 -0.005044 0.004135 -0.003235 -0.001371
# 2 -0.004812 0.019197 -0.006771 -0.002366 -0.006382 0.001033
# 3 -0.005044 -0.006771 0.017657 0.004238 0.011372 0.001772
# 4 0.004135 -0.002366 0.004238 0.035630 0.007597 -0.000756
# 5 -0.003235 -0.006382 0.011372 0.007597 0.037304 -0.003055
# 6 -0.001371 0.001033 0.001772 -0.000756 -0.003055 0.042402
#
#
# Mechanical properties :
#
#
# Convention : Reuss Voigt Hill
#
# Bulk Modulus (GPa) = 51.41803 55.24619 53.33211
# Shear Modulus (GPa) = 24.06435 28.15914 26.11174
#
# Velocity S-wave (km/s) = 3.45521 3.73764 3.59919
# Velocity P-wave (km/s) = 6.43636 6.78487 6.61291
#
# Compressibility (1/GPa) = 0.01944843
#
# Stress axis : x y z
#
# Youngs Moduli (GPa) = 63.09452 52.09069 56.63584
#
# Poissons Ratio (x) = 0.25067 0.28566
# Poissons Ratio (y) = 0.30362 0.38350
# Poissons Ratio (z) = 0.31824 0.35272
#
# Static dielectric constant tensor:
#      x y z
#    x 3.657880 -0.217580 0.002350 
#    y -0.217580 3.431080 0.123040 
#    z 0.002350 0.123040 3.707400 
# 
# 
# High freq. dielectric constant tensor:
#      x y z
#    x 1.787580 -0.020660 0.005620 
#    y -0.020660 1.762710 0.011210 
#    z 0.005620 0.011210 1.802560 
# 
# From -- ./inp_files/611648.got.cif
#   From: 2010.06.25/outbox.cif.g09.slc.cpg/sg2_306_cif.got.tgz:611648.got - 2010.06.27 13:26:56.
