data_PCOD8012483
_publ_section_title
;
Structure prediction by ZEFSAII (Michael W. Deem and Ramdas Pophale) SiO2 
 PCOD8012483
Probable space group: P -1
;
_chemical_formula_sum "Si O2"
_cell_formula_units_Z 12
_cell_length_a 7.274806
_cell_length_b 8.957770
_cell_length_c 10.858900
_cell_angle_alpha 96.662130
_cell_angle_beta 104.283635
_cell_angle_gamma 122.654619
_cell_volume 549.789315
_symmetry_space_group_name_H-M "P -1"
_symmetry_group_IT_number 2
_symmetry_cell_setting 'triclinic'
loop_
_space_group_symop_operation_xyz
x,y,z
-x,-y,-z
loop_
_atom_site_type_symbol
_atom_site_label
_atom_site_fract_x
_atom_site_fract_y
_atom_site_fract_z
Si Si1 0.129923 0.161640 0.636599
Si Si2 0.884819 0.904952 0.770237
Si Si3 0.643932 0.054989 0.849535
Si Si4 0.881385 0.335104 0.690766
Si Si5 0.518706 0.677733 0.481805
Si Si6 0.833936 0.247530 0.150392
O O1 0.395520 0.287913 0.643452
O O2 0.025961 0.280768 0.632709
O O3 0.000000 0.000000 0.500000
O O4 0.121256 0.086828 0.765494
O O5 0.691157 0.835579 0.623605
O O6 0.943602 0.763150 0.806365
O O7 0.789579 0.964280 0.871480
O O8 0.714662 0.179422 0.750803
O O9 0.364724 0.886240 0.792787
O O10 0.715958 0.186770 0.991453
O O11 0.725090 0.346572 0.563200
O O12 0.067437 0.538855 0.798351
O O13 0.500000 0.500000 0.500000
#
# Coordination Sequence:
#
# PCOD8012483 Si02
#       6
#     2   2   2   2   2   2
#     4   9  22  39  57  87 124 159 195 242 301 358
#     4  10  21  40  60  85 124 158 194 248 302 353
#     4  10  24  41  61  89 121 159 203 250 297 348
#     4  11  23  40  65  88 123 161 198 249 301 359
#     4  11  22  37  59  92 120 152 200 245 299 361
#     4  11  22  40  64  89 118 160 206 246 294 356
#
# _framework density 21.826542
#
# number of rings (size 3 to 8) (size 9 to 14) (size 15 to 20)
#    0.000    1.667    1.667    2.000    2.333    9.333 
#    0.000    0.000    0.000   11.000    0.000    0.000 
#    0.000    0.000    0.000    0.000    0.000    0.000 
#
# Total GULP energy -148739.130089 kJ/mol
# GULP energy per Si atom -12394.927507 kJ/mol
# Density = 2.177686 g / cm^3
# Si number density = 21.826542 Si / 1000 Ang^3
#
#
#
# Elastic Constant Matrix: (Units=GPa)
#
#
# Indices 1 2 3 4 5 6 
#
# 1 97.7205 32.7719 16.8948 17.6895 -10.1316 -24.3045
# 2 32.7719 101.7399 16.4342 20.9611 -11.1872 -11.1757
# 3 16.8948 16.4342 45.2553 12.0398 -5.4020 -2.7519
# 4 17.6895 20.9611 12.0398 20.8055 -6.2144 -1.6836
# 5 -10.1316 -11.1872 -5.4020 -6.2144 32.9383 -1.0478
# 6 -24.3045 -11.1757 -2.7519 -1.6836 -1.0478 43.1202
#
#
#
# Elastic Compliance Matrix: (Units=1/GPa)
#
#
# Indices 1 2 3 4 5 6 
#
# 1 0.014751 -0.001610 -0.001927 -0.008508 0.002308 0.007498
# 2 -0.001610 0.013113 -0.001010 -0.010532 0.001871 0.002061
# 3 -0.001927 -0.001010 0.026612 -0.012430 0.001080 -0.000109
# 4 -0.008508 -0.010532 -0.012430 0.074355 0.005628 -0.005279
# 5 0.002308 0.001871 0.001080 0.005628 0.033036 0.002877
# 6 0.007498 0.002061 -0.000109 -0.005279 0.002877 0.027808
#
#
# Mechanical properties :
#
#
# Convention : Reuss Voigt Hill
#
# Bulk Modulus (GPa) = 22.03557 41.87973 31.95765
# Shear Modulus (GPa) = 23.37583 31.28047 27.32815
#
# Velocity S-wave (km/s) = 3.27614 3.78979 3.54229
# Velocity P-wave (km/s) = 4.94251 6.19509 5.60391
#
# Compressibility (1/GPa) = 0.04538118
#
# Stress axis : x y z
#
# Youngs Moduli (GPa) = 67.79414 76.26208 37.57648
#
# Poissons Ratio (x) = 0.12277 0.07242
# Poissons Ratio (y) = 0.10913 0.03796
# Poissons Ratio (z) = 0.13065 0.07705
#
# Static dielectric constant tensor:
#      x y z
#    x 4.277910 0.332220 -0.259070 
#    y 0.332220 4.374820 0.044790 
#    z -0.259070 0.044790 4.043770 
# 
# 
# High freq. dielectric constant tensor:
#      x y z
#    x 1.870670 -0.003450 -0.014940 
#    y -0.003450 1.863260 -0.000820 
#    z -0.014940 -0.000820 1.834720 
# 
# From -- ./inp_files/19892.got.cif
#   From: 2010.06.25/outbox.cif.g09.slc.cpg/sg2_10_cif.got.tgz:19892.got - 2010.06.27 13:26:56.
