data_PCOD8012157
_publ_section_title
;
Structure prediction by ZEFSAII (Michael W. Deem and Ramdas Pophale) SiO2 
 PCOD8012157
Probable space group: P -1
;
_chemical_formula_sum "Si O2"
_cell_formula_units_Z 16
_cell_length_a 21.954478
_cell_length_b 17.789600
_cell_length_c 12.026796
_cell_angle_alpha 27.854231
_cell_angle_beta 142.912602
_cell_angle_gamma 159.420118
_cell_volume 758.466901
_symmetry_space_group_name_H-M "P -1"
_symmetry_group_IT_number 2
_symmetry_cell_setting 'triclinic'
loop_
_space_group_symop_operation_xyz
x,y,z
-x,-y,-z
loop_
_atom_site_type_symbol
_atom_site_label
_atom_site_fract_x
_atom_site_fract_y
_atom_site_fract_z
Si Si1 0.266812 0.418903 0.035238
Si Si2 0.434079 0.728163 0.205048
Si Si3 0.582416 0.038980 0.680940
Si Si4 0.838678 0.173105 0.211251
Si Si5 0.162769 0.157131 0.458465
Si Si6 0.213055 0.018498 0.377466
Si Si7 0.515887 0.904677 0.325613
Si Si8 0.075304 0.460959 0.582542
O O1 0.159273 0.226789 0.238873
O O2 0.276993 0.287271 0.132053
O O3 0.469448 0.733159 0.950456
O O4 0.170592 0.449546 0.808036
O O5 0.344395 0.446768 0.403762
O O6 0.383364 0.686979 0.315481
O O7 0.646801 0.003715 0.145158
O O8 0.366653 0.790639 0.949379
O O9 0.500000 0.000000 0.500000
O O10 0.583202 0.171791 0.607122
O O11 0.787504 0.270646 0.652113
O O12 0.842712 0.041920 0.294171
O O13 0.873991 0.145888 0.418891
O O14 0.000000 0.500000 0.000000
O O15 0.000000 0.000000 0.500000
O O16 0.371611 0.104790 0.466125
O O17 0.075208 0.826733 0.328184
O O18 0.000000 0.500000 0.500000
#
# Coordination Sequence:
#
# PCOD8012157 Si02
#       8
#     2   2   2   2   2   2   2   2
#     4  10  22  44  61  93 131 164 213 270 314 388
#     4  10  22  40  65  89 134 168 212 268 320 380
#     4  10  21  40  67  90 121 168 213 259 319 381
#     4  10  24  39  63  93 127 168 216 262 324 385
#     4  11  24  39  65  95 132 169 215 264 323 380
#     4  10  22  40  63  88 127 166 206 266 321 376
#     4  10  21  39  67  89 125 168 215 254 325 377
#     4  11  24  41  66  94 124 165 217 265 327 380
#
# _framework density 21.095185000000001
#
# number of rings (size 3 to 8) (size 9 to 14) (size 15 to 20)
#    0.000    1.750    1.250    2.250    7.000    1.000 
#    0.000    6.875    0.000    0.000    0.000    0.000 
#    0.000    0.000    0.000    0.000    0.000    0.000 
#
# Total GULP energy -198305.171605 kJ/mol
# GULP energy per Si atom -12394.073225 kJ/mol
# Density = 2.104717 g / cm^3
# Si number density = 21.095185 Si / 1000 Ang^3
#
#
#
# Elastic Constant Matrix: (Units=GPa)
#
#
# Indices 1 2 3 4 5 6 
#
# 1 184.5954 60.9732 54.2859 -16.9167 16.3459 0.5828
# 2 60.9732 92.4894 42.5129 -16.2942 12.4231 -2.7171
# 3 54.2859 42.5129 93.9777 -14.6872 20.5857 5.6972
# 4 -16.9167 -16.2942 -14.6872 33.4879 -6.1365 1.7484
# 5 16.3459 12.4231 20.5857 -6.1365 42.5215 -4.7562
# 6 0.5828 -2.7171 5.6972 1.7484 -4.7562 35.6407
#
#
#
# Elastic Compliance Matrix: (Units=1/GPa)
#
#
# Indices 1 2 3 4 5 6 
#
# 1 0.007435 -0.003568 -0.002422 0.000867 -0.000532 -0.000120
# 2 -0.003568 0.016071 -0.004650 0.003826 -0.000320 0.001797
# 3 -0.002422 -0.004650 0.015995 0.002720 -0.005480 -0.003736
# 4 0.000867 0.003826 0.002720 0.033789 0.001934 -0.001557
# 5 -0.000532 -0.000320 -0.005480 0.001934 0.027239 0.004400
# 6 -0.000120 0.001797 -0.003736 -0.001557 0.004400 0.029458
#
#
# Mechanical properties :
#
#
# Convention : Reuss Voigt Hill
#
# Bulk Modulus (GPa) = 54.87872 76.28962 65.58417
# Shear Modulus (GPa) = 31.77817 36.54940 34.16378
#
# Velocity S-wave (km/s) = 3.88547 4.16696 4.02867
# Velocity P-wave (km/s) = 6.79709 7.70678 7.26618
#
# Compressibility (1/GPa) = 0.01822200
#
# Stress axis : x y z
#
# Youngs Moduli (GPa) = 134.50488 62.22304 62.51856
#
# Poissons Ratio (x) = 0.22199 0.15139
# Poissons Ratio (y) = 0.47987 0.29074
# Poissons Ratio (z) = 0.32571 0.28936
#
# Static dielectric constant tensor:
#      x y z
#    x 4.194650 -0.165840 0.105350 
#    y -0.165840 3.855100 -0.191960 
#    z 0.105350 -0.191960 3.933190 
# 
# 
# High freq. dielectric constant tensor:
#      x y z
#    x 1.849800 -0.015510 0.007470 
#    y -0.015510 1.813670 -0.001970 
#    z 0.007470 -0.001970 1.816530 
# 
# From -- ./inp_files/472342.got.cif
#   From: 2010.06.25/outbox.cif.g09.slc.cpg/sg2_237_cif.got.tgz:472342.got - 2010.06.27 13:26:56.
