data_PCOD8012460
_publ_section_title
;
Structure prediction by ZEFSAII (Michael W. Deem and Ramdas Pophale) SiO2 
 PCOD8012460
Probable space group: P -1
;
_chemical_formula_sum "Si O2"
_cell_formula_units_Z 16
_cell_length_a 14.745764
_cell_length_b 15.345379
_cell_length_c 7.702758
_cell_angle_alpha 66.640876
_cell_angle_beta 86.636007
_cell_angle_gamma 141.684392
_cell_volume 754.190758
_symmetry_space_group_name_H-M "P -1"
_symmetry_group_IT_number 2
_symmetry_cell_setting 'triclinic'
loop_
_space_group_symop_operation_xyz
x,y,z
-x,-y,-z
loop_
_atom_site_type_symbol
_atom_site_label
_atom_site_fract_x
_atom_site_fract_y
_atom_site_fract_z
Si Si1 0.561538 0.478201 0.145995
Si Si2 0.771650 0.857179 0.296746
Si Si3 0.413667 0.794948 0.016052
Si Si4 0.857022 0.455133 0.074113
Si Si5 0.366595 0.149659 0.232965
Si Si6 0.554529 0.129388 0.665233
Si Si7 0.847344 0.882851 0.887325
Si Si8 0.186609 0.896842 0.767338
O O1 0.429073 0.355945 0.428023
O O2 0.550451 0.364176 0.147910
O O3 0.500000 0.500000 0.000000
O O4 0.772567 0.706164 0.000687
O O5 0.839497 0.024934 0.205008
O O6 0.753069 0.835356 0.110540
O O7 0.923755 0.916565 0.294580
O O8 0.233902 0.610336 0.054233
O O9 0.555025 0.833327 0.957258
O O10 0.532115 0.995756 0.781145
O O11 0.349749 0.745629 0.263206
O O12 0.689471 0.279971 0.370187
O O13 0.000000 0.500000 0.000000
O O14 0.978275 0.655614 0.974348
O O15 0.215935 0.096848 0.262043
O O16 0.262438 0.976128 0.500037
O O17 0.341568 0.977553 0.792634
#
# Coordination Sequence:
#
# PCOD8012460 Si02
#       8
#     2   2   2   2   2   2   2   2
#     4   9  20  36  60  84 115 161 206 252 309 372
#     4  10  22  38  61  88 126 162 206 264 315 364
#     4  11  23  43  68  94 130 172 209 264 318 378
#     4  12  24  43  68  97 128 170 214 258 320 381
#     4  10  21  40  63  88 124 167 211 256 317 375
#     4  11  24  45  66  94 134 167 211 264 318 376
#     4  10  21  40  59  90 122 163 210 263 310 372
#     4  11  23  41  65  92 129 170 210 265 316 382
#
# _framework density 21.214793
#
# number of rings (size 3 to 8) (size 9 to 14) (size 15 to 20)
#    0.000    1.500    2.500    2.250    1.750    5.000 
#    6.750    2.500    0.000    0.000    0.000    0.000 
#    0.000    0.000    0.000    0.000    0.000    0.000 
#
# Total GULP energy -198338.477521 kJ/mol
# GULP energy per Si atom -12396.154845 kJ/mol
# Density = 2.116651 g / cm^3
# Si number density = 21.214793 Si / 1000 Ang^3
#
#
#
# Elastic Constant Matrix: (Units=GPa)
#
#
# Indices 1 2 3 4 5 6 
#
# 1 78.2139 16.2099 6.1314 -0.0686 -0.0478 -2.2562
# 2 16.2099 98.8379 26.5824 5.0473 2.3118 4.1099
# 3 6.1314 26.5824 57.4028 -0.1787 6.7533 -0.7194
# 4 -0.0686 5.0473 -0.1787 29.9057 -6.4704 -3.0040
# 5 -0.0478 2.3118 6.7533 -6.4704 21.0300 0.3923
# 6 -2.2562 4.1099 -0.7194 -3.0040 0.3923 33.2818
#
#
#
# Elastic Compliance Matrix: (Units=1/GPa)
#
#
# Indices 1 2 3 4 5 6 
#
# 1 0.013304 -0.002150 -0.000478 0.000641 0.000595 0.001208
# 2 -0.002150 0.012127 -0.005383 -0.002345 -0.000294 -0.001968
# 3 -0.000478 -0.005383 0.020700 -0.000182 -0.006134 0.001136
# 4 0.000641 -0.002345 -0.000182 0.036683 0.011539 0.003504
# 5 0.000595 -0.000294 -0.006134 0.011539 0.053098 0.000360
# 6 0.001208 -0.001968 0.001136 0.003504 0.000360 0.030708
#
#
# Mechanical properties :
#
#
# Convention : Reuss Voigt Hill
#
# Bulk Modulus (GPa) = 33.21434 36.92244 35.06839
# Shear Modulus (GPa) = 25.94986 29.21222 27.58104
#
# Velocity S-wave (km/s) = 3.50122 3.71479 3.60958
# Velocity P-wave (km/s) = 5.65994 5.98677 5.82565
#
# Compressibility (1/GPa) = 0.03010748
#
# Stress axis : x y z
#
# Youngs Moduli (GPa) = 75.16340 82.46389 48.30903
#
# Poissons Ratio (x) = 0.17732 0.02310
# Poissons Ratio (y) = 0.16162 0.26006
# Poissons Ratio (z) = 0.03594 0.44393
#
# Static dielectric constant tensor:
#      x y z
#    x 3.816110 -0.138490 0.113970 
#    y -0.138490 4.262680 -0.081640 
#    z 0.113970 -0.081640 3.745680 
# 
# 
# High freq. dielectric constant tensor:
#      x y z
#    x 1.838160 -0.009580 0.003290 
#    y -0.009580 1.843060 0.005580 
#    z 0.003290 0.005580 1.816340 
# 
# From -- ./inp_files/314877.got.cif
#   From: 2010.06.25/outbox.cif.g09.slc.cpg/sg2_158_cif.got.tgz:314877.got - 2010.06.27 13:26:56.
