data_PCOD8012307
_publ_section_title
;
Structure prediction by ZEFSAII (Michael W. Deem and Ramdas Pophale) SiO2 
 PCOD8012307
Probable space group: P -1
;
_chemical_formula_sum "Si O2"
_cell_formula_units_Z 16
_cell_length_a 10.764478
_cell_length_b 9.661262
_cell_length_c 15.534232
_cell_angle_alpha 101.920169
_cell_angle_beta 111.781845
_cell_angle_gamma 135.318318
_cell_volume 731.632514
_symmetry_space_group_name_H-M "P -1"
_symmetry_group_IT_number 2
_symmetry_cell_setting 'triclinic'
loop_
_space_group_symop_operation_xyz
x,y,z
-x,-y,-z
loop_
_atom_site_type_symbol
_atom_site_label
_atom_site_fract_x
_atom_site_fract_y
_atom_site_fract_z
Si Si1 0.968085 0.211937 0.161097
Si Si2 0.140792 0.746734 0.452184
Si Si3 0.689462 0.146672 0.220602
Si Si4 0.650465 0.217471 0.754502
Si Si5 0.332649 0.310710 0.349338
Si Si6 0.934118 0.226476 0.757812
Si Si7 0.196053 0.309359 0.608177
Si Si8 0.455434 0.693468 0.875412
O O1 0.770049 0.124992 0.157477
O O2 0.157979 0.476886 0.181297
O O3 0.149115 0.275526 0.272804
O O4 0.758633 0.931913 0.011618
O O5 0.162624 0.813167 0.366789
O O6 0.971614 0.446039 0.378177
O O7 0.983441 0.719360 0.464918
O O8 0.436851 0.998860 0.595650
O O9 0.540236 0.154466 0.156024
O O10 0.494060 0.887064 0.204442
O O11 0.818326 0.225214 0.800804
O O12 0.500000 0.500000 0.500000
O O13 0.539073 0.459953 0.348800
O O14 0.144309 0.005629 0.276255
O O15 0.258341 0.533258 0.886366
O O16 0.316348 0.438223 0.752244
O O17 0.000000 0.000000 0.500000
#
# Coordination Sequence:
#
# PCOD8012307 Si02
#       8
#     2   2   2   2   2   2   2   2
#     4  12  26  45  66 101 140 181 227 278 339 411
#     4  10  21  39  68  99 134 173 227 288 335 392
#     4  10  23  41  66 103 133 176 224 290 333 395
#     4  12  22  39  71  99 132 181 228 277 342 403
#     4  12  26  41  67 101 136 177 228 279 340 408
#     4  10  21  41  65  94 133 180 218 284 336 394
#     4  10  21  43  65  93 132 175 220 280 340 388
#     4  10  23  47  69  94 139 176 227 288 335 397
#
# _framework density 21.868901999999999
#
# number of rings (size 3 to 8) (size 9 to 14) (size 15 to 20)
#    0.000    1.500    2.500    5.625    3.500    1.500 
#    6.750    0.000    0.000    0.000    0.000    0.000 
#    0.000    0.000    0.000    0.000    0.000    0.000 
#
# Total GULP energy -198319.345999 kJ/mol
# GULP energy per Si atom -12394.959125 kJ/mol
# Density = 2.181913 g / cm^3
# Si number density = 21.868902 Si / 1000 Ang^3
#
#
#
# Elastic Constant Matrix: (Units=GPa)
#
#
# Indices 1 2 3 4 5 6 
#
# 1 86.1258 38.9303 24.8011 5.7305 0.0723 9.9042
# 2 38.9303 137.1387 39.8548 22.8343 5.2652 12.0441
# 3 24.8011 39.8548 119.0813 27.4202 6.9534 -1.8500
# 4 5.7305 22.8343 27.4202 26.1600 3.6834 1.0943
# 5 0.0723 5.2652 6.9534 3.6834 21.4657 4.7646
# 6 9.9042 12.0441 -1.8500 1.0943 4.7646 42.2173
#
#
#
# Elastic Compliance Matrix: (Units=1/GPa)
#
#
# Indices 1 2 3 4 5 6 
#
# 1 0.014049 -0.003513 -0.002453 0.002420 0.001785 -0.002666
# 2 -0.003513 0.009872 -0.001050 -0.006595 -0.000537 -0.001807
# 3 -0.002453 -0.001050 0.011903 -0.010797 -0.002163 0.001921
# 4 0.002420 -0.006595 -0.010797 0.055391 -0.004375 -0.000101
# 5 0.001785 -0.000537 -0.002163 -0.004375 0.049457 -0.005829
# 6 -0.002666 -0.001807 0.001921 -0.000101 -0.005829 0.025572
#
#
# Mechanical properties :
#
#
# Convention : Reuss Voigt Hill
#
# Bulk Modulus (GPa) = 45.89143 61.05758 53.47451
# Shear Modulus (GPa) = 26.66103 33.88591 30.27347
#
# Velocity S-wave (km/s) = 3.49539 3.94064 3.72468
# Velocity P-wave (km/s) = 6.10907 6.97749 6.55767
#
# Compressibility (1/GPa) = 0.02179056
#
# Stress axis : x y z
#
# Youngs Moduli (GPa) = 71.17862 101.29951 84.01551
#
# Poissons Ratio (x) = 0.35583 0.20612
# Poissons Ratio (y) = 0.25003 0.08826
# Poissons Ratio (z) = 0.17462 0.10641
#
# Static dielectric constant tensor:
#      x y z
#    x 4.491930 0.624790 -0.224380 
#    y 0.624790 4.453950 -0.112010 
#    z -0.224380 -0.112010 4.173050 
# 
# 
# High freq. dielectric constant tensor:
#      x y z
#    x 1.862930 0.015570 0.005350 
#    y 0.015570 1.852420 0.020060 
#    z 0.005350 0.020060 1.857290 
# 
# From -- ./inp_files/566028.got.cif
#   From: 2010.06.25/outbox.cif.g09.slc.cpg/sg2_284_cif.got.tgz:566028.got - 2010.06.27 13:26:56.
