data_PCOD8012786
_publ_section_title
;
Structure prediction by ZEFSAII (Michael W. Deem and Ramdas Pophale) SiO2 
 PCOD8012786
Probable space group: P -1
;
_chemical_formula_sum "Si O2"
_cell_formula_units_Z 16
_cell_length_a 17.747709
_cell_length_b 7.260855
_cell_length_c 8.214747
_cell_angle_alpha 80.306722
_cell_angle_beta 63.189280
_cell_angle_gamma 52.103071
_cell_volume 736.616703
_symmetry_space_group_name_H-M "P -1"
_symmetry_group_IT_number 2
_symmetry_cell_setting 'triclinic'
loop_
_space_group_symop_operation_xyz
x,y,z
-x,-y,-z
loop_
_atom_site_type_symbol
_atom_site_label
_atom_site_fract_x
_atom_site_fract_y
_atom_site_fract_z
Si Si1 0.038951 0.275473 0.174214
Si Si2 0.460019 0.959834 0.804008
Si Si3 0.371706 0.982898 0.227308
Si Si4 0.567211 0.475403 0.589689
Si Si5 0.707284 0.582087 0.300732
Si Si6 0.092585 0.836746 0.309669
Si Si7 0.086376 0.619784 0.038026
Si Si8 0.815256 0.577444 0.509652
O O1 0.938919 0.455669 0.366302
O O2 0.107067 0.370626 0.078661
O O3 0.998028 0.247244 0.045787
O O4 0.122461 0.004664 0.194366
O O5 0.501145 0.718525 0.714930
O O6 0.560818 0.947083 0.759851
O O7 0.393251 0.174322 0.711428
O O8 0.386619 0.991150 0.019620
O O9 0.407458 0.728675 0.283559
O O10 0.245977 0.178432 0.365756
O O11 0.500000 0.500000 0.500000
O O12 0.675150 0.420742 0.420415
O O13 0.752081 0.643435 0.394956
O O14 0.801033 0.431808 0.100110
O O15 0.044709 0.773164 0.220114
O O16 0.189206 0.602991 0.344479
O O17 0.000000 0.000000 0.500000
#
# Coordination Sequence:
#
# PCOD8012786 Si02
#       8
#     2   2   2   2   2   2   2   2
#     4   9  21  42  67  90 124 169 211 257 316 374
#     4  11  23  43  66  90 133 163 209 269 313 371
#     4  11  23  42  65  95 127 167 209 263 318 374
#     4  12  23  42  67  93 124 173 213 255 319 377
#     4  11  22  43  64  93 131 167 209 265 310 375
#     4  10  21  40  63  92 126 167 208 263 315 370
#     4  10  21  42  64  95 127 164 213 259 314 374
#     4  10  21  41  63  92 130 165 210 259 316 371
#
# _framework density 21.720929999999999
#
# number of rings (size 3 to 8) (size 9 to 14) (size 15 to 20)
#    0.000    1.500    2.500    2.625    0.000    2.000 
#   20.250    0.000    0.000    0.000    0.000    0.000 
#    0.000    0.000    0.000    0.000    0.000    0.000 
#
# Total GULP energy -198347.063314 kJ/mol
# GULP energy per Si atom -12396.691457 kJ/mol
# Density = 2.167149 g / cm^3
# Si number density = 21.720930 Si / 1000 Ang^3
#
#
#
# Elastic Constant Matrix: (Units=GPa)
#
#
# Indices 1 2 3 4 5 6 
#
# 1 40.1642 14.1147 31.6317 12.4495 -0.0478 7.2466
# 2 14.1147 104.0445 37.3811 -10.1827 19.6494 -0.0479
# 3 31.6317 37.3811 109.1363 5.1652 10.7343 6.1162
# 4 12.4495 -10.1827 5.1652 43.9030 3.8859 6.8061
# 5 -0.0478 19.6494 10.7343 3.8859 25.8598 -2.2238
# 6 7.2466 -0.0479 6.1162 6.8061 -2.2238 28.5905
#
#
#
# Elastic Compliance Matrix: (Units=1/GPa)
#
#
# Indices 1 2 3 4 5 6 
#
# 1 0.038207 -0.004412 -0.009659 -0.010811 0.008681 -0.004376
# 2 -0.004412 0.013634 -0.002636 0.005692 -0.010167 -0.000441
# 3 -0.009659 -0.002636 0.013236 0.001046 -0.003746 -0.000928
# 4 -0.010811 0.005692 0.001046 0.028664 -0.009519 -0.005038
# 5 0.008681 -0.010167 -0.003746 -0.009519 0.049803 0.004724
# 6 -0.004376 -0.000441 -0.000928 -0.005038 0.004724 0.037850
#
#
# Mechanical properties :
#
#
# Convention : Reuss Voigt Hill
#
# Bulk Modulus (GPa) = 31.58357 46.62220 39.10288
# Shear Modulus (GPa) = 22.18656 31.01851 26.60254
#
# Velocity S-wave (km/s) = 3.19946 3.78305 3.50343
# Velocity P-wave (km/s) = 5.31234 6.37124 5.86573
#
# Compressibility (1/GPa) = 0.03166204
#
# Stress axis : x y z
#
# Youngs Moduli (GPa) = 26.17355 73.34816 75.55020
#
# Poissons Ratio (x) = 0.32363 0.72976
# Poissons Ratio (y) = 0.11548 0.19912
# Poissons Ratio (z) = 0.25282 0.19332
#
# Static dielectric constant tensor:
#      x y z
#    x 3.837670 -0.111650 0.017770 
#    y -0.111650 4.373170 -0.389440 
#    z 0.017770 -0.389440 4.549600 
# 
# 
# High freq. dielectric constant tensor:
#      x y z
#    x 1.830770 -0.001520 0.015290 
#    y -0.001520 1.859650 -0.010210 
#    z 0.015290 -0.010210 1.872600 
# 
# From -- ./inp_files/323544.got.cif
#   From: 2010.06.25/outbox.cif.g09.slc.cpg/sg2_162_cif.got.tgz:323544.got - 2010.06.27 13:26:56.
