data_PCOD8012086
_publ_section_title
;
Structure prediction by ZEFSAII (Michael W. Deem and Ramdas Pophale) SiO2 
 PCOD8012086
Probable space group: P -1
;
_chemical_formula_sum "Si O2"
_cell_formula_units_Z 14
_cell_length_a 11.830583
_cell_length_b 11.187620
_cell_length_c 11.442483
_cell_angle_alpha 119.762447
_cell_angle_beta 93.615606
_cell_angle_gamma 38.219563
_cell_volume 645.308704
_symmetry_space_group_name_H-M "P -1"
_symmetry_group_IT_number 2
_symmetry_cell_setting 'triclinic'
loop_
_space_group_symop_operation_xyz
x,y,z
-x,-y,-z
loop_
_atom_site_type_symbol
_atom_site_label
_atom_site_fract_x
_atom_site_fract_y
_atom_site_fract_z
Si Si1 0.486254 0.651843 0.150343
Si Si2 0.665868 0.491202 0.504861
Si Si3 0.302901 0.999388 0.019825
Si Si4 0.726077 0.618272 0.027078
Si Si5 0.050202 0.292072 0.365159
Si Si6 0.758941 0.880091 0.189829
Si Si7 0.461326 0.558990 0.723669
O O1 0.454592 0.647242 0.281730
O O2 0.285882 0.973259 0.267581
O O3 0.500000 0.500000 0.000000
O O4 0.711272 0.504523 0.061106
O O5 0.669397 0.417610 0.598996
O O6 0.703815 0.334804 0.333230
O O7 0.851904 0.411466 0.466642
O O8 0.415001 0.823535 0.627046
O O9 0.541193 0.800208 0.997827
O O10 0.315656 0.821199 0.916612
O O11 0.261586 0.114670 0.949670
O O12 0.075637 0.267371 0.214135
O O13 0.986839 0.344226 0.860379
O O14 0.691317 0.797021 0.185566
O O15 0.000000 0.500000 0.500000
#
# Coordination Sequence:
#
# PCOD8012086 Si02
#       7
#     2   2   2   2   2   2   2
#     4  11  22  42  66  97 126 170 222 265 322 392
#     4  10  23  42  62  95 136 159 218 273 325 392
#     4  10  21  42  68  91 128 175 219 263 328 390
#     4  10  21  39  66  93 125 166 231 264 313 403
#     4  11  24  43  65  98 130 169 216 270 332 387
#     4  10  22  42  64  94 127 176 217 269 330 382
#     4  10  22  43  62  95 124 175 211 264 326 383
#
# _framework density 21.695042999999998
#
# number of rings (size 3 to 8) (size 9 to 14) (size 15 to 20)
#    0.000    1.714    2.857    2.143    2.000    5.714 
#   10.286    1.429    0.000    0.000    0.000    0.000 
#    0.000    0.000    0.000    0.000    0.000    0.000 
#
# Total GULP energy -173459.189885 kJ/mol
# GULP energy per Si atom -12389.942135 kJ/mol
# Density = 2.164566 g / cm^3
# Si number density = 21.695043 Si / 1000 Ang^3
#
#
#
# Elastic Constant Matrix: (Units=GPa)
#
#
# Indices 1 2 3 4 5 6 
#
# 1 171.7743 26.8699 50.1669 -6.5397 -2.8061 15.2368
# 2 26.8699 58.6546 21.6072 -5.6136 -1.3276 7.0927
# 3 50.1669 21.6072 102.0973 -7.8401 13.3550 2.6467
# 4 -6.5397 -5.6136 -7.8401 32.1565 9.2534 -0.5851
# 5 -2.8061 -1.3276 13.3550 9.2534 36.8974 2.8298
# 6 15.2368 7.0927 2.6467 -0.5851 2.8298 24.0675
#
#
#
# Elastic Compliance Matrix: (Units=1/GPa)
#
#
# Indices 1 2 3 4 5 6 
#
# 1 0.007502 -0.001608 -0.003551 -0.000329 0.002199 -0.004151
# 2 -0.001608 0.019789 -0.003373 0.001723 0.001731 -0.004604
# 3 -0.003551 -0.003373 0.013311 0.003814 -0.006367 0.002620
# 4 -0.000329 0.001723 0.003814 0.035246 -0.010286 0.001347
# 5 0.002199 0.001731 -0.006367 -0.010286 0.032621 -0.005288
# 6 -0.004151 -0.004604 0.002620 0.001347 -0.005288 0.045901
#
#
# Mechanical properties :
#
#
# Convention : Reuss Voigt Hill
#
# Bulk Modulus (GPa) = 42.48431 58.86827 50.67629
# Shear Modulus (GPa) = 27.88921 34.21641 31.05281
#
# Velocity S-wave (km/s) = 3.58929 3.97565 3.78740
# Velocity P-wave (km/s) = 6.06649 6.94750 6.52189
#
# Compressibility (1/GPa) = 0.02353810
#
# Stress axis : x y z
#
# Youngs Moduli (GPa) = 133.29969 50.53319 75.12580
#
# Poissons Ratio (x) = 0.08127 0.26678
# Poissons Ratio (y) = 0.21438 0.25337
# Poissons Ratio (z) = 0.47336 0.17043
#
# Static dielectric constant tensor:
#      x y z
#    x 4.300030 0.231540 -0.131410 
#    y 0.231540 3.899580 -0.127190 
#    z -0.131410 -0.127190 4.156300 
# 
# 
# High freq. dielectric constant tensor:
#      x y z
#    x 1.875210 0.021130 0.004280 
#    y 0.021130 1.830790 -0.002930 
#    z 0.004280 -0.002930 1.845500 
# 
# From -- ./inp_files/426500.got.cif
#   From: 2010.06.25/outbox.cif.g09.slc.cpg/sg2_214_cif.got.tgz:426500.got - 2010.06.27 13:26:56.
