data_PCOD8012026
_publ_section_title
;
Structure prediction by ZEFSAII (Michael W. Deem and Ramdas Pophale) SiO2 
 PCOD8012026
Probable space group: P -1
;
_chemical_formula_sum "Si O2"
_cell_formula_units_Z 16
_cell_length_a 16.935499
_cell_length_b 20.175491
_cell_length_c 6.444416
_cell_angle_alpha 78.336282
_cell_angle_beta 100.063778
_cell_angle_gamma 160.289220
_cell_volume 726.509604
_symmetry_space_group_name_H-M "P -1"
_symmetry_group_IT_number 2
_symmetry_cell_setting 'triclinic'
loop_
_space_group_symop_operation_xyz
x,y,z
-x,-y,-z
loop_
_atom_site_type_symbol
_atom_site_label
_atom_site_fract_x
_atom_site_fract_y
_atom_site_fract_z
Si Si1 0.919374 0.265531 0.475567
Si Si2 0.417859 0.083844 0.223795
Si Si3 0.593117 0.356937 0.333224
Si Si4 0.690243 0.790926 0.388124
Si Si5 0.250030 0.730261 0.485982
Si Si6 0.569134 0.453915 0.957573
Si Si7 0.396035 0.987735 0.875123
Si Si8 0.196799 0.223126 0.217673
O O1 0.769075 0.203976 0.565029
O O2 0.192736 0.492697 0.509823
O O3 0.814149 0.112541 0.617306
O O4 0.855850 0.221714 0.228291
O O5 0.509549 0.232208 0.216675
O O6 0.631320 0.201643 0.292144
O O7 0.354405 0.015938 0.000097
O O8 0.371928 0.201857 0.473005
O O9 0.679126 0.487958 0.148406
O O10 0.479382 0.620241 0.236654
O O11 0.713179 0.736102 0.547309
O O12 0.918832 0.991848 0.233551
O O13 0.412597 0.831886 0.311358
O O14 0.000000 0.500000 0.500000
O O15 0.756397 0.660304 0.860343
O O16 0.323791 0.287939 0.040739
O O17 0.500000 0.000000 0.000000
#
# Coordination Sequence:
#
# PCOD8012026 Si02
#       8
#     2   2   2   2   2   2   2   2
#     4  11  23  42  62  89 129 164 211 275 321 373
#     4  11  23  42  62  91 125 166 217 268 320 379
#     4  11  26  41  59  92 137 174 204 257 327 387
#     4  10  21  40  66  95 127 169 209 249 316 374
#     4  11  21  40  66  90 119 156 216 277 316 374
#     4  10  21  39  65  98 128 162 214 253 310 375
#     4  11  21  40  69  92 112 163 227 271 319 371
#     4   9  20  40  69  97 122 161 212 266 292 365
#
# _framework density 22.023109000000002
#
# number of rings (size 3 to 8) (size 9 to 14) (size 15 to 20)
#    0.000    1.500    3.750    1.500    0.000    5.500 
#    2.250    2.500    0.000    0.000    0.000    0.000 
#    0.000    0.000    0.000    0.000    0.000    0.000 
#
# Total GULP energy -198324.764845 kJ/mol
# GULP energy per Si atom -12395.297803 kJ/mol
# Density = 2.197298 g / cm^3
# Si number density = 22.023109 Si / 1000 Ang^3
#
#
#
# Elastic Constant Matrix: (Units=GPa)
#
#
# Indices 1 2 3 4 5 6 
#
# 1 93.9609 34.4548 35.6667 3.5613 1.5746 -20.9161
# 2 34.4548 69.7066 31.7003 3.3330 0.9821 -25.3644
# 3 35.6667 31.7003 99.3228 13.8690 -6.8624 -18.1779
# 4 3.5613 3.3330 13.8690 42.0557 -5.8092 0.4408
# 5 1.5746 0.9821 -6.8624 -5.8092 26.9812 4.4205
# 6 -20.9161 -25.3644 -18.1779 0.4408 4.4205 28.1115
#
#
#
# Elastic Compliance Matrix: (Units=1/GPa)
#
#
# Indices 1 2 3 4 5 6 
#
# 1 0.014510 -0.003510 -0.003118 -0.000341 -0.002572 0.006022
# 2 -0.003510 0.024231 -0.003342 -0.001364 -0.004747 0.017858
# 3 -0.003118 -0.003342 0.013488 -0.003612 0.002456 0.003057
# 4 -0.000341 -0.001364 -0.003612 0.025929 0.005569 -0.005102
# 5 -0.002572 -0.004747 0.002456 0.005569 0.041036 -0.011149
# 6 0.006022 0.017858 0.003057 -0.005102 -0.011149 0.059976
#
#
# Mechanical properties :
#
#
# Convention : Reuss Voigt Hill
#
# Bulk Modulus (GPa) = 30.97148 51.84822 41.40985
# Shear Modulus (GPa) = 23.82386 30.17426 26.99906
#
# Velocity S-wave (km/s) = 3.29259 3.70553 3.50514
# Velocity P-wave (km/s) = 5.34309 6.47315 5.93507
#
# Compressibility (1/GPa) = 0.03228777
#
# Stress axis : x y z
#
# Youngs Moduli (GPa) = 68.91732 41.26964 74.13929
#
# Poissons Ratio (x) = 0.14486 0.23118
# Poissons Ratio (y) = 0.24191 0.24780
# Poissons Ratio (z) = 0.21490 0.13794
#
# Static dielectric constant tensor:
#      x y z
#    x 3.980790 -0.109620 0.021040 
#    y -0.109620 3.792720 0.096910 
#    z 0.021040 0.096910 4.116180 
# 
# 
# High freq. dielectric constant tensor:
#      x y z
#    x 1.854730 -0.005440 0.001400 
#    y -0.005440 1.861220 0.003750 
#    z 0.001400 0.003750 1.868960 
# 
# From -- ./inp_files/112420.got.cif
#   From: 2010.06.25/outbox.cif.g09.slc.cpg/sg2_57_cif.got.tgz:112420.got - 2010.06.27 13:26:56.
