data_PCOD8012728
_publ_section_title
;
Structure prediction by ZEFSAII (Michael W. Deem and Ramdas Pophale) SiO2 
 PCOD8012728
Probable space group: P -1
;
_chemical_formula_sum "Si O2"
_cell_formula_units_Z 14
_cell_length_a 12.160290
_cell_length_b 11.730663
_cell_length_c 9.362245
_cell_angle_alpha 70.108180
_cell_angle_beta 120.905275
_cell_angle_gamma 141.567512
_cell_volume 707.431774
_symmetry_space_group_name_H-M "P -1"
_symmetry_group_IT_number 2
_symmetry_cell_setting 'triclinic'
loop_
_space_group_symop_operation_xyz
x,y,z
-x,-y,-z
loop_
_atom_site_type_symbol
_atom_site_label
_atom_site_fract_x
_atom_site_fract_y
_atom_site_fract_z
Si Si1 0.986772 0.333058 0.664437
Si Si2 0.116413 0.673482 0.103703
Si Si3 0.298362 0.144854 0.668737
Si Si4 0.592252 0.960854 0.987874
Si Si5 0.329397 0.743953 0.630807
Si Si6 0.630293 0.349371 0.579910
Si Si7 0.098420 0.252323 0.526725
O O1 0.000128 0.339157 0.843226
O O2 0.760000 0.195154 0.522248
O O3 0.130472 0.544630 0.637046
O O4 0.065822 0.270716 0.661613
O O5 0.287508 0.713033 0.266049
O O6 0.191212 0.838712 0.988378
O O7 0.000000 0.500000 0.000000
O O8 0.445275 0.263946 0.582394
O O9 0.236197 0.234362 0.633891
O O10 0.406854 0.163270 0.869785
O O11 0.112629 0.928846 0.601907
O O12 0.478510 0.867673 0.804231
O O13 0.500000 0.000000 0.000000
O O14 0.438309 0.739032 0.586894
O O15 0.798411 0.572311 0.578973
#
# Coordination Sequence:
#
# PCOD8012728 Si02
#       7
#     2   2   2   2   2   2   2
#     4   9  19  37  59  84 118 156 193 243 300 348
#     4  11  22  35  61  90 120 153 192 251 307 346
#     4  11  23  39  63  88 118 161 201 244 292 352
#     4  12  22  36  57  91 120 146 197 252 294 349
#     4   9  20  36  60  88 114 150 196 246 299 352
#     4  10  21  40  63  87 115 158 201 241 298 354
#     4  10  22  41  62  84 121 159 204 240 289 361
#
# _framework density 19.789892999999999
#
# number of rings (size 3 to 8) (size 9 to 14) (size 15 to 20)
#    0.000    1.714    1.429    3.857    2.000    1.143 
#    0.000    3.571    3.143    0.000    0.000    0.000 
#    0.000    0.000    0.000    0.000    0.000    0.000 
#
# Total GULP energy -173472.571249 kJ/mol
# GULP energy per Si atom -12390.897946 kJ/mol
# Density = 1.974485 g / cm^3
# Si number density = 19.789893 Si / 1000 Ang^3
#
#
#
# Elastic Constant Matrix: (Units=GPa)
#
#
# Indices 1 2 3 4 5 6 
#
# 1 133.4476 51.3946 31.3109 -10.2373 -29.3513 14.7187
# 2 51.3946 86.1276 38.1528 0.5552 -14.9244 3.7315
# 3 31.3109 38.1528 77.5580 1.4252 -26.6368 9.1428
# 4 -10.2373 0.5552 1.4252 32.2957 -3.3460 -2.2277
# 5 -29.3513 -14.9244 -26.6368 -3.3460 34.4612 -2.4840
# 6 14.7187 3.7315 9.1428 -2.2277 -2.4840 24.7292
#
#
#
# Elastic Compliance Matrix: (Units=1/GPa)
#
#
# Indices 1 2 3 4 5 6 
#
# 1 0.012643 -0.006556 0.001992 0.004609 0.009491 -0.005904
# 2 -0.006556 0.018281 -0.008041 -0.002192 -0.003841 0.003534
# 3 0.001992 -0.008041 0.021850 0.000883 0.014721 -0.006492
# 4 0.004609 -0.002192 0.000883 0.033209 0.006951 0.000951
# 5 0.009491 -0.003841 0.014721 0.006951 0.047120 -0.005153
# 6 -0.005904 0.003534 -0.006492 0.000951 -0.005153 0.045387
#
#
# Mechanical properties :
#
#
# Convention : Reuss Voigt Hill
#
# Bulk Modulus (GPa) = 36.28114 59.87220 48.07667
# Shear Modulus (GPa) = 23.48631 30.04888 26.76760
#
# Velocity S-wave (km/s) = 3.44871 3.90089 3.68175
# Velocity P-wave (km/s) = 5.85073 7.11399 6.51306
#
# Compressibility (1/GPa) = 0.02756253
#
# Stress axis : x y z
#
# Youngs Moduli (GPa) = 79.09219 54.70273 45.76649
#
# Poissons Ratio (x) = 0.35865 -0.09116
# Poissons Ratio (y) = 0.51856 0.36802
# Poissons Ratio (z) = -0.15753 0.43988
#
# Static dielectric constant tensor:
#      x y z
#    x 3.726450 0.107330 -0.421900 
#    y 0.107330 3.791970 -0.139510 
#    z -0.421900 -0.139510 4.018200 
# 
# 
# High freq. dielectric constant tensor:
#      x y z
#    x 1.772850 0.008520 -0.026300 
#    y 0.008520 1.778190 -0.000170 
#    z -0.026300 -0.000170 1.755410 
# 
# From -- ./inp_files/181939.got.cif
#   From: 2010.06.25/outbox.cif.g09.slc.cpg/sg2_91_cif.got.tgz:181939.got - 2010.06.27 13:26:56.
