data_PCOD8012454
_publ_section_title
;
Structure prediction by ZEFSAII (Michael W. Deem and Ramdas Pophale) SiO2 
 PCOD8012454
Probable space group: P -1
;
_chemical_formula_sum "Si O2"
_cell_formula_units_Z 10
_cell_length_a 6.755157
_cell_length_b 7.154218
_cell_length_c 15.464065
_cell_angle_alpha 58.820304
_cell_angle_beta 50.778286
_cell_angle_gamma 62.410340
_cell_volume 484.834817
_symmetry_space_group_name_H-M "P -1"
_symmetry_group_IT_number 2
_symmetry_cell_setting 'triclinic'
loop_
_space_group_symop_operation_xyz
x,y,z
-x,-y,-z
loop_
_atom_site_type_symbol
_atom_site_label
_atom_site_fract_x
_atom_site_fract_y
_atom_site_fract_z
Si Si1 0.303544 0.194670 0.958227
Si Si2 0.721723 0.304639 0.137093
Si Si3 0.536622 0.238276 0.542235
Si Si4 0.592818 0.022719 0.760508
Si Si5 0.171075 0.934057 0.664751
O O1 0.332552 0.433608 0.930729
O O2 0.375620 0.184112 0.839309
O O3 0.003699 0.173984 0.056156
O O4 0.500000 0.000000 0.000000
O O5 0.497467 0.211067 0.171758
O O6 0.702821 0.257098 0.256208
O O7 0.500000 0.500000 0.500000
O O8 0.757273 0.150678 0.431418
O O9 0.634676 0.135169 0.631587
O O10 0.270666 0.162556 0.604121
O O11 0.860972 0.979945 0.749907
#
# Coordination Sequence:
#
# PCOD8012454 Si02
#       5
#     2   2   2   2   2
#     4  11  22  41  62  88 122 158 199 244 294 351
#     4  10  23  41  60  89 124 154 197 249 289 352
#     4  10  22  38  60  87 119 156 196 245 296 352
#     4  11  22  39  62  87 119 161 197 241 302 349
#     4  10  21  40  59  87 122 151 199 246 291 354
#
# _framework density 20.625582000000001
#
# number of rings (size 3 to 8) (size 9 to 14) (size 15 to 20)
#    0.000    1.600    2.000    2.400    0.000    3.200 
#    3.600    0.000    0.000    0.000    0.000    0.000 
#    0.000    0.000    0.000    0.000    0.000    0.000 
#
# Total GULP energy -124025.190748 kJ/mol
# GULP energy per Si atom -12402.519075 kJ/mol
# Density = 2.057864 g / cm^3
# Si number density = 20.625582 Si / 1000 Ang^3
#
#
#
# Elastic Constant Matrix: (Units=GPa)
#
#
# Indices 1 2 3 4 5 6 
#
# 1 96.1836 50.2976 28.0729 -6.3211 -16.6989 3.5752
# 2 50.2976 121.8380 38.0193 -15.1959 -6.4960 1.9598
# 3 28.0729 38.0193 98.9231 11.2211 -5.8589 -1.2107
# 4 -6.3211 -15.1959 11.2211 39.2208 12.7162 0.4251
# 5 -16.6989 -6.4960 -5.8589 12.7162 29.3122 -2.9840
# 6 3.5752 1.9598 -1.2107 0.4251 -2.9840 24.9411
#
#
#
# Elastic Compliance Matrix: (Units=1/GPa)
#
#
# Indices 1 2 3 4 5 6 
#
# 1 0.014962 -0.005515 -0.001478 -0.001789 0.007698 -0.000832
# 2 -0.005515 0.012393 -0.004188 0.006463 -0.004137 -0.000992
# 3 -0.001478 -0.004188 0.013192 -0.006976 0.004075 0.001788
# 4 -0.001789 0.006463 -0.006976 0.035102 -0.016532 -0.003166
# 5 0.007698 -0.004137 0.004075 -0.016532 0.046101 0.005217
# 6 -0.000832 -0.000992 0.001788 -0.003166 0.005217 0.041056
#
#
# Mechanical properties :
#
#
# Convention : Reuss Voigt Hill
#
# Bulk Modulus (GPa) = 54.98924 61.08048 58.03486
# Shear Modulus (GPa) = 26.14655 32.06514 29.10585
#
# Velocity S-wave (km/s) = 3.56431 3.94716 3.76061
# Velocity P-wave (km/s) = 6.60739 7.10293 6.85964
#
# Compressibility (1/GPa) = 0.01818538
#
# Stress axis : x y z
#
# Youngs Moduli (GPa) = 66.83741 80.69324 75.80135
#
# Poissons Ratio (x) = 0.44501 0.11201
# Poissons Ratio (y) = 0.36859 0.31747
# Poissons Ratio (z) = 0.09877 0.33795
#
# Static dielectric constant tensor:
#      x y z
#    x 3.565520 0.213020 -0.024150 
#    y 0.213020 3.575370 0.094570 
#    z -0.024150 0.094570 4.106110 
# 
# 
# High freq. dielectric constant tensor:
#      x y z
#    x 1.799850 0.015380 -0.000870 
#    y 0.015380 1.796150 0.002910 
#    z -0.000870 0.002910 1.832370 
# 
# From -- ./inp_files/1550.got.cif
#   From: 2010.06.25/outbox.cif.g09.slc.cpg/sg2_1_cif.got.tgz:1550.got - 2010.06.27 13:26:56.
