data_PCOD8012373
_publ_section_title
;
Structure prediction by ZEFSAII (Michael W. Deem and Ramdas Pophale) SiO2 
 PCOD8012373
Probable space group: P -1
;
_chemical_formula_sum "Si O2"
_cell_formula_units_Z 16
_cell_length_a 8.421965
_cell_length_b 20.551850
_cell_length_c 11.748722
_cell_angle_alpha 40.053691
_cell_angle_beta 110.193276
_cell_angle_gamma 138.491795
_cell_volume 732.873200
_symmetry_space_group_name_H-M "P -1"
_symmetry_group_IT_number 2
_symmetry_cell_setting 'triclinic'
loop_
_space_group_symop_operation_xyz
x,y,z
-x,-y,-z
loop_
_atom_site_type_symbol
_atom_site_label
_atom_site_fract_x
_atom_site_fract_y
_atom_site_fract_z
Si Si1 0.428629 0.617642 0.156075
Si Si2 0.321684 0.681779 0.839169
Si Si3 0.848295 0.676212 0.046042
Si Si4 0.191981 0.187552 0.328673
Si Si5 0.504508 0.314802 0.446441
Si Si6 0.451308 0.937141 0.947451
Si Si7 0.773937 0.251583 0.480593
Si Si8 0.667584 0.820867 0.165640
O O1 0.611972 0.622732 0.129199
O O2 0.566441 0.697974 0.205435
O O3 0.111053 0.422947 0.347499
O O4 0.431087 0.726089 0.938317
O O5 0.488050 0.676081 0.817899
O O6 0.340569 0.794134 0.618820
O O7 0.000000 0.500000 0.000000
O O8 0.751501 0.515032 0.219350
O O9 0.914832 0.760725 0.826616
O O10 0.135885 0.817186 0.998225
O O11 0.223529 0.211333 0.441490
O O12 0.000000 0.000000 0.500000
O O13 0.622373 0.262211 0.508957
O O14 0.406562 0.267500 0.615677
O O15 0.681230 0.097043 0.705789
O O16 0.486374 0.834688 0.087690
O O17 0.500000 0.000000 0.000000
O O18 0.000000 0.000000 0.000000
#
# Coordination Sequence:
#
# PCOD8012373 Si02
#       8
#     2   2   2   2   2   2   2   2
#     4  10  23  41  66  95 135 173 214 265 330 389
#     4   8  17  36  62  91 125 164 205 258 318 377
#     4  11  24  42  69 101 130 174 218 268 328 389
#     4  10  21  39  70  97 128 167 219 272 323 382
#     4  11  24  42  68  96 133 174 222 268 325 392
#     4  12  25  43  67  94 131 170 226 269 326 389
#     4  10  21  42  68  96 127 173 221 271 325 381
#     4  12  28  44  64  94 135 175 222 271 327 393
#
# _framework density 21.831879000000001
#
# number of rings (size 3 to 8) (size 9 to 14) (size 15 to 20)
#    0.000    1.500    1.250    3.375    7.000    1.500 
#    0.000    1.875    0.000    0.000    0.000    0.000 
#    0.000    0.000    0.000    0.000    0.000    0.000 
#
# Total GULP energy -198292.796375 kJ/mol
# GULP energy per Si atom -12393.299773 kJ/mol
# Density = 2.178219 g / cm^3
# Si number density = 21.831879 Si / 1000 Ang^3
#
#
#
# Elastic Constant Matrix: (Units=GPa)
#
#
# Indices 1 2 3 4 5 6 
#
# 1 45.8126 15.6152 7.6693 0.9014 -5.3936 11.2920
# 2 15.6152 153.5008 54.2202 16.3263 -4.9770 9.4442
# 3 7.6693 54.2202 132.5123 14.6787 6.8440 3.6619
# 4 0.9014 16.3263 14.6787 41.6658 2.5541 -3.5423
# 5 -5.3936 -4.9770 6.8440 2.5541 31.5422 -3.7067
# 6 11.2920 9.4442 3.6619 -3.5423 -3.7067 34.3235
#
#
#
# Elastic Compliance Matrix: (Units=1/GPa)
#
#
# Indices 1 2 3 4 5 6 
#
# 1 0.024702 -0.001675 -0.000661 -0.000466 0.003284 -0.007289
# 2 -0.001675 0.008141 -0.003025 -0.002312 0.001674 -0.001424
# 3 -0.000661 -0.003025 0.009173 -0.001914 -0.002472 -0.000393
# 4 -0.000466 -0.002312 -0.001914 0.025993 -0.001724 0.003490
# 5 0.003284 0.001674 -0.002472 -0.001724 0.033459 0.002158
# 6 -0.007289 -0.001424 -0.000393 0.003490 0.002158 0.032560
#
#
# Mechanical properties :
#
#
# Convention : Reuss Voigt Hill
#
# Bulk Modulus (GPa) = 31.95474 54.09279 43.02377
# Shear Modulus (GPa) = 32.22029 38.46103 35.34066
#
# Velocity S-wave (km/s) = 3.84583 4.20180 4.02775
# Velocity P-wave (km/s) = 5.86422 6.95492 6.43273
#
# Compressibility (1/GPa) = 0.03129426
#
# Stress axis : x y z
#
# Youngs Moduli (GPa) = 40.48263 122.82864 109.01388
#
# Poissons Ratio (x) = 0.20573 0.07205
# Poissons Ratio (y) = 0.06780 0.32980
# Poissons Ratio (z) = 0.02675 0.37160
#
# Static dielectric constant tensor:
#      x y z
#    x 1.012570 -0.203790 -1.918200 
#    y -0.203790 4.180460 0.167680 
#    z -1.918200 0.167680 3.079920 
# 
# 
# High freq. dielectric constant tensor:
#      x y z
#    x 1.839130 0.021610 -0.009400 
#    y 0.021610 1.870880 0.018160 
#    z -0.009400 0.018160 1.869360 
# 
# From -- ./inp_files/225729.got.cif
#   From: 2010.06.25/outbox.cif.g09.slc.cpg/sg2_113_cif.got.tgz:225729.got - 2010.06.27 13:26:56.
