data_PCOD8012334
_publ_section_title
;
Structure prediction by ZEFSAII (Michael W. Deem and Ramdas Pophale) SiO2 
 PCOD8012334
Probable space group: P -1
;
_chemical_formula_sum "Si O2"
_cell_formula_units_Z 16
_cell_length_a 7.925800
_cell_length_b 11.648272
_cell_length_c 11.171315
_cell_angle_alpha 118.315529
_cell_angle_beta 81.191788
_cell_angle_gamma 125.776074
_cell_volume 725.412203
_symmetry_space_group_name_H-M "P -1"
_symmetry_group_IT_number 2
_symmetry_cell_setting 'triclinic'
loop_
_space_group_symop_operation_xyz
x,y,z
-x,-y,-z
loop_
_atom_site_type_symbol
_atom_site_label
_atom_site_fract_x
_atom_site_fract_y
_atom_site_fract_z
Si Si1 0.807340 0.714494 0.262715
Si Si2 0.487764 0.205820 0.567996
Si Si3 0.691884 0.152969 0.987746
Si Si4 0.802437 0.797141 0.791331
Si Si5 0.301667 0.492386 0.468146
Si Si6 0.084219 0.158980 0.938278
Si Si7 0.704578 0.126392 0.695427
Si Si8 0.664271 0.399937 0.242841
O O1 0.722697 0.810768 0.376834
O O2 0.787588 0.719586 0.123958
O O3 0.658025 0.528714 0.227654
O O4 0.047372 0.789459 0.311523
O O5 0.642626 0.371727 0.564696
O O6 0.620457 0.208766 0.666509
O O7 0.420152 0.060721 0.414825
O O8 0.653180 0.141724 0.844686
O O9 0.892224 0.159541 0.003572
O O10 0.749621 0.321987 0.114177
O O11 0.500000 0.000000 0.000000
O O12 0.853718 0.679485 0.667860
O O13 0.569632 0.740536 0.749854
O O14 0.772142 0.787169 0.933906
O O15 0.987957 0.976319 0.815696
O O16 0.500000 0.500000 0.500000
O O17 0.194953 0.510304 0.607284
#
# Coordination Sequence:
#
# PCOD8012334 Si02
#       8
#     2   2   2   2   2   2   2   2
#     4  11  24  41  66  97 129 173 213 277 325 383
#     4  11  22  44  67  94 134 179 211 275 332 379
#     4  11  22  41  64  87 133 172 208 273 325 385
#     4  10  21  41  62  93 125 162 225 260 315 400
#     4  10  21  39  69  92 123 175 219 263 323 394
#     4  10  24  39  64  97 125 167 217 272 318 390
#     4  10  26  40  64 101 135 167 226 266 325 398
#     4  11  23  40  66  93 125 173 218 256 337 385
#
# _framework density 22.056424
#
# number of rings (size 3 to 8) (size 9 to 14) (size 15 to 20)
#    0.000    1.500    3.750    1.125    7.000    5.500 
#    0.000    3.750    0.000    0.000    0.000    0.000 
#    0.000    0.000    0.000    0.000    0.000    0.000 
#
# Total GULP energy -198344.203209 kJ/mol
# GULP energy per Si atom -12396.512701 kJ/mol
# Density = 2.200622 g / cm^3
# Si number density = 22.056424 Si / 1000 Ang^3
#
#
#
# Elastic Constant Matrix: (Units=GPa)
#
#
# Indices 1 2 3 4 5 6 
#
# 1 77.1209 32.2240 44.1700 0.7770 -14.1762 -17.5654
# 2 32.2240 98.0581 55.4107 -8.1200 -9.3633 -22.5201
# 3 44.1700 55.4107 166.3562 5.6965 -24.7351 -13.8668
# 4 0.7770 -8.1200 5.6965 36.7724 -2.1264 -5.0449
# 5 -14.1762 -9.3633 -24.7351 -2.1264 32.1605 1.7685
# 6 -17.5654 -22.5201 -13.8668 -5.0449 1.7685 29.9611
#
#
#
# Elastic Compliance Matrix: (Units=1/GPa)
#
#
# Indices 1 2 3 4 5 6 
#
# 1 0.018036 -0.002076 -0.002774 0.000913 0.004855 0.007597
# 2 -0.002076 0.015924 -0.004065 0.005556 0.000424 0.009782
# 3 -0.002774 -0.004065 0.008695 -0.002116 0.004211 -0.001262
# 4 0.000913 0.005556 -0.002116 0.030030 0.001902 0.008677
# 5 0.004855 0.000424 0.004211 0.001902 0.036542 0.003278
# 6 0.007597 0.009782 -0.001262 0.008677 0.003278 0.045867
#
#
# Mechanical properties :
#
#
# Convention : Reuss Voigt Hill
#
# Bulk Modulus (GPa) = 40.27835 67.23831 53.75833
# Shear Modulus (GPa) = 27.59415 33.76083 30.67749
#
# Velocity S-wave (km/s) = 3.54089 3.91661 3.73348
# Velocity P-wave (km/s) = 5.91763 7.14170 6.55829
#
# Compressibility (1/GPa) = 0.02482723
#
# Stress axis : x y z
#
# Youngs Moduli (GPa) = 55.44401 62.79761 115.01008
#
# Poissons Ratio (x) = 0.13035 0.31898
# Poissons Ratio (y) = 0.11509 0.46749
# Poissons Ratio (z) = 0.15378 0.25526
#
# Static dielectric constant tensor:
#      x y z
#    x 4.022400 -0.063930 -0.028850 
#    y -0.063930 4.049090 0.125050 
#    z -0.028850 0.125050 4.583570 
# 
# 
# High freq. dielectric constant tensor:
#      x y z
#    x 1.849810 -0.017630 -0.006010 
#    y -0.017630 1.868180 -0.001430 
#    z -0.006010 -0.001430 1.886580 
# 
# From -- ./inp_files/389271.got.cif
#   From: 2010.06.25/outbox.cif.g09.slc.cpg/sg2_195_cif.got.tgz:389271.got - 2010.06.27 13:26:56.
