data_PCOD8012192
_publ_section_title
;
Structure prediction by ZEFSAII (Michael W. Deem and Ramdas Pophale) SiO2 
 PCOD8012192
Probable space group: P -1
;
_chemical_formula_sum "Si O2"
_cell_formula_units_Z 14
_cell_length_a 12.089348
_cell_length_b 8.766552
_cell_length_c 21.267696
_cell_angle_alpha 128.829737
_cell_angle_beta 26.534061
_cell_angle_gamma 142.281081
_cell_volume 588.561539
_symmetry_space_group_name_H-M "P -1"
_symmetry_group_IT_number 2
_symmetry_cell_setting 'triclinic'
loop_
_space_group_symop_operation_xyz
x,y,z
-x,-y,-z
loop_
_atom_site_type_symbol
_atom_site_label
_atom_site_fract_x
_atom_site_fract_y
_atom_site_fract_z
Si Si1 0.458494 0.299294 0.515648
Si Si2 0.820446 0.155355 0.333022
Si Si3 0.049425 0.348839 0.816570
Si Si4 0.169269 0.250924 0.300238
Si Si5 0.333382 0.176732 0.792955
Si Si6 0.732413 0.108718 0.130325
Si Si7 0.471365 0.001725 0.105920
O O1 0.500000 0.500000 0.500000
O O2 0.808263 0.369874 0.364389
O O3 0.311459 0.312235 0.658795
O O4 0.184405 0.994525 0.552106
O O5 0.134289 0.276461 0.249039
O O6 0.500000 0.000000 0.500000
O O7 0.813818 0.994817 0.239110
O O8 0.240128 0.644315 0.812450
O O9 0.813936 0.266950 0.854537
O O10 0.836185 0.151229 0.931425
O O11 0.330211 0.530383 0.320600
O O12 0.420745 0.205864 0.172113
O O13 0.412396 0.053929 0.773635
O O14 0.083054 0.199448 0.957690
O O15 0.470637 0.938656 0.162926
#
# Coordination Sequence:
#
# PCOD8012192 Si02
#       7
#     2   2   2   2   2   2   2
#     4  10  22  41  66  92 124 172 216 259 312 378
#     4  10  24  43  67  91 130 178 215 260 315 386
#     4  10  21  39  67  95 129 163 219 268 318 381
#     4  10  23  42  68  96 129 169 215 269 323 381
#     4  11  25  41  62  98 136 169 211 265 328 382
#     4  11  24  39  64  99 135 166 208 271 327 385
#     4  10  22  38  68  99 125 169 214 267 330 378
#
# _framework density 23.786809000000002
#
# number of rings (size 3 to 8) (size 9 to 14) (size 15 to 20)
#    0.000    1.714    1.429    1.286    8.000    5.714 
#    0.000    4.286    0.000   16.286    0.000    0.000 
#    0.000    0.000    0.000    0.000    0.000    0.000 
#
# Total GULP energy -173501.130836 kJ/mol
# GULP energy per Si atom -12392.937917 kJ/mol
# Density = 2.373267 g / cm^3
# Si number density = 23.786809 Si / 1000 Ang^3
#
#
#
# Elastic Constant Matrix: (Units=GPa)
#
#
# Indices 1 2 3 4 5 6 
#
# 1 131.2384 22.4163 0.3903 -0.5350 -1.6926 -0.6511
# 2 22.4163 71.1011 7.2484 1.3551 -2.0639 -0.1428
# 3 0.3903 7.2484 56.9499 8.5947 -2.4917 -2.0635
# 4 -0.5350 1.3551 8.5947 23.8294 -4.0408 4.8148
# 5 -1.6926 -2.0639 -2.4917 -4.0408 27.5927 5.2418
# 6 -0.6511 -0.1428 -2.0635 4.8148 5.2418 30.8460
#
#
#
# Elastic Compliance Matrix: (Units=1/GPa)
#
#
# Indices 1 2 3 4 5 6 
#
# 1 0.008063 -0.002562 0.000246 0.000284 0.000353 0.000070
# 2 -0.002562 0.015087 -0.001867 -0.000050 0.000842 -0.000244
# 3 0.000246 -0.001867 0.018971 -0.007196 0.000084 0.002375
# 4 0.000284 -0.000050 -0.007196 0.047834 0.008141 -0.009326
# 5 0.000353 0.000842 0.000084 0.008141 0.039024 -0.007885
# 6 0.000070 -0.000244 0.002375 -0.009326 -0.007885 0.035374
#
#
# Mechanical properties :
#
#
# Convention : Reuss Voigt Hill
#
# Bulk Modulus (GPa) = 29.62552 35.48885 32.55718
# Shear Modulus (GPa) = 27.17816 31.73591 29.45704
#
# Velocity S-wave (km/s) = 3.38386 3.65661 3.52288
# Velocity P-wave (km/s) = 5.26773 5.72535 5.50130
#
# Compressibility (1/GPa) = 0.03375469
#
# Stress axis : x y z
#
# Youngs Moduli (GPa) = 124.02848 66.28018 52.71202
#
# Poissons Ratio (x) = 0.16981 -0.01297
# Poissons Ratio (y) = 0.31777 0.09842
# Poissons Ratio (z) = -0.03051 0.12376
#
# Static dielectric constant tensor:
#      x y z
#    x 4.772730 -0.274590 -0.304780 
#    y -0.274590 4.199950 0.276110 
#    z -0.304780 0.276110 4.470790 
# 
# 
# High freq. dielectric constant tensor:
#      x y z
#    x 1.950810 -0.013450 -0.008260 
#    y -0.013450 1.932640 0.018490 
#    z -0.008260 0.018490 1.925780 
# 
# From -- ./inp_files/306295.got.cif
#   From: 2010.06.25/outbox.cif.g09.slc.cpg/sg2_154_cif.got.tgz:306295.got - 2010.06.27 13:26:56.
