data_PCOD8012322
_publ_section_title
;
Structure prediction by ZEFSAII (Michael W. Deem and Ramdas Pophale) SiO2 
 PCOD8012322
Probable space group: P -1
;
_chemical_formula_sum "Si O2"
_cell_formula_units_Z 16
_cell_length_a 23.991755
_cell_length_b 8.490005
_cell_length_c 8.427533
_cell_angle_alpha 108.884492
_cell_angle_beta 139.936806
_cell_angle_gamma 42.804307
_cell_volume 630.018156
_symmetry_space_group_name_H-M "P -1"
_symmetry_group_IT_number 2
_symmetry_cell_setting 'triclinic'
loop_
_space_group_symop_operation_xyz
x,y,z
-x,-y,-z
loop_
_atom_site_type_symbol
_atom_site_label
_atom_site_fract_x
_atom_site_fract_y
_atom_site_fract_z
Si Si1 0.265564 0.695273 0.243984
Si Si2 0.392341 0.074968 0.938144
Si Si3 0.527256 0.369395 0.183393
Si Si4 0.936603 0.828872 0.521503
Si Si5 0.263438 0.613493 0.851102
Si Si6 0.300716 0.319375 0.414082
Si Si7 0.005376 0.178629 0.014955
Si Si8 0.233944 0.225771 0.947096
O O1 0.389279 0.641157 0.517079
O O2 0.287076 0.515938 0.358904
O O3 0.275951 0.601546 0.063098
O O4 0.112833 0.025392 0.049090
O O5 0.556283 0.896868 0.236934
O O6 0.285102 0.390958 0.766937
O O7 0.355667 0.056216 0.024353
O O8 0.381767 0.941186 0.745272
O O9 0.500000 0.500000 0.000000
O O10 0.375735 0.564136 0.996404
O O11 0.831036 0.859802 0.216066
O O12 0.929596 0.815479 0.692506
O O13 0.101334 0.556373 0.734304
O O14 0.891048 0.084565 0.449894
O O15 0.158041 0.510043 0.274674
O O16 0.311586 0.150330 0.257766
O O17 0.000000 0.000000 0.000000
#
# Coordination Sequence:
#
# PCOD8012322 Si02
#       8
#     2   2   2   2   2   2   2   2
#     4  11  22  43  68 103 133 177 232 277 345 391
#     4  12  24  42  68 102 140 176 229 277 348 396
#     4  12  25  45  71  95 136 187 227 278 333 417
#     4  10  23  43  69 100 134 180 236 271 339 407
#     4  12  27  42  66 107 141 172 222 291 343 398
#     4  10  21  39  69 103 132 181 224 279 334 412
#     4   9  20  41  69  96 126 177 232 269 328 409
#     4  10  21  42  70  99 131 182 231 280 326 412
#
# _framework density 25.396094999999999
#
# number of rings (size 3 to 8) (size 9 to 14) (size 15 to 20)
#    0.000    1.250    2.500    3.375    1.750    1.500 
#    0.000    0.000    0.000    8.250    0.000    0.000 
#    0.000    0.000    0.000    0.000    0.000    0.000 
#
# Total GULP energy -198417.405657 kJ/mol
# GULP energy per Si atom -12401.087854 kJ/mol
# Density = 2.533829 g / cm^3
# Si number density = 25.396095 Si / 1000 Ang^3
#
#
#
# Elastic Constant Matrix: (Units=GPa)
#
#
# Indices 1 2 3 4 5 6 
#
# 1 53.2790 5.5416 -3.7743 -0.0200 1.0855 -6.6003
# 2 5.5416 132.6682 38.1633 1.9824 -6.7149 -4.4571
# 3 -3.7743 38.1633 87.6601 11.0387 -3.2902 9.6348
# 4 -0.0200 1.9824 11.0387 46.5746 7.0044 0.0794
# 5 1.0855 -6.7149 -3.2902 7.0044 25.7462 -0.2317
# 6 -6.6003 -4.4571 9.6348 0.0794 -0.2317 34.5434
#
#
#
# Elastic Compliance Matrix: (Units=1/GPa)
#
#
# Indices 1 2 3 4 5 6 
#
# 1 0.019365 -0.000994 0.000869 -0.000021 -0.000929 0.003323
# 2 -0.000994 0.008925 -0.004137 0.000330 0.001770 0.002127
# 3 0.000869 -0.004137 0.014211 -0.003424 0.001593 -0.004313
# 4 -0.000021 0.000330 -0.003424 0.023270 -0.006673 0.000895
# 5 -0.000929 0.001770 0.001593 -0.006673 0.041360 -0.000101
# 6 0.003323 0.002127 -0.004313 0.000895 -0.000101 0.031059
#
#
# Mechanical properties :
#
#
# Convention : Reuss Voigt Hill
#
# Bulk Modulus (GPa) = 29.43183 39.27429 34.35306
# Shear Modulus (GPa) = 31.63739 36.95127 34.29433
#
# Velocity S-wave (km/s) = 3.53336 3.81858 3.67874
# Velocity P-wave (km/s) = 5.31606 5.91104 5.62142
#
# Compressibility (1/GPa) = 0.03397682
#
# Stress axis : x y z
#
# Youngs Moduli (GPa) = 51.64044 112.03964 70.36594
#
# Poissons Ratio (x) = 0.11136 -0.06115
# Poissons Ratio (y) = 0.05133 0.29114
# Poissons Ratio (z) = -0.04488 0.46356
#
# Static dielectric constant tensor:
#      x y z
#    x 4.598330 -0.423390 0.324390 
#    y -0.423390 5.209940 -0.009580 
#    z 0.324390 -0.009580 4.603370 
# 
# 
# High freq. dielectric constant tensor:
#      x y z
#    x 1.998940 -0.018020 0.013830 
#    y -0.018020 2.035020 0.006000 
#    z 0.013830 0.006000 2.007160 
# 
# From -- ./inp_files/356628.got.cif
#   From: 2010.06.25/outbox.cif.g09.slc.cpg/sg2_179_cif.got.tgz:356628.got - 2010.06.27 13:26:56.
