data_PCOD8013613
_publ_section_title
;
Structure prediction by ZEFSAII (Michael W. Deem and Ramdas Pophale) SiO2 
 PCOD8013613
Probable space group: P -1
;
_chemical_formula_sum "Si O2"
_cell_formula_units_Z 14
_cell_length_a 8.726887
_cell_length_b 11.726564
_cell_length_c 9.217453
_cell_angle_alpha 127.818989
_cell_angle_beta 63.012943
_cell_angle_gamma 104.714203
_cell_volume 663.612633
_symmetry_space_group_name_H-M "P -1"
_symmetry_group_IT_number 2
_symmetry_cell_setting 'triclinic'
loop_
_space_group_symop_operation_xyz
x,y,z
-x,-y,-z
loop_
_atom_site_type_symbol
_atom_site_label
_atom_site_fract_x
_atom_site_fract_y
_atom_site_fract_z
Si Si1 0.983450 0.097658 0.375912
Si Si2 0.893005 0.358175 0.422134
Si Si3 0.560863 0.780193 0.037799
Si Si4 0.525693 0.495430 0.655986
Si Si5 0.347225 0.276073 0.737817
Si Si6 0.713679 0.983528 0.623340
Si Si7 0.917380 0.819728 0.021314
O O1 0.946491 0.255652 0.451956
O O2 0.172889 0.095212 0.362469
O O3 0.837177 0.072906 0.537481
O O4 0.980807 0.978078 0.156258
O O5 0.692520 0.397991 0.549191
O O6 0.000000 0.500000 0.500000
O O7 0.929858 0.277694 0.190472
O O8 0.528635 0.723865 0.173279
O O9 0.425944 0.908971 0.157761
O O10 0.537463 0.656922 0.833763
O O11 0.757255 0.834776 0.987545
O O12 0.500000 0.500000 0.500000
O O13 0.367254 0.419866 0.745947
O O14 0.392454 0.134398 0.511322
O O15 0.148817 0.262247 0.868049
#
# Coordination Sequence:
#
# PCOD8013613 Si02
#       7
#     2   2   2   2   2   2   2
#     4  10  23  40  66 100 128 170 212 275 328 375
#     4  12  24  44  63  91 138 175 209 270 325 391
#     4  10  21  41  67  93 127 171 217 258 325 386
#     4  12  27  42  65  97 134 172 222 265 326 380
#     4   9  21  42  69  92 129 173 216 264 320 396
#     4  10  21  40  70 100 128 161 229 272 314 385
#     4   9  22  41  66  92 124 174 218 249 335 383
#
# _framework density 21.096644999999999
#
# number of rings (size 3 to 8) (size 9 to 14) (size 15 to 20)
#    0.857    0.857    1.429    2.143    6.000    1.143 
#    0.000    2.143    0.000    0.000    0.000    0.000 
#    0.000    0.000    0.000    0.000    0.000    0.000 
#
# Total GULP energy -173588.415182 kJ/mol
# GULP energy per Si atom -12399.172513 kJ/mol
# Density = 2.104863 g / cm^3
# Si number density = 21.096645 Si / 1000 Ang^3
#
#
#
# Elastic Constant Matrix: (Units=GPa)
#
#
# Indices 1 2 3 4 5 6 
#
# 1 70.6980 28.9032 46.9245 5.8918 15.4672 -11.1603
# 2 28.9032 86.3620 21.4275 4.8612 16.9468 -14.4931
# 3 46.9245 21.4275 136.3785 23.0727 10.4440 -11.8365
# 4 5.8918 4.8612 23.0727 24.4944 0.1441 4.5001
# 5 15.4672 16.9468 10.4440 0.1441 39.9050 0.3834
# 6 -11.1603 -14.4931 -11.8365 4.5001 0.3834 28.5939
#
#
#
# Elastic Compliance Matrix: (Units=1/GPa)
#
#
# Indices 1 2 3 4 5 6 
#
# 1 0.021560 -0.004116 -0.006206 0.000827 -0.005023 0.003697
# 2 -0.004116 0.015192 0.000703 -0.003957 -0.005094 0.007076
# 3 -0.006206 0.000703 0.011552 -0.010323 -0.000921 0.004353
# 4 0.000827 -0.003957 -0.010323 0.053771 0.004007 -0.014472
# 5 -0.005023 -0.005094 -0.000921 0.004007 0.029453 -0.005949
# 6 0.003697 0.007076 0.004353 -0.014472 -0.005949 0.044161
#
#
# Mechanical properties :
#
#
# Convention : Reuss Voigt Hill
#
# Bulk Modulus (GPa) = 34.40461 54.21656 44.31058
# Shear Modulus (GPa) = 24.43585 31.67754 28.05670
#
# Velocity S-wave (km/s) = 3.40705 3.87918 3.65075
# Velocity P-wave (km/s) = 5.64099 6.76897 6.23056
#
# Compressibility (1/GPa) = 0.02906587
#
# Stress axis : x y z
#
# Youngs Moduli (GPa) = 46.38169 65.82345 86.56374
#
# Poissons Ratio (x) = 0.27096 0.53722
# Poissons Ratio (y) = 0.19093 -0.06086
# Poissons Ratio (z) = 0.28785 -0.04628
#
# Static dielectric constant tensor:
#      x y z
#    x 3.738230 0.101600 0.016810 
#    y 0.101600 3.610110 -0.046020 
#    z 0.016810 -0.046020 3.845280 
# 
# 
# High freq. dielectric constant tensor:
#      x y z
#    x 1.811460 0.010300 0.005840 
#    y 0.010300 1.817680 -0.000480 
#    z 0.005840 -0.000480 1.836350 
# 
# From -- ./inp_files/183027.got.cif
#   From: 2010.06.25/outbox.cif.g09.slc.cpg/sg2_92_cif.got.tgz:183027.got - 2010.06.27 13:26:56.
