data_PCOD8013183
_publ_section_title
;
Structure prediction by ZEFSAII (Michael W. Deem and Ramdas Pophale) SiO2 
 PCOD8013183
Probable space group: P -1
;
_chemical_formula_sum "Si O2"
_cell_formula_units_Z 12
_cell_length_a 11.274459
_cell_length_b 15.281499
_cell_length_c 7.375395
_cell_angle_alpha 37.374309
_cell_angle_beta 58.646418
_cell_angle_gamma 42.029135
_cell_volume 508.709663
_symmetry_space_group_name_H-M "P -1"
_symmetry_group_IT_number 2
_symmetry_cell_setting 'triclinic'
loop_
_space_group_symop_operation_xyz
x,y,z
-x,-y,-z
loop_
_atom_site_type_symbol
_atom_site_label
_atom_site_fract_x
_atom_site_fract_y
_atom_site_fract_z
Si Si1 0.452423 0.759372 0.435101
Si Si2 0.258111 0.087651 0.772683
Si Si3 0.816351 0.562338 0.626450
Si Si4 0.624040 0.183946 0.189989
Si Si5 0.723110 0.427867 0.223856
Si Si6 0.100071 0.792836 0.199821
O O1 0.672520 0.603475 0.519179
O O2 0.384040 0.852781 0.533418
O O3 0.363916 0.667196 0.602401
O O4 0.391149 0.922017 0.077945
O O5 0.287176 0.239357 0.510668
O O6 0.046091 0.202927 0.804307
O O7 0.294793 0.003833 0.678464
O O8 0.000000 0.500000 0.500000
O O9 0.848955 0.408510 0.993655
O O10 0.432136 0.352481 0.980302
O O11 0.736832 0.259183 0.966536
O O12 0.837938 0.340707 0.457023
O O13 0.000000 0.000000 0.000000
#
# Coordination Sequence:
#
# PCOD8013183 Si02
#       6
#     2   2   2   2   2   2
#     4  11  24  45  72  98 132 184 227 269 336 403
#     4  11  25  43  67 101 142 172 223 281 335 400
#     4  11  27  44  67 103 138 176 223 281 344 392
#     4  10  22  40  70 101 131 176 227 276 329 390
#     4  11  23  44  72 100 132 182 230 270 332 407
#     4  10  21  40  66 104 131 171 224 278 331 386
#
# _framework density 23.589093999999999
#
# number of rings (size 3 to 8) (size 9 to 14) (size 15 to 20)
#    0.000    1.333    3.333    3.000    4.667    6.667 
#    0.000    1.667    0.000    0.000    0.000    0.000 
#    0.000    0.000    0.000    0.000    0.000    0.000 
#
# Total GULP energy -148746.920719 kJ/mol
# GULP energy per Si atom -12395.576727 kJ/mol
# Density = 2.353540 g / cm^3
# Si number density = 23.589094 Si / 1000 Ang^3
#
#
#
# Elastic Constant Matrix: (Units=GPa)
#
#
# Indices 1 2 3 4 5 6 
#
# 1 87.7653 16.1379 27.4687 3.1177 1.5251 -7.8052
# 2 16.1379 62.9209 10.0814 15.9925 1.0345 -12.0199
# 3 27.4687 10.0814 79.7028 1.3401 -9.3894 -1.2627
# 4 3.1177 15.9925 1.3401 29.3988 3.1348 -11.3177
# 5 1.5251 1.0345 -9.3894 3.1348 40.0011 -6.2474
# 6 -7.8052 -12.0199 -1.2627 -11.3177 -6.2474 42.8393
#
#
#
# Elastic Compliance Matrix: (Units=1/GPa)
#
#
# Indices 1 2 3 4 5 6 
#
# 1 0.013399 -0.002644 -0.004428 0.000990 -0.001303 0.001640
# 2 -0.002644 0.019659 -0.001327 -0.009409 0.000420 0.002571
# 3 -0.004428 -0.001327 0.014661 0.000059 0.003608 -0.000205
# 4 0.000990 -0.009409 0.000059 0.042491 -0.001782 0.008508
# 5 -0.001303 0.000420 0.003608 -0.001782 0.026554 0.003388
# 6 0.001640 0.002571 -0.000205 0.008508 0.003388 0.027099
#
#
# Mechanical properties :
#
#
# Convention : Reuss Voigt Hill
#
# Bulk Modulus (GPa) = 32.33903 37.52943 34.93423
# Shear Modulus (GPa) = 29.24518 34.22789 31.73653
#
# Velocity S-wave (km/s) = 3.52486 3.81334 3.67194
# Velocity P-wave (km/s) = 5.50503 5.94415 5.72880
#
# Compressibility (1/GPa) = 0.03092239
#
# Stress axis : x y z
#
# Youngs Moduli (GPa) = 74.63058 50.86664 68.20725
#
# Poissons Ratio (x) = 0.13449 0.30200
# Poissons Ratio (y) = 0.19732 0.09052
# Poissons Ratio (z) = 0.33044 0.06750
#
# Static dielectric constant tensor:
#      x y z
#    x 3.024720 -0.074450 -0.311110 
#    y -0.074450 4.400590 0.164290 
#    z -0.311110 0.164290 4.651950 
# 
# 
# High freq. dielectric constant tensor:
#      x y z
#    x 1.941980 -0.010180 -0.012400 
#    y -0.010180 1.934200 -0.002270 
#    z -0.012400 -0.002270 1.935590 
# 
# From -- ./inp_files/274949.got.cif
#   From: 2010.06.25/outbox.cif.g09.slc.cpg/sg2_138_cif.got.tgz:274949.got - 2010.06.27 13:26:56.
