data_PCOD8013263
_publ_section_title
;
Structure prediction by ZEFSAII (Michael W. Deem and Ramdas Pophale) SiO2 
 PCOD8013263
Probable space group: P -1
;
_chemical_formula_sum "Si O2"
_cell_formula_units_Z 14
_cell_length_a 15.626756
_cell_length_b 27.666579
_cell_length_c 12.591333
_cell_angle_alpha 22.740113
_cell_angle_beta 26.354934
_cell_angle_gamma 16.807687
_cell_volume 604.221611
_symmetry_space_group_name_H-M "P -1"
_symmetry_group_IT_number 2
_symmetry_cell_setting 'triclinic'
loop_
_space_group_symop_operation_xyz
x,y,z
-x,-y,-z
loop_
_atom_site_type_symbol
_atom_site_label
_atom_site_fract_x
_atom_site_fract_y
_atom_site_fract_z
Si Si1 0.169173 0.268059 0.608541
Si Si2 0.173060 0.220441 0.927883
Si Si3 0.213492 0.760346 0.563811
Si Si4 0.773281 0.368820 0.661793
Si Si5 0.213241 0.150921 0.439240
Si Si6 0.252797 0.907602 0.745978
Si Si7 0.578454 0.827597 0.043276
O O1 0.391235 0.261755 0.325796
O O2 0.891344 0.384571 0.602923
O O3 0.335316 0.054281 0.867507
O O4 0.082828 0.345676 0.669409
O O5 0.181784 0.296642 0.874035
O O6 0.904202 0.252352 0.174363
O O7 0.500000 0.000000 0.000000
O O8 0.419950 0.569035 0.646820
O O9 0.406341 0.783950 0.329786
O O10 0.908347 0.944010 0.472413
O O11 0.933238 0.340052 0.435793
O O12 0.851233 0.183403 0.950832
O O13 0.255042 0.230400 0.136492
O O14 0.500000 0.000000 0.500000
O O15 0.160138 0.034310 0.695283
#
# Coordination Sequence:
#
# PCOD8013263 Si02
#       7
#     2   2   2   2   2   2   2
#     4  10  21  43  67  91 130 175 214 265 325 381
#     4  10  21  42  68  93 129 178 215 260 331 388
#     4  12  24  41  68 102 129 167 222 270 319 385
#     4  12  26  40  67 105 128 167 224 268 318 383
#     4  11  20  44  69  91 132 177 211 262 328 387
#     4  11  22  45  66  92 135 175 211 262 330 389
#     4  10  21  40  66  94 128 171 219 256 322 385
#
# _framework density 23.170306
#
# number of rings (size 3 to 8) (size 9 to 14) (size 15 to 20)
#    0.000    1.143    8.571    0.429    0.000    6.286 
#    0.000    1.429    0.000    0.000    0.000    0.000 
#    0.000    0.000    0.000    0.000    0.000    0.000 
#
# Total GULP energy -173517.072409 kJ/mol
# GULP energy per Si atom -12394.076601 kJ/mol
# Density = 2.311757 g / cm^3
# Si number density = 23.170306 Si / 1000 Ang^3
#
#
#
# Elastic Constant Matrix: (Units=GPa)
#
#
# Indices 1 2 3 4 5 6 
#
# 1 126.4561 7.2153 49.3290 17.6508 -4.0309 17.4506
# 2 7.2153 76.2167 30.7227 35.2249 -3.3459 5.7058
# 3 49.3290 30.7227 54.4370 41.7400 -6.8032 2.7172
# 4 17.6508 35.2249 41.7400 28.6509 2.3677 9.2048
# 5 -4.0309 -3.3459 -6.8032 2.3677 30.5455 9.4773
# 6 17.4506 5.7058 2.7172 9.2048 9.4773 28.5403
#
#
#
# Elastic Compliance Matrix: (Units=1/GPa)
#
#
# Indices 1 2 3 4 5 6 
#
# 1 0.009160 0.007591 0.004687 -0.021465 0.005515 -0.002473
# 2 0.007591 0.019235 -0.021082 0.005003 0.000598 -0.008292
# 3 0.004687 -0.021082 -0.029855 0.072474 -0.008926 -0.016219
# 4 -0.021465 0.005003 0.072474 -0.072516 0.011818 0.024688
# 5 0.005515 0.000598 -0.008926 0.011818 0.036378 -0.018534
# 6 -0.002473 -0.008292 -0.016219 0.024688 -0.018534 0.037944
#
#
# Mechanical properties :
#
#
# Convention : Reuss Voigt Hill
#
# Bulk Modulus (GPa) = -52.44300 47.96042 -2.24129
# Shear Modulus (GPa) = 431.08613 28.87020 229.97817
#
# Velocity S-wave (km/s) = 13.65485 3.53370 9.97352
# Velocity P-wave (km/s) = 15.03076 6.11502 11.47426
#
# Compressibility (1/GPa) = -0.01906832
#
# Stress axis : x y z
#
# Youngs Moduli (GPa) = 109.17316 51.98916 -33.49571
#
# Poissons Ratio (x) = -0.39467 0.15698
# Poissons Ratio (y) = -0.82878 -0.70616
# Poissons Ratio (z) = -0.51164 1.09604
#
# Static dielectric constant tensor:
#      x y z
#    x 4.793470 0.231030 0.139860 
#    y 0.231030 4.129000 0.300920 
#    z 0.139860 0.300920 4.166270 
# 
# 
# High freq. dielectric constant tensor:
#      x y z
#    x 1.921340 0.004200 -0.005170 
#    y 0.004200 1.907620 0.017200 
#    z -0.005170 0.017200 1.911730 
# 
# From -- ./inp_files/458005.got.cif
#   From: 2010.06.25/outbox.cif.g09.slc.cpg/sg2_230_cif.got.tgz:458005.got - 2010.06.27 13:26:56.
