data_PCOD8013959
_publ_section_title
;
Structure prediction by ZEFSAII (Michael W. Deem and Ramdas Pophale) SiO2 
 PCOD8013959
Probable space group: P -1
;
_chemical_formula_sum "Si O2"
_cell_formula_units_Z 16
_cell_length_a 16.892896
_cell_length_b 5.174891
_cell_length_c 8.027279
_cell_angle_alpha 95.140229
_cell_angle_beta 109.009207
_cell_angle_gamma 70.129140
_cell_volume 623.789434
_symmetry_space_group_name_H-M "P -1"
_symmetry_group_IT_number 2
_symmetry_cell_setting 'triclinic'
loop_
_space_group_symop_operation_xyz
x,y,z
-x,-y,-z
loop_
_atom_site_type_symbol
_atom_site_label
_atom_site_fract_x
_atom_site_fract_y
_atom_site_fract_z
Si Si1 0.000766 0.728554 0.887754
Si Si2 0.420694 0.825506 0.807557
Si Si3 0.714857 0.456679 0.811167
Si Si4 0.635239 0.883591 0.537077
Si Si5 0.182330 0.366620 0.861727
Si Si6 0.230377 0.790298 0.710964
Si Si7 0.816876 0.001202 0.647613
Si Si8 0.429073 0.734651 0.175229
O O1 0.086196 0.596503 0.823477
O O2 0.912633 0.773847 0.719949
O O3 0.000000 0.500000 0.000000
O O4 0.000000 0.000000 0.000000
O O5 0.415976 0.062853 0.676083
O O6 0.491824 0.548851 0.775818
O O7 0.330397 0.761903 0.738596
O O8 0.437584 0.900187 0.018126
O O9 0.651713 0.582927 0.613723
O O10 0.801331 0.207069 0.804635
O O11 0.660839 0.345321 0.904579
O O12 0.754989 0.677095 0.932930
O O13 0.734422 0.887624 0.576998
O O14 0.576109 0.095260 0.647808
O O15 0.181013 0.064544 0.801716
O O16 0.229641 0.500201 0.765066
O O17 0.177482 0.832606 0.504774
#
# Coordination Sequence:
#
# PCOD8013959 Si02
#       8
#     2   2   2   2   2   2   2   2
#     4  12  25  43  72 104 135 176 233 285 343 418
#     4  10  21  42  64  94 138 181 233 289 354 417
#     4  11  22  41  69  96 134 181 236 285 351 417
#     4  10  22  40  64  96 136 179 233 293 351 417
#     4  12  25  44  71 100 138 181 228 289 345 415
#     4  11  26  45  67 100 141 181 227 284 356 412
#     4  10  25  43  67  98 135 181 227 285 349 419
#     4  10  21  41  63  97 133 181 233 295 346 427
#
# _framework density 25.649681999999999
#
# number of rings (size 3 to 8) (size 9 to 14) (size 15 to 20)
#    0.000    1.250    2.500    2.625    5.250    1.500 
#    2.250    1.875    0.000    0.000    0.000    0.000 
#    0.000    0.000    0.000    0.000    0.000    0.000 
#
# Total GULP energy -198275.387773 kJ/mol
# GULP energy per Si atom -12392.211736 kJ/mol
# Density = 2.559130 g / cm^3
# Si number density = 25.649682 Si / 1000 Ang^3
#
#
#
# Elastic Constant Matrix: (Units=GPa)
#
#
# Indices 1 2 3 4 5 6 
#
# 1 6.4518 24.2717 14.8249 15.3901 -31.5949 -39.9579
# 2 24.2717 72.5257 18.2153 2.0777 0.1989 -9.8574
# 3 14.8249 18.2153 148.3209 -19.5967 -9.2409 -14.8111
# 4 15.3901 2.0777 -19.5967 39.3655 5.1918 -6.2954
# 5 -31.5949 0.1989 -9.2409 5.1918 20.2447 -14.2880
# 6 -39.9579 -9.8574 -14.8111 -6.2954 -14.2880 40.7346
#
#
#
# Elastic Compliance Matrix: (Units=1/GPa)
#
#
# Indices 1 2 3 4 5 6 
#
# 1 -0.005307 0.000600 -0.001559 0.001743 -0.017581 -0.011525
# 2 0.000600 0.014601 -0.001313 -0.001410 0.003951 0.004812
# 3 -0.001559 -0.001313 0.008051 0.004848 0.001731 0.002437
# 4 0.001743 -0.001410 0.004848 0.028101 0.004006 0.008879
# 5 -0.017581 0.003951 0.001731 0.004006 0.014707 -0.009883
# 6 -0.011525 0.004812 0.002437 0.008879 -0.009883 0.013200
#
#
# Mechanical properties :
#
#
# Convention : Reuss Voigt Hill
#
# Bulk Modulus (GPa) = 78.12526 37.99136 58.05831
# Shear Modulus (GPa) = 60.85385 31.40141 46.12763
#
# Velocity S-wave (km/s) = 4.87611 3.50271 4.24532
# Velocity P-wave (km/s) = 7.88839 5.58591 6.83481
#
# Compressibility (1/GPa) = 0.01279996
#
# Stress axis : x y z
#
# Youngs Moduli (GPa) = -188.42733 68.48917 124.21005
#
# Poissons Ratio (x) = -0.04106 0.19366
# Poissons Ratio (y) = 0.11297 0.16305
# Poissons Ratio (z) = -0.29379 0.08991
#
# Static dielectric constant tensor:
#      x y z
#    x 4.167260 -0.090660 -0.269680 
#    y -0.090660 4.396260 -0.205560 
#    z -0.269680 -0.205560 5.090290 
# 
# 
# High freq. dielectric constant tensor:
#      x y z
#    x 2.024800 -0.017460 -0.011900 
#    y -0.017460 2.019850 -0.013930 
#    z -0.011900 -0.013930 2.037440 
# 
# From -- ./inp_files/288648.got.cif
#   From: 2010.06.25/outbox.cif.g09.slc.cpg/sg2_145_cif.got.tgz:288648.got - 2010.06.27 13:26:56.
