data_PCOD8013904
_publ_section_title
;
Structure prediction by ZEFSAII (Michael W. Deem and Ramdas Pophale) SiO2 
 PCOD8013904
Probable space group: P -1
;
_chemical_formula_sum "Si O2"
_cell_formula_units_Z 16
_cell_length_a 10.761447
_cell_length_b 14.867924
_cell_length_c 8.461446
_cell_angle_alpha 116.911067
_cell_angle_beta 82.575226
_cell_angle_gamma 138.783680
_cell_volume 742.260040
_symmetry_space_group_name_H-M "P -1"
_symmetry_group_IT_number 2
_symmetry_cell_setting 'triclinic'
loop_
_space_group_symop_operation_xyz
x,y,z
-x,-y,-z
loop_
_atom_site_type_symbol
_atom_site_label
_atom_site_fract_x
_atom_site_fract_y
_atom_site_fract_z
Si Si1 0.801308 0.809788 0.394564
Si Si2 0.105380 0.407050 0.307055
Si Si3 0.701205 0.236623 0.112702
Si Si4 0.076331 0.269167 0.913433
Si Si5 0.683808 0.566162 0.431051
Si Si6 0.617965 0.986910 0.760141
Si Si7 0.552854 0.264060 0.639434
Si Si8 0.715579 0.433167 0.067513
O O1 0.782384 0.730771 0.175003
O O2 0.821707 0.744172 0.483647
O O3 0.604505 0.751744 0.408008
O O4 0.000000 0.000000 0.500000
O O5 0.166204 0.410108 0.473508
O O6 0.239128 0.585525 0.368543
O O7 0.871439 0.292298 0.239791
O O8 0.148391 0.337311 0.133099
O O9 0.512909 0.148058 0.185151
O O10 0.794825 0.393024 0.134590
O O11 0.622371 0.109653 0.888528
O O12 0.100267 0.390382 0.907167
O O13 0.844764 0.086836 0.803537
O O14 0.500000 0.500000 0.500000
O O15 0.598971 0.441557 0.203377
O O16 0.523557 0.895098 0.531573
O O17 0.571686 0.289247 0.845344
#
# Coordination Sequence:
#
# PCOD8013904 Si02
#       8
#     2   2   2   2   2   2   2   2
#     4  11  22  40  62  91 131 163 198 262 315 371
#     4  10  22  41  67  92 121 171 211 252 309 364
#     4  10  23  44  65  90 130 164 209 262 302 368
#     4   9  21  40  64  91 130 161 210 252 310 374
#     4  11  23  40  66  93 122 161 214 258 305 371
#     4  10  21  41  63  90 127 167 204 261 308 362
#     4  11  22  38  65  95 125 168 208 252 315 368
#     4  10  24  40  64  95 124 164 214 253 305 373
#
# _framework density 21.555788
#
# number of rings (size 3 to 8) (size 9 to 14) (size 15 to 20)
#    0.000    1.750    2.500    0.750    1.750    8.500 
#    6.750    3.125    0.000    0.000    0.000    0.000 
#    0.000    0.000    0.000    0.000    0.000    0.000 
#
# Total GULP energy -198275.678555 kJ/mol
# GULP energy per Si atom -12392.229910 kJ/mol
# Density = 2.150673 g / cm^3
# Si number density = 21.555788 Si / 1000 Ang^3
#
#
#
# Elastic Constant Matrix: (Units=GPa)
#
#
# Indices 1 2 3 4 5 6 
#
# 1 72.7262 32.4894 38.0452 -2.0087 -1.4174 -3.7080
# 2 32.4894 85.4695 43.7893 2.7689 0.7297 -1.1653
# 3 38.0452 43.7893 155.4129 3.2273 -11.5177 2.4014
# 4 -2.0087 2.7689 3.2273 30.5648 1.1876 1.6398
# 5 -1.4174 0.7297 -11.5177 1.1876 30.6269 -4.4330
# 6 -3.7080 -1.1653 2.4014 1.6398 -4.4330 31.9148
#
#
#
# Elastic Compliance Matrix: (Units=1/GPa)
#
#
# Indices 1 2 3 4 5 6 
#
# 1 0.017806 -0.005300 -0.002930 0.001849 0.000068 0.002010
# 2 -0.005300 0.015381 -0.003137 -0.001343 -0.001738 0.000009
# 3 -0.002930 -0.003137 0.008285 -0.000867 0.002999 -0.000617
# 4 0.001849 -0.001343 -0.000867 0.033212 -0.001745 -0.001718
# 5 0.000068 -0.001738 0.002999 -0.001745 0.034558 0.004609
# 6 0.002010 0.000009 -0.000617 -0.001718 0.004609 0.032342
#
#
# Mechanical properties :
#
#
# Convention : Reuss Voigt Hill
#
# Bulk Modulus (GPa) = 53.37063 60.25071 56.81067
# Shear Modulus (GPa) = 29.31437 31.90694 30.61065
#
# Velocity S-wave (km/s) = 3.69172 3.85151 3.77247
# Velocity P-wave (km/s) = 6.55628 6.91308 6.73704
#
# Compressibility (1/GPa) = 0.01873690
#
# Stress axis : x y z
#
# Youngs Moduli (GPa) = 56.16188 65.01647 120.69351
#
# Poissons Ratio (x) = 0.34462 0.35361
# Poissons Ratio (y) = 0.29768 0.37864
# Poissons Ratio (z) = 0.16454 0.20397
#
# Static dielectric constant tensor:
#      x y z
#    x 3.602460 0.062990 -0.222950 
#    y 0.062990 3.899950 -0.026470 
#    z -0.222950 -0.026470 4.312040 
# 
# 
# High freq. dielectric constant tensor:
#      x y z
#    x 1.818920 0.010050 -0.027000 
#    y 0.010050 1.841510 0.001140 
#    z -0.027000 0.001140 1.863530 
# 
# From -- ./inp_files/214358.got.cif
#   From: 2010.06.25/outbox.cif.g09.slc.cpg/sg2_108_cif.got.tgz:214358.got - 2010.06.27 13:26:56.
