data_PCOD8013299
_publ_section_title
;
Structure prediction by ZEFSAII (Michael W. Deem and Ramdas Pophale) SiO2 
 PCOD8013299
Probable space group: P -1
;
_chemical_formula_sum "Si O2"
_cell_formula_units_Z 16
_cell_length_a 8.713135
_cell_length_b 9.378514
_cell_length_c 11.826226
_cell_angle_alpha 57.285763
_cell_angle_beta 108.224199
_cell_angle_gamma 114.090999
_cell_volume 736.920248
_symmetry_space_group_name_H-M "P -1"
_symmetry_group_IT_number 2
_symmetry_cell_setting 'triclinic'
loop_
_space_group_symop_operation_xyz
x,y,z
-x,-y,-z
loop_
_atom_site_type_symbol
_atom_site_label
_atom_site_fract_x
_atom_site_fract_y
_atom_site_fract_z
Si Si1 0.618375 0.398184 0.628467
Si Si2 0.112631 0.191372 0.901902
Si Si3 0.797572 0.188732 0.228114
Si Si4 0.094705 0.688791 0.388947
Si Si5 0.610310 0.901421 0.136814
Si Si6 0.310213 0.478897 0.993562
Si Si7 0.194248 0.337850 0.264218
Si Si8 0.154964 0.971102 0.476794
O O1 0.500000 0.500000 0.500000
O O2 0.713050 0.306305 0.599491
O O3 0.510993 0.251316 0.751000
O O4 0.766750 0.542396 0.666657
O O5 0.284866 0.183676 0.886920
O O6 0.170282 0.319817 0.967563
O O7 0.002813 0.276400 0.758990
O O8 0.000000 0.000000 0.000000
O O9 0.703144 0.331741 0.124610
O O10 0.740277 0.107294 0.375104
O O11 0.995819 0.280630 0.221414
O O12 0.745890 0.035479 0.189448
O O13 0.094523 0.838902 0.415359
O O14 0.000000 0.500000 0.500000
O O15 0.500000 0.000000 0.000000
O O16 0.500000 0.500000 0.000000
O O17 0.290466 0.452906 0.133665
O O18 0.259997 0.164238 0.370015
O O19 0.000000 0.000000 0.500000
#
# Coordination Sequence:
#
# PCOD8013299 Si02
#       8
#     2   2   2   2   2   2   2   2
#     4  12  26  45  67  99 137 176 219 278 341 393
#     4  12  24  43  68  97 129 173 227 275 323 398
#     4  11  23  43  67  92 126 173 216 259 323 399
#     4  12  24  42  69 100 131 175 227 274 326 401
#     4  12  25  44  66  97 137 175 215 277 341 390
#     4  12  25  41  62  95 131 167 213 271 326 380
#     4  11  23  44  68  93 128 174 218 264 325 398
#     4  10  21  40  66  97 125 161 215 274 321 379
#
# _framework density 21.711984999999999
#
# number of rings (size 3 to 8) (size 9 to 14) (size 15 to 20)
#    0.000    0.500    0.000   10.875    0.000    2.000 
#    0.000    1.875    0.000    0.000    0.000    0.000 
#    0.000    0.000    0.000    0.000    0.000    0.000 
#
# Total GULP energy -198466.734186 kJ/mol
# GULP energy per Si atom -12404.170887 kJ/mol
# Density = 2.166257 g / cm^3
# Si number density = 21.711985 Si / 1000 Ang^3
#
#
#
# Elastic Constant Matrix: (Units=GPa)
#
#
# Indices 1 2 3 4 5 6 
#
# 1 120.7085 15.1605 48.3637 -12.6238 -2.4044 -6.1145
# 2 15.1605 119.7227 25.2567 3.5887 -3.4952 -7.2899
# 3 48.3637 25.2567 164.9420 -24.2071 12.9354 -0.7412
# 4 -12.6238 3.5887 -24.2071 49.8886 -8.1163 1.3797
# 5 -2.4044 -3.4952 12.9354 -8.1163 17.0406 1.0638
# 6 -6.1145 -7.2899 -0.7412 1.3797 1.0638 35.9727
#
#
#
# Elastic Compliance Matrix: (Units=1/GPa)
#
#
# Indices 1 2 3 4 5 6 
#
# 1 0.009835 -0.000489 -0.002874 0.001782 0.004235 0.001320
# 2 -0.000489 0.008952 -0.001576 -0.001207 0.002284 0.001677
# 3 -0.002874 -0.001576 0.007926 0.002337 -0.005597 -0.000569
# 4 0.001782 -0.001207 0.002337 0.023272 0.009380 -0.001064
# 5 0.004235 0.002284 -0.005597 0.009380 0.068548 -0.001319
# 6 0.001320 0.001677 -0.000569 -0.001064 -0.001319 0.028431
#
#
# Mechanical properties :
#
#
# Convention : Reuss Voigt Hill
#
# Bulk Modulus (GPa) = 59.39669 64.77057 62.08363
# Shear Modulus (GPa) = 30.77822 41.68655 36.23238
#
# Velocity S-wave (km/s) = 3.76915 4.38651 4.08949
# Velocity P-wave (km/s) = 6.80867 7.45331 7.13827
#
# Compressibility (1/GPa) = 0.01683595
#
# Stress axis : x y z
#
# Youngs Moduli (GPa) = 101.68099 111.70643 126.16596
#
# Poissons Ratio (x) = 0.05458 0.36255
# Poissons Ratio (y) = 0.04968 0.19887
# Poissons Ratio (z) = 0.29219 0.17608
#
# Static dielectric constant tensor:
#      x y z
#    x 3.761750 -0.113870 0.022030 
#    y -0.113870 4.267480 -0.107720 
#    z 0.022030 -0.107720 4.444220 
# 
# 
# High freq. dielectric constant tensor:
#      x y z
#    x 1.848180 -0.005060 0.001890 
#    y -0.005060 1.870830 -0.005400 
#    z 0.001890 -0.005400 1.879810 
# 
# From -- ./inp_files/209557.got.cif
#   From: 2010.06.25/outbox.cif.g09.slc.cpg/sg2_105_cif.got.tgz:209557.got - 2010.06.27 13:26:56.
