data_PCOD8013143
_publ_section_title
;
Structure prediction by ZEFSAII (Michael W. Deem and Ramdas Pophale) SiO2 
 PCOD8013143
Probable space group: P -1
;
_chemical_formula_sum "Si O2"
_cell_formula_units_Z 14
_cell_length_a 21.608925
_cell_length_b 11.687963
_cell_length_c 21.712019
_cell_angle_alpha 21.360711
_cell_angle_beta 162.170709
_cell_angle_gamma 152.065722
_cell_volume 611.322533
_symmetry_space_group_name_H-M "P -1"
_symmetry_group_IT_number 2
_symmetry_cell_setting 'triclinic'
loop_
_space_group_symop_operation_xyz
x,y,z
-x,-y,-z
loop_
_atom_site_type_symbol
_atom_site_label
_atom_site_fract_x
_atom_site_fract_y
_atom_site_fract_z
Si Si1 0.919697 0.361355 0.084203
Si Si2 0.291679 0.694420 0.212999
Si Si3 0.407360 0.237370 0.356963
Si Si4 0.182190 0.091189 0.683998
Si Si5 0.901080 0.205915 0.749969
Si Si6 0.288055 0.127922 0.095446
Si Si7 0.401539 0.669475 0.017949
O O1 0.139786 0.497752 0.210703
O O2 0.952002 0.089799 0.302347
O O3 0.820140 0.219430 0.999606
O O4 0.762293 0.628418 0.824859
O O5 0.500000 0.500000 0.500000
O O6 0.343987 0.028498 0.128282
O O7 0.445238 0.465127 0.222674
O O8 0.325655 0.901171 0.424019
O O9 0.618751 0.154738 0.631778
O O10 0.087046 0.428240 0.406549
O O11 0.400709 0.126048 0.907485
O O12 0.209887 0.900364 0.740669
O O13 0.045263 0.135180 0.863568
O O14 0.000000 0.000000 0.000000
O O15 0.362154 0.466823 0.020481
#
# Coordination Sequence:
#
# PCOD8013143 Si02
#       7
#     2   2   2   2   2   2   2
#     4  10  23  45  68  93 132 170 217 274 329 370
#     4  11  23  43  70  97 122 174 231 271 313 384
#     4  11  20  40  66  97 133 170 210 266 320 397
#     4  10  23  43  63  98 138 172 205 269 331 387
#     4  12  23  39  66  99 133 174 213 257 330 401
#     4  12  22  37  67  97 126 172 223 262 318 384
#     4  10  21  40  65  95 137 171 201 262 331 388
#
# _framework density 22.901167000000001
#
# number of rings (size 3 to 8) (size 9 to 14) (size 15 to 20)
#    0.000    1.143    5.714    1.286    0.000    0.571 
#    2.571    1.429    0.000    0.000    0.000    0.000 
#    0.000    0.000    0.000    0.000    0.000    0.000 
#
# Total GULP energy -173509.789088 kJ/mol
# GULP energy per Si atom -12393.556363 kJ/mol
# Density = 2.284904 g / cm^3
# Si number density = 22.901167 Si / 1000 Ang^3
#
#
#
# Elastic Constant Matrix: (Units=GPa)
#
#
# Indices 1 2 3 4 5 6 
#
# 1 114.0817 50.9932 36.0404 -12.8429 19.0846 -21.2594
# 2 50.9932 103.1980 24.5409 -10.1980 -0.3649 -14.9348
# 3 36.0404 24.5409 109.9701 -21.3894 19.4238 -3.7860
# 4 -12.8429 -10.1980 -21.3894 37.4810 -2.9625 7.2613
# 5 19.0846 -0.3649 19.4238 -2.9625 39.2072 -1.2437
# 6 -21.2594 -14.9348 -3.7860 7.2613 -1.2437 52.8860
#
#
#
# Elastic Compliance Matrix: (Units=1/GPa)
#
#
# Indices 1 2 3 4 5 6 
#
# 1 0.013586 -0.005688 -0.001908 0.000910 -0.005542 0.003463
# 2 -0.005688 0.013144 -0.001532 0.000799 0.003751 0.001294
# 3 -0.001908 -0.001532 0.011923 0.005606 -0.004607 -0.001224
# 4 0.000910 0.000799 0.005606 0.030967 -0.000977 -0.003282
# 5 -0.005542 0.003751 -0.004607 -0.000977 0.030426 -0.000649
# 6 0.003463 0.001294 -0.001224 -0.003282 -0.000649 0.021014
#
#
# Mechanical properties :
#
#
# Convention : Reuss Voigt Hill
#
# Bulk Modulus (GPa) = 49.02621 61.15544 55.09082
# Shear Modulus (GPa) = 34.21957 40.29320 37.25639
#
# Velocity S-wave (km/s) = 3.86972 4.19912 4.03778
# Velocity P-wave (km/s) = 6.43588 7.09029 6.77099
#
# Compressibility (1/GPa) = 0.02039725
#
# Stress axis : x y z
#
# Youngs Moduli (GPa) = 73.60635 76.07757 83.87397
#
# Poissons Ratio (x) = 0.43272 0.16004
# Poissons Ratio (y) = 0.41866 0.12848
# Poissons Ratio (z) = 0.14045 0.11654
#
# Static dielectric constant tensor:
#      x y z
#    x 4.256430 -0.130900 0.564550 
#    y -0.130900 4.497030 0.266550 
#    z 0.564550 0.266550 4.400690 
# 
# 
# High freq. dielectric constant tensor:
#      x y z
#    x 1.889010 -0.013670 0.038220 
#    y -0.013670 1.914780 0.011850 
#    z 0.038220 0.011850 1.905800 
# 
# From -- ./inp_files/308097.got.cif
#   From: 2010.06.25/outbox.cif.g09.slc.cpg/sg2_155_cif.got.tgz:308097.got - 2010.06.27 13:26:56.
