data_PCOD8013625
_publ_section_title
;
Structure prediction by ZEFSAII (Michael W. Deem and Ramdas Pophale) SiO2 
 PCOD8013625
Probable space group: P -1
;
_chemical_formula_sum "Si O2"
_cell_formula_units_Z 14
_cell_length_a 12.510026
_cell_length_b 7.944400
_cell_length_c 14.258549
_cell_angle_alpha 151.193315
_cell_angle_beta 128.523809
_cell_angle_gamma 60.443563
_cell_volume 529.008313
_symmetry_space_group_name_H-M "P -1"
_symmetry_group_IT_number 2
_symmetry_cell_setting 'triclinic'
loop_
_space_group_symop_operation_xyz
x,y,z
-x,-y,-z
loop_
_atom_site_type_symbol
_atom_site_label
_atom_site_fract_x
_atom_site_fract_y
_atom_site_fract_z
Si Si1 0.242697 0.915364 0.817666
Si Si2 0.008141 0.763816 0.216448
Si Si3 0.272728 0.251796 0.639425
Si Si4 0.189233 0.636785 0.953127
Si Si5 0.448947 0.971368 0.353800
Si Si6 0.597505 0.253853 0.355695
Si Si7 0.299912 0.252985 0.200789
O O1 0.260133 0.556459 0.704697
O O2 0.336259 0.955043 0.793167
O O3 0.086914 0.926681 0.702047
O O4 0.279219 0.245264 0.072437
O O5 0.957466 0.522501 0.161161
O O6 0.167718 0.915196 0.385028
O O7 0.000000 0.500000 0.000000
O O8 0.229715 0.335690 0.761123
O O9 0.428233 0.180968 0.707970
O O10 0.304152 0.715354 0.136545
O O11 0.179048 0.990318 0.058593
O O12 0.500000 0.000000 0.500000
O O13 0.429129 0.364513 0.507937
O O14 0.441780 0.069060 0.206450
O O15 0.689182 0.355936 0.552077
#
# Coordination Sequence:
#
# PCOD8013625 Si02
#       7
#     2   2   2   2   2   2   2
#     4  11  24  44  71  98 137 183 235 277 343 413
#     4  12  28  46  70  97 139 184 234 282 350 409
#     4  11  24  47  69 103 140 181 229 282 346 412
#     4  10  24  45  67 103 136 182 229 286 344 408
#     4  11  21  38  74 104 139 173 226 286 339 405
#     4  10  21  40  70 103 142 177 225 279 355 402
#     4   9  22  41  66 107 137 176 225 288 341 411
#
# _framework density 26.464611999999999
#
# number of rings (size 3 to 8) (size 9 to 14) (size 15 to 20)
#    0.000    1.429    1.429    2.571    6.000    5.714 
#    2.571    1.429    0.000    0.000    0.000    0.000 
#    0.000    0.000    0.000    0.000    0.000    0.000 
#
# Total GULP energy -173456.934262 kJ/mol
# GULP energy per Si atom -12389.781019 kJ/mol
# Density = 2.640438 g / cm^3
# Si number density = 26.464612 Si / 1000 Ang^3
#
#
#
# Elastic Constant Matrix: (Units=GPa)
#
#
# Indices 1 2 3 4 5 6 
#
# 1 85.8746 -2.0089 5.8158 -1.4525 -23.6915 17.9993
# 2 -2.0089 83.2485 -0.2266 -10.4659 4.2461 -9.2085
# 3 5.8158 -0.2266 91.7189 -13.1088 -16.2509 18.2428
# 4 -1.4525 -10.4659 -13.1088 32.5538 7.9324 1.2790
# 5 -23.6915 4.2461 -16.2509 7.9324 56.1092 -10.8558
# 6 17.9993 -9.2085 18.2428 1.2790 -10.8558 39.3445
#
#
#
# Elastic Compliance Matrix: (Units=1/GPa)
#
#
# Indices 1 2 3 4 5 6 
#
# 1 0.014206 -0.000574 0.001147 -0.000155 0.005293 -0.005700
# 2 -0.000574 0.012918 -0.000116 0.004289 -0.001311 0.002839
# 3 0.001147 -0.000116 0.013196 0.004981 0.002418 -0.006165
# 4 -0.000155 0.004289 0.004981 0.035375 -0.004658 -0.003670
# 5 0.005293 -0.001311 0.002418 -0.004658 0.021973 0.002365
# 6 -0.005700 0.002839 -0.006165 -0.003670 0.002365 0.032319
#
#
# Mechanical properties :
#
#
# Convention : Reuss Voigt Hill
#
# Bulk Modulus (GPa) = 24.25053 29.77809 27.01431
# Shear Modulus (GPa) = 35.00962 42.75227 38.88094
#
# Velocity S-wave (km/s) = 3.64109 4.02363 3.83713
# Velocity P-wave (km/s) = 5.18267 5.73259 5.46455
#
# Compressibility (1/GPa) = 0.04123621
#
# Stress axis : x y z
#
# Youngs Moduli (GPa) = 70.39215 77.41096 75.77767
#
# Poissons Ratio (x) = 0.04443 -0.08693
# Poissons Ratio (y) = 0.04040 0.00875
# Poissons Ratio (z) = -0.08076 0.00894
#
# Static dielectric constant tensor:
#      x y z
#    x 5.454140 0.090430 -0.173250 
#    y 0.090430 5.132310 -0.379140 
#    z -0.173250 -0.379140 5.155030 
# 
# 
# High freq. dielectric constant tensor:
#      x y z
#    x 2.064460 0.017360 -0.013970 
#    y 0.017360 2.072920 -0.005500 
#    z -0.013970 -0.005500 2.067650 
# 
# From -- ./inp_files/204988.got.cif
#   From: 2010.06.25/outbox.cif.g09.slc.cpg/sg2_103_cif.got.tgz:204988.got - 2010.06.27 13:26:56.
