data_PCOD8013576
_publ_section_title
;
Structure prediction by ZEFSAII (Michael W. Deem and Ramdas Pophale) SiO2 
 PCOD8013576
Probable space group: P -1
;
_chemical_formula_sum "Si O2"
_cell_formula_units_Z 16
_cell_length_a 9.741461
_cell_length_b 13.046604
_cell_length_c 18.900566
_cell_angle_alpha 21.631384
_cell_angle_beta 90.841902
_cell_angle_gamma 79.312151
_cell_volume 745.101656
_symmetry_space_group_name_H-M "P -1"
_symmetry_group_IT_number 2
_symmetry_cell_setting 'triclinic'
loop_
_space_group_symop_operation_xyz
x,y,z
-x,-y,-z
loop_
_atom_site_type_symbol
_atom_site_label
_atom_site_fract_x
_atom_site_fract_y
_atom_site_fract_z
Si Si1 0.640665 0.856269 0.036793
Si Si2 0.917410 0.995836 0.786021
Si Si3 0.787474 0.731267 0.756255
Si Si4 0.093706 0.848219 0.462125
Si Si5 0.826562 0.821319 0.544729
Si Si6 0.517265 0.149220 0.238485
Si Si7 0.575688 0.118964 0.721764
Si Si8 0.080358 0.058314 0.027723
O O1 0.758382 0.467124 0.296588
O O2 0.738348 0.040160 0.928665
O O3 0.500000 0.000000 0.000000
O O4 0.564576 0.927376 0.912276
O O5 0.911761 0.137226 0.774708
O O6 0.912649 0.227871 0.573305
O O7 0.763306 0.955487 0.805211
O O8 0.089347 0.656381 0.998935
O O9 0.752420 0.925370 0.556144
O O10 0.619986 0.796283 0.743054
O O11 0.868123 0.867315 0.721568
O O12 0.920312 0.995378 0.406076
O O13 0.689376 0.893420 0.440759
O O14 0.971008 0.443804 0.794371
O O15 0.514938 0.955495 0.292985
O O16 0.500000 0.500000 0.000000
O O17 0.500000 0.500000 0.500000
O O18 0.000000 0.000000 0.000000
#
# Coordination Sequence:
#
# PCOD8013576 Si02
#       8
#     2   2   2   2   2   2   2   2
#     4  10  23  41  63  95 128 170 232 275 324 400
#     4  10  21  40  69  92 126 174 228 265 329 401
#     4  11  23  42  70  93 133 183 218 277 340 403
#     4  11  21  40  68  96 130 173 225 276 330 405
#     4  10  24  40  61  97 134 170 219 275 341 389
#     4  12  27  43  67 102 138 171 226 284 334 397
#     4  11  25  45  69  97 134 183 224 275 336 402
#     4   9  21  41  63  89 126 173 218 273 333 393
#
# _framework density 21.473579999999998
#
# number of rings (size 3 to 8) (size 9 to 14) (size 15 to 20)
#    0.000    1.500    1.250    3.375    7.000    0.000 
#    6.750    1.250    0.000    0.000    0.000    0.000 
#    0.000    0.000    0.000    0.000    0.000    0.000 
#
# Total GULP energy -198270.628763 kJ/mol
# GULP energy per Si atom -12391.914298 kJ/mol
# Density = 2.142471 g / cm^3
# Si number density = 21.473580 Si / 1000 Ang^3
#
#
#
# Elastic Constant Matrix: (Units=GPa)
#
#
# Indices 1 2 3 4 5 6 
#
# 1 132.2346 70.3955 29.7572 11.5988 7.3776 -20.3338
# 2 70.3955 149.8531 50.5291 31.6712 -4.2193 -8.1354
# 3 29.7572 50.5291 76.9570 25.3812 3.4922 -5.5015
# 4 11.5988 31.6712 25.3812 42.1719 -0.0244 -4.2786
# 5 7.3776 -4.2193 3.4922 -0.0244 36.0149 4.3287
# 6 -20.3338 -8.1354 -5.5015 -4.2786 4.3287 47.8658
#
#
#
# Elastic Compliance Matrix: (Units=1/GPa)
#
#
# Indices 1 2 3 4 5 6 
#
# 1 0.011232 -0.005159 -0.001127 0.001891 -0.003303 0.004233
# 2 -0.005159 0.011556 -0.004228 -0.004857 0.002988 -0.001418
# 3 -0.001127 -0.004228 0.018930 -0.007862 -0.002162 0.000471
# 4 0.001891 -0.004857 -0.007862 0.031770 -0.000407 0.001951
# 5 -0.003303 0.002988 -0.002162 -0.000407 0.029464 -0.003845
# 6 0.004233 -0.001418 0.000471 0.001951 -0.003845 0.023025
#
#
# Mechanical properties :
#
#
# Convention : Reuss Voigt Hill
#
# Bulk Modulus (GPa) = 48.32970 73.37872 60.85421
# Shear Modulus (GPa) = 32.48830 39.10139 35.79484
#
# Velocity S-wave (km/s) = 3.89388 4.27184 4.08723
# Velocity P-wave (km/s) = 6.54002 7.65358 7.11861
#
# Compressibility (1/GPa) = 0.02069121
#
# Stress axis : x y z
#
# Youngs Moduli (GPa) = 89.03388 86.53470 52.82488
#
# Poissons Ratio (x) = 0.44645 0.05952
# Poissons Ratio (y) = 0.45934 0.22332
# Poissons Ratio (z) = 0.10032 0.36583
#
# Static dielectric constant tensor:
#      x y z
#    x 3.916330 -0.256400 0.121610 
#    y -0.256400 3.989770 0.580520 
#    z 0.121610 0.580520 3.854840 
# 
# 
# High freq. dielectric constant tensor:
#      x y z
#    x 1.838420 -0.016760 0.015510 
#    y -0.016760 1.853180 0.027550 
#    z 0.015510 0.027550 1.839290 
# 
# From -- ./inp_files/178861.got.cif
#   From: 2010.06.25/outbox.cif.g09.slc.cpg/sg2_90_cif.got.tgz:178861.got - 2010.06.27 13:26:56.
