data_PCOD8013175
_publ_section_title
;
Structure prediction by ZEFSAII (Michael W. Deem and Ramdas Pophale) SiO2 
 PCOD8013175
Probable space group: P -1
;
_chemical_formula_sum "Si O2"
_cell_formula_units_Z 16
_cell_length_a 12.970138
_cell_length_b 9.506180
_cell_length_c 7.632134
_cell_angle_alpha 74.746728
_cell_angle_beta 57.460812
_cell_angle_gamma 93.714773
_cell_volume 740.322687
_symmetry_space_group_name_H-M "P -1"
_symmetry_group_IT_number 2
_symmetry_cell_setting 'triclinic'
loop_
_space_group_symop_operation_xyz
x,y,z
-x,-y,-z
loop_
_atom_site_type_symbol
_atom_site_label
_atom_site_fract_x
_atom_site_fract_y
_atom_site_fract_z
Si Si1 0.034412 0.183453 0.576202
Si Si2 0.221836 0.300197 0.643160
Si Si3 0.710312 0.279192 0.031808
Si Si4 0.547565 0.656203 0.805308
Si Si5 0.148810 0.534940 0.849925
Si Si6 0.737264 0.909925 0.762728
Si Si7 0.201911 0.009802 0.951038
Si Si8 0.191636 0.750238 0.419992
O O1 0.123154 0.313148 0.574639
O O2 0.122541 0.100609 0.414510
O O3 0.955135 0.259102 0.488582
O O4 0.939321 0.067673 0.828517
O O5 0.364994 0.369980 0.426610
O O6 0.192976 0.383937 0.815827
O O7 0.200730 0.120854 0.754479
O O8 0.566641 0.285057 0.189289
O O9 0.798945 0.408497 0.026511
O O10 0.728739 0.117908 0.130155
O O11 0.747450 0.311741 0.783748
O O12 0.626351 0.784866 0.818769
O O13 0.500000 0.500000 0.000000
O O14 0.205396 0.653824 0.607282
O O15 0.000000 0.500000 0.000000
O O16 0.730344 0.078949 0.664320
O O17 0.720760 0.891511 0.993269
#
# Coordination Sequence:
#
# PCOD8013175 Si02
#       8
#     2   2   2   2   2   2   2   2
#     4   9  19  38  68  92 133 169 212 271 330 390
#     4  11  25  40  63 103 128 176 219 271 332 387
#     4  10  25  46  65  95 134 178 220 275 324 384
#     4  11  25  45  68  91 132 177 222 273 328 388
#     4  12  27  40  68 102 136 173 212 277 340 390
#     4   9  21  39  67  95 122 181 214 265 332 388
#     4  10  21  40  66 100 132 164 223 271 325 398
#     4  10  22  43  64  98 130 171 223 266 330 400
#
# _framework density 21.612199
#
# number of rings (size 3 to 8) (size 9 to 14) (size 15 to 20)
#    0.000    2.000    0.000    4.125    8.750    6.000 
#    2.250    0.000    0.000    0.000    0.000    0.000 
#    0.000    0.000    0.000    0.000    0.000    0.000 
#
# Total GULP energy -198412.951929 kJ/mol
# GULP energy per Si atom -12400.809496 kJ/mol
# Density = 2.156301 g / cm^3
# Si number density = 21.612199 Si / 1000 Ang^3
#
#
#
# Elastic Constant Matrix: (Units=GPa)
#
#
# Indices 1 2 3 4 5 6 
#
# 1 89.6195 45.8403 27.7924 -1.5444 -30.5640 6.5560
# 2 45.8403 128.8155 37.0509 15.4911 -15.6329 7.8652
# 3 27.7924 37.0509 79.9031 4.1506 -18.2310 -3.4843
# 4 -1.5444 15.4911 4.1506 37.2943 -5.1742 4.7906
# 5 -30.5640 -15.6329 -18.2310 -5.1742 34.8873 -2.4251
# 6 6.5560 7.8652 -3.4843 4.7906 -2.4251 36.7406
#
#
#
# Elastic Compliance Matrix: (Units=1/GPa)
#
#
# Indices 1 2 3 4 5 6 
#
# 1 0.019576 -0.005311 -0.001372 0.005498 0.014714 -0.002232
# 2 -0.005311 0.011039 -0.003634 -0.004560 -0.002373 -0.001322
# 3 -0.001372 -0.003634 0.016127 0.000089 0.005813 0.002924
# 4 0.005498 -0.004560 0.000089 0.030356 0.007079 -0.003487
# 5 0.014714 -0.002373 0.005813 0.007079 0.044610 0.000455
# 6 -0.002232 -0.001322 0.002924 -0.003487 0.000455 0.028661
#
#
# Mechanical properties :
#
#
# Convention : Reuss Voigt Hill
#
# Bulk Modulus (GPa) = 38.30203 57.74502 48.02352
# Shear Modulus (GPa) = 27.82312 34.29474 31.05893
#
# Velocity S-wave (km/s) = 3.59190 3.98782 3.79503
# Velocity P-wave (km/s) = 5.91297 6.92678 6.43986
#
# Compressibility (1/GPa) = 0.02610828
#
# Stress axis : x y z
#
# Youngs Moduli (GPa) = 51.08188 90.58514 62.00863
#
# Poissons Ratio (x) = 0.48109 0.08509
# Poissons Ratio (y) = 0.27129 0.22533
# Poissons Ratio (z) = 0.07010 0.32918
#
# Static dielectric constant tensor:
#      x y z
#    x 3.860070 0.006500 -0.024930 
#    y 0.006500 3.993250 0.151160 
#    z -0.024930 0.151160 3.789180 
# 
# 
# High freq. dielectric constant tensor:
#      x y z
#    x 1.841370 0.002300 -0.000890 
#    y 0.002300 1.859690 0.010610 
#    z -0.000890 0.010610 1.840240 
# 
# From -- ./inp_files/295140.got.cif
#   From: 2010.06.25/outbox.cif.g09.slc.cpg/sg2_148_cif.got.tgz:295140.got - 2010.06.27 13:26:56.
