data_PCOD8013437
_publ_section_title
;
Structure prediction by ZEFSAII (Michael W. Deem and Ramdas Pophale) SiO2 
 PCOD8013437
Probable space group: P -1
;
_chemical_formula_sum "Si O2"
_cell_formula_units_Z 14
_cell_length_a 6.300694
_cell_length_b 9.973735
_cell_length_c 11.611743
_cell_angle_alpha 66.416847
_cell_angle_beta 113.193845
_cell_angle_gamma 119.131632
_cell_volume 565.809213
_symmetry_space_group_name_H-M "P -1"
_symmetry_group_IT_number 2
_symmetry_cell_setting 'triclinic'
loop_
_space_group_symop_operation_xyz
x,y,z
-x,-y,-z
loop_
_atom_site_type_symbol
_atom_site_label
_atom_site_fract_x
_atom_site_fract_y
_atom_site_fract_z
Si Si1 0.283589 0.087234 0.993594
Si Si2 0.492442 0.937387 0.253675
Si Si3 0.000220 0.774991 0.707359
Si Si4 0.163466 0.488666 0.828780
Si Si5 0.969039 0.791737 0.270425
Si Si6 0.297898 0.319575 0.106117
Si Si7 0.670842 0.683888 0.457249
O O1 0.396563 0.232833 0.057904
O O2 0.441421 0.975720 0.093513
O O3 0.254569 0.145795 0.836921
O O4 0.000000 0.000000 0.000000
O O5 0.501375 0.767038 0.334944
O O6 0.247560 0.933373 0.275902
O O7 0.740571 0.076013 0.309331
O O8 0.021382 0.606511 0.756722
O O9 0.900354 0.794502 0.806022
O O10 0.792673 0.772163 0.571031
O O11 0.014116 0.338852 0.769096
O O12 0.447365 0.571225 0.811058
O O13 0.168812 0.427539 0.981061
O O14 0.903258 0.713492 0.409049
O O15 0.500000 0.500000 0.500000
#
# Coordination Sequence:
#
# PCOD8013437 Si02
#       7
#     2   2   2   2   2   2   2
#     4   9  20  43  67 101 130 169 215 276 343 382
#     4  11  25  45  67 102 131 176 225 276 342 384
#     4  12  25  41  69 102 136 174 226 273 329 399
#     4  10  21  42  68  99 132 180 220 269 339 385
#     4  10  24  46  71  95 139 174 221 280 328 403
#     4  10  21  40  67  99 138 169 221 277 329 397
#     4  12  28  47  66  97 136 184 230 264 329 405
#
# _framework density 24.743324000000001
#
# number of rings (size 3 to 8) (size 9 to 14) (size 15 to 20)
#    0.000    1.429    1.429    2.571    4.000    4.571 
#    7.714    0.000    0.000    0.000    0.000    0.000 
#    0.000    0.000    0.000    0.000    0.000    0.000 
#
# Total GULP energy -173509.419983 kJ/mol
# GULP energy per Si atom -12393.529999 kJ/mol
# Density = 2.468701 g / cm^3
# Si number density = 24.743324 Si / 1000 Ang^3
#
#
#
# Elastic Constant Matrix: (Units=GPa)
#
#
# Indices 1 2 3 4 5 6 
#
# 1 61.4106 20.5303 46.4205 -10.9337 9.0897 19.6789
# 2 20.5303 97.7998 42.2282 -13.4685 11.6931 26.5957
# 3 46.4205 42.2282 134.6057 -22.1556 2.4400 10.4503
# 4 -10.9337 -13.4685 -22.1556 34.1305 -0.4231 8.9096
# 5 9.0897 11.6931 2.4400 -0.4231 42.7319 -18.0340
# 6 19.6789 26.5957 10.4503 8.9096 -18.0340 43.0309
#
#
#
# Elastic Compliance Matrix: (Units=1/GPa)
#
#
# Indices 1 2 3 4 5 6 
#
# 1 0.042427 0.014473 -0.011576 0.022606 -0.030194 -0.042872
# 2 0.014473 0.024703 -0.006587 0.018711 -0.023658 -0.034076
# 3 -0.011576 -0.006587 0.012498 -0.000619 0.007618 0.009650
# 4 0.022606 0.018711 -0.000619 0.054919 -0.028341 -0.045001
# 5 -0.030194 -0.023658 0.007618 -0.028341 0.059865 0.057538
# 6 -0.042872 -0.034076 0.009650 -0.045001 0.057538 0.094994
#
#
# Mechanical properties :
#
#
# Convention : Reuss Voigt Hill
#
# Bulk Modulus (GPa) = 13.84072 56.90824 35.37448
# Shear Modulus (GPa) = 15.58271 36.28780 25.93525
#
# Velocity S-wave (km/s) = 2.51225 3.83374 3.24106
# Velocity P-wave (km/s) = 3.74447 6.53040 5.32293
#
# Compressibility (1/GPa) = 0.07225060
#
# Stress axis : x y z
#
# Youngs Moduli (GPa) = 23.56971 40.48099 80.01068
#
# Poissons Ratio (x) = -0.58590 0.92617
# Poissons Ratio (y) = -0.34114 0.52702
# Poissons Ratio (z) = 0.27283 0.26664
#
# Static dielectric constant tensor:
#      x y z
#    x 4.294910 -0.385680 0.252650 
#    y -0.385680 6.811250 -0.622710 
#    z 0.252650 -0.622710 4.832770 
# 
# 
# High freq. dielectric constant tensor:
#      x y z
#    x 1.975880 0.013040 0.014210 
#    y 0.013040 1.988000 -0.015750 
#    z 0.014210 -0.015750 1.988620 
# 
# From -- ./inp_files/361849.got.cif
#   From: 2010.06.25/outbox.cif.g09.slc.cpg/sg2_181_cif.got.tgz:361849.got - 2010.06.27 13:26:56.
