data_PCOD8013662
_publ_section_title
;
Structure prediction by ZEFSAII (Michael W. Deem and Ramdas Pophale) SiO2 
 PCOD8013662
Probable space group: P -1
;
_chemical_formula_sum "Si O2"
_cell_formula_units_Z 16
_cell_length_a 14.453746
_cell_length_b 10.925784
_cell_length_c 14.851770
_cell_angle_alpha 139.053622
_cell_angle_beta 37.869583
_cell_angle_gamma 150.491848
_cell_volume 690.806185
_symmetry_space_group_name_H-M "P -1"
_symmetry_group_IT_number 2
_symmetry_cell_setting 'triclinic'
loop_
_space_group_symop_operation_xyz
x,y,z
-x,-y,-z
loop_
_atom_site_type_symbol
_atom_site_label
_atom_site_fract_x
_atom_site_fract_y
_atom_site_fract_z
Si Si1 0.776948 0.077349 0.837181
Si Si2 0.498583 0.100432 0.389593
Si Si3 0.119543 0.918425 0.664064
Si Si4 0.812863 0.713663 0.318132
Si Si5 0.380923 0.379137 0.401903
Si Si6 0.550679 0.085551 0.860723
Si Si7 0.802806 0.620862 0.881337
Si Si8 0.235569 0.025673 0.826678
O O1 0.724133 0.158704 0.836395
O O2 0.019652 0.306395 0.800689
O O3 0.729613 0.820090 0.706167
O O4 0.653640 0.032969 0.995129
O O5 0.592410 0.378073 0.504695
O O6 0.260451 0.882411 0.484776
O O7 0.507234 0.115743 0.282466
O O8 0.626128 0.036326 0.294257
O O9 0.898334 0.659225 0.728853
O O10 0.073079 0.046015 0.702193
O O11 0.256521 0.099993 0.746340
O O12 0.604814 0.467027 0.291624
O O13 0.751992 0.765427 0.486290
O O14 0.631530 0.328088 0.875596
O O15 0.700923 0.742910 0.032139
O O16 0.993596 0.773189 0.891099
#
# Coordination Sequence:
#
# PCOD8013662 Si02
#       8
#     2   2   2   2   2   2   2   2
#     4  11  25  45  67  97 140 177 221 276 340 390
#     4  11  23  42  67  99 135 165 228 276 334 392
#     4   9  20  40  64  97 129 168 223 274 318 411
#     4  10  21  40  70  98 132 170 225 271 332 390
#     4  10  23  44  70  98 131 180 222 276 329 411
#     4  11  26  43  61 102 137 168 229 281 320 412
#     4   9  22  41  64  88 135 173 216 270 328 391
#     4   9  21  41  66  94 129 175 220 271 333 395
#
# _framework density 23.161344
#
# number of rings (size 3 to 8) (size 9 to 14) (size 15 to 20)
#    0.750    1.250    0.000    3.000    7.000    1.000 
#    0.000    1.875    0.000    0.000    0.000    0.000 
#    0.000    0.000    0.000    0.000    0.000    0.000 
#
# Total GULP energy -198254.609399 kJ/mol
# GULP energy per Si atom -12390.913087 kJ/mol
# Density = 2.310863 g / cm^3
# Si number density = 23.161344 Si / 1000 Ang^3
#
#
#
# Elastic Constant Matrix: (Units=GPa)
#
#
# Indices 1 2 3 4 5 6 
#
# 1 96.8230 18.3714 37.1194 -23.4339 -15.3393 -1.3152
# 2 18.3714 48.0753 24.8826 -11.4745 -7.1988 -10.9318
# 3 37.1194 24.8826 118.5956 -16.5961 0.8249 -6.3745
# 4 -23.4339 -11.4745 -16.5961 34.8068 -2.7131 -2.4769
# 5 -15.3393 -7.1988 0.8249 -2.7131 33.5843 -4.5147
# 6 -1.3152 -10.9318 -6.3745 -2.4769 -4.5147 30.4668
#
#
#
# Elastic Compliance Matrix: (Units=1/GPa)
#
#
# Indices 1 2 3 4 5 6 
#
# 1 0.015201 -0.000247 -0.003364 0.009298 0.007966 0.001800
# 2 -0.000247 0.029097 -0.004222 0.008896 0.008497 0.011529
# 3 -0.003364 -0.004222 0.010571 0.001203 -0.002568 0.000269
# 4 0.009298 0.008896 0.001203 0.039931 0.010513 0.008649
# 5 0.007966 0.008497 -0.002568 0.010513 0.037391 0.009251
# 6 0.001800 0.011529 0.000269 0.008649 0.009251 0.039167
#
#
# Mechanical properties :
#
#
# Convention : Reuss Voigt Hill
#
# Bulk Modulus (GPa) = 25.50694 47.13787 36.32240
# Shear Modulus (GPa) = 24.98835 31.97961 28.48398
#
# Velocity S-wave (km/s) = 3.28820 3.71985 3.51066
# Velocity P-wave (km/s) = 5.04509 6.23264 5.67004
#
# Compressibility (1/GPa) = 0.03920502
#
# Stress axis : x y z
#
# Youngs Moduli (GPa) = 65.78342 34.36753 94.59540
#
# Poissons Ratio (x) = 0.00847 0.31818
# Poissons Ratio (y) = 0.01622 0.39941
# Poissons Ratio (z) = 0.22127 0.14511
#
# Static dielectric constant tensor:
#      x y z
#    x 3.956780 -0.000620 0.053610 
#    y -0.000620 3.829180 -0.217800 
#    z 0.053610 -0.217800 4.257980 
# 
# 
# High freq. dielectric constant tensor:
#      x y z
#    x 1.909070 -0.006540 -0.004220 
#    y -0.006540 1.892770 -0.019990 
#    z -0.004220 -0.019990 1.920960 
# 
# From -- ./inp_files/532031.got.cif
#   From: 2010.06.25/outbox.cif.g09.slc.cpg/sg2_267_cif.got.tgz:532031.got - 2010.06.27 13:26:56.
