data_PCOD8013151
_publ_section_title
;
Structure prediction by ZEFSAII (Michael W. Deem and Ramdas Pophale) SiO2 
 PCOD8013151
Probable space group: P -1
;
_chemical_formula_sum "Si O2"
_cell_formula_units_Z 12
_cell_length_a 10.013408
_cell_length_b 13.409545
_cell_length_c 12.270969
_cell_angle_alpha 31.375440
_cell_angle_beta 141.760972
_cell_angle_gamma 146.314776
_cell_volume 459.459887
_symmetry_space_group_name_H-M "P -1"
_symmetry_group_IT_number 2
_symmetry_cell_setting 'triclinic'
loop_
_space_group_symop_operation_xyz
x,y,z
-x,-y,-z
loop_
_atom_site_type_symbol
_atom_site_label
_atom_site_fract_x
_atom_site_fract_y
_atom_site_fract_z
Si Si1 0.588478 0.734048 0.185162
Si Si2 0.013569 0.971618 0.662894
Si Si3 0.136801 0.505258 0.459484
Si Si4 0.726659 0.158611 0.392587
Si Si5 0.220124 0.947802 0.177212
Si Si6 0.097939 0.579463 0.132576
O O1 0.746345 0.819545 0.319809
O O2 0.664985 0.576470 0.311763
O O3 0.644957 0.946976 0.949427
O O4 0.295666 0.593898 0.156254
O O5 0.769746 0.954928 0.580472
O O6 0.000864 0.743983 0.888957
O O7 0.000000 0.000000 0.500000
O O8 0.863012 0.281360 0.478409
O O9 0.116530 0.680245 0.364802
O O10 0.227337 0.638394 0.279178
O O11 0.430356 0.068672 0.294017
O O12 0.855739 0.333261 0.211296
O O13 0.000000 0.000000 0.000000
#
# Coordination Sequence:
#
# PCOD8013151 Si02
#       6
#     2   2   2   2   2   2
#     4  11  22  41  64  98 134 168 205 260 321 379
#     4  11  22  34  64  99 134 169 202 253 325 392
#     4   9  23  43  64  97 131 164 208 268 320 372
#     4   9  24  41  61  98 125 166 214 257 322 375
#     4  12  26  45  68  89 124 177 222 261 311 369
#     4  10  21  40  65  96 133 164 193 266 325 381
#
# _framework density 26.117622000000001
#
# number of rings (size 3 to 8) (size 9 to 14) (size 15 to 20)
#    1.000    0.667    1.667    2.000    2.333    5.333 
#    0.000    3.333    0.000    0.000    0.000    0.000 
#    0.000    0.000    0.000    0.000    0.000    0.000 
#
# Total GULP energy -148723.775644 kJ/mol
# GULP energy per Si atom -12393.647970 kJ/mol
# Density = 2.605818 g / cm^3
# Si number density = 26.117622 Si / 1000 Ang^3
#
#
#
# Elastic Constant Matrix: (Units=GPa)
#
#
# Indices 1 2 3 4 5 6 
#
# 1 90.9436 56.9405 27.4309 -4.5753 34.6896 0.9981
# 2 56.9405 113.7107 46.9909 -17.3921 42.5074 10.0625
# 3 27.4309 46.9909 134.3702 -25.4289 48.4692 0.2977
# 4 -4.5753 -17.3921 -25.4289 27.3984 1.8008 0.7340
# 5 34.6896 42.5074 48.4692 1.8008 52.2591 6.9085
# 6 0.9981 10.0625 0.2977 0.7340 6.9085 53.1047
#
#
#
# Elastic Compliance Matrix: (Units=1/GPa)
#
#
# Indices 1 2 3 4 5 6 
#
# 1 0.017813 -0.006472 0.002008 0.001250 -0.008730 0.001999
# 2 -0.006472 0.018008 0.001953 0.013025 -0.012364 -0.001873
# 3 0.002008 0.001953 0.016829 0.018421 -0.019398 0.001767
# 4 0.001250 0.013025 0.018421 0.064082 -0.030788 0.000525
# 5 -0.008730 -0.012364 -0.019398 -0.030788 0.054575 -0.004059
# 6 0.001999 -0.001873 0.001767 0.000525 -0.004059 0.019659
#
#
# Mechanical properties :
#
#
# Convention : Reuss Voigt Hill
#
# Bulk Modulus (GPa) = 20.99655 66.86100 43.92878
# Shear Modulus (GPa) = 23.59993 40.39657 31.99825
#
# Velocity S-wave (km/s) = 3.00926 3.93710 3.50403
# Velocity P-wave (km/s) = 4.48674 6.80611 5.76429
#
# Compressibility (1/GPa) = 0.04762688
#
# Stress axis : x y z
#
# Youngs Moduli (GPa) = 56.13814 55.53065 59.42261
#
# Poissons Ratio (x) = 0.35940 -0.11932
# Poissons Ratio (y) = 0.36333 -0.11602
# Poissons Ratio (z) = -0.11273 -0.10842
#
# Static dielectric constant tensor:
#      x y z
#    x 4.588840 0.032830 -0.241840 
#    y 0.032830 4.533250 -0.093550 
#    z -0.241840 -0.093550 5.035540 
# 
# 
# High freq. dielectric constant tensor:
#      x y z
#    x 2.056220 0.001410 -0.017960 
#    y 0.001410 2.031930 -0.007750 
#    z -0.017960 -0.007750 2.066030 
# 
# From -- ./inp_files/232985.got.cif
#   From: 2010.06.25/outbox.cif.g09.slc.cpg/sg2_117_cif.got.tgz:232985.got - 2010.06.27 13:26:56.
