data_PCOD8013737
_publ_section_title
;
Structure prediction by ZEFSAII (Michael W. Deem and Ramdas Pophale) SiO2 
 PCOD8013737
Probable space group: P -1
;
_chemical_formula_sum "Si O2"
_cell_formula_units_Z 16
_cell_length_a 7.808868
_cell_length_b 14.619586
_cell_length_c 10.779359
_cell_angle_alpha 95.930678
_cell_angle_beta 137.535858
_cell_angle_gamma 104.007767
_cell_volume 727.649313
_symmetry_space_group_name_H-M "P -1"
_symmetry_group_IT_number 2
_symmetry_cell_setting 'triclinic'
loop_
_space_group_symop_operation_xyz
x,y,z
-x,-y,-z
loop_
_atom_site_type_symbol
_atom_site_label
_atom_site_fract_x
_atom_site_fract_y
_atom_site_fract_z
Si Si1 0.041486 0.888910 0.705970
Si Si2 0.389544 0.119335 0.986862
Si Si3 0.338740 0.577700 0.207842
Si Si4 0.670089 0.782337 0.272166
Si Si5 0.738348 0.497206 0.284328
Si Si6 0.280519 0.289126 0.062066
Si Si7 0.026668 0.694331 0.312156
Si Si8 0.596611 0.706752 0.601804
O O1 0.831407 0.870250 0.475122
O O2 0.877328 0.801291 0.708738
O O3 0.128984 0.001770 0.825641
O O4 0.321833 0.880059 0.811098
O O5 0.452429 0.170825 0.890822
O O6 0.290210 0.180622 0.038911
O O7 0.409609 0.680293 0.178981
O O8 0.538083 0.528015 0.265260
O O9 0.428695 0.609928 0.404430
O O10 0.000000 0.500000 0.000000
O O11 0.912016 0.756891 0.342704
O O12 0.542059 0.375229 0.127967
O O13 0.854370 0.569805 0.234905
O O14 0.000000 0.500000 0.500000
O O15 0.300057 0.325490 0.220345
O O16 0.999973 0.285883 0.846373
O O17 0.364139 0.742628 0.527254
#
# Coordination Sequence:
#
# PCOD8013737 Si02
#       8
#     2   2   2   2   2   2   2   2
#     4  10  22  39  62  91 120 153 206 264 311 355
#     4  10  22  40  64  88 116 162 209 254 305 372
#     4  10  23  41  63  95 130 163 208 260 305 365
#     4   9  20  41  66  85 122 164 207 248 308 366
#     4  11  22  40  64  89 120 169 211 247 304 371
#     4  11  23  39  62  87 125 164 206 241 313 375
#     4  10  21  41  60  90 122 166 202 253 298 377
#     4  11  23  38  61  90 126 158 200 259 312 362
#
# _framework density 21.988612
#
# number of rings (size 3 to 8) (size 9 to 14) (size 15 to 20)
#    0.000    1.750    1.250    2.250    3.500    6.000 
#    0.000    2.500    0.000    0.000    0.000    0.000 
#    0.000    0.000    0.000    0.000    0.000    0.000 
#
# Total GULP energy -198358.737027 kJ/mol
# GULP energy per Si atom -12397.421064 kJ/mol
# Density = 2.193856 g / cm^3
# Si number density = 21.988612 Si / 1000 Ang^3
#
#
#
# Elastic Constant Matrix: (Units=GPa)
#
#
# Indices 1 2 3 4 5 6 
#
# 1 72.0769 16.6272 36.2127 2.0726 -3.2708 4.6889
# 2 16.6272 81.3153 43.9628 12.2817 -6.6894 -4.0033
# 3 36.2127 43.9628 106.1115 6.3563 -10.0573 10.1147
# 4 2.0726 12.2817 6.3563 42.1724 8.3960 -1.2583
# 5 -3.2708 -6.6894 -10.0573 8.3960 37.8176 -6.1693
# 6 4.6889 -4.0033 10.1147 -1.2583 -6.1693 26.4718
#
#
#
# Elastic Compliance Matrix: (Units=1/GPa)
#
#
# Indices 1 2 3 4 5 6 
#
# 1 0.016785 -0.000613 -0.005415 0.000201 -0.000314 -0.001061
# 2 -0.000613 0.017438 -0.007021 -0.004433 0.003118 0.005944
# 3 -0.005415 -0.007021 0.014860 -0.000378 0.001434 -0.005464
# 4 0.000201 -0.004433 -0.000378 0.026392 -0.006875 -0.000909
# 5 -0.000314 0.003118 0.001434 -0.006875 0.029957 0.006634
# 6 -0.001061 0.005944 -0.005464 -0.000909 0.006634 0.042454
#
#
# Mechanical properties :
#
#
# Convention : Reuss Voigt Hill
#
# Bulk Modulus (GPa) = 43.50605 50.34547 46.92576
# Shear Modulus (GPa) = 27.52621 32.13909 29.83265
#
# Velocity S-wave (km/s) = 3.54197 3.82727 3.68738
# Velocity P-wave (km/s) = 6.04616 6.51740 6.28620
#
# Compressibility (1/GPa) = 0.02298531
#
# Stress axis : x y z
#
# Youngs Moduli (GPa) = 59.57691 57.34679 67.29369
#
# Poissons Ratio (x) = 0.03515 0.36440
# Poissons Ratio (y) = 0.03652 0.47246
# Poissons Ratio (z) = 0.32261 0.40263
#
# Static dielectric constant tensor:
#      x y z
#    x 3.883340 0.081190 -0.092240 
#    y 0.081190 4.062340 -0.047660 
#    z -0.092240 -0.047660 4.127860 
# 
# 
# High freq. dielectric constant tensor:
#      x y z
#    x 1.850800 0.001460 -0.001890 
#    y 0.001460 1.860920 -0.006250 
#    z -0.001890 -0.006250 1.877700 
# 
# From -- ./inp_files/399154.got.cif
#   From: 2010.06.25/outbox.cif.g09.slc.cpg/sg2_200_cif.got.tgz:399154.got - 2010.06.27 13:26:56.
