data_PCOD8013982
_publ_section_title
;
Structure prediction by ZEFSAII (Michael W. Deem and Ramdas Pophale) SiO2 
 PCOD8013982
Probable space group: P -1
;
_chemical_formula_sum "Si O2"
_cell_formula_units_Z 16
_cell_length_a 9.239219
_cell_length_b 9.216717
_cell_length_c 13.747199
_cell_angle_alpha 70.657173
_cell_angle_beta 132.710011
_cell_angle_gamma 85.715960
_cell_volume 732.073943
_symmetry_space_group_name_H-M "P -1"
_symmetry_group_IT_number 2
_symmetry_cell_setting 'triclinic'
loop_
_space_group_symop_operation_xyz
x,y,z
-x,-y,-z
loop_
_atom_site_type_symbol
_atom_site_label
_atom_site_fract_x
_atom_site_fract_y
_atom_site_fract_z
Si Si1 0.001020 0.108751 0.818783
Si Si2 0.462685 0.535486 0.861845
Si Si3 0.747538 0.931378 0.657942
Si Si4 0.090844 0.862485 0.657726
Si Si5 0.660256 0.419931 0.679737
Si Si6 0.425242 0.780877 0.154436
Si Si7 0.684474 0.952150 0.177188
Si Si8 0.758210 0.622649 0.838546
O O1 0.908451 0.283826 0.798176
O O2 0.087118 0.157209 0.747865
O O3 0.794153 0.073517 0.704022
O O4 0.189902 0.943383 0.994049
O O5 0.208369 0.674157 0.704742
O O6 0.518454 0.353728 0.878241
O O7 0.608177 0.623795 0.861235
O O8 0.500000 0.500000 0.000000
O O9 0.776440 0.795514 0.785197
O O10 0.908170 0.866911 0.650991
O O11 0.500000 0.000000 0.500000
O O12 0.287675 0.891349 0.794049
O O13 0.000000 0.000000 0.500000
O O14 0.500000 0.500000 0.500000
O O15 0.562819 0.313545 0.720043
O O16 0.670476 0.571309 0.712373
O O17 0.618576 0.840424 0.246503
O O18 0.500000 0.000000 0.000000
O O19 0.000000 0.500000 0.000000
#
# Coordination Sequence:
#
# PCOD8013982 Si02
#       8
#     2   2   2   2   2   2   2   2
#     4  10  21  41  64  88 122 162 208 256 307 370
#     4  11  22  41  65  91 127 164 209 263 312 374
#     4  11  22  40  63  91 127 166 207 256 312 376
#     4  11  24  40  62  95 128 164 208 258 315 371
#     4  11  24  40  60  90 127 164 204 253 309 369
#     4  10  22  41  63  92 122 162 208 258 309 368
#     4   9  20  39  63  89 118 158 208 252 304 369
#     4  11  24  40  61  94 126 162 211 260 310 369
#
# _framework density 21.855715
#
# number of rings (size 3 to 8) (size 9 to 14) (size 15 to 20)
#    0.000    1.500    0.000    6.375    0.000   10.000 
#    0.000    1.250    0.000    0.000    0.000    0.000 
#    0.000    0.000    0.000    0.000    0.000    0.000 
#
# Total GULP energy -198222.970750 kJ/mol
# GULP energy per Si atom -12388.935672 kJ/mol
# Density = 2.180597 g / cm^3
# Si number density = 21.855715 Si / 1000 Ang^3
#
#
#
# Elastic Constant Matrix: (Units=GPa)
#
#
# Indices 1 2 3 4 5 6 
#
# 1 138.8401 40.0182 39.3056 1.0013 4.4693 5.3975
# 2 40.0182 52.2839 26.7026 -3.8484 12.0046 -7.5594
# 3 39.3056 26.7026 123.8643 -3.6462 -1.7019 -3.9720
# 4 1.0013 -3.8484 -3.6462 37.6975 -0.6918 8.9923
# 5 4.4693 12.0046 -1.7019 -0.6918 36.0350 6.4506
# 6 5.3975 -7.5594 -3.9720 8.9923 6.4506 41.7672
#
#
#
# Elastic Compliance Matrix: (Units=1/GPa)
#
#
# Indices 1 2 3 4 5 6 
#
# 1 0.009920 -0.007659 -0.001582 -0.000451 0.001774 -0.002995
# 2 -0.007659 0.030725 -0.004070 0.000926 -0.010827 0.007636
# 3 -0.001582 -0.004070 0.009496 0.000599 0.002025 -0.000071
# 4 -0.000451 0.000926 0.000599 0.028146 0.001389 -0.005991
# 5 0.001774 -0.010827 0.002025 0.001389 0.032571 -0.007326
# 6 -0.002995 0.007636 -0.000071 -0.005991 -0.007326 0.028126
#
#
# Mechanical properties :
#
#
# Convention : Reuss Voigt Hill
#
# Bulk Modulus (GPa) = 42.51663 58.56012 50.53837
# Shear Modulus (GPa) = 28.82730 37.03074 32.92902
#
# Velocity S-wave (km/s) = 3.63572 4.12069 3.88578
# Velocity P-wave (km/s) = 6.09263 7.03507 6.58074
#
# Compressibility (1/GPa) = 0.02352021
#
# Stress axis : x y z
#
# Youngs Moduli (GPa) = 100.80141 32.54649 105.30825
#
# Poissons Ratio (x) = 0.24927 0.16659
# Poissons Ratio (y) = 0.77202 0.42860
# Poissons Ratio (z) = 0.15946 0.13246
#
# Static dielectric constant tensor:
#      x y z
#    x 5.084490 0.333760 0.016520 
#    y 0.333760 3.738910 -0.218760 
#    z 0.016520 -0.218760 3.718310 
# 
# 
# High freq. dielectric constant tensor:
#      x y z
#    x 1.884510 0.001390 -0.003810 
#    y 0.001390 1.854440 -0.005620 
#    z -0.003810 -0.005620 1.850630 
# 
# From -- ./inp_files/494733.got.cif
#   From: 2010.06.25/outbox.cif.g09.slc.cpg/sg2_248_cif.got.tgz:494733.got - 2010.06.27 13:26:56.
