data_PCOD8013186
_publ_section_title
;
Structure prediction by ZEFSAII (Michael W. Deem and Ramdas Pophale) SiO2 
 PCOD8013186
Probable space group: P -1
;
_chemical_formula_sum "Si O2"
_cell_formula_units_Z 16
_cell_length_a 8.730277
_cell_length_b 14.157318
_cell_length_c 11.081636
_cell_angle_alpha 42.659549
_cell_angle_beta 72.726826
_cell_angle_gamma 51.118352
_cell_volume 686.389387
_symmetry_space_group_name_H-M "P -1"
_symmetry_group_IT_number 2
_symmetry_cell_setting 'triclinic'
loop_
_space_group_symop_operation_xyz
x,y,z
-x,-y,-z
loop_
_atom_site_type_symbol
_atom_site_label
_atom_site_fract_x
_atom_site_fract_y
_atom_site_fract_z
Si Si1 0.316609 0.250598 0.200845
Si Si2 0.513551 0.589058 0.597746
Si Si3 0.948421 0.828107 0.962828
Si Si4 0.626578 0.282045 0.016949
Si Si5 0.816797 0.356238 0.538646
Si Si6 0.780087 0.953116 0.143658
Si Si7 0.551064 0.066609 0.675442
Si Si8 0.053518 0.474608 0.817466
O O1 0.491739 0.273816 0.156868
O O2 0.161507 0.333123 0.272416
O O3 0.422421 0.039447 0.354446
O O4 0.195016 0.359893 0.005494
O O5 0.720492 0.446124 0.606655
O O6 0.316390 0.685421 0.463780
O O7 0.525971 0.734798 0.518996
O O8 0.500951 0.485080 0.806924
O O9 0.156440 0.791775 0.905093
O O10 0.773776 0.957045 0.786669
O O11 0.880827 0.921933 0.020152
O O12 0.998786 0.636242 0.139982
O O13 0.661556 0.159939 0.009825
O O14 0.822059 0.493145 0.329972
O O15 0.045810 0.171065 0.679304
O O16 0.614537 0.917650 0.212705
#
# Coordination Sequence:
#
# PCOD8013186 Si02
#       8
#     2   2   2   2   2   2   2   2
#     4   9  21  44  63  85 117 165 205 247 291 354
#     4  11  23  37  62  94 127 151 197 248 308 358
#     4  11  22  36  63  90 122 158 200 247 300 358
#     4  11  22  39  63  90 124 161 195 246 303 358
#     4  11  23  37  62  93 124 160 190 250 305 357
#     4  11  23  38  60  90 129 157 197 242 305 365
#     4  10  23  39  60  88 123 160 203 247 294 355
#     4  10  21  40  66  86 119 161 208 243 296 353
#
# _framework density 23.310383999999999
#
# number of rings (size 3 to 8) (size 9 to 14) (size 15 to 20)
#    0.000    1.500    2.500    2.250    5.250    1.500 
#    0.000    3.125    2.750    0.000    0.000    0.000 
#    0.000    0.000    0.000    0.000    0.000    0.000 
#
# Total GULP energy -198466.135774 kJ/mol
# GULP energy per Si atom -12404.133486 kJ/mol
# Density = 2.325733 g / cm^3
# Si number density = 23.310384 Si / 1000 Ang^3
#
#
#
# Elastic Constant Matrix: (Units=GPa)
#
#
# Indices 1 2 3 4 5 6 
#
# 1 115.6473 12.0694 20.3998 -8.8122 -14.6297 -20.7622
# 2 12.0694 60.9012 8.5903 -15.5812 -12.2054 -7.3439
# 3 20.3998 8.5903 57.0153 -23.6037 -20.9959 10.7461
# 4 -8.8122 -15.5812 -23.6037 32.6702 4.6513 -3.9339
# 5 -14.6297 -12.2054 -20.9959 4.6513 41.9122 -8.0868
# 6 -20.7622 -7.3439 10.7461 -3.9339 -8.0868 27.7014
#
#
#
# Elastic Compliance Matrix: (Units=1/GPa)
#
#
# Indices 1 2 3 4 5 6 
#
# 1 0.012386 0.001019 -0.004828 0.001247 0.004559 0.012934
# 2 0.001019 0.022031 0.003033 0.012909 0.008752 0.009816
# 3 -0.004828 0.003033 0.034091 0.021929 0.012026 -0.009414
# 4 0.001247 0.012909 0.021929 0.052200 0.010614 0.006362
# 5 0.004559 0.008752 0.012026 0.010614 0.035334 0.012894
# 6 0.012934 0.009816 -0.009414 0.006362 0.012894 0.056715
#
#
# Mechanical properties :
#
#
# Convention : Reuss Voigt Hill
#
# Bulk Modulus (GPa) = 14.93523 35.07587 25.00555
# Shear Modulus (GPa) = 21.13034 33.29039 27.21037
#
# Velocity S-wave (km/s) = 3.01404 3.78317 3.42029
# Velocity P-wave (km/s) = 4.30507 5.84492 5.13307
#
# Compressibility (1/GPa) = 0.06695576
#
# Stress axis : x y z
#
# Youngs Moduli (GPa) = 80.73559 45.39133 29.33350
#
# Poissons Ratio (x) = -0.04624 0.14162
# Poissons Ratio (y) = -0.08225 -0.08898
# Poissons Ratio (z) = 0.38979 -0.13769
#
# Static dielectric constant tensor:
#      x y z
#    x 4.465820 -0.124100 -0.131080 
#    y -0.124100 4.169850 -0.321220 
#    z -0.131080 -0.321220 3.869410 
# 
# 
# High freq. dielectric constant tensor:
#      x y z
#    x 1.938770 -0.009180 -0.007160 
#    y -0.009180 1.909940 -0.022010 
#    z -0.007160 -0.022010 1.907430 
# 
# From -- ./inp_files/179904.got.cif
#   From: 2010.06.25/outbox.cif.g09.slc.cpg/sg2_90_cif.got.tgz:179904.got - 2010.06.27 13:26:56.
