data_PCOD8013738
_publ_section_title
;
Structure prediction by ZEFSAII (Michael W. Deem and Ramdas Pophale) SiO2 
 PCOD8013738
Probable space group: P -1
;
_chemical_formula_sum "Si O2"
_cell_formula_units_Z 12
_cell_length_a 8.001832
_cell_length_b 6.963055
_cell_length_c 15.187315
_cell_angle_alpha 55.331127
_cell_angle_beta 108.451657
_cell_angle_gamma 127.503442
_cell_volume 551.536738
_symmetry_space_group_name_H-M "P -1"
_symmetry_group_IT_number 2
_symmetry_cell_setting 'triclinic'
loop_
_space_group_symop_operation_xyz
x,y,z
-x,-y,-z
loop_
_atom_site_type_symbol
_atom_site_label
_atom_site_fract_x
_atom_site_fract_y
_atom_site_fract_z
Si Si1 0.770751 0.569223 0.070161
Si Si2 0.166317 0.937038 0.138882
Si Si3 0.422970 0.033534 0.789946
Si Si4 0.221781 0.725506 0.519008
Si Si5 0.248615 0.355665 0.761449
Si Si6 0.422309 0.177136 0.560928
O O1 0.701870 0.265874 0.103222
O O2 0.657040 0.506900 0.163338
O O3 0.705368 0.730125 0.950169
O O4 0.025668 0.765114 0.074412
O O5 0.328253 0.844489 0.207498
O O6 0.007792 0.863772 0.214630
O O7 0.378307 0.221955 0.792969
O O8 0.336811 0.023011 0.680177
O O9 0.295588 0.584109 0.637560
O O10 0.382383 0.839368 0.434463
O O11 0.000000 0.500000 0.500000
O O12 0.236450 0.987052 0.506098
O O13 0.500000 0.500000 0.500000
#
# Coordination Sequence:
#
# PCOD8013738 Si02
#       6
#     2   2   2   2   2   2
#     4   9  21  43  57  89 129 151 210 260 290 385
#     4   9  21  42  59  89 125 158 201 258 309 362
#     4  12  21  39  65  87 123 164 200 257 317 358
#     4  11  23  42  63  86 127 167 202 261 313 362
#     4  10  21  41  60  90 123 158 210 252 304 376
#     4  11  23  40  62  93 124 157 213 256 304 379
#
# _framework density 21.757391999999999
#
# number of rings (size 3 to 8) (size 9 to 14) (size 15 to 20)
#    1.000    0.667    3.333    1.500    0.000    2.000 
#    6.000    0.000    0.000    0.000    0.000    0.000 
#    0.000    0.000    0.000    0.000    0.000    0.000 
#
# Total GULP energy -148665.377795 kJ/mol
# GULP energy per Si atom -12388.781483 kJ/mol
# Density = 2.170787 g / cm^3
# Si number density = 21.757392 Si / 1000 Ang^3
#
#
#
# Elastic Constant Matrix: (Units=GPa)
#
#
# Indices 1 2 3 4 5 6 
#
# 1 83.7105 20.1228 17.6109 -6.3067 9.0869 -5.3343
# 2 20.1228 118.3143 19.1988 -16.6781 17.7871 -1.1091
# 3 17.6109 19.1988 69.9144 -21.2037 0.6610 -6.9950
# 4 -6.3067 -16.6781 -21.2037 34.1622 0.9424 3.0245
# 5 9.0869 17.7871 0.6610 0.9424 29.1148 -3.9244
# 6 -5.3343 -1.1091 -6.9950 3.0245 -3.9244 27.8507
#
#
#
# Elastic Compliance Matrix: (Units=1/GPa)
#
#
# Indices 1 2 3 4 5 6 
#
# 1 0.013278 -0.001321 -0.002809 0.000029 -0.003093 0.001346
# 2 -0.001321 0.010431 -0.001307 0.004345 -0.006276 -0.001522
# 3 -0.002809 -0.001307 0.018761 0.010167 0.001353 0.003209
# 4 0.000029 0.004345 0.010167 0.038009 -0.004396 -0.002015
# 5 -0.003093 -0.006276 0.001353 -0.004396 0.040015 0.005613
# 6 0.001346 -0.001522 0.003209 -0.002015 0.005613 0.037919
#
#
# Mechanical properties :
#
#
# Convention : Reuss Voigt Hill
#
# Bulk Modulus (GPa) = 31.64908 42.86714 37.25811
# Shear Modulus (GPa) = 27.80592 32.55931 30.18261
#
# Velocity S-wave (km/s) = 3.57879 3.87262 3.72860
# Velocity P-wave (km/s) = 5.62627 6.30408 5.97479
#
# Compressibility (1/GPa) = 0.03159649
#
# Stress axis : x y z
#
# Youngs Moduli (GPa) = 75.31169 95.87210 53.30128
#
# Poissons Ratio (x) = 0.12663 0.14974
# Poissons Ratio (y) = 0.09947 0.06965
# Poissons Ratio (z) = 0.21157 0.12528
#
# Static dielectric constant tensor:
#      x y z
#    x 3.634820 -0.003790 -0.147010 
#    y -0.003790 3.947310 -0.092830 
#    z -0.147010 -0.092830 3.930490 
# 
# 
# High freq. dielectric constant tensor:
#      x y z
#    x 1.834180 0.004210 -0.014220 
#    y 0.004210 1.848440 -0.011010 
#    z -0.014220 -0.011010 1.857510 
# 
# From -- ./inp_files/29933.got.cif
#   From: 2010.06.25/outbox.cif.g09.slc.cpg/sg2_15_cif.got.tgz:29933.got - 2010.06.27 13:26:56.
