data_PCOD8013747
_publ_section_title
;
Structure prediction by ZEFSAII (Michael W. Deem and Ramdas Pophale) SiO2 
 PCOD8013747
Probable space group: P -1
;
_chemical_formula_sum "Si O2"
_cell_formula_units_Z 14
_cell_length_a 11.770457
_cell_length_b 20.753475
_cell_length_c 9.522985
_cell_angle_alpha 151.522398
_cell_angle_beta 54.681669
_cell_angle_gamma 140.648677
_cell_volume 662.416706
_symmetry_space_group_name_H-M "P -1"
_symmetry_group_IT_number 2
_symmetry_cell_setting 'triclinic'
loop_
_space_group_symop_operation_xyz
x,y,z
-x,-y,-z
loop_
_atom_site_type_symbol
_atom_site_label
_atom_site_fract_x
_atom_site_fract_y
_atom_site_fract_z
Si Si1 0.111125 0.365372 0.649886
Si Si2 0.988572 0.875646 0.487084
Si Si3 0.844565 0.731401 0.850295
Si Si4 0.649704 0.685796 0.163247
Si Si5 0.114061 0.683429 0.681117
Si Si6 0.348869 0.013647 0.340467
Si Si7 0.244771 0.725722 0.368490
O O1 0.219275 0.370787 0.449963
O O2 0.126592 0.278703 0.606299
O O3 0.887950 0.242889 0.538253
O O4 0.219089 0.575495 0.005951
O O5 0.858080 0.805836 0.309985
O O6 0.176386 0.917884 0.389284
O O7 0.040410 0.055874 0.855768
O O8 0.977738 0.716846 0.809421
O O9 0.662059 0.641266 0.907607
O O10 0.596716 0.809369 0.437349
O O11 0.500000 0.500000 0.000000
O O12 0.185347 0.655571 0.437024
O O13 0.000000 0.500000 0.500000
O O14 0.295942 0.862052 0.976867
O O15 0.534046 0.084283 0.429274
#
# Coordination Sequence:
#
# PCOD8013747 Si02
#       7
#     2   2   2   2   2   2   2
#     4  10  22  41  63  86 130 170 200 246 311 371
#     4  11  20  40  64  88 122 163 206 256 313 357
#     4  10  21  41  60  94 121 158 208 255 307 367
#     4  11  22  38  67  94 120 158 206 263 311 358
#     4  11  21  37  64  90 125 161 205 259 309 356
#     4  11  21  39  63  92 127 154 213 262 298 365
#     4  10  23  39  59  91 128 167 206 247 300 372
#
# _framework density 21.134730999999999
#
# number of rings (size 3 to 8) (size 9 to 14) (size 15 to 20)
#    0.000    1.429    2.857    3.429    2.000    0.571 
#    0.000    7.857    0.000    0.000    0.000    0.000 
#    0.000    0.000    0.000    0.000    0.000    0.000 
#
# Total GULP energy -173636.035840 kJ/mol
# GULP energy per Si atom -12402.573989 kJ/mol
# Density = 2.108663 g / cm^3
# Si number density = 21.134731 Si / 1000 Ang^3
#
#
#
# Elastic Constant Matrix: (Units=GPa)
#
#
# Indices 1 2 3 4 5 6 
#
# 1 47.1953 0.0699 6.3782 -2.7129 5.1912 -0.3198
# 2 0.0699 75.0624 31.6542 -9.3093 -1.7046 -5.2673
# 3 6.3782 31.6542 113.1979 -20.4176 0.3348 -1.7919
# 4 -2.7129 -9.3093 -20.4176 36.4712 -0.3847 3.4400
# 5 5.1912 -1.7046 0.3348 -0.3847 29.4573 6.3957
# 6 -0.3198 -5.2673 -1.7919 3.4400 6.3957 30.0002
#
#
#
# Elastic Compliance Matrix: (Units=1/GPa)
#
#
# Indices 1 2 3 4 5 6 
#
# 1 0.021852 0.000582 -0.001191 0.000970 -0.004010 0.001008
# 2 0.000582 0.015370 -0.004025 0.001509 0.000372 0.002212
# 3 -0.001191 -0.004025 0.010930 0.005066 0.000062 -0.000661
# 4 0.000970 0.001509 0.005066 0.031022 0.000955 -0.003183
# 5 -0.004010 0.000372 0.000062 0.000955 0.036390 -0.007841
# 6 0.001008 0.002212 -0.000661 -0.003183 -0.007841 0.035729
#
#
# Mechanical properties :
#
#
# Convention : Reuss Voigt Hill
#
# Bulk Modulus (GPa) = 25.71774 34.62894 30.17334
# Shear Modulus (GPa) = 28.81467 32.34263 30.57865
#
# Velocity S-wave (km/s) = 3.69640 3.91616 3.80787
# Velocity P-wave (km/s) = 5.51478 6.07197 5.80007
#
# Compressibility (1/GPa) = 0.03888366
#
# Stress axis : x y z
#
# Youngs Moduli (GPa) = 45.76170 65.06305 91.49342
#
# Poissons Ratio (x) = -0.03786 0.10900
# Poissons Ratio (y) = -0.02663 0.36823
# Poissons Ratio (z) = 0.05452 0.26186
#
# Static dielectric constant tensor:
#      x y z
#    x 3.784660 0.022470 0.095370 
#    y 0.022470 3.636550 -0.177680 
#    z 0.095370 -0.177680 3.844780 
# 
# 
# High freq. dielectric constant tensor:
#      x y z
#    x 1.822230 -0.000230 -0.001430 
#    y -0.000230 1.819860 -0.012570 
#    z -0.001430 -0.012570 1.835830 
# 
# From -- ./inp_files/179546.got.cif
#   From: 2010.06.25/outbox.cif.g09.slc.cpg/sg2_90_cif.got.tgz:179546.got - 2010.06.27 13:26:56.
