data_PCOD8013838
_publ_section_title
;
Structure prediction by ZEFSAII (Michael W. Deem and Ramdas Pophale) SiO2 
 PCOD8013838
Probable space group: P -1
;
_chemical_formula_sum "Si O2"
_cell_formula_units_Z 12
_cell_length_a 7.730768
_cell_length_b 5.299123
_cell_length_c 18.697933
_cell_angle_alpha 117.402800
_cell_angle_beta 134.515482
_cell_angle_gamma 61.968295
_cell_volume 471.600935
_symmetry_space_group_name_H-M "P -1"
_symmetry_group_IT_number 2
_symmetry_cell_setting 'triclinic'
loop_
_space_group_symop_operation_xyz
x,y,z
-x,-y,-z
loop_
_atom_site_type_symbol
_atom_site_label
_atom_site_fract_x
_atom_site_fract_y
_atom_site_fract_z
Si Si1 0.488803 0.295447 0.583820
Si Si2 0.952304 0.813032 0.242122
Si Si3 0.714112 0.133852 0.452379
Si Si4 0.546190 0.215924 0.267761
Si Si5 0.254916 0.258853 0.053067
Si Si6 0.758762 0.231520 0.117538
O O1 0.386561 0.996557 0.521257
O O2 0.422955 0.453854 0.663741
O O3 0.781665 0.250938 0.651949
O O4 0.332270 0.513190 0.506203
O O5 0.867673 0.510525 0.168990
O O6 0.789802 0.030827 0.278351
O O7 0.938955 0.983019 0.185316
O O8 0.535233 0.078587 0.326628
O O9 0.000000 0.000000 0.500000
O O10 0.304978 0.229278 0.149488
O O11 0.486844 0.347887 0.090949
O O12 0.000000 0.500000 0.000000
O O13 0.253607 0.932949 0.982872
#
# Coordination Sequence:
#
# PCOD8013838 Si02
#       6
#     2   2   2   2   2   2
#     4  10  22  40  66  91 123 167 200 256 317 367
#     4  11  22  42  62  91 128 166 210 250 308 370
#     4  10  22  43  67  94 126 157 204 262 316 372
#     4   9  24  37  67  90 125 166 207 257 307 367
#     4  10  21  41  62  92 127 169 213 254 306 364
#     4  10  24  38  60  90 129 165 208 263 296 354
#
# _framework density 25.445243000000001
#
# number of rings (size 3 to 8) (size 9 to 14) (size 15 to 20)
#    1.000    1.000    0.000    2.500    4.667    7.333 
#    0.000    6.667    0.000    0.000    0.000    0.000 
#    0.000    0.000    0.000    0.000    0.000    0.000 
#
# Total GULP energy -148663.214235 kJ/mol
# GULP energy per Si atom -12388.601186 kJ/mol
# Density = 2.538733 g / cm^3
# Si number density = 25.445243 Si / 1000 Ang^3
#
#
#
# Elastic Constant Matrix: (Units=GPa)
#
#
# Indices 1 2 3 4 5 6 
#
# 1 79.6414 56.9424 34.8237 -11.8946 15.7592 11.2298
# 2 56.9424 190.3173 59.1936 -16.1663 29.1060 1.1365
# 3 34.8237 59.1936 105.8840 -2.1526 0.3487 1.9485
# 4 -11.8946 -16.1663 -2.1526 55.1371 -6.1842 1.5256
# 5 15.7592 29.1060 0.3487 -6.1842 49.4412 -5.9428
# 6 11.2298 1.1365 1.9485 1.5256 -5.9428 40.7150
#
#
#
# Elastic Compliance Matrix: (Units=1/GPa)
#
#
# Indices 1 2 3 4 5 6 
#
# 1 0.018846 -0.003455 -0.004096 0.002566 -0.004300 -0.005629
# 2 -0.003455 0.007901 -0.003254 0.001058 -0.003351 0.000359
# 3 -0.004096 -0.003254 0.012559 -0.001026 0.003139 0.001116
# 4 0.002566 0.001058 -0.001026 0.019086 0.000799 -0.001287
# 5 -0.004300 -0.003351 0.003139 0.000799 0.024204 0.004632
# 6 -0.005629 0.000359 0.001116 -0.001287 0.004632 0.026774
#
#
# Mechanical properties :
#
#
# Convention : Reuss Voigt Hill
#
# Bulk Modulus (GPa) = 56.51931 75.30690 65.91311
# Shear Modulus (GPa) = 36.52833 44.05087 40.28960
#
# Velocity S-wave (km/s) = 3.79300 4.16529 3.98349
# Velocity P-wave (km/s) = 6.43761 7.26586 6.86424
#
# Compressibility (1/GPa) = 0.01769307
#
# Stress axis : x y z
#
# Youngs Moduli (GPa) = 53.06222 126.57101 79.62283
#
# Poissons Ratio (x) = 0.43735 0.32617
# Poissons Ratio (y) = 0.18335 0.25913
# Poissons Ratio (z) = 0.21737 0.41192
#
# Static dielectric constant tensor:
#      x y z
#    x 4.539010 -0.081800 -0.486330 
#    y -0.081800 4.980590 -0.141670 
#    z -0.486330 -0.141670 4.832040 
# 
# 
# High freq. dielectric constant tensor:
#      x y z
#    x 2.008550 -0.021130 -0.025570 
#    y -0.021130 2.040920 -0.003320 
#    z -0.025570 -0.003320 2.019050 
# 
# From -- ./inp_files/95947.got.cif
#   From: 2010.06.25/outbox.cif.g09.slc.cpg/sg2_48_cif.got.tgz:95947.got - 2010.06.27 13:26:56.
