data_PCOD8013233
_publ_section_title
;
Structure prediction by ZEFSAII (Michael W. Deem and Ramdas Pophale) SiO2 
 PCOD8013233
Probable space group: P -1
;
_chemical_formula_sum "Si O2"
_cell_formula_units_Z 16
_cell_length_a 24.972037
_cell_length_b 6.484322
_cell_length_c 9.387576
_cell_angle_alpha 95.787804
_cell_angle_beta 142.287918
_cell_angle_gamma 62.276885
_cell_volume 715.923903
_symmetry_space_group_name_H-M "P -1"
_symmetry_group_IT_number 2
_symmetry_cell_setting 'triclinic'
loop_
_space_group_symop_operation_xyz
x,y,z
-x,-y,-z
loop_
_atom_site_type_symbol
_atom_site_label
_atom_site_fract_x
_atom_site_fract_y
_atom_site_fract_z
Si Si1 0.874599 0.459048 0.015046
Si Si2 0.681729 0.876144 0.996324
Si Si3 0.801786 0.297142 0.103463
Si Si4 0.125452 0.082996 0.516919
Si Si5 0.318267 0.921803 0.269609
Si Si6 0.610795 0.887338 0.135044
Si Si7 0.782662 0.325972 0.565250
Si Si8 0.389192 0.719847 0.691964
O O1 0.875907 0.293069 0.136015
O O2 0.000014 0.370844 0.266400
O O3 0.784656 0.776926 0.873009
O O4 0.856021 0.369727 0.819257
O O5 0.724056 0.584681 0.032801
O O6 0.784685 0.868638 0.265437
O O7 0.586215 0.992537 0.926624
O O8 0.624178 0.063493 0.748258
O O9 0.875901 0.078918 0.367382
O O10 0.724082 0.242663 0.863258
O O11 0.144139 0.937715 0.395716
O O12 0.413760 0.751703 0.581928
O O13 0.700977 0.568607 0.300594
O O14 0.670424 0.994423 0.340672
O O15 0.500000 0.000000 0.000000
O O16 0.700978 0.328466 0.503283
O O17 0.500000 0.500000 0.000000
#
# Coordination Sequence:
#
# PCOD8013233 Si02
#       8
#     2   2   2   2   2   2   2   2
#     4  11  23  39  65 100 135 179 221 262 325 391
#     4  10  23  43  67  97 138 171 219 277 322 391
#     4  10  21  40  66  92 142 178 216 266 325 382
#     4  11  23  39  65 100 135 179 221 262 325 391
#     4  10  23  43  67  97 138 171 219 277 322 391
#     4  12  24  44  72  95 123 174 224 274 339 392
#     4  12  23  42  66  96 140 166 221 278 324 388
#     4  12  24  44  72  95 123 174 224 274 339 392
#
# _framework density 22.348744
#
# number of rings (size 3 to 8) (size 9 to 14) (size 15 to 20)
#    0.000    1.000    6.250    0.750    0.000    5.500 
#    0.000    2.500    2.750    0.000    0.000    0.000 
#    0.000    0.000    0.000    0.000    0.000    0.000 
#
# Total GULP energy -198290.459443 kJ/mol
# GULP energy per Si atom -12393.153715 kJ/mol
# Density = 2.229788 g / cm^3
# Si number density = 22.348744 Si / 1000 Ang^3
#
#
#
# Elastic Constant Matrix: (Units=GPa)
#
#
# Indices 1 2 3 4 5 6 
#
# 1 137.4909 34.9231 71.0039 -9.2847 -33.5307 -6.7822
# 2 34.9231 108.8114 27.1080 18.5705 -8.3193 7.2667
# 3 71.0039 27.1080 107.3164 -0.8711 -27.5148 -2.8027
# 4 -9.2847 18.5705 -0.8711 26.7179 -6.2205 -7.6592
# 5 -33.5307 -8.3193 -27.5148 -6.2205 36.3460 4.3573
# 6 -6.7822 7.2667 -2.8027 -7.6592 4.3573 27.8091
#
#
#
# Elastic Compliance Matrix: (Units=1/GPa)
#
#
# Indices 1 2 3 4 5 6 
#
# 1 0.015317 -0.005329 -0.005996 0.012998 0.009809 0.006567
# 2 -0.005329 0.014116 -0.001518 -0.015215 -0.004402 -0.008642
# 3 -0.005996 -0.001518 0.015139 0.000732 0.005735 -0.000237
# 4 0.012998 -0.015215 0.000732 0.062803 0.017195 0.021823
# 5 0.009809 -0.004402 0.005735 0.017195 0.042577 0.002185
# 6 0.006567 -0.008642 -0.000237 0.021823 0.002185 0.045463
#
#
# Mechanical properties :
#
#
# Convention : Reuss Voigt Hill
#
# Bulk Modulus (GPa) = 52.94873 68.85430 60.90152
# Shear Modulus (GPa) = 21.98788 32.88018 27.43403
#
# Velocity S-wave (km/s) = 3.14005 3.83983 3.50743
# Velocity P-wave (km/s) = 6.07371 7.10879 6.61154
#
# Compressibility (1/GPa) = 0.01888619
#
# Stress axis : x y z
#
# Youngs Moduli (GPa) = 65.28550 70.84178 66.05384
#
# Poissons Ratio (x) = 0.37752 0.39609
# Poissons Ratio (y) = 0.34791 0.10025
# Poissons Ratio (z) = 0.39148 0.10751
#
# Static dielectric constant tensor:
#      x y z
#    x 4.544960 0.089160 -0.751800 
#    y 0.089160 4.358910 0.236570 
#    z -0.751800 0.236570 4.127530 
# 
# 
# High freq. dielectric constant tensor:
#      x y z
#    x 1.881670 0.006810 -0.029020 
#    y 0.006810 1.894480 0.014120 
#    z -0.029020 0.014120 1.865750 
# 
# From -- ./inp_files/356025.got.cif
#   From: 2010.06.25/outbox.cif.g09.slc.cpg/sg2_179_cif.got.tgz:356025.got - 2010.06.27 13:26:56.
