data_PCOD8013695
_publ_section_title
;
Structure prediction by ZEFSAII (Michael W. Deem and Ramdas Pophale) SiO2 
 PCOD8013695
Probable space group: P -1
;
_chemical_formula_sum "Si O2"
_cell_formula_units_Z 14
_cell_length_a 12.662052
_cell_length_b 8.970165
_cell_length_c 12.261318
_cell_angle_alpha 50.489851
_cell_angle_beta 35.516726
_cell_angle_gamma 61.415438
_cell_volume 621.773792
_symmetry_space_group_name_H-M "P -1"
_symmetry_group_IT_number 2
_symmetry_cell_setting 'triclinic'
loop_
_space_group_symop_operation_xyz
x,y,z
-x,-y,-z
loop_
_atom_site_type_symbol
_atom_site_label
_atom_site_fract_x
_atom_site_fract_y
_atom_site_fract_z
Si Si1 0.982498 0.106901 0.737999
Si Si2 0.068432 0.701894 0.902893
Si Si3 0.954989 0.261938 0.462696
Si Si4 0.579570 0.015624 0.107758
Si Si5 0.710725 0.870004 0.849853
Si Si6 0.836140 0.670289 0.324456
Si Si7 0.526096 0.164251 0.493481
O O1 0.034010 0.237672 0.528738
O O2 0.113671 0.179609 0.691118
O O3 0.019978 0.883601 0.783978
O O4 0.769790 0.127055 0.936901
O O5 0.968937 0.731446 0.085986
O O6 0.000000 0.500000 0.000000
O O7 0.283740 0.707541 0.741083
O O8 0.851298 0.452712 0.451279
O O9 0.134159 0.279764 0.225137
O O10 0.807983 0.084128 0.641199
O O11 0.475962 0.921594 0.342658
O O12 0.452551 0.164548 0.085553
O O13 0.630567 0.858518 0.045507
O O14 0.628761 0.687955 0.455840
O O15 0.500000 0.000000 0.500000
#
# Coordination Sequence:
#
# PCOD8013695 Si02
#       7
#     2   2   2   2   2   2   2
#     4  11  22  47  68  97 147 186 226 301 347 417
#     4  12  28  44  73 106 140 185 238 294 353 418
#     4  10  23  41  71  98 139 185 238 283 363 412
#     4  10  21  40  72  96 135 186 235 282 357 413
#     4   9  21  41  68 101 137 180 229 299 351 411
#     4  12  26  45  70 106 144 182 241 288 354 431
#     4  12  25  46  75 100 143 195 232 287 363 421
#
# _framework density 22.516226
#
# number of rings (size 3 to 8) (size 9 to 14) (size 15 to 20)
#    0.000    1.143    2.857    2.571    8.000    1.714 
#    5.143    0.714    0.000    0.000    0.000    0.000 
#    0.000    0.000    0.000    0.000    0.000    0.000 
#
# Total GULP energy -173606.417381 kJ/mol
# GULP energy per Si atom -12400.458384 kJ/mol
# Density = 2.246498 g / cm^3
# Si number density = 22.516226 Si / 1000 Ang^3
#
#
#
# Elastic Constant Matrix: (Units=GPa)
#
#
# Indices 1 2 3 4 5 6 
#
# 1 118.2830 31.7665 45.5879 12.1395 -4.8989 -5.1132
# 2 31.7665 99.1835 44.2802 5.2091 5.0974 -8.2337
# 3 45.5879 44.2802 105.7913 25.5744 -4.6747 -3.7389
# 4 12.1395 5.2091 25.5744 34.2981 -1.6146 -1.2603
# 5 -4.8989 5.0974 -4.6747 -1.6146 52.3553 1.6795
# 6 -5.1132 -8.2337 -3.7389 -1.2603 1.6795 32.7802
#
#
#
# Elastic Compliance Matrix: (Units=1/GPa)
#
#
# Indices 1 2 3 4 5 6 
#
# 1 0.010413 -0.001695 -0.003543 -0.000723 0.000777 0.000727
# 2 -0.001695 0.013234 -0.005443 0.002654 -0.001936 0.002640
# 3 -0.003543 -0.005443 0.015593 -0.009506 0.001316 -0.000574
# 4 -0.000723 0.002654 -0.009506 0.036124 -0.000088 0.000863
# 5 0.000777 -0.001936 0.001316 -0.000088 0.019515 -0.001218
# 6 0.000727 0.002640 -0.000574 0.000863 -0.001218 0.031313
#
#
# Mechanical properties :
#
#
# Convention : Reuss Voigt Hill
#
# Bulk Modulus (GPa) = 55.93144 62.94744 59.43944
# Shear Modulus (GPa) = 32.57028 37.32827 34.94927
#
# Velocity S-wave (km/s) = 3.80745 4.07607 3.94405
# Velocity P-wave (km/s) = 6.65006 7.08306 6.86997
#
# Compressibility (1/GPa) = 0.01787903
#
# Stress axis : x y z
#
# Youngs Moduli (GPa) = 96.03582 75.56047 64.13032
#
# Poissons Ratio (x) = 0.12807 0.22720
# Poissons Ratio (y) = 0.16278 0.34906
# Poissons Ratio (z) = 0.34024 0.41127
#
# Static dielectric constant tensor:
#      x y z
#    x 4.265200 -0.169900 0.011840 
#    y -0.169900 3.955420 0.352160 
#    z 0.011840 0.352160 4.147880 
# 
# 
# High freq. dielectric constant tensor:
#      x y z
#    x 1.907370 -0.014440 0.002040 
#    y -0.014440 1.868750 0.027060 
#    z 0.002040 0.027060 1.885920 
# 
# From -- ./inp_files/418805.got.cif
#   From: 2010.06.25/outbox.cif.g09.slc.cpg/sg2_210_cif.got.tgz:418805.got - 2010.06.27 13:26:56.
