data_PCOD8013223
_publ_section_title
;
Structure prediction by ZEFSAII (Michael W. Deem and Ramdas Pophale) SiO2 
 PCOD8013223
Probable space group: P -1
;
_chemical_formula_sum "Si O2"
_cell_formula_units_Z 16
_cell_length_a 15.407921
_cell_length_b 12.097900
_cell_length_c 11.583322
_cell_angle_alpha 108.265292
_cell_angle_beta 87.490723
_cell_angle_gamma 153.683163
_cell_volume 751.061542
_symmetry_space_group_name_H-M "P -1"
_symmetry_group_IT_number 2
_symmetry_cell_setting 'triclinic'
loop_
_space_group_symop_operation_xyz
x,y,z
-x,-y,-z
loop_
_atom_site_type_symbol
_atom_site_label
_atom_site_fract_x
_atom_site_fract_y
_atom_site_fract_z
Si Si1 0.180773 0.568674 0.573373
Si Si2 0.300721 0.796110 0.866247
Si Si3 0.594543 0.375080 0.473917
Si Si4 0.858814 0.873046 0.787126
Si Si5 0.770349 0.218602 0.572401
Si Si6 0.919299 0.257872 0.102552
Si Si7 0.871996 0.148125 0.807610
Si Si8 0.250427 0.203318 0.979455
O O1 0.369334 0.842351 0.749036
O O2 0.191368 0.439707 0.528501
O O3 0.271278 0.733840 0.503041
O O4 0.930947 0.313683 0.542089
O O5 0.306505 0.943704 0.917043
O O6 0.043483 0.420941 0.793145
O O7 0.500000 0.000000 0.000000
O O8 0.702904 0.619623 0.613777
O O9 0.476052 0.146869 0.502854
O O10 0.402458 0.175239 0.322464
O O11 0.929079 0.083022 0.795322
O O12 0.712771 0.705483 0.861288
O O13 0.097646 0.100437 0.876796
O O14 0.862926 0.401728 0.740789
O O15 0.888979 0.092755 0.104190
O O16 0.933614 0.280808 0.971052
O O17 0.500000 0.500000 0.000000
#
# Coordination Sequence:
#
# PCOD8013223 Si02
#       8
#     2   2   2   2   2   2   2   2
#     4  10  22  38  59  94 128 160 215 255 320 375
#     4  11  23  38  63  95 129 165 213 264 316 381
#     4  12  22  41  64  91 130 170 208 259 320 379
#     4  10  25  43  64  95 126 169 217 256 314 385
#     4  10  22  40  62  96 129 162 208 273 315 372
#     4  10  21  40  66  92 122 168 212 260 321 373
#     4  11  23  43  63  90 135 169 210 263 318 375
#     4  10  23  45  68  93 125 166 216 266 314 374
#
# _framework density 21.303182
#
# number of rings (size 3 to 8) (size 9 to 14) (size 15 to 20)
#    0.000    1.500    2.500    2.625    3.500    4.000 
#    2.250    0.625    0.000    0.000    0.000    0.000 
#    0.000    0.000    0.000    0.000    0.000    0.000 
#
# Total GULP energy -198248.701859 kJ/mol
# GULP energy per Si atom -12390.543866 kJ/mol
# Density = 2.125469 g / cm^3
# Si number density = 21.303182 Si / 1000 Ang^3
#
#
#
# Elastic Constant Matrix: (Units=GPa)
#
#
# Indices 1 2 3 4 5 6 
#
# 1 145.0237 23.8669 48.2950 -6.5966 -2.1451 -5.0587
# 2 23.8669 57.3959 26.8953 -7.9941 -2.8306 3.0609
# 3 48.2950 26.8953 130.1399 -18.1610 -7.0435 -1.7153
# 4 -6.5966 -7.9941 -18.1610 26.2185 -2.4768 3.0921
# 5 -2.1451 -2.8306 -7.0435 -2.4768 42.0368 -3.5973
# 6 -5.0587 3.0609 -1.7153 3.0921 -3.5973 28.1796
#
#
#
# Elastic Compliance Matrix: (Units=1/GPa)
#
#
# Indices 1 2 3 4 5 6 
#
# 1 0.008183 -0.002357 -0.002627 -0.000680 -0.000082 0.001629
# 2 -0.002357 0.020494 -0.002778 0.004179 0.000768 -0.003179
# 3 -0.002627 -0.002778 0.010115 0.005655 0.001711 0.000044
# 4 -0.000680 0.004179 0.005655 0.044028 0.003392 -0.004630
# 5 -0.000082 0.000768 0.001711 0.003392 0.024560 0.002769
# 6 0.001629 -0.003179 0.000044 -0.004630 0.002769 0.036989
#
#
# Mechanical properties :
#
#
# Convention : Reuss Voigt Hill
#
# Bulk Modulus (GPa) = 42.97758 58.96377 50.97068
# Shear Modulus (GPa) = 29.82413 34.85380 32.33897
#
# Velocity S-wave (km/s) = 3.74570 4.04924 3.90042
# Velocity P-wave (km/s) = 6.23899 7.04275 6.65302
#
# Compressibility (1/GPa) = 0.02326794
#
# Stress axis : x y z
#
# Youngs Moduli (GPa) = 122.20452 48.79445 98.85826
#
# Poissons Ratio (x) = 0.11502 0.25974
# Poissons Ratio (y) = 0.28805 0.27461
# Poissons Ratio (z) = 0.32108 0.13554
#
# Static dielectric constant tensor:
#      x y z
#    x 4.182560 -0.154480 -0.086120 
#    y -0.154480 3.293610 -0.410140 
#    z -0.086120 -0.410140 3.900010 
# 
# 
# High freq. dielectric constant tensor:
#      x y z
#    x 1.866810 -0.001800 0.003400 
#    y -0.001800 1.804520 -0.023920 
#    z 0.003400 -0.023920 1.843200 
# 
# From -- ./inp_files/452559.got.cif
#   From: 2010.06.25/outbox.cif.g09.slc.cpg/sg2_227_cif.got.tgz:452559.got - 2010.06.27 13:26:56.
