data_PCOD8013466
_publ_section_title
;
Structure prediction by ZEFSAII (Michael W. Deem and Ramdas Pophale) SiO2 
 PCOD8013466
Probable space group: P -1
;
_chemical_formula_sum "Si O2"
_cell_formula_units_Z 16
_cell_length_a 7.760714
_cell_length_b 13.816174
_cell_length_c 20.666283
_cell_angle_alpha 29.820324
_cell_angle_beta 42.269643
_cell_angle_gamma 38.397459
_cell_volume 671.368280
_symmetry_space_group_name_H-M "P -1"
_symmetry_group_IT_number 2
_symmetry_cell_setting 'triclinic'
loop_
_space_group_symop_operation_xyz
x,y,z
-x,-y,-z
loop_
_atom_site_type_symbol
_atom_site_label
_atom_site_fract_x
_atom_site_fract_y
_atom_site_fract_z
Si Si1 0.882355 0.416955 0.662888
Si Si2 0.979827 0.021431 0.165448
Si Si3 0.505124 0.777919 0.082841
Si Si4 0.850770 0.824955 0.710325
Si Si5 0.935995 0.399634 0.891838
Si Si6 0.242407 0.414525 0.676083
Si Si7 0.393938 0.728444 0.536313
Si Si8 0.275252 0.038710 0.192496
O O1 0.652466 0.379031 0.793121
O O2 0.715717 0.587988 0.553538
O O3 0.074917 0.495986 0.607396
O O4 0.092228 0.180800 0.711266
O O5 0.303810 0.964325 0.081561
O O6 0.001746 0.060824 0.212730
O O7 0.794449 0.240872 0.048614
O O8 0.801873 0.628220 0.118714
O O9 0.533589 0.865274 0.953969
O O10 0.740499 0.653482 0.810718
O O11 0.165970 0.783293 0.625150
O O12 0.618992 0.050944 0.616661
O O13 0.846828 0.822714 0.790128
O O14 0.041247 0.354273 0.814994
O O15 0.315046 0.602283 0.574764
O O16 0.533756 0.209677 0.700368
#
# Coordination Sequence:
#
# PCOD8013466 Si02
#       8
#     2   2   2   2   2   2   2   2
#     4  10  19  34  63  89 104 151 189 237 274 336
#     4   9  16  31  56  85 118 136 181 236 274 337
#     4   9  16  31  56  86 118 134 184 233 272 339
#     4  10  22  35  61  78 116 156 187 231 284 334
#     4  10  16  34  54  80 112 153 175 226 279 337
#     4  11  18  34  64  83 109 147 198 227 282 329
#     4  10  21  44  56  80 111 154 198 231 274 338
#     4  11  18  32  58  92 109 148 186 232 289 334
#
# _framework density 23.831925999999999
#
# number of rings (size 3 to 8) (size 9 to 14) (size 15 to 20)
#    0.750    1.250    6.250    0.750    0.000    4.500 
#    0.000    6.250    5.500    3.750    0.000    0.000 
#    0.000    0.000    0.000    0.000    0.000    0.000 
#
# Total GULP energy -198269.919743 kJ/mol
# GULP energy per Si atom -12391.869984 kJ/mol
# Density = 2.377768 g / cm^3
# Si number density = 23.831926 Si / 1000 Ang^3
#
#
#
# Elastic Constant Matrix: (Units=GPa)
#
#
# Indices 1 2 3 4 5 6 
#
# 1 84.5508 1.9744 18.7141 -10.5227 15.8047 21.3054
# 2 1.9744 45.7224 19.5502 -11.5524 -12.3840 32.8570
# 3 18.7141 19.5502 91.4120 -31.5608 23.6203 8.9715
# 4 -10.5227 -11.5524 -31.5608 40.2371 -4.2052 5.2348
# 5 15.8047 -12.3840 23.6203 -4.2052 12.1212 13.1263
# 6 21.3054 32.8570 8.9715 5.2348 13.1263 21.5162
#
#
#
# Elastic Compliance Matrix: (Units=1/GPa)
#
#
# Indices 1 2 3 4 5 6 
#
# 1 0.017856 0.000093 0.005319 0.007928 -0.020660 -0.009367
# 2 0.000093 -0.000303 0.005863 -0.000628 -0.029446 0.016042
# 3 0.005319 0.005863 0.021487 0.020930 -0.014557 -0.019391
# 4 0.007928 -0.000628 0.020930 0.041264 -0.028481 -0.008282
# 5 -0.020660 -0.029446 -0.014557 -0.028481 0.038053 0.055208
# 6 -0.009367 0.016042 -0.019391 -0.008282 0.055208 0.007673
#
#
# Mechanical properties :
#
#
# Convention : Reuss Voigt Hill
#
# Bulk Modulus (GPa) = 16.23577 33.57361 24.90469
# Shear Modulus (GPa) = 40.31895 26.87134 33.59515
#
# Velocity S-wave (km/s) = 4.11762 3.36152 3.75863
# Velocity P-wave (km/s) = 5.42529 5.40229 5.41380
#
# Compressibility (1/GPa) = 0.06159239
#
# Stress axis : x y z
#
# Youngs Moduli (GPa) = 56.00210 -3304.40769 46.53877
#
# Poissons Ratio (x) = 0.30741 -0.24756
# Poissons Ratio (y) = -0.00521 -0.27286
# Poissons Ratio (z) = -0.29790 19.37398
#
# Static dielectric constant tensor:
#      x y z
#    x 3.706010 0.021850 0.141450 
#    y 0.021850 4.198350 -0.272350 
#    z 0.141450 -0.272350 4.546740 
# 
# 
# High freq. dielectric constant tensor:
#      x y z
#    x 1.910630 0.002270 0.004060 
#    y 0.002270 1.932020 -0.007980 
#    z 0.004060 -0.007980 1.959360 
# 
# From -- ./inp_files/558350.got.cif
#   From: 2010.06.25/outbox.cif.g09.slc.cpg/sg2_280_cif.got.tgz:558350.got - 2010.06.27 13:26:56.
