data_PCOD8013062
_publ_section_title
;
Structure prediction by ZEFSAII (Michael W. Deem and Ramdas Pophale) SiO2 
 PCOD8013062
Probable space group: P -1
;
_chemical_formula_sum "Si O2"
_cell_formula_units_Z 16
_cell_length_a 10.039693
_cell_length_b 12.394670
_cell_length_c 15.534605
_cell_angle_alpha 41.163378
_cell_angle_beta 67.380918
_cell_angle_gamma 38.494074
_cell_volume 686.121801
_symmetry_space_group_name_H-M "P -1"
_symmetry_group_IT_number 2
_symmetry_cell_setting 'triclinic'
loop_
_space_group_symop_operation_xyz
x,y,z
-x,-y,-z
loop_
_atom_site_type_symbol
_atom_site_label
_atom_site_fract_x
_atom_site_fract_y
_atom_site_fract_z
Si Si1 0.134765 0.151751 0.028489
Si Si2 0.841088 0.492217 0.175452
Si Si3 0.411896 0.385572 0.664036
Si Si4 0.248056 0.074759 0.692712
Si Si5 0.375007 0.508310 0.097273
Si Si6 0.781799 0.111735 0.539291
Si Si7 0.376331 0.825913 0.993624
Si Si8 0.694961 0.605930 0.502448
O O1 0.147426 0.325993 0.953939
O O2 0.854648 0.355293 0.978004
O O3 0.307394 0.880834 0.209458
O O4 0.209636 0.067772 0.960621
O O5 0.763201 0.536457 0.267544
O O6 0.657768 0.575914 0.104108
O O7 0.101357 0.162863 0.286727
O O8 0.321467 0.657606 0.506273
O O9 0.393683 0.304646 0.628532
O O10 0.271556 0.242592 0.559969
O O11 0.964220 0.271965 0.640758
O O12 0.422403 0.818900 0.733424
O O13 0.344365 0.955589 0.836303
O O14 0.308546 0.693014 0.081444
O O15 0.500000 0.500000 0.000000
O O16 0.521892 0.289573 0.451783
O O17 0.000000 0.000000 0.500000
#
# Coordination Sequence:
#
# PCOD8013062 Si02
#       8
#     2   2   2   2   2   2   2   2
#     4  11  21  40  67  92 120 164 207 259 308 362
#     4  10  21  40  66  93 123 155 212 259 305 363
#     4  10  22  38  65  92 121 160 205 254 310 364
#     4  10  23  40  61  91 125 166 203 251 307 376
#     4  10  23  38  58  89 128 158 205 253 303 367
#     4  10  23  40  61  91 126 162 203 257 305 366
#     4  10  21  40  65  91 125 159 204 257 310 367
#     4  11  22  40  64  87 127 166 204 249 311 373
#
# _framework density 23.319474
#
# number of rings (size 3 to 8) (size 9 to 14) (size 15 to 20)
#    0.000    1.750    0.000    4.500    5.250    2.000 
#    2.250    4.375    0.000    6.000    0.000    0.000 
#    0.000    0.000    0.000    0.000    0.000    0.000 
#
# Total GULP energy -198222.768250 kJ/mol
# GULP energy per Si atom -12388.923016 kJ/mol
# Density = 2.326640 g / cm^3
# Si number density = 23.319474 Si / 1000 Ang^3
#
#
#
# Elastic Constant Matrix: (Units=GPa)
#
#
# Indices 1 2 3 4 5 6 
#
# 1 121.9797 40.1873 35.5352 -28.7440 6.4114 -12.7784
# 2 40.1873 65.6835 41.4042 -23.4225 5.0719 -6.0182
# 3 35.5352 41.4042 99.6025 -41.9608 -0.9330 3.5918
# 4 -28.7440 -23.4225 -41.9608 42.8323 4.4673 10.9811
# 5 6.4114 5.0719 -0.9330 4.4673 35.1644 -14.5990
# 6 -12.7784 -6.0182 3.5918 10.9811 -14.5990 38.5404
#
#
#
# Elastic Compliance Matrix: (Units=1/GPa)
#
#
# Indices 1 2 3 4 5 6 
#
# 1 0.011102 -0.004923 -0.000014 0.004633 -0.001473 0.001035
# 2 -0.004923 0.024033 -0.007007 0.003048 -0.002790 0.000848
# 3 -0.000014 -0.007007 0.022537 0.021870 -0.006031 -0.011715
# 4 0.004633 0.003048 0.021870 0.057266 -0.017519 -0.022979
# 5 -0.001473 -0.002790 -0.006031 -0.017519 0.039273 0.019506
# 6 0.001035 0.000848 -0.011715 -0.022979 0.019506 0.041450
#
#
# Mechanical properties :
#
#
# Convention : Reuss Voigt Hill
#
# Bulk Modulus (GPa) = 29.59927 57.94656 43.77292
# Shear Modulus (GPa) = 21.66293 34.65002 28.15647
#
# Velocity S-wave (km/s) = 3.05120 3.85890 3.47857
# Velocity P-wave (km/s) = 5.01334 6.69012 5.91148
#
# Compressibility (1/GPa) = 0.03378461
#
# Stress axis : x y z
#
# Youngs Moduli (GPa) = 90.07720 41.60863 44.37184
#
# Poissons Ratio (x) = 0.20484 0.00061
# Poissons Ratio (y) = 0.44346 0.31091
# Poissons Ratio (z) = 0.00123 0.29155
#
# Static dielectric constant tensor:
#      x y z
#    x 5.072780 0.641910 -0.647210 
#    y 0.641910 4.137560 -0.494440 
#    z -0.647210 -0.494440 4.349140 
# 
# 
# High freq. dielectric constant tensor:
#      x y z
#    x 1.931720 -0.003100 -0.005440 
#    y -0.003100 1.912660 -0.035230 
#    z -0.005440 -0.035230 1.919990 
# 
# From -- ./inp_files/418029.got.cif
#   From: 2010.06.25/outbox.cif.g09.slc.cpg/sg2_210_cif.got.tgz:418029.got - 2010.06.27 13:26:56.
