data_PCOD8013441
_publ_section_title
;
Structure prediction by ZEFSAII (Michael W. Deem and Ramdas Pophale) SiO2 
 PCOD8013441
Probable space group: P -1
;
_chemical_formula_sum "Si O2"
_cell_formula_units_Z 16
_cell_length_a 8.294150
_cell_length_b 12.307350
_cell_length_c 14.526875
_cell_angle_alpha 55.477151
_cell_angle_beta 127.708882
_cell_angle_gamma 143.842182
_cell_volume 683.683600
_symmetry_space_group_name_H-M "P -1"
_symmetry_group_IT_number 2
_symmetry_cell_setting 'triclinic'
loop_
_space_group_symop_operation_xyz
x,y,z
-x,-y,-z
loop_
_atom_site_type_symbol
_atom_site_label
_atom_site_fract_x
_atom_site_fract_y
_atom_site_fract_z
Si Si1 0.412010 0.719594 0.751790
Si Si2 0.259756 0.712817 0.511470
Si Si3 0.951895 0.111241 0.706718
Si Si4 0.321312 0.369215 0.871955
Si Si5 0.866118 0.455173 0.081484
Si Si6 0.168599 0.835756 0.056602
Si Si7 0.900025 0.930581 0.601511
Si Si8 0.817557 0.158877 0.144337
O O1 0.264694 0.738671 0.610609
O O2 0.371861 0.547396 0.795618
O O3 0.258554 0.687348 0.808319
O O4 0.750086 0.910328 0.782068
O O5 0.228468 0.836082 0.389090
O O6 0.000000 0.500000 0.500000
O O7 0.555602 0.777677 0.554120
O O8 0.038529 0.100625 0.639554
O O9 0.232458 0.265470 0.792924
O O10 0.077168 0.222622 0.933107
O O11 0.620284 0.444348 0.970444
O O12 0.937644 0.367822 0.076612
O O13 0.138246 0.663352 0.113342
O O14 0.479921 0.007413 0.126863
O O15 0.146566 0.892017 0.919600
O O16 0.000000 0.000000 0.500000
O O17 0.999935 0.832457 0.718923
#
# Coordination Sequence:
#
# PCOD8013441 Si02
#       8
#     2   2   2   2   2   2   2   2
#     4  10  21  40  68 100 135 174 229 288 332 402
#     4  11  24  47  76 102 132 180 242 292 339 410
#     4  11  25  44  73  98 139 179 233 283 350 406
#     4  11  24  40  73 104 133 173 244 282 335 410
#     4  11  25  40  71  98 141 181 228 281 347 407
#     4  10  24  44  64 100 140 179 226 281 338 419
#     4  11  28  46  72 101 143 181 231 287 352 417
#     4  11  26  44  66  96 145 183 221 278 358 413
#
# _framework density 23.402640000000002
#
# number of rings (size 3 to 8) (size 9 to 14) (size 15 to 20)
#    0.000    1.250    1.250    4.125   15.750    1.000 
#    2.250    0.625    0.000    0.000    0.000    0.000 
#    0.000    0.000    0.000    0.000    0.000    0.000 
#
# Total GULP energy -198406.064681 kJ/mol
# GULP energy per Si atom -12400.379043 kJ/mol
# Density = 2.334937 g / cm^3
# Si number density = 23.402640 Si / 1000 Ang^3
#
#
#
# Elastic Constant Matrix: (Units=GPa)
#
#
# Indices 1 2 3 4 5 6 
#
# 1 79.6244 17.7279 10.5236 3.7214 -7.3914 -0.3409
# 2 17.7279 131.3733 14.4212 3.2733 6.6141 -5.6538
# 3 10.5236 14.4212 74.2087 0.8180 -6.3230 9.8289
# 4 3.7214 3.2733 0.8180 29.8008 -3.3681 -1.7615
# 5 -7.3914 6.6141 -6.3230 -3.3681 38.0505 1.3527
# 6 -0.3409 -5.6538 9.8289 -1.7615 1.3527 33.7329
#
#
#
# Elastic Compliance Matrix: (Units=1/GPa)
#
#
# Indices 1 2 3 4 5 6 
#
# 1 0.013422 -0.001763 -0.001336 -0.001149 0.002588 0.000066
# 2 -0.001763 0.008261 -0.001792 -0.000774 -0.002214 0.001937
# 3 -0.001336 -0.001792 0.014873 -0.000022 0.002691 -0.004756
# 4 -0.001149 -0.000774 -0.000022 0.034202 0.002880 0.001536
# 5 0.002588 -0.002214 0.002691 0.002880 0.027945 -0.002099
# 6 0.000066 0.001937 -0.004756 0.001536 -0.002099 0.031520
#
#
# Mechanical properties :
#
#
# Convention : Reuss Voigt Hill
#
# Bulk Modulus (GPa) = 37.35167 41.17241 39.26204
# Shear Modulus (GPa) = 33.57284 36.48575 35.02930
#
# Velocity S-wave (km/s) = 3.79169 3.95276 3.87306
# Velocity P-wave (km/s) = 5.92995 6.20191 6.06745
#
# Compressibility (1/GPa) = 0.02677256
#
# Stress axis : x y z
#
# Youngs Moduli (GPa) = 74.50229 121.05601 67.23729
#
# Poissons Ratio (x) = 0.21347 0.08985
# Poissons Ratio (y) = 0.13138 0.12048
# Poissons Ratio (z) = 0.09956 0.21692
#
# Static dielectric constant tensor:
#      x y z
#    x 4.241870 -0.088820 -0.281330 
#    y -0.088820 4.577220 -0.142120 
#    z -0.281330 -0.142120 4.416980 
# 
# 
# High freq. dielectric constant tensor:
#      x y z
#    x 1.917920 -0.002950 -0.014200 
#    y -0.002950 1.938720 -0.004560 
#    z -0.014200 -0.004560 1.931960 
# 
# From -- ./inp_files/500093.got.cif
#   From: 2010.06.25/outbox.cif.g09.slc.cpg/sg2_251_cif.got.tgz:500093.got - 2010.06.27 13:26:56.
