data_PCOD8013394
_publ_section_title
;
Structure prediction by ZEFSAII (Michael W. Deem and Ramdas Pophale) SiO2 
 PCOD8013394
Probable space group: P -1
;
_chemical_formula_sum "Si O2"
_cell_formula_units_Z 16
_cell_length_a 9.734944
_cell_length_b 12.887869
_cell_length_c 11.646309
_cell_angle_alpha 90.603258
_cell_angle_beta 124.873791
_cell_angle_gamma 129.294643
_cell_volume 751.140007
_symmetry_space_group_name_H-M "P -1"
_symmetry_group_IT_number 2
_symmetry_cell_setting 'triclinic'
loop_
_space_group_symop_operation_xyz
x,y,z
-x,-y,-z
loop_
_atom_site_type_symbol
_atom_site_label
_atom_site_fract_x
_atom_site_fract_y
_atom_site_fract_z
Si Si1 0.009478 0.284306 0.647035
Si Si2 0.425988 0.752310 0.597593
Si Si3 0.566169 0.422325 0.584282
Si Si4 0.825043 0.815178 0.413664
Si Si5 0.339817 0.650669 0.040446
Si Si6 0.980056 0.338916 0.005454
Si Si7 0.448410 0.660706 0.844934
Si Si8 0.035292 0.865347 0.144313
O O1 0.995518 0.198184 0.532043
O O2 0.298510 0.478190 0.778821
O O3 0.767270 0.246979 0.525232
O O4 0.980929 0.205742 0.747818
O O5 0.368210 0.629940 0.482266
O O6 0.354335 0.679634 0.690050
O O7 0.730339 0.937206 0.736203
O O8 0.500000 0.500000 0.500000
O O9 0.304547 0.258712 0.524658
O O10 0.813668 0.554191 0.789790
O O11 0.606208 0.721780 0.208273
O O12 0.000000 0.000000 0.500000
O O13 0.091592 0.453885 0.948022
O O14 0.362800 0.684518 0.916608
O O15 0.293994 0.737605 0.085844
O O16 0.914607 0.189424 0.938577
O O17 0.763942 0.795790 0.989845
#
# Coordination Sequence:
#
# PCOD8013394 Si02
#       8
#     2   2   2   2   2   2   2   2
#     4  12  24  43  70 100 131 178 232 276 332 405
#     4  12  28  43  68 104 142 174 220 289 344 390
#     4  11  24  45  66  94 134 179 215 266 343 408
#     4  11  24  40  65  96 132 169 221 277 331 391
#     4  10  21  40  67  95 126 175 222 270 320 401
#     4  10  22  40  69  96 128 170 226 272 326 395
#     4  12  23  45  69  97 133 180 229 271 332 411
#     4  12  24  43  69 103 136 176 226 281 338 395
#
# _framework density 21.300954999999998
#
# number of rings (size 3 to 8) (size 9 to 14) (size 15 to 20)
#    0.000    0.750    2.500    6.000    5.250    1.000 
#    0.000    0.625    0.000    0.000    0.000    0.000 
#    0.000    0.000    0.000    0.000    0.000    0.000 
#
# Total GULP energy -198473.166698 kJ/mol
# GULP energy per Si atom -12404.572919 kJ/mol
# Density = 2.125247 g / cm^3
# Si number density = 21.300955 Si / 1000 Ang^3
#
#
#
# Elastic Constant Matrix: (Units=GPa)
#
#
# Indices 1 2 3 4 5 6 
#
# 1 110.9339 6.4729 22.1408 9.6539 4.6594 -10.0079
# 2 6.4729 85.2992 20.5416 -2.3713 -2.9574 11.2043
# 3 22.1408 20.5416 57.2935 -3.0604 -1.3712 6.3856
# 4 9.6539 -2.3713 -3.0604 35.3085 -0.4958 -4.0349
# 5 4.6594 -2.9574 -1.3712 -0.4958 30.2981 -5.1006
# 6 -10.0079 11.2043 6.3856 -4.0349 -5.1006 28.5401
#
#
#
# Elastic Compliance Matrix: (Units=1/GPa)
#
#
# Indices 1 2 3 4 5 6 
#
# 1 0.010651 -0.000377 -0.004642 -0.002865 -0.001208 0.004300
# 2 -0.000377 0.013337 -0.004134 0.000150 0.000444 -0.004343
# 3 -0.004642 -0.004134 0.021354 0.002354 0.000584 -0.004346
# 4 -0.002865 0.000150 0.002354 0.029670 0.001532 0.002878
# 5 -0.001208 0.000444 0.000584 0.001532 0.034230 0.005605
# 6 0.004300 -0.004343 -0.004346 0.002878 0.005605 0.040632
#
#
# Mechanical properties :
#
#
# Convention : Reuss Voigt Hill
#
# Bulk Modulus (GPa) = 36.98598 39.09303 38.03950
# Shear Modulus (GPa) = 28.21804 32.45410 30.33607
#
# Velocity S-wave (km/s) = 3.64363 3.90756 3.77790
# Velocity P-wave (km/s) = 5.92475 6.22505 6.07676
#
# Compressibility (1/GPa) = 0.02703727
#
# Stress axis : x y z
#
# Youngs Moduli (GPa) = 93.88858 74.97669 46.82952
#
# Poissons Ratio (x) = 0.02825 0.21739
# Poissons Ratio (y) = 0.03537 0.19358
# Poissons Ratio (z) = 0.43585 0.30993
#
# Static dielectric constant tensor:
#      x y z
#    x 3.941210 0.006530 -0.013800 
#    y 0.006530 3.855530 -0.090260 
#    z -0.013800 -0.090260 3.695500 
# 
# 
# High freq. dielectric constant tensor:
#      x y z
#    x 1.855380 0.002630 -0.002180 
#    y 0.002630 1.829270 -0.005810 
#    z -0.002180 -0.005810 1.833670 
# 
# From -- ./inp_files/261698.got.cif
#   From: 2010.06.25/outbox.cif.g09.slc.cpg/sg2_131_cif.got.tgz:261698.got - 2010.06.27 13:26:56.
