data_PCOD8013097
_publ_section_title
;
Structure prediction by ZEFSAII (Michael W. Deem and Ramdas Pophale) SiO2 
 PCOD8013097
Probable space group: P -1
;
_chemical_formula_sum "Si O2"
_cell_formula_units_Z 12
_cell_length_a 6.713572
_cell_length_b 12.671977
_cell_length_c 10.362400
_cell_angle_alpha 63.959833
_cell_angle_beta 76.228649
_cell_angle_gamma 117.900890
_cell_volume 580.659555
_symmetry_space_group_name_H-M "P -1"
_symmetry_group_IT_number 2
_symmetry_cell_setting 'triclinic'
loop_
_space_group_symop_operation_xyz
x,y,z
-x,-y,-z
loop_
_atom_site_type_symbol
_atom_site_label
_atom_site_fract_x
_atom_site_fract_y
_atom_site_fract_z
Si Si1 0.997372 0.301914 0.350683
Si Si2 0.641385 0.333077 0.540947
Si Si3 0.093299 0.127176 0.608806
Si Si4 0.268344 0.934272 0.674306
Si Si5 0.503441 0.066264 0.098786
Si Si6 0.805893 0.388365 0.770079
O O1 0.101909 0.219896 0.439388
O O2 0.720767 0.240480 0.503822
O O3 0.942936 0.249838 0.236266
O O4 0.781124 0.510250 0.770638
O O5 0.340451 0.261929 0.590288
O O6 0.635427 0.312374 0.706065
O O7 0.874346 0.516134 0.365965
O O8 0.138142 0.010837 0.620787
O O9 0.808056 0.021605 0.781455
O O10 0.357711 0.958001 0.796589
O O11 0.500000 0.000000 0.500000
O O12 0.685527 0.252173 0.963615
O O13 0.500000 0.000000 0.000000
#
# Coordination Sequence:
#
# PCOD8013097 Si02
#       6
#     2   2   2   2   2   2
#     4  10  21  40  65  93 127 169 221 260 315 389
#     4   9  20  41  68  92 130 175 217 258 324 391
#     4  12  22  40  73  96 124 178 225 259 325 390
#     4  12  23  42  68  97 133 173 218 269 325 388
#     4  12  27  44  66 101 136 165 218 280 322 381
#     4   9  21  45  62  94 138 170 210 275 324 377
#
# _framework density 20.666155
#
# number of rings (size 3 to 8) (size 9 to 14) (size 15 to 20)
#    1.000    0.333    3.333    2.500    0.000    4.000 
#    3.000    0.833    0.000    0.000    0.000    0.000 
#    0.000    0.000    0.000    0.000    0.000    0.000 
#
# Total GULP energy -148673.475278 kJ/mol
# GULP energy per Si atom -12389.456273 kJ/mol
# Density = 2.061912 g / cm^3
# Si number density = 20.666155 Si / 1000 Ang^3
#
#
#
# Elastic Constant Matrix: (Units=GPa)
#
#
# Indices 1 2 3 4 5 6 
#
# 1 113.4600 49.2151 38.6972 -0.6787 5.3140 -4.1377
# 2 49.2151 134.6503 45.6328 12.5197 14.5749 -3.4566
# 3 38.6972 45.6328 69.4260 -9.7904 16.9941 -3.4242
# 4 -0.6787 12.5197 -9.7904 43.4855 3.2534 2.7832
# 5 5.3140 14.5749 16.9941 3.2534 27.7830 0.5668
# 6 -4.1377 -3.4566 -3.4242 2.7832 0.5668 32.2297
#
#
#
# Elastic Compliance Matrix: (Units=1/GPa)
#
#
# Indices 1 2 3 4 5 6 
#
# 1 0.011724 -0.002646 -0.005456 -0.000514 0.002530 0.000642
# 2 -0.002646 0.011022 -0.006138 -0.004560 -0.000999 0.000602
# 3 -0.005456 -0.006138 0.025759 0.008360 -0.012489 0.000876
# 4 -0.000514 -0.004560 0.008360 0.026731 -0.005715 -0.001875
# 5 0.002530 -0.000999 -0.012489 -0.005715 0.044370 -0.001396
# 6 0.000642 0.000602 0.000876 -0.001875 -0.001396 0.031454
#
#
# Mechanical properties :
#
#
# Convention : Reuss Voigt Hill
#
# Bulk Modulus (GPa) = 49.93957 64.95850 57.44903
# Shear Modulus (GPa) = 26.85085 32.96571 29.90828
#
# Velocity S-wave (km/s) = 3.60845 3.99827 3.80835
# Velocity P-wave (km/s) = 6.44814 7.26742 6.87001
#
# Compressibility (1/GPa) = 0.02002420
#
# Stress axis : x y z
#
# Youngs Moduli (GPa) = 85.29554 90.73088 38.82188
#
# Poissons Ratio (x) = 0.24005 0.21181
# Poissons Ratio (y) = 0.22567 0.23831
# Poissons Ratio (z) = 0.46536 0.55695
#
# Static dielectric constant tensor:
#      x y z
#    x 3.476220 0.202050 0.169730 
#    y 0.202050 4.330310 -0.025250 
#    z 0.169730 -0.025250 3.365730 
# 
# 
# High freq. dielectric constant tensor:
#      x y z
#    x 1.794060 0.007770 0.006160 
#    y 0.007770 1.839430 -0.002890 
#    z 0.006160 -0.002890 1.779600 
# 
# From -- ./inp_files/22984.got.cif
#   From: 2010.06.25/outbox.cif.g09.slc.cpg/sg2_12_cif.got.tgz:22984.got - 2010.06.27 13:26:56.
