data_PCOD8013002
_publ_section_title
;
Structure prediction by ZEFSAII (Michael W. Deem and Ramdas Pophale) SiO2 
 PCOD8013002
Probable space group: P -1
;
_chemical_formula_sum "Si O2"
_cell_formula_units_Z 16
_cell_length_a 7.152823
_cell_length_b 20.317129
_cell_length_c 8.302993
_cell_angle_alpha 138.253668
_cell_angle_beta 124.668646
_cell_angle_gamma 61.558583
_cell_volume 657.804499
_symmetry_space_group_name_H-M "P -1"
_symmetry_group_IT_number 2
_symmetry_cell_setting 'triclinic'
loop_
_space_group_symop_operation_xyz
x,y,z
-x,-y,-z
loop_
_atom_site_type_symbol
_atom_site_label
_atom_site_fract_x
_atom_site_fract_y
_atom_site_fract_z
Si Si1 0.315259 0.751425 0.077702
Si Si2 0.569080 0.590884 0.096192
Si Si3 0.026538 0.316693 0.444039
Si Si4 0.551898 0.920218 0.646620
Si Si5 0.006072 0.172850 0.461393
Si Si6 0.742225 0.522514 0.719890
Si Si7 0.504641 0.870126 0.883520
Si Si8 0.277051 0.271562 0.017810
O O1 0.347069 0.660700 0.055241
O O2 0.348911 0.858722 0.366341
O O3 0.508964 0.732050 0.003576
O O4 0.064854 0.746788 0.866401
O O5 0.705140 0.667618 0.409918
O O6 0.500000 0.500000 0.000000
O O7 0.732849 0.549264 0.954117
O O8 0.911297 0.427842 0.593172
O O9 0.978407 0.264424 0.492481
O O10 0.786493 0.907102 0.636750
O O11 0.622522 0.882638 0.792254
O O12 0.457262 0.035899 0.811142
O O13 0.072221 0.211113 0.740782
O O14 0.767461 0.126640 0.270819
O O15 0.500000 0.500000 0.500000
O O16 0.819417 0.612805 0.811363
O O17 0.627822 0.771251 0.843548
#
# Coordination Sequence:
#
# PCOD8013002 Si02
#       8
#     2   2   2   2   2   2   2   2
#     4  10  21  43  61  92 135 169 218 273 318 394
#     4  11  24  40  60  94 132 170 218 268 322 379
#     4  12  21  42  68  89 134 177 213 260 331 378
#     4  10  24  46  67 101 136 161 226 276 325 406
#     4  11  22  43  67 100 131 176 217 266 330 398
#     4  11  20  40  64  90 127 171 219 264 306 393
#     4  11  23  46  71  96 131 177 209 280 345 377
#     4  10  21  40  64  98 127 166 231 262 322 397
#
# _framework density 24.323336999999999
#
# number of rings (size 3 to 8) (size 9 to 14) (size 15 to 20)
#    0.000    1.250    7.500    0.750    0.000    4.500 
#    4.500    1.250    0.000    0.000    0.000    0.000 
#    0.000    0.000    0.000    0.000    0.000    0.000 
#
# Total GULP energy -198380.364996 kJ/mol
# GULP energy per Si atom -12398.772812 kJ/mol
# Density = 2.426798 g / cm^3
# Si number density = 24.323337 Si / 1000 Ang^3
#
#
#
# Elastic Constant Matrix: (Units=GPa)
#
#
# Indices 1 2 3 4 5 6 
#
# 1 32.2023 -2.2034 14.0217 -4.6637 14.6418 4.7485
# 2 -2.2034 75.1960 8.4533 -10.3114 3.4601 13.8370
# 3 14.0217 8.4533 139.9518 -15.4331 19.8075 -5.5224
# 4 -4.6637 -10.3114 -15.4331 41.5047 -8.4014 6.6693
# 5 14.6418 3.4601 19.8075 -8.4014 33.3580 6.7370
# 6 4.7485 13.8370 -5.5224 6.6693 6.7370 20.9106
#
#
#
# Elastic Compliance Matrix: (Units=1/GPa)
#
#
# Indices 1 2 3 4 5 6 
#
# 1 0.040648 0.004246 -0.002307 0.003354 -0.014222 -0.009137
# 2 0.004246 0.017440 -0.001646 0.007250 0.002365 -0.016013
# 3 -0.002307 -0.001646 0.008416 0.000692 -0.004674 0.005120
# 4 0.003354 0.007250 0.000692 0.031262 0.008918 -0.018220
# 5 -0.014222 0.002365 -0.004674 0.008918 0.044371 -0.016709
# 6 -0.009137 -0.016013 0.005120 -0.018220 -0.016709 0.073041
#
#
# Mechanical properties :
#
#
# Convention : Reuss Voigt Hill
#
# Bulk Modulus (GPa) = 14.90513 31.98813 23.44663
# Shear Modulus (GPa) = 21.10108 34.29323 27.69716
#
# Velocity S-wave (km/s) = 2.94857 3.75892 3.37813
# Velocity P-wave (km/s) = 4.21109 5.65854 4.98761
#
# Compressibility (1/GPa) = 0.06709102
#
# Stress axis : x y z
#
# Youngs Moduli (GPa) = 24.60116 57.33943 118.82538
#
# Poissons Ratio (x) = -0.24347 0.27411
# Poissons Ratio (y) = -0.10446 0.19557
# Poissons Ratio (z) = 0.05675 0.09437
#
# Static dielectric constant tensor:
#      x y z
#    x 4.018100 0.071700 0.080190 
#    y 0.071700 4.266570 -0.114510 
#    z 0.080190 -0.114510 4.984620 
# 
# 
# High freq. dielectric constant tensor:
#      x y z
#    x 1.941650 0.000220 0.006280 
#    y 0.000220 1.966660 -0.000840 
#    z 0.006280 -0.000840 1.983790 
# 
# From -- ./inp_files/222694.got.cif
#   From: 2010.06.25/outbox.cif.g09.slc.cpg/sg2_112_cif.got.tgz:222694.got - 2010.06.27 13:26:56.
