data_PCOD8013345
_publ_section_title
;
Structure prediction by ZEFSAII (Michael W. Deem and Ramdas Pophale) SiO2 
 PCOD8013345
Probable space group: P -1
;
_chemical_formula_sum "Si O2"
_cell_formula_units_Z 16
_cell_length_a 12.699347
_cell_length_b 9.243158
_cell_length_c 11.325375
_cell_angle_alpha 74.093376
_cell_angle_beta 69.343786
_cell_angle_gamma 129.026301
_cell_volume 706.204644
_symmetry_space_group_name_H-M "P -1"
_symmetry_group_IT_number 2
_symmetry_cell_setting 'triclinic'
loop_
_space_group_symop_operation_xyz
x,y,z
-x,-y,-z
loop_
_atom_site_type_symbol
_atom_site_label
_atom_site_fract_x
_atom_site_fract_y
_atom_site_fract_z
Si Si1 0.762443 0.057304 0.012811
Si Si2 0.031812 0.151330 0.230738
Si Si3 0.185899 0.612159 0.946424
Si Si4 0.794558 0.083412 0.505694
Si Si5 0.400279 0.685309 0.648185
Si Si6 0.117429 0.486564 0.641485
Si Si7 0.311545 0.282545 0.702421
Si Si8 0.803220 0.981884 0.771561
O O1 0.682867 0.919321 0.945438
O O2 0.994123 0.314216 0.848492
O O3 0.701667 0.159742 0.054639
O O4 0.691994 0.870685 0.184219
O O5 0.940577 0.114237 0.396363
O O6 0.873679 0.907868 0.263208
O O7 0.185645 0.187223 0.190619
O O8 0.135341 0.400583 0.072340
O O9 0.333546 0.737824 0.755804
O O10 0.000000 0.500000 0.000000
O O11 0.628850 0.921254 0.509335
O O12 0.898713 0.355275 0.419075
O O13 0.706465 0.931763 0.699169
O O14 0.333667 0.669504 0.546591
O O15 0.308942 0.421105 0.762633
O O16 0.020178 0.286281 0.618577
O O17 0.500000 0.500000 0.500000
#
# Coordination Sequence:
#
# PCOD8013345 Si02
#       8
#     2   2   2   2   2   2   2   2
#     4  10  22  41  65  93 126 168 220 257 321 381
#     4  12  21  40  67  94 127 174 222 259 316 388
#     4  12  21  39  67  97 126 166 217 272 313 386
#     4  12  24  41  64  99 136 165 215 268 323 375
#     4  12  24  39  63 101 129 166 210 277 326 368
#     4  10  21  40  67  90 126 168 217 260 316 373
#     4  12  23  39  63  97 133 164 207 279 327 373
#     4  10  23  42  67  92 129 178 216 254 318 396
#
# _framework density 22.656323
#
# number of rings (size 3 to 8) (size 9 to 14) (size 15 to 20)
#    0.750    0.000    6.250    1.875    0.000    2.500 
#    0.000    3.125    0.000    0.000    0.000    0.000 
#    0.000    0.000    0.000    0.000    0.000    0.000 
#
# Total GULP energy -198283.275450 kJ/mol
# GULP energy per Si atom -12392.704716 kJ/mol
# Density = 2.260476 g / cm^3
# Si number density = 22.656323 Si / 1000 Ang^3
#
#
#
# Elastic Constant Matrix: (Units=GPa)
#
#
# Indices 1 2 3 4 5 6 
#
# 1 66.1893 33.2378 18.7832 -4.7154 12.9675 -20.8713
# 2 33.2378 84.7945 5.4395 1.4732 10.1451 -34.9778
# 3 18.7832 5.4395 61.5665 -3.0801 20.9994 -9.3714
# 4 -4.7154 1.4732 -3.0801 32.3362 -10.6657 5.6681
# 5 12.9675 10.1451 20.9994 -10.6657 30.2418 1.9907
# 6 -20.8713 -34.9778 -9.3714 5.6681 1.9907 42.6282
#
#
#
# Elastic Compliance Matrix: (Units=1/GPa)
#
#
# Indices 1 2 3 4 5 6 
#
# 1 0.021593 -0.005221 -0.003376 0.000256 -0.005453 0.005767
# 2 -0.005221 0.024128 0.007657 -0.010138 -0.016132 0.021026
# 3 -0.003376 0.007657 0.025837 -0.008056 -0.022722 0.012442
# 4 0.000256 -0.010138 -0.008056 0.041724 0.024697 -0.016665
# 5 -0.005453 -0.016132 -0.022722 0.024697 0.067103 -0.027319
# 6 0.005767 0.021026 0.012442 -0.016665 -0.027319 0.049762
#
#
# Mechanical properties :
#
#
# Convention : Reuss Voigt Hill
#
# Bulk Modulus (GPa) = 14.35175 36.38570 25.36873
# Shear Modulus (GPa) = 19.58843 31.38054 25.48448
#
# Velocity S-wave (km/s) = 2.94358 3.72569 3.35749
# Velocity P-wave (km/s) = 4.23098 5.88238 5.12365
#
# Compressibility (1/GPa) = 0.06967790
#
# Stress axis : x y z
#
# Youngs Moduli (GPa) = 46.31186 41.44563 38.70421
#
# Poissons Ratio (x) = 0.21637 0.13067
# Poissons Ratio (y) = 0.24177 -0.29635
# Poissons Ratio (z) = 0.15635 -0.31734
#
# Static dielectric constant tensor:
#      x y z
#    x 3.807280 -0.340180 0.021210 
#    y -0.340180 4.466590 0.139030 
#    z 0.021210 0.139030 3.781670 
# 
# 
# High freq. dielectric constant tensor:
#      x y z
#    x 1.868930 -0.030280 0.012780 
#    y -0.030280 1.910320 0.004250 
#    z 0.012780 0.004250 1.871820 
# 
# From -- ./inp_files/416860.got.cif
#   From: 2010.06.25/outbox.cif.g09.slc.cpg/sg2_209_cif.got.tgz:416860.got - 2010.06.27 13:26:56.
