data_PCOD8013752
_publ_section_title
;
Structure prediction by ZEFSAII (Michael W. Deem and Ramdas Pophale) SiO2 
 PCOD8013752
Probable space group: P -1
;
_chemical_formula_sum "Si O2"
_cell_formula_units_Z 16
_cell_length_a 13.293408
_cell_length_b 10.414920
_cell_length_c 15.462523
_cell_angle_alpha 52.860019
_cell_angle_beta 137.563819
_cell_angle_gamma 148.675451
_cell_volume 748.815043
_symmetry_space_group_name_H-M "P -1"
_symmetry_group_IT_number 2
_symmetry_cell_setting 'triclinic'
loop_
_space_group_symop_operation_xyz
x,y,z
-x,-y,-z
loop_
_atom_site_type_symbol
_atom_site_label
_atom_site_fract_x
_atom_site_fract_y
_atom_site_fract_z
Si Si1 0.197137 0.103166 0.647917
Si Si2 0.864899 0.664735 0.737311
Si Si3 0.046978 0.409652 0.818416
Si Si4 0.101210 0.783181 0.005288
Si Si5 0.413675 0.968523 0.766514
Si Si6 0.390440 0.776278 0.378105
Si Si7 0.428670 0.340209 0.344065
Si Si8 0.994487 0.959246 0.112129
O O1 0.345483 0.379657 0.658548
O O2 0.367427 0.112630 0.709070
O O3 0.000000 0.000000 0.500000
O O4 0.089182 0.937920 0.732065
O O5 0.756686 0.464418 0.677594
O O6 0.683922 0.652996 0.651914
O O7 0.941584 0.616720 0.887742
O O8 0.791543 0.245909 0.690693
O O9 0.221051 0.694184 0.792211
O O10 0.117447 0.311524 0.844996
O O11 0.038124 0.375100 0.931083
O O12 0.147716 0.016935 0.939098
O O13 0.339020 0.886422 0.102084
O O14 0.420172 0.978105 0.661534
O O15 0.506683 0.782112 0.529089
O O16 0.256182 0.173779 0.223709
O O17 0.000000 0.000000 0.000000
#
# Coordination Sequence:
#
# PCOD8013752 Si02
#       8
#     2   2   2   2   2   2   2   2
#     4  12  22  37  61  93 124 156 196 241 300 370
#     4  11  21  37  57  90 125 155 193 246 294 366
#     4  10  21  41  61  85 121 157 204 250 288 351
#     4   9  23  39  59  88 118 161 200 242 304 349
#     4  11  22  37  59  91 122 160 193 248 301 351
#     4  11  21  38  58  91 121 156 195 244 304 358
#     4  11  22  40  64  86 123 164 193 246 304 346
#     4   9  21  44  64  83 116 161 207 247 289 352
#
# _framework density 21.367092
#
# number of rings (size 3 to 8) (size 9 to 14) (size 15 to 20)
#    0.000    1.500    3.750    1.125    0.000    6.500 
#    2.250    6.875    0.000    0.000    0.000    0.000 
#    0.000    0.000    0.000    0.000    0.000    0.000 
#
# Total GULP energy -198340.823413 kJ/mol
# GULP energy per Si atom -12396.301463 kJ/mol
# Density = 2.131846 g / cm^3
# Si number density = 21.367092 Si / 1000 Ang^3
#
#
#
# Elastic Constant Matrix: (Units=GPa)
#
#
# Indices 1 2 3 4 5 6 
#
# 1 57.9591 19.8849 27.8880 -1.0811 10.9967 5.2698
# 2 19.8849 78.6111 33.1477 -15.8366 -11.6601 11.6218
# 3 27.8880 33.1477 147.1388 -0.6366 9.2657 -1.9952
# 4 -1.0811 -15.8366 -0.6366 30.1712 -4.3506 -6.1060
# 5 10.9967 -11.6601 9.2657 -4.3506 28.8681 -0.8997
# 6 5.2698 11.6218 -1.9952 -6.1060 -0.8997 33.2792
#
#
#
# Elastic Compliance Matrix: (Units=1/GPa)
#
#
# Indices 1 2 3 4 5 6 
#
# 1 0.023244 -0.007576 -0.001989 -0.005443 -0.012173 -0.002482
# 2 -0.007576 0.021787 -0.004408 0.012403 0.014846 -0.003996
# 3 -0.001989 -0.004408 0.008435 -0.002424 -0.004039 0.001806
# 4 -0.005443 0.012403 -0.002424 0.042406 0.014394 0.004555
# 5 -0.012173 0.014846 -0.004039 0.014394 0.048754 0.000460
# 6 -0.002482 -0.003996 0.001806 0.004555 0.000460 0.032794
#
#
# Mechanical properties :
#
#
# Convention : Reuss Voigt Hill
#
# Bulk Modulus (GPa) = 39.18567 49.50557 44.34562
# Shear Modulus (GPa) = 23.37845 31.98291 27.68068
#
# Velocity S-wave (km/s) = 3.31136 3.87309 3.60319
# Velocity P-wave (km/s) = 5.74449 6.57422 6.17331
#
# Compressibility (1/GPa) = 0.02551953
#
# Stress axis : x y z
#
# Youngs Moduli (GPa) = 43.02220 45.89829 118.55811
#
# Poissons Ratio (x) = 0.34772 0.23586
# Poissons Ratio (y) = 0.32594 0.52257
# Poissons Ratio (z) = 0.08559 0.20231
#
# Static dielectric constant tensor:
#      x y z
#    x 4.407470 -0.343710 0.271350 
#    y -0.343710 4.059190 -0.322930 
#    z 0.271350 -0.322930 4.108670 
# 
# 
# High freq. dielectric constant tensor:
#      x y z
#    x 1.829720 -0.004590 0.019830 
#    y -0.004590 1.827820 -0.015160 
#    z 0.019830 -0.015160 1.850610 
# 
# From -- ./inp_files/454921.got.cif
#   From: 2010.06.25/outbox.cif.g09.slc.cpg/sg2_228_cif.got.tgz:454921.got - 2010.06.27 13:26:56.
