data_PCOD8014868
_publ_section_title
;
Structure prediction by ZEFSAII (Michael W. Deem and Ramdas Pophale) SiO2 
 PCOD8014868
Probable space group: P -1
;
_chemical_formula_sum "Si O2"
_cell_formula_units_Z 16
_cell_length_a 9.475187
_cell_length_b 16.524758
_cell_length_c 14.082698
_cell_angle_alpha 48.911523
_cell_angle_beta 95.992832
_cell_angle_gamma 135.700220
_cell_volume 834.278545
_symmetry_space_group_name_H-M "P -1"
_symmetry_group_IT_number 2
_symmetry_cell_setting 'triclinic'
loop_
_space_group_symop_operation_xyz
x,y,z
-x,-y,-z
loop_
_atom_site_type_symbol
_atom_site_label
_atom_site_fract_x
_atom_site_fract_y
_atom_site_fract_z
Si Si1 0.992580 0.032094 0.760496
Si Si2 0.753841 0.143201 0.478837
Si Si3 0.084051 0.644243 0.321688
Si Si4 0.958496 0.892268 0.495849
Si Si5 0.251088 0.623410 0.172254
Si Si6 0.659638 0.017712 0.782378
Si Si7 0.264940 0.226317 0.890732
Si Si8 0.445319 0.568140 0.591782
O O1 0.907355 0.092322 0.750343
O O2 0.883916 0.955134 0.703207
O O3 0.336531 0.255912 0.613328
O O4 0.839750 0.835249 0.958375
O O5 0.639900 0.053417 0.647559
O O6 0.924595 0.151459 0.444521
O O7 0.950815 0.377234 0.313197
O O8 0.500000 0.000000 0.500000
O O9 0.251263 0.702161 0.201795
O O10 0.276487 0.853463 0.231181
O O11 0.000000 0.500000 0.500000
O O12 0.800333 0.506555 0.362447
O O13 0.622457 0.671848 0.622539
O O14 0.000000 0.000000 0.500000
O O15 0.452232 0.656720 0.189001
O O16 0.365171 0.766694 0.980375
O O17 0.304622 0.360413 0.731350
O O18 0.000000 0.000000 0.000000
#
# Coordination Sequence:
#
# PCOD8014868 Si02
#       8
#     2   2   2   2   2   2   2   2
#     4   8  20  37  63  86 117 156 207 250 301 358
#     4  11  23  41  67  89 123 171 209 257 318 364
#     4  12  25  38  63  94 134 168 197 257 325 372
#     4   9  20  40  63  86 120 157 209 260 296 362
#     4  11  23  42  61  95 129 159 213 259 308 382
#     4  10  21  42  62  92 127 163 206 259 308 373
#     4  11  21  37  66  90 119 164 204 249 309 372
#     4  10  22  40  60  88 124 157 209 247 311 364
#
# _framework density 19.178246000000001
#
# number of rings (size 3 to 8) (size 9 to 14) (size 15 to 20)
#    0.750    1.000    2.500    1.875    3.500    1.500 
#    0.000    0.625    0.000    0.000    0.000    0.000 
#    0.000    0.000    0.000    0.000    0.000    0.000 
#
# Total GULP energy -198223.153999 kJ/mol
# GULP energy per Si atom -12388.947125 kJ/mol
# Density = 1.913460 g / cm^3
# Si number density = 19.178246 Si / 1000 Ang^3
#
#
#
# Elastic Constant Matrix: (Units=GPa)
#
#
# Indices 1 2 3 4 5 6 
#
# 1 79.6280 38.5577 46.4880 1.8300 9.1679 1.8584
# 2 38.5577 109.2623 36.9087 -7.2586 1.7953 -3.4121
# 3 46.4880 36.9087 113.5859 3.8140 -8.5115 -2.6455
# 4 1.8300 -7.2586 3.8140 26.9119 -1.8446 -4.3179
# 5 9.1679 1.7953 -8.5115 -1.8446 13.3793 -0.2884
# 6 1.8584 -3.4121 -2.6455 -4.3179 -0.2884 41.4493
#
#
#
# Elastic Compliance Matrix: (Units=1/GPa)
#
#
# Indices 1 2 3 4 5 6 
#
# 1 0.023064 -0.004914 -0.009410 -0.003454 -0.021662 -0.002550
# 2 -0.004914 0.011807 -0.001837 0.004105 0.001212 0.001511
# 3 -0.009410 -0.001837 0.014490 -0.000624 0.015853 0.001241
# 4 -0.003454 0.004105 -0.000624 0.039815 0.007009 0.004649
# 5 -0.021662 0.001212 0.015853 0.007009 0.100550 0.003513
# 6 -0.002550 0.001511 0.001241 0.004649 0.003513 0.024953
#
#
# Mechanical properties :
#
#
# Convention : Reuss Voigt Hill
#
# Bulk Modulus (GPa) = 58.68652 60.70946 59.69799
# Shear Modulus (GPa) = 19.78797 28.38290 24.08543
#
# Velocity S-wave (km/s) = 3.21564 3.85119 3.54767
# Velocity P-wave (km/s) = 6.66739 7.17632 6.92653
#
# Compressibility (1/GPa) = 0.01703969
#
# Stress axis : x y z
#
# Youngs Moduli (GPa) = 43.35748 84.69660 69.01423
#
# Poissons Ratio (x) = 0.41618 0.64939
# Poissons Ratio (y) = 0.21305 0.12680
# Poissons Ratio (z) = 0.40797 0.15561
#
# Static dielectric constant tensor:
#      x y z
#    x 7.009640 5.663380 15.672550 
#    y 5.663380 7.630040 15.698020 
#    z 15.672550 15.698020 54.387120 
# 
# 
# High freq. dielectric constant tensor:
#      x y z
#    x 1.741220 0.002580 0.000610 
#    y 0.002580 1.732170 0.005920 
#    z 0.000610 0.005920 1.753620 
# 
# From -- ./inp_files/505364.got.cif
#   From: 2010.06.25/outbox.cif.g09.slc.cpg/sg2_253_cif.got.tgz:505364.got - 2010.06.27 13:26:56.
