data_PCOD8014822
_publ_section_title
;
Structure prediction by ZEFSAII (Michael W. Deem and Ramdas Pophale) SiO2 
 PCOD8014822
Probable space group: P -1
;
_chemical_formula_sum "Si O2"
_cell_formula_units_Z 12
_cell_length_a 11.088121
_cell_length_b 7.381620
_cell_length_c 8.721132
_cell_angle_alpha 58.448697
_cell_angle_beta 114.122790
_cell_angle_gamma 95.050824
_cell_volume 547.855802
_symmetry_space_group_name_H-M "P -1"
_symmetry_group_IT_number 2
_symmetry_cell_setting 'triclinic'
loop_
_space_group_symop_operation_xyz
x,y,z
-x,-y,-z
loop_
_atom_site_type_symbol
_atom_site_label
_atom_site_fract_x
_atom_site_fract_y
_atom_site_fract_z
Si Si1 0.398531 0.702147 0.413360
Si Si2 0.731089 0.584881 0.032284
Si Si3 0.268486 0.796592 0.609223
Si Si4 0.494503 0.920660 0.858725
Si Si5 0.820612 0.387771 0.873837
Si Si6 0.900897 0.803036 0.813687
O O1 0.500000 0.500000 0.500000
O O2 0.383364 0.707106 0.585740
O O3 0.454698 0.913452 0.302643
O O4 0.250992 0.695545 0.271656
O O5 0.797179 0.405097 0.270892
O O6 0.711377 0.447043 0.928084
O O7 0.591234 0.694114 0.983832
O O8 0.825696 0.761072 0.955203
O O9 0.343331 0.898880 0.742436
O O10 0.155597 0.971354 0.394927
O O11 0.500000 0.000000 0.000000
O O12 0.942180 0.200019 0.070116
O O13 0.883763 0.606289 0.774978
#
# Coordination Sequence:
#
# PCOD8014822 Si02
#       6
#     2   2   2   2   2   2
#     4  12  22  37  65  95 121 164 205 250 309 368
#     4  10  21  42  60  91 123 159 201 258 301 356
#     4  12  23  39  65  90 123 162 208 249 309 367
#     4  12  24  40  60  93 127 160 204 260 306 358
#     4   9  20  42  64  89 128 158 202 255 305 358
#     4   9  21  42  65  87 126 162 202 252 305 359
#
# _framework density 21.903575
#
# number of rings (size 3 to 8) (size 9 to 14) (size 15 to 20)
#    1.000    0.333    1.667    5.000    0.000    1.333 
#    0.000    0.833    0.000    0.000    0.000    0.000 
#    0.000    0.000    0.000    0.000    0.000    0.000 
#
# Total GULP energy -148703.554129 kJ/mol
# GULP energy per Si atom -12391.962844 kJ/mol
# Density = 2.185372 g / cm^3
# Si number density = 21.903575 Si / 1000 Ang^3
#
#
#
# Elastic Constant Matrix: (Units=GPa)
#
#
# Indices 1 2 3 4 5 6 
#
# 1 53.8507 24.6436 37.9167 1.6695 8.1003 -6.9957
# 2 24.6436 66.5265 52.8758 -4.4636 7.6835 -9.9044
# 3 37.9167 52.8758 130.4212 -23.2384 3.6680 0.7739
# 4 1.6695 -4.4636 -23.2384 46.9827 -0.1724 -5.4873
# 5 8.1003 7.6835 3.6680 -0.1724 49.2455 -1.8271
# 6 -6.9957 -9.9044 0.7739 -5.4873 -1.8271 35.5343
#
#
#
# Elastic Compliance Matrix: (Units=1/GPa)
#
#
# Indices 1 2 3 4 5 6 
#
# 1 0.026070 -0.003690 -0.006771 -0.004236 -0.003095 0.003438
# 2 -0.003690 0.024781 -0.009186 -0.001360 -0.002356 0.006050
# 3 -0.006771 -0.009186 0.014435 0.006140 0.001375 -0.003189
# 4 -0.004236 -0.001360 0.006140 0.024636 0.000630 0.002490
# 5 -0.003095 -0.002356 0.001375 0.000630 0.021079 -0.000115
# 6 0.003438 0.006050 -0.003189 0.002490 -0.000115 0.030953
#
#
# Mechanical properties :
#
#
# Convention : Reuss Voigt Hill
#
# Bulk Modulus (GPa) = 38.47531 53.51894 45.99712
# Shear Modulus (GPa) = 26.32812 35.37666 30.85239
#
# Velocity S-wave (km/s) = 3.47075 4.02320 3.75714
# Velocity P-wave (km/s) = 5.80219 6.78738 6.31403
#
# Compressibility (1/GPa) = 0.02599069
#
# Stress axis : x y z
#
# Youngs Moduli (GPa) = 38.35861 40.35327 69.27845
#
# Poissons Ratio (x) = 0.14891 0.46909
# Poissons Ratio (y) = 0.14155 0.63639
# Poissons Ratio (z) = 0.25973 0.37069
#
# Static dielectric constant tensor:
#      x y z
#    x 3.662050 0.056110 -0.249960 
#    y 0.056110 3.646590 0.083480 
#    z -0.249960 0.083480 3.694020 
# 
# 
# High freq. dielectric constant tensor:
#      x y z
#    x 1.846860 -0.010090 -0.003970 
#    y -0.010090 1.856370 -0.016180 
#    z -0.003970 -0.016180 1.856360 
# 
# From -- ./inp_files/191825.got.cif
#   From: 2010.06.25/outbox.cif.g09.slc.cpg/sg2_96_cif.got.tgz:191825.got - 2010.06.27 13:26:56.
