data_PCOD8014098
_publ_section_title
;
Structure prediction by ZEFSAII (Michael W. Deem and Ramdas Pophale) SiO2 
 PCOD8014098
Probable space group: P -1
;
_chemical_formula_sum "Si O2"
_cell_formula_units_Z 16
_cell_length_a 11.126214
_cell_length_b 14.186654
_cell_length_c 6.549104
_cell_angle_alpha 99.404597
_cell_angle_beta 73.066993
_cell_angle_gamma 52.755966
_cell_volume 704.597241
_symmetry_space_group_name_H-M "P -1"
_symmetry_group_IT_number 2
_symmetry_cell_setting 'triclinic'
loop_
_space_group_symop_operation_xyz
x,y,z
-x,-y,-z
loop_
_atom_site_type_symbol
_atom_site_label
_atom_site_fract_x
_atom_site_fract_y
_atom_site_fract_z
Si Si1 0.022147 0.260380 0.346482
Si Si2 0.658688 0.380934 0.508732
Si Si3 0.145935 0.992466 0.337406
Si Si4 0.470904 0.812684 0.390941
Si Si5 0.084044 0.556416 0.202650
Si Si6 0.181123 0.302009 0.975756
Si Si7 0.362084 0.778454 0.812936
Si Si8 0.546737 0.586789 0.026185
O O1 0.060679 0.137725 0.378291
O O2 0.822507 0.364656 0.402716
O O3 0.041991 0.336773 0.522827
O O4 0.159183 0.216692 0.087731
O O5 0.500000 0.500000 0.500000
O O6 0.719330 0.247348 0.333320
O O7 0.584877 0.423069 0.801530
O O8 0.293770 0.938765 0.412044
O O9 0.000000 0.000000 0.500000
O O10 0.216284 0.904089 0.068267
O O11 0.628378 0.802889 0.258959
O O12 0.454796 0.813944 0.647118
O O13 0.519903 0.683356 0.240114
O O14 0.247926 0.543276 0.108150
O O15 0.978247 0.614241 0.069159
O O16 0.157110 0.411194 0.161536
O O17 0.492333 0.649809 0.848146
#
# Coordination Sequence:
#
# PCOD8014098 Si02
#       8
#     2   2   2   2   2   2   2   2
#     4  12  25  39  62  94 127 166 209 255 308 370
#     4  11  23  37  61  97 128 159 204 256 317 377
#     4  11  25  43  64  93 126 162 208 256 308 371
#     4   9  21  41  63  87 116 159 210 254 303 361
#     4  10  22  40  63  90 128 162 202 261 312 366
#     4  10  23  42  64  92 123 163 211 255 311 374
#     4  10  21  41  65  85 123 167 201 254 315 366
#     4   9  19  37  62  92 121 158 205 253 313 374
#
# _framework density 22.708009000000001
#
# number of rings (size 3 to 8) (size 9 to 14) (size 15 to 20)
#    0.000    1.750    0.000    4.125    0.000   15.500 
#    0.000    1.250    0.000    0.000    0.000    0.000 
#    0.000    0.000    0.000    0.000    0.000    0.000 
#
# Total GULP energy -198316.759083 kJ/mol
# GULP energy per Si atom -12394.797443 kJ/mol
# Density = 2.265632 g / cm^3
# Si number density = 22.708009 Si / 1000 Ang^3
#
#
#
# Elastic Constant Matrix: (Units=GPa)
#
#
# Indices 1 2 3 4 5 6 
#
# 1 133.6102 52.0425 63.9603 -11.6570 -33.9017 -2.0772
# 2 52.0425 105.4229 42.6519 -14.3557 -20.0111 -3.5898
# 3 63.9603 42.6519 161.0523 -19.2356 -22.4677 0.5084
# 4 -11.6570 -14.3557 -19.2356 32.1768 9.7909 -6.7773
# 5 -33.9017 -20.0111 -22.4677 9.7909 44.9855 -3.7759
# 6 -2.0772 -3.5898 0.5084 -6.7773 -3.7759 27.1872
#
#
#
# Elastic Compliance Matrix: (Units=1/GPa)
#
#
# Indices 1 2 3 4 5 6 
#
# 1 0.011780 -0.003508 -0.002988 -0.000686 0.006072 0.001165
# 2 -0.003508 0.012654 -0.001288 0.003607 0.001773 0.002572
# 3 -0.002988 -0.001288 0.008194 0.003120 0.000615 0.000312
# 4 -0.000686 0.003607 0.003120 0.037677 -0.004791 0.009092
# 5 0.006072 0.001773 0.000615 -0.004791 0.029242 0.003554
# 6 0.001165 0.002572 0.000312 0.009092 0.003554 0.039965
#
#
# Mechanical properties :
#
#
# Convention : Reuss Voigt Hill
#
# Bulk Modulus (GPa) = 58.61344 79.71053 69.16198
# Shear Modulus (GPa) = 31.10107 36.96530 34.03318
#
# Velocity S-wave (km/s) = 3.70484 4.03904 3.87554
# Velocity P-wave (km/s) = 6.64597 7.54522 7.10983
#
# Compressibility (1/GPa) = 0.01706093
#
# Stress axis : x y z
#
# Youngs Moduli (GPa) = 84.88977 79.02938 122.03523
#
# Poissons Ratio (x) = 0.27720 0.36463
# Poissons Ratio (y) = 0.29775 0.15719
# Poissons Ratio (z) = 0.25364 0.10179
#
# Static dielectric constant tensor:
#      x y z
#    x 4.433100 0.178690 -0.061970 
#    y 0.178690 3.886630 0.038690 
#    z -0.061970 0.038690 4.482300 
# 
# 
# High freq. dielectric constant tensor:
#      x y z
#    x 1.902490 0.001490 0.001740 
#    y 0.001490 1.877030 -0.000720 
#    z 0.001740 -0.000720 1.912800 
# 
# From -- ./inp_files/78134.got.cif
#   From: 2010.06.25/outbox.cif.g09.slc.cpg/sg2_40_cif.got.tgz:78134.got - 2010.06.27 13:26:56.
