data_PCOD8014029
_publ_section_title
;
Structure prediction by ZEFSAII (Michael W. Deem and Ramdas Pophale) SiO2 
 PCOD8014029
Probable space group: P -1
;
_chemical_formula_sum "Si O2"
_cell_formula_units_Z 14
_cell_length_a 10.945422
_cell_length_b 8.040201
_cell_length_c 7.677739
_cell_angle_alpha 86.188308
_cell_angle_beta 118.528711
_cell_angle_gamma 108.694649
_cell_volume 559.253582
_symmetry_space_group_name_H-M "P -1"
_symmetry_group_IT_number 2
_symmetry_cell_setting 'triclinic'
loop_
_space_group_symop_operation_xyz
x,y,z
-x,-y,-z
loop_
_atom_site_type_symbol
_atom_site_label
_atom_site_fract_x
_atom_site_fract_y
_atom_site_fract_z
Si Si1 0.843203 0.666454 0.404753
Si Si2 0.733094 0.862658 0.018991
Si Si3 0.837479 0.297110 0.328517
Si Si4 0.099305 0.759371 0.986177
Si Si5 0.228573 0.343952 0.255447
Si Si6 0.369387 0.741043 0.350246
Si Si7 0.455785 0.935568 0.747182
O O1 0.796013 0.452640 0.387227
O O2 0.797163 0.724122 0.557217
O O3 0.019794 0.739378 0.491279
O O4 0.763330 0.736267 0.193750
O O5 0.708736 0.776261 0.814921
O O6 0.579418 0.897020 0.956734
O O7 0.871481 0.043105 0.084883
O O8 0.866995 0.354200 0.142461
O O9 0.701010 0.113503 0.258697
O O10 0.930341 0.666278 0.934584
O O11 0.208454 0.765890 0.220460
O O12 0.349790 0.537747 0.318441
O O13 0.432869 0.807152 0.575619
O O14 0.484660 0.858174 0.278410
#
# Coordination Sequence:
#
# PCOD8014029 Si02
#       7
#     2   2   2   2   2   2   2
#     4  10  23  43  69  99 126 174 220 272 326 377
#     4  11  25  43  62 100 141 168 212 269 336 388
#     4  10  21  43  67  96 127 168 229 266 315 396
#     4  10  23  41  68 100 124 175 221 269 331 372
#     4  11  22  42  68  98 131 170 221 270 323 395
#     4  10  21  41  64  93 129 172 221 260 320 390
#     4  10  23  43  64  98 130 173 217 264 332 389
#
# _framework density 25.033365
#
# number of rings (size 3 to 8) (size 9 to 14) (size 15 to 20)
#    0.000    1.714    1.429    1.714    2.000    5.714 
#   12.857    0.000    0.000    0.000    0.000    0.000 
#    0.000    0.000    0.000    0.000    0.000    0.000 
#
# Total GULP energy -173591.289052 kJ/mol
# GULP energy per Si atom -12399.377789 kJ/mol
# Density = 2.497639 g / cm^3
# Si number density = 25.033365 Si / 1000 Ang^3
#
#
#
# Elastic Constant Matrix: (Units=GPa)
#
#
# Indices 1 2 3 4 5 6 
#
# 1 58.2722 23.4163 9.4689 -4.7829 16.1624 28.9468
# 2 23.4163 89.6215 28.5632 17.4244 8.4812 26.3976
# 3 9.4689 28.5632 111.3799 -5.7871 7.6640 9.3873
# 4 -4.7829 17.4244 -5.7871 39.6054 2.1547 5.3853
# 5 16.1624 8.4812 7.6640 2.1547 35.1528 13.0718
# 6 28.9468 26.3976 9.3873 5.3853 13.0718 30.5492
#
#
#
# Elastic Compliance Matrix: (Units=1/GPa)
#
#
# Indices 1 2 3 4 5 6 
#
# 1 0.036086 -0.001518 0.000936 0.009891 -0.004820 -0.032850
# 2 -0.001518 0.017527 -0.003847 -0.006910 0.002302 -0.012292
# 3 0.000936 -0.003847 0.010234 0.003474 -0.001731 -0.000579
# 4 0.009891 -0.006910 0.003474 0.031342 -0.002192 -0.009056
# 5 -0.004820 0.002302 -0.001731 -0.002192 0.034868 -0.011423
# 6 -0.032850 -0.012292 -0.000579 -0.009056 -0.011423 0.081145
#
#
# Mechanical properties :
#
#
# Convention : Reuss Voigt Hill
#
# Bulk Modulus (GPa) = 18.18583 42.46335 30.32459
# Shear Modulus (GPa) = 20.97419 34.24982 27.61201
#
# Velocity S-wave (km/s) = 2.89770 3.70289 3.32476
# Velocity P-wave (km/s) = 4.29837 5.93981 5.18446
#
# Compressibility (1/GPa) = 0.05498786
#
# Stress axis : x y z
#
# Youngs Moduli (GPa) = 27.71171 57.05546 97.71639
#
# Poissons Ratio (x) = 0.08660 -0.09143
# Poissons Ratio (y) = 0.04206 0.37593
# Poissons Ratio (z) = -0.02593 0.21950
#
# Static dielectric constant tensor:
#      x y z
#    x 4.376230 0.165670 0.017520 
#    y 0.165670 4.414990 0.394760 
#    z 0.017520 0.394760 4.537840 
# 
# 
# High freq. dielectric constant tensor:
#      x y z
#    x 1.985130 0.010380 -0.005080 
#    y 0.010380 1.991340 0.026070 
#    z -0.005080 0.026070 2.009350 
# 
# From -- ./inp_files/238800.got.cif
#   From: 2010.06.25/outbox.cif.g09.slc.cpg/sg2_120_cif.got.tgz:238800.got - 2010.06.27 13:26:56.
