data_PCOD8014107
_publ_section_title
;
Structure prediction by ZEFSAII (Michael W. Deem and Ramdas Pophale) SiO2 
 PCOD8014107
Probable space group: P -1
;
_chemical_formula_sum "Si O2"
_cell_formula_units_Z 16
_cell_length_a 9.173078
_cell_length_b 12.339667
_cell_length_c 11.673057
_cell_angle_alpha 52.195243
_cell_angle_beta 68.593957
_cell_angle_gamma 49.968786
_cell_volume 798.423159
_symmetry_space_group_name_H-M "P -1"
_symmetry_group_IT_number 2
_symmetry_cell_setting 'triclinic'
loop_
_space_group_symop_operation_xyz
x,y,z
-x,-y,-z
loop_
_atom_site_type_symbol
_atom_site_label
_atom_site_fract_x
_atom_site_fract_y
_atom_site_fract_z
Si Si1 0.182617 0.857159 0.605387
Si Si2 0.574080 0.167849 0.878905
Si Si3 0.353278 0.999967 0.625241
Si Si4 0.192385 0.642742 0.933474
Si Si5 0.172788 0.326954 0.608823
Si Si6 0.187669 0.223074 0.918415
Si Si7 0.467330 0.669612 0.441001
Si Si8 0.445673 0.722227 0.945445
O O1 0.148930 0.732990 0.764580
O O2 0.341891 0.739748 0.544271
O O3 0.235522 0.952571 0.614089
O O4 0.000000 0.000000 0.500000
O O5 0.346657 0.253249 0.891717
O O6 0.635277 0.205933 0.717317
O O7 0.615641 0.241471 0.928207
O O8 0.710321 0.972115 0.978530
O O9 0.220982 0.184099 0.596737
O O10 0.500000 0.000000 0.500000
O O11 0.455348 0.866120 0.786827
O O12 0.279070 0.714499 0.944719
O O13 0.343504 0.444836 0.013993
O O14 0.994554 0.678757 0.010925
O O15 0.113430 0.285884 0.771028
O O16 0.341525 0.348703 0.567702
O O17 0.000000 0.500000 0.500000
O O18 0.500000 0.500000 0.500000
#
# Coordination Sequence:
#
# PCOD8014107 Si02
#       8
#     2   2   2   2   2   2   2   2
#     4  11  24  42  65  95 131 167 212 256 316 378
#     4  10  21  41  65  88 123 163 204 255 307 371
#     4  11  23  43  66  90 127 172 210 261 314 371
#     4  10  23  40  63  95 125 163 205 259 308 370
#     4  11  25  42  65  94 127 166 214 261 314 379
#     4  10  22  40  62  92 123 160 208 252 312 366
#     4  11  24  42  65  94 128 168 206 262 318 371
#     4  10  22  41  63  92 125 163 209 253 312 370
#
# _framework density 20.039498999999999
#
# number of rings (size 3 to 8) (size 9 to 14) (size 15 to 20)
#    0.000    1.500    2.500    1.500    3.500    4.000 
#    0.000    0.000    0.000    0.000    0.000    0.000 
#    0.000    0.000    0.000    0.000    0.000    0.000 
#
# Total GULP energy -198384.871306 kJ/mol
# GULP energy per Si atom -12399.054457 kJ/mol
# Density = 1.999389 g / cm^3
# Si number density = 20.039499 Si / 1000 Ang^3
#
#
#
# Elastic Constant Matrix: (Units=GPa)
#
#
# Indices 1 2 3 4 5 6 
#
# 1 34.2203 31.8023 30.6316 -3.5116 9.5490 6.9201
# 2 31.8023 102.4018 62.5479 2.4780 7.2210 14.2527
# 3 30.6316 62.5479 155.2289 -1.2114 17.3214 -2.6152
# 4 -3.5116 2.4780 -1.2114 40.6539 -2.6727 0.4415
# 5 9.5490 7.2210 17.3214 -2.6727 35.2192 -0.2693
# 6 6.9201 14.2527 -2.6152 0.4415 -0.2693 36.5394
#
#
#
# Elastic Compliance Matrix: (Units=1/GPa)
#
#
# Indices 1 2 3 4 5 6 
#
# 1 0.046577 -0.010887 -0.003943 0.004085 -0.008185 -0.004966
# 2 -0.010887 0.016713 -0.004875 -0.001938 0.001740 -0.004770
# 3 -0.003943 -0.004875 0.009530 0.000034 -0.002590 0.003311
# 4 0.004085 -0.001938 0.000034 0.025151 0.001179 -0.000310
# 5 -0.008185 0.001740 -0.002590 0.001179 0.031627 0.000905
# 6 -0.004966 -0.004770 0.003311 -0.000310 0.000905 0.030416
#
#
# Mechanical properties :
#
#
# Convention : Reuss Voigt Hill
#
# Bulk Modulus (GPa) = 29.93229 60.20162 45.06695
# Shear Modulus (GPa) = 23.74615 33.60713 28.67664
#
# Velocity S-wave (km/s) = 3.44607 4.09962 3.78697
# Velocity P-wave (km/s) = 5.55004 7.24678 6.45441
#
# Compressibility (1/GPa) = 0.03340874
#
# Stress axis : x y z
#
# Youngs Moduli (GPa) = 21.46971 59.83456 104.93534
#
# Poissons Ratio (x) = 0.65145 0.41372
# Poissons Ratio (y) = 0.23375 0.51160
# Poissons Ratio (z) = 0.08465 0.29172
#
# Static dielectric constant tensor:
#      x y z
#    x 3.569260 -0.012540 0.053180 
#    y -0.012540 3.940140 0.188270 
#    z 0.053180 0.188270 4.111760 
# 
# 
# High freq. dielectric constant tensor:
#      x y z
#    x 1.775230 0.006650 0.007360 
#    y 0.006650 1.789420 0.001000 
#    z 0.007360 0.001000 1.806020 
# 
# From -- ./inp_files/256775.got.cif
#   From: 2010.06.25/outbox.cif.g09.slc.cpg/sg2_129_cif.got.tgz:256775.got - 2010.06.27 13:26:56.
