data_PCOD8014079
_publ_section_title
;
Structure prediction by ZEFSAII (Michael W. Deem and Ramdas Pophale) SiO2 
 PCOD8014079
Probable space group: P -1
;
_chemical_formula_sum "Si O2"
_cell_formula_units_Z 16
_cell_length_a 10.877198
_cell_length_b 16.567194
_cell_length_c 8.627058
_cell_angle_alpha 35.881522
_cell_angle_beta 53.167681
_cell_angle_gamma 68.244244
_cell_volume 707.032403
_symmetry_space_group_name_H-M "P -1"
_symmetry_group_IT_number 2
_symmetry_cell_setting 'triclinic'
loop_
_space_group_symop_operation_xyz
x,y,z
-x,-y,-z
loop_
_atom_site_type_symbol
_atom_site_label
_atom_site_fract_x
_atom_site_fract_y
_atom_site_fract_z
Si Si1 0.760353 0.832886 0.715884
Si Si2 0.331987 0.450702 0.621527
Si Si3 0.542905 0.632038 0.649424
Si Si4 0.599351 0.021824 0.728730
Si Si5 0.960885 0.445474 0.286668
Si Si6 0.224268 0.701374 0.719343
Si Si7 0.081421 0.845512 0.330190
Si Si8 0.657064 0.895626 0.373284
O O1 0.690596 0.900170 0.812138
O O2 0.650591 0.832292 0.648919
O O3 0.943830 0.902630 0.430548
O O4 0.765423 0.675179 0.002531
O O5 0.500000 0.500000 0.500000
O O6 0.341447 0.400293 0.517909
O O7 0.223730 0.564015 0.520158
O O8 0.385062 0.650064 0.653062
O O9 0.634852 0.772071 0.453911
O O10 0.500000 0.500000 0.000000
O O11 0.734925 0.169525 0.389769
O O12 0.483285 0.025243 0.667209
O O13 0.500000 0.000000 0.000000
O O14 0.987542 0.285290 0.536530
O O15 0.000000 0.500000 0.000000
O O16 0.086279 0.568775 0.096827
O O17 0.186043 0.774349 0.476373
O O18 0.179219 0.986363 0.953793
#
# Coordination Sequence:
#
# PCOD8014079 Si02
#       8
#     2   2   2   2   2   2   2   2
#     4  12  25  42  70 101 131 179 232 275 342 410
#     4  12  24  40  72 103 129 183 230 274 342 410
#     4  11  26  46  72 100 139 178 225 288 336 402
#     4  11  23  43  67  96 133 177 222 287 337 395
#     4  10  21  41  64  97 135 173 220 280 332 400
#     4  10  21  43  68  92 136 178 219 278 341 395
#     4  11  23  42  69  98 140 178 224 278 340 406
#     4  11  25  44  67 101 139 178 224 286 337 395
#
# _framework density 22.629795000000001
#
# number of rings (size 3 to 8) (size 9 to 14) (size 15 to 20)
#    0.000    1.000    3.750    4.500    3.500    1.500 
#    4.500    0.625    0.000    0.000    0.000    0.000 
#    0.000    0.000    0.000    0.000    0.000    0.000 
#
# Total GULP energy -198280.244621 kJ/mol
# GULP energy per Si atom -12392.515289 kJ/mol
# Density = 2.257829 g / cm^3
# Si number density = 22.629795 Si / 1000 Ang^3
#
#
#
# Elastic Constant Matrix: (Units=GPa)
#
#
# Indices 1 2 3 4 5 6 
#
# 1 78.0696 35.1171 20.5177 10.3279 -2.1263 -1.8699
# 2 35.1171 133.0562 38.7826 3.8043 -12.9920 -18.7789
# 3 20.5177 38.7826 104.6936 -14.5154 -14.3909 7.8184
# 4 10.3279 3.8043 -14.5154 28.2968 6.4710 -2.7663
# 5 -2.1263 -12.9920 -14.3909 6.4710 44.3552 -1.3098
# 6 -1.8699 -18.7789 7.8184 -2.7663 -1.3098 30.0465
#
#
#
# Elastic Compliance Matrix: (Units=1/GPa)
#
#
# Indices 1 2 3 4 5 6 
#
# 1 0.015925 -0.003359 -0.002770 -0.006848 -0.000151 -0.001025
# 2 -0.003359 0.010881 -0.003901 -0.002024 0.002278 0.007520
# 3 -0.002770 -0.003901 0.013203 0.007385 0.001774 -0.005289
# 4 -0.006848 -0.002024 0.007385 0.043010 -0.004796 0.000138
# 5 -0.000151 0.002278 0.001774 -0.004796 0.024527 0.001580
# 6 -0.001025 0.007520 -0.005289 0.000138 0.001580 0.039376
#
#
# Mechanical properties :
#
#
# Convention : Reuss Voigt Hill
#
# Bulk Modulus (GPa) = 50.13242 56.07268 53.10255
# Shear Modulus (GPa) = 28.79649 35.29984 32.04817
#
# Velocity S-wave (km/s) = 3.57109 3.95382 3.76732
# Velocity P-wave (km/s) = 6.26138 6.75838 6.51462
#
# Compressibility (1/GPa) = 0.01994717
#
# Stress axis : x y z
#
# Youngs Moduli (GPa) = 62.79271 91.90400 75.74227
#
# Poissons Ratio (x) = 0.30872 0.20982
# Poissons Ratio (y) = 0.21093 0.29551
# Poissons Ratio (z) = 0.17395 0.35856
#
# Static dielectric constant tensor:
#      x y z
#    x 4.508480 0.049900 -0.730210 
#    y 0.049900 4.243700 -0.495520 
#    z -0.730210 -0.495520 5.022710 
# 
# 
# High freq. dielectric constant tensor:
#      x y z
#    x 1.890530 -0.013370 -0.010230 
#    y -0.013370 1.887500 -0.019270 
#    z -0.010230 -0.019270 1.891550 
# 
# From -- ./inp_files/271467.got.cif
#   From: 2010.06.25/outbox.cif.g09.slc.cpg/sg2_136_cif.got.tgz:271467.got - 2010.06.27 13:26:56.
