data_PCOD8014615
_publ_section_title
;
Structure prediction by ZEFSAII (Michael W. Deem and Ramdas Pophale) SiO2 
 PCOD8014615
Probable space group: P -1
;
_chemical_formula_sum "Si O2"
_cell_formula_units_Z 14
_cell_length_a 15.485835
_cell_length_b 9.460121
_cell_length_c 15.397715
_cell_angle_alpha 114.939845
_cell_angle_beta 26.300398
_cell_angle_gamma 132.799843
_cell_volume 599.177960
_symmetry_space_group_name_H-M "P -1"
_symmetry_group_IT_number 2
_symmetry_cell_setting 'triclinic'
loop_
_space_group_symop_operation_xyz
x,y,z
-x,-y,-z
loop_
_atom_site_type_symbol
_atom_site_label
_atom_site_fract_x
_atom_site_fract_y
_atom_site_fract_z
Si Si1 0.665393 0.011479 0.496238
Si Si2 0.030857 0.502216 0.323758
Si Si3 0.724286 0.779088 0.247438
Si Si4 0.053939 0.710952 0.028588
Si Si5 0.913186 0.682840 0.345997
Si Si6 0.648795 0.418098 0.785505
Si Si7 0.951177 0.897936 0.688457
O O1 0.618598 0.856934 0.423751
O O2 0.372146 0.937130 0.758703
O O3 0.924755 0.288852 0.307813
O O4 0.751795 0.976704 0.498801
O O5 0.095560 0.684332 0.248964
O O6 0.758202 0.368138 0.600582
O O7 0.308437 0.626998 0.166754
O O8 0.436400 0.563493 0.394198
O O9 0.809121 0.677238 0.199493
O O10 0.000000 0.000000 0.000000
O O11 0.000000 0.500000 0.000000
O O12 0.045237 0.732454 0.144875
O O13 0.975274 0.898097 0.375112
O O14 0.827412 0.688690 0.682158
O O15 0.297892 0.227768 0.043916
#
# Coordination Sequence:
#
# PCOD8014615 Si02
#       7
#     2   2   2   2   2   2   2
#     4  11  23  44  67  95 133 183 216 266 331 400
#     4  10  23  40  68  97 127 176 225 268 335 392
#     4  12  27  43  67  99 138 178 222 265 325 405
#     4  12  24  42  64  93 141 176 215 273 323 382
#     4  12  24  41  66 104 134 173 222 274 330 392
#     4   9  21  45  67  93 132 176 217 279 334 395
#     4  10  21  41  69  93 130 175 219 272 337 389
#
# _framework density 23.365345000000001
#
# number of rings (size 3 to 8) (size 9 to 14) (size 15 to 20)
#    0.000    1.143    2.857    3.000    4.000    2.286 
#    0.000    0.000    0.000    0.000    0.000    0.000 
#    0.000    0.000    0.000    0.000    0.000    0.000 
#
# Total GULP energy -173578.399418 kJ/mol
# GULP energy per Si atom -12398.457101 kJ/mol
# Density = 2.331216 g / cm^3
# Si number density = 23.365345 Si / 1000 Ang^3
#
#
#
# Elastic Constant Matrix: (Units=GPa)
#
#
# Indices 1 2 3 4 5 6 
#
# 1 85.1760 38.4792 -0.2459 -1.9940 3.0957 -25.0300
# 2 38.4792 128.6284 3.2371 -14.4588 -3.5848 -22.2743
# 3 -0.2459 3.2371 83.6088 5.1219 -5.4850 5.0682
# 4 -1.9940 -14.4588 5.1219 34.0081 -6.4458 -3.6755
# 5 3.0957 -3.5848 -5.4850 -6.4458 23.4308 -4.1328
# 6 -25.0300 -22.2743 5.0682 -3.6755 -4.1328 35.1740
#
#
#
# Elastic Compliance Matrix: (Units=1/GPa)
#
#
# Indices 1 2 3 4 5 6 
#
# 1 0.015947 -0.003091 -0.000496 0.000545 -0.000885 0.009415
# 2 -0.003091 0.010488 -0.000828 0.005859 0.004435 0.005695
# 3 -0.000496 -0.000828 0.012405 -0.002206 0.001762 -0.002688
# 4 0.000545 0.005859 -0.002206 0.035516 0.011755 0.009508
# 5 -0.000885 0.004435 0.001762 0.011755 0.048686 0.008874
# 6 0.009415 0.005695 -0.002688 0.009508 0.008874 0.041160
#
#
# Mechanical properties :
#
#
# Convention : Reuss Voigt Hill
#
# Bulk Modulus (GPa) = 33.32229 42.26156 37.79193
# Shear Modulus (GPa) = 27.31724 35.58541 31.45133
#
# Velocity S-wave (km/s) = 3.42297 3.90680 3.67286
# Velocity P-wave (km/s) = 5.46943 6.20301 5.84773
#
# Compressibility (1/GPa) = 0.03000994
#
# Stress axis : x y z
#
# Youngs Moduli (GPa) = 62.70766 95.34490 80.61433
#
# Poissons Ratio (x) = 0.29472 0.03995
# Poissons Ratio (y) = 0.19384 0.06677
# Poissons Ratio (z) = 0.03108 0.07898
#
# Static dielectric constant tensor:
#      x y z
#    x 4.036190 -0.207080 -0.335140 
#    y -0.207080 4.561880 0.228620 
#    z -0.335140 0.228620 4.257170 
# 
# 
# High freq. dielectric constant tensor:
#      x y z
#    x 1.903680 -0.008340 -0.022320 
#    y -0.008340 1.947500 0.003770 
#    z -0.022320 0.003770 1.913010 
# 
# From -- ./inp_files/529974.got.cif
#   From: 2010.06.25/outbox.cif.g09.slc.cpg/sg2_265_cif.got.tgz:529974.got - 2010.06.27 13:26:56.
