data_PCOD8014367
_publ_section_title
;
Structure prediction by ZEFSAII (Michael W. Deem and Ramdas Pophale) SiO2 
 PCOD8014367
Probable space group: P -1
;
_chemical_formula_sum "Si O2"
_cell_formula_units_Z 16
_cell_length_a 5.286909
_cell_length_b 17.519080
_cell_length_c 17.022795
_cell_angle_alpha 148.339012
_cell_angle_beta 127.241975
_cell_angle_gamma 57.840664
_cell_volume 658.275805
_symmetry_space_group_name_H-M "P -1"
_symmetry_group_IT_number 2
_symmetry_cell_setting 'triclinic'
loop_
_space_group_symop_operation_xyz
x,y,z
-x,-y,-z
loop_
_atom_site_type_symbol
_atom_site_label
_atom_site_fract_x
_atom_site_fract_y
_atom_site_fract_z
Si Si1 0.695629 0.728427 0.408780
Si Si2 0.155347 0.937515 0.895900
Si Si3 0.369839 0.678040 0.522307
Si Si4 0.550615 0.670891 0.164034
Si Si5 0.433651 0.053039 0.307407
Si Si6 0.491156 0.465305 0.225108
Si Si7 0.842230 0.763099 0.135572
Si Si8 0.997762 0.644994 0.675706
O O1 0.770907 0.714048 0.317460
O O2 0.562958 0.889988 0.550791
O O3 0.476150 0.594233 0.271005
O O4 0.005731 0.701483 0.500186
O O5 0.920946 0.986160 0.822187
O O6 0.178405 0.764009 0.762180
O O7 0.500000 0.000000 0.000000
O O8 0.000000 0.000000 0.000000
O O9 0.449463 0.811195 0.598987
O O10 0.387715 0.526461 0.344424
O O11 0.615905 0.684481 0.647694
O O12 0.728279 0.717119 0.159878
O O13 0.222599 0.763787 0.200492
O O14 0.500000 0.500000 0.000000
O O15 0.686864 0.920967 0.226824
O O16 0.838116 0.382342 0.232164
O O17 0.253534 0.347920 0.047086
O O18 0.000000 0.500000 0.500000
#
# Coordination Sequence:
#
# PCOD8014367 Si02
#       8
#     2   2   2   2   2   2   2   2
#     4  11  24  43  71  96 140 186 232 295 356 420
#     4  11  25  46  71 102 150 196 235 289 355 424
#     4   9  21  42  67  96 143 181 230 287 353 420
#     4  12  27  47  74 103 138 180 235 297 364 413
#     4  10  26  44  67 103 142 186 233 290 356 421
#     4  10  21  41  67 101 135 182 237 290 352 416
#     4  12  27  45  72 104 138 177 240 292 349 430
#     4   9  20  43  67 105 139 184 241 287 352 423
#
# _framework density 24.305921000000001
#
# number of rings (size 3 to 8) (size 9 to 14) (size 15 to 20)
#    0.000    1.500    1.250    2.625    8.750    2.500 
#    6.750    0.000    0.000    0.000    0.000    0.000 
#    0.000    0.000    0.000    0.000    0.000    0.000 
#
# Total GULP energy -198256.968428 kJ/mol
# GULP energy per Si atom -12391.060527 kJ/mol
# Density = 2.425060 g / cm^3
# Si number density = 24.305921 Si / 1000 Ang^3
#
#
#
# Elastic Constant Matrix: (Units=GPa)
#
#
# Indices 1 2 3 4 5 6 
#
# 1 77.1755 14.9397 27.4145 5.4153 -0.9275 -12.3915
# 2 14.9397 91.0296 30.7958 1.2027 -0.5249 -17.7970
# 3 27.4145 30.7958 112.1606 13.1036 -0.9756 -6.1677
# 4 5.4153 1.2027 13.1036 38.7111 -0.4058 -3.6529
# 5 -0.9275 -0.5249 -0.9756 -0.4058 29.9310 -7.0371
# 6 -12.3915 -17.7970 -6.1677 -3.6529 -7.0371 34.1847
#
#
#
# Elastic Compliance Matrix: (Units=1/GPa)
#
#
# Indices 1 2 3 4 5 6 
#
# 1 0.015021 -0.000402 -0.003217 -0.000521 0.001501 0.004909
# 2 -0.000402 0.013518 -0.003394 0.001444 0.001730 0.006790
# 3 -0.003217 -0.003394 0.010942 -0.003277 -0.000163 -0.001343
# 4 -0.000521 0.001444 -0.003277 0.027272 0.000999 0.003092
# 5 0.001501 0.001730 -0.000163 0.000999 0.035575 0.008845
# 6 0.004909 0.006790 -0.001343 0.003092 0.008845 0.036476
#
#
# Mechanical properties :
#
#
# Convention : Reuss Voigt Hill
#
# Bulk Modulus (GPa) = 39.28501 47.40731 43.34616
# Shear Modulus (GPa) = 30.99563 34.37974 32.68769
#
# Velocity S-wave (km/s) = 3.57491 3.76501 3.67119
# Velocity P-wave (km/s) = 5.76522 6.20058 5.98686
#
# Compressibility (1/GPa) = 0.02545500
#
# Stress axis : x y z
#
# Youngs Moduli (GPa) = 66.57443 73.97621 91.39493
#
# Poissons Ratio (x) = 0.02971 0.29405
# Poissons Ratio (y) = 0.02673 0.31017
# Poissons Ratio (z) = 0.21419 0.25105
#
# Static dielectric constant tensor:
#      x y z
#    x 2.531210 -1.330160 -1.924750 
#    y -1.330160 4.512770 -1.023740 
#    z -1.924750 -1.023740 2.491100 
# 
# 
# High freq. dielectric constant tensor:
#      x y z
#    x 1.946020 -0.016440 -0.001770 
#    y -0.016440 1.966710 -0.001750 
#    z -0.001770 -0.001750 1.982400 
# 
# From -- ./inp_files/46290.got.cif
#   From: 2010.06.25/outbox.cif.g09.slc.cpg/sg2_24_cif.got.tgz:46290.got - 2010.06.27 13:26:56.
