data_PCOD8014293
_publ_section_title
;
Structure prediction by ZEFSAII (Michael W. Deem and Ramdas Pophale) SiO2 
 PCOD8014293
Probable space group: P -1
;
_chemical_formula_sum "Si O2"
_cell_formula_units_Z 12
_cell_length_a 12.158974
_cell_length_b 26.655292
_cell_length_c 6.969114
_cell_angle_alpha 130.307291
_cell_angle_beta 52.002448
_cell_angle_gamma 160.643781
_cell_volume 570.763761
_symmetry_space_group_name_H-M "P -1"
_symmetry_group_IT_number 2
_symmetry_cell_setting 'triclinic'
loop_
_space_group_symop_operation_xyz
x,y,z
-x,-y,-z
loop_
_atom_site_type_symbol
_atom_site_label
_atom_site_fract_x
_atom_site_fract_y
_atom_site_fract_z
Si Si1 0.727439 0.257529 0.856284
Si Si2 0.096420 0.193085 0.783817
Si Si3 0.470472 0.841542 0.599632
Si Si4 0.374637 0.683101 0.577342
Si Si5 0.956937 0.265065 0.931065
Si Si6 0.571509 0.475773 0.207645
O O1 0.525614 0.160997 0.640524
O O2 0.699478 0.179854 0.829680
O O3 0.120964 0.437925 0.835191
O O4 0.583025 0.258566 0.126296
O O5 0.382491 0.275188 0.569821
O O6 0.946453 0.182433 0.769694
O O7 0.248965 0.294063 0.058504
O O8 0.803146 0.021707 0.750993
O O9 0.479282 0.772254 0.504165
O O10 0.146678 0.742333 0.778407
O O11 0.000000 0.500000 0.500000
O O12 0.323353 0.444764 0.911562
O O13 0.500000 0.500000 0.500000
#
# Coordination Sequence:
#
# PCOD8014293 Si02
#       6
#     2   2   2   2   2   2
#     4   9  22  42  64  91 128 171 212 255 321 384
#     4  12  22  40  68  99 128 172 210 274 316 372
#     4  11  23  43  66  95 135 166 214 264 327 375
#     4  11  23  46  64  90 136 172 215 262 319 384
#     4   9  22  42  66  89 136 164 212 265 315 377
#     4  10  21  41  66  94 122 169 223 253 313 385
#
# _framework density 21.024459
#
# number of rings (size 3 to 8) (size 9 to 14) (size 15 to 20)
#    1.000    0.667    1.667    2.500    0.000    3.333 
#    9.000    0.000    0.000    0.000    0.000    0.000 
#    0.000    0.000    0.000    0.000    0.000    0.000 
#
# Total GULP energy -148730.438611 kJ/mol
# GULP energy per Si atom -12394.203218 kJ/mol
# Density = 2.097661 g / cm^3
# Si number density = 21.024459 Si / 1000 Ang^3
#
#
#
# Elastic Constant Matrix: (Units=GPa)
#
#
# Indices 1 2 3 4 5 6 
#
# 1 87.5102 20.3876 61.0252 0.7016 -17.4399 -4.2934
# 2 20.3876 99.2194 47.5795 16.4290 -2.8595 -14.0687
# 3 61.0252 47.5795 166.6225 -3.7852 -8.8549 11.1916
# 4 0.7016 16.4290 -3.7852 30.9040 7.2564 -7.0648
# 5 -17.4399 -2.8595 -8.8549 7.2564 32.6069 -2.6926
# 6 -4.2934 -14.0687 11.1916 -7.0648 -2.6926 26.3414
#
#
#
# Elastic Compliance Matrix: (Units=1/GPa)
#
#
# Indices 1 2 3 4 5 6 
#
# 1 0.018241 0.001322 -0.007100 -0.002531 0.009081 0.006945
# 2 0.001322 0.014904 -0.005341 -0.007281 0.002910 0.008789
# 3 -0.007100 -0.005341 0.010586 0.003124 -0.002742 -0.007950
# 4 -0.002531 -0.007281 0.003124 0.039874 -0.009681 0.004076
# 5 0.009081 0.002910 -0.002742 -0.009681 0.037640 0.005450
# 6 0.006945 0.008789 -0.007950 0.004076 0.005450 0.048817
#
#
# Mechanical properties :
#
#
# Convention : Reuss Voigt Hill
#
# Bulk Modulus (GPa) = 46.52564 67.92630 57.22597
# Shear Modulus (GPa) = 25.06703 32.92778 28.99740
#
# Velocity S-wave (km/s) = 3.45669 3.96177 3.71782
# Velocity P-wave (km/s) = 6.17324 7.30109 6.76072
#
# Compressibility (1/GPa) = 0.02149353
#
# Stress axis : x y z
#
# Youngs Moduli (GPa) = 54.82205 67.09519 94.46277
#
# Poissons Ratio (x) = -0.08869 0.67064
# Poissons Ratio (y) = -0.07247 0.50455
# Poissons Ratio (z) = 0.38921 0.35837
#
# Static dielectric constant tensor:
#      x y z
#    x 3.718890 0.000320 -0.187270 
#    y 0.000320 3.653180 -0.162020 
#    z -0.187270 -0.162020 3.683200 
# 
# 
# High freq. dielectric constant tensor:
#      x y z
#    x 1.816130 0.004500 -0.013080 
#    y 0.004500 1.812260 -0.010830 
#    z -0.013080 -0.010830 1.821560 
# 
# From -- ./inp_files/84885.got.cif
#   From: 2010.06.25/outbox.cif.g09.slc.cpg/sg2_43_cif.got.tgz:84885.got - 2010.06.27 13:26:56.
