data_PCOD8014384
_publ_section_title
;
Structure prediction by ZEFSAII (Michael W. Deem and Ramdas Pophale) SiO2 
 PCOD8014384
Probable space group: P -1
;
_chemical_formula_sum "Si O2"
_cell_formula_units_Z 16
_cell_length_a 24.360461
_cell_length_b 6.668222
_cell_length_c 10.915987
_cell_angle_alpha 49.684131
_cell_angle_beta 147.492452
_cell_angle_gamma 120.132514
_cell_volume 722.475298
_symmetry_space_group_name_H-M "P -1"
_symmetry_group_IT_number 2
_symmetry_cell_setting 'triclinic'
loop_
_space_group_symop_operation_xyz
x,y,z
-x,-y,-z
loop_
_atom_site_type_symbol
_atom_site_label
_atom_site_fract_x
_atom_site_fract_y
_atom_site_fract_z
Si Si1 0.424104 0.362885 0.021260
Si Si2 0.409913 0.038336 0.553795
Si Si3 0.435628 0.830802 0.035415
Si Si4 0.739746 0.736003 0.416254
Si Si5 0.879481 0.834317 0.425973
Si Si6 0.328348 0.973709 0.158224
Si Si7 0.044758 0.613421 0.659440
Si Si8 0.744943 0.585704 0.753788
O O1 0.536084 0.272010 0.201504
O O2 0.424927 0.554806 0.060671
O O3 0.400033 0.079389 0.146835
O O4 0.335748 0.450018 0.721691
O O5 0.372349 0.068295 0.332473
O O6 0.499720 0.216190 0.697882
O O7 0.314359 0.132926 0.425570
O O8 0.500000 0.000000 0.000000
O O9 0.322195 0.975025 0.791797
O O10 0.840368 0.752140 0.517540
O O11 0.774789 0.596431 0.663494
O O12 0.961328 0.604920 0.615401
O O13 0.938293 0.088417 0.457790
O O14 0.787307 0.888160 0.132913
O O15 0.325328 0.656588 0.265549
O O16 0.000000 0.500000 0.500000
O O17 0.151033 0.447382 0.960700
#
# Coordination Sequence:
#
# PCOD8014384 Si02
#       8
#     2   2   2   2   2   2   2   2
#     4  10  24  39  60  84 122 168 207 248 302 348
#     4  11  22  36  60  84 123 159 208 250 295 351
#     4  11  23  39  57  88 126 165 205 246 298 354
#     4  10  23  40  61  89 124 162 201 248 296 366
#     4   9  21  42  62  90 119 157 201 245 307 363
#     4  10  22  39  59  88 118 159 207 253 297 357
#     4  10  21  41  67  88 120 154 196 253 307 362
#     4  11  23  38  61  92 120 157 204 248 305 358
#
# _framework density 22.146087000000001
#
# number of rings (size 3 to 8) (size 9 to 14) (size 15 to 20)
#    0.000    1.750    1.250    1.875    1.750    8.500 
#    0.000    0.625    0.000    0.000    0.000    0.000 
#    0.000    0.000    0.000    0.000    0.000    0.000 
#
# Total GULP energy -198261.362997 kJ/mol
# GULP energy per Si atom -12391.335187 kJ/mol
# Density = 2.209568 g / cm^3
# Si number density = 22.146087 Si / 1000 Ang^3
#
#
#
# Elastic Constant Matrix: (Units=GPa)
#
#
# Indices 1 2 3 4 5 6 
#
# 1 101.8283 38.2054 23.8214 10.2001 18.3609 -10.0400
# 2 38.2054 115.9983 51.5088 20.4668 8.0597 -29.7533
# 3 23.8214 51.5088 81.1776 16.9120 2.1526 -18.0335
# 4 10.2001 20.4668 16.9120 33.6627 -17.5425 -5.8113
# 5 18.3609 8.0597 2.1526 -17.5425 42.9616 1.3930
# 6 -10.0400 -29.7533 -18.0335 -5.8113 1.3930 38.0491
#
#
#
# Elastic Compliance Matrix: (Units=1/GPa)
#
#
# Indices 1 2 3 4 5 6 
#
# 1 0.012826 -0.002094 -0.000829 -0.005990 -0.007516 0.000714
# 2 -0.002094 0.015526 -0.005895 -0.007001 -0.004837 0.007903
# 3 -0.000829 -0.005895 0.018228 -0.005807 -0.001921 0.002994
# 4 -0.005990 -0.007001 -0.005807 0.051340 0.025222 -0.002889
# 5 -0.007516 -0.004837 -0.001921 0.025222 0.037928 -0.004213
# 6 0.000714 0.007903 0.002994 -0.002889 -0.004213 0.033782
#
#
# Mechanical properties :
#
#
# Convention : Reuss Voigt Hill
#
# Bulk Modulus (GPa) = 34.54884 58.45281 46.50082
# Shear Modulus (GPa) = 25.39166 35.29927 30.34546
#
# Velocity S-wave (km/s) = 3.38975 3.99673 3.70569
# Velocity P-wave (km/s) = 5.56371 6.91014 6.27315
#
# Compressibility (1/GPa) = 0.02894454
#
# Stress axis : x y z
#
# Youngs Moduli (GPa) = 77.96805 64.40650 54.85938
#
# Poissons Ratio (x) = 0.13485 0.04549
# Poissons Ratio (y) = 0.16324 0.32340
# Poissons Ratio (z) = 0.06465 0.37969
#
# Static dielectric constant tensor:
#      x y z
#    x 4.118770 -0.163710 0.069460 
#    y -0.163710 4.078510 0.146080 
#    z 0.069460 0.146080 4.061390 
# 
# 
# High freq. dielectric constant tensor:
#      x y z
#    x 1.878030 -0.021340 0.001360 
#    y -0.021340 1.867440 0.012410 
#    z 0.001360 0.012410 1.867220 
# 
# From -- ./inp_files/475978.got.cif
#   From: 2010.06.25/outbox.cif.g09.slc.cpg/sg2_238_cif.got.tgz:475978.got - 2010.06.27 13:26:56.
