data_PCOD8014404
_publ_section_title
;
Structure prediction by ZEFSAII (Michael W. Deem and Ramdas Pophale) SiO2 
 PCOD8014404
Probable space group: P -1
;
_chemical_formula_sum "Si O2"
_cell_formula_units_Z 14
_cell_length_a 7.094347
_cell_length_b 31.264940
_cell_length_c 9.683275
_cell_angle_alpha 148.854456
_cell_angle_beta 51.906505
_cell_angle_gamma 139.387809
_cell_volume 719.671766
_symmetry_space_group_name_H-M "P -1"
_symmetry_group_IT_number 2
_symmetry_cell_setting 'triclinic'
loop_
_space_group_symop_operation_xyz
x,y,z
-x,-y,-z
loop_
_atom_site_type_symbol
_atom_site_label
_atom_site_fract_x
_atom_site_fract_y
_atom_site_fract_z
Si Si1 0.689429 0.793145 0.864798
Si Si2 0.337359 0.140717 0.657495
Si Si3 0.271619 0.018099 0.592065
Si Si4 0.083077 0.597081 0.551785
Si Si5 0.074564 0.728453 0.410153
Si Si6 0.780321 0.558670 0.860483
Si Si7 0.884278 0.567813 0.265599
O O1 0.403374 0.696381 0.662777
O O2 0.967558 0.797721 0.696841
O O3 0.669438 0.786384 0.023876
O O4 0.722773 0.895187 0.082617
O O5 0.350903 0.055627 0.499660
O O6 0.604555 0.202401 0.604842
O O7 0.045883 0.086145 0.545987
O O8 0.500000 0.000000 0.500000
O O9 0.092477 0.499752 0.291174
O O10 0.928759 0.607140 0.781177
O O11 0.892842 0.586807 0.477537
O O12 0.090333 0.672719 0.382780
O O13 0.852354 0.648722 0.176695
O O14 0.437117 0.482979 0.788844
O O15 0.000000 0.500000 0.000000
#
# Coordination Sequence:
#
# PCOD8014404 Si02
#       7
#     2   2   2   2   2   2   2
#     4  10  21  41  67  92 124 168 209 258 325 377
#     4   9  22  44  66  93 128 166 205 264 331 377
#     4   9  20  46  69  93 128 159 206 270 324 389
#     4  11  22  41  63  91 125 175 218 259 316 371
#     4  12  22  42  67  93 134 171 213 264 313 380
#     4  11  22  42  62  85 136 173 212 266 312 365
#     4  12  24  38  58  93 131 171 221 262 303 364
#
# _framework density 19.453310999999999
#
# number of rings (size 3 to 8) (size 9 to 14) (size 15 to 20)
#    0.857    0.571    4.286    1.714    0.000    1.714 
#   10.286    0.714    0.000    0.000    0.000    0.000 
#    0.000    0.000    0.000    0.000    0.000    0.000 
#
# Total GULP energy -173593.379945 kJ/mol
# GULP energy per Si atom -12399.527139 kJ/mol
# Density = 1.940903 g / cm^3
# Si number density = 19.453311 Si / 1000 Ang^3
#
#
#
# Elastic Constant Matrix: (Units=GPa)
#
#
# Indices 1 2 3 4 5 6 
#
# 1 119.1704 62.9127 42.4985 -1.5041 -3.2584 -1.7523
# 2 62.9127 119.8816 42.8561 -11.0984 8.5548 9.8798
# 3 42.4985 42.8561 108.2123 -7.7798 -13.8596 -1.3595
# 4 -1.5041 -11.0984 -7.7798 30.9145 5.2123 3.4287
# 5 -3.2584 8.5548 -13.8596 5.2123 27.9126 0.7041
# 6 -1.7523 9.8798 -1.3595 3.4287 0.7041 30.9314
#
#
#
# Elastic Compliance Matrix: (Units=1/GPa)
#
#
# Indices 1 2 3 4 5 6 
#
# 1 0.012785 -0.006686 -0.002182 -0.003167 0.002973 0.003047
# 2 -0.006686 0.014905 -0.003978 0.006069 -0.008311 -0.005798
# 3 -0.002182 -0.003978 0.012627 0.000271 0.007146 0.001509
# 4 -0.003167 0.006069 0.000271 0.036581 -0.008776 -0.005961
# 5 0.002973 -0.008311 0.007146 -0.008776 0.043829 0.003112
# 6 0.003047 -0.005798 0.001509 -0.005961 0.003112 0.035010
#
#
# Mechanical properties :
#
#
# Convention : Reuss Voigt Hill
#
# Bulk Modulus (GPa) = 68.37403 71.53319 69.95361
# Shear Modulus (GPa) = 26.83772 31.21819 29.02796
#
# Velocity S-wave (km/s) = 3.71832 4.01031 3.86707
# Velocity P-wave (km/s) = 7.32520 7.63512 7.48177
#
# Compressibility (1/GPa) = 0.01462544
#
# Stress axis : x y z
#
# Youngs Moduli (GPa) = 78.21501 67.09061 79.19429
#
# Poissons Ratio (x) = 0.44857 0.17280
# Poissons Ratio (y) = 0.52294 0.31505
# Poissons Ratio (z) = 0.17066 0.26690
#
# Static dielectric constant tensor:
#      x y z
#    x 3.466990 -0.041740 0.152770 
#    y -0.041740 3.518800 -0.020290 
#    z 0.152770 -0.020290 3.398800 
# 
# 
# High freq. dielectric constant tensor:
#      x y z
#    x 1.748290 0.006930 0.006920 
#    y 0.006930 1.754720 -0.001480 
#    z 0.006920 -0.001480 1.757150 
# 
# From -- ./inp_files/143011.got.cif
#   From: 2010.06.25/outbox.cif.g09.slc.cpg/sg2_72_cif.got.tgz:143011.got - 2010.06.27 13:26:56.
