data_PCOD8014431
_publ_section_title
;
Structure prediction by ZEFSAII (Michael W. Deem and Ramdas Pophale) SiO2 
 PCOD8014431
Probable space group: P -1
;
_chemical_formula_sum "Si O2"
_cell_formula_units_Z 12
_cell_length_a 9.285588
_cell_length_b 8.494699
_cell_length_c 8.563336
_cell_angle_alpha 125.399459
_cell_angle_beta 82.976438
_cell_angle_gamma 103.240418
_cell_volume 535.908811
_symmetry_space_group_name_H-M "P -1"
_symmetry_group_IT_number 2
_symmetry_cell_setting 'triclinic'
loop_
_space_group_symop_operation_xyz
x,y,z
-x,-y,-z
loop_
_atom_site_type_symbol
_atom_site_label
_atom_site_fract_x
_atom_site_fract_y
_atom_site_fract_z
Si Si1 0.703790 0.720199 0.691495
Si Si2 0.065166 0.954304 0.300942
Si Si3 0.797735 0.789751 0.064506
Si Si4 0.235912 0.627881 0.063132
Si Si5 0.384241 0.554884 0.707746
Si Si6 0.526222 0.796022 0.307396
O O1 0.529937 0.718692 0.741463
O O2 0.707971 0.515689 0.479725
O O3 0.781821 0.897883 0.673108
O O4 0.790641 0.742352 0.855134
O O5 0.108206 0.742492 0.187840
O O6 0.940555 0.958256 0.186106
O O7 0.000000 0.000000 0.500000
O O8 0.648618 0.848840 0.184573
O O9 0.831831 0.600554 0.040349
O O10 0.375957 0.679617 0.187139
O O11 0.286760 0.663056 0.895860
O O12 0.426009 0.355637 0.662049
O O13 0.500000 0.000000 0.500000
#
# Coordination Sequence:
#
# PCOD8014431 Si02
#       6
#     2   2   2   2   2   2
#     4  11  22  42  64  94 132 161 211 268 308 368
#     4  12  26  43  63  93 133 170 209 255 322 381
#     4  11  22  43  65  95 127 165 212 259 315 375
#     4  11  21  43  67  91 121 171 213 256 314 380
#     4  10  21  41  67  95 126 163 214 261 317 365
#     4  11  20  39  68  95 124 166 212 261 309 377
#
# _framework density 22.391869
#
# number of rings (size 3 to 8) (size 9 to 14) (size 15 to 20)
#    0.000    1.000    3.333    6.000    0.000    0.667 
#    6.000    3.333    0.000    0.000    0.000    0.000 
#    0.000    0.000    0.000    0.000    0.000    0.000 
#
# Total GULP energy -148753.418893 kJ/mol
# GULP energy per Si atom -12396.118241 kJ/mol
# Density = 2.234090 g / cm^3
# Si number density = 22.391869 Si / 1000 Ang^3
#
#
#
# Elastic Constant Matrix: (Units=GPa)
#
#
# Indices 1 2 3 4 5 6 
#
# 1 90.2830 24.4014 60.8913 -0.8466 0.7097 4.8612
# 2 24.4014 71.5868 33.2970 -9.3531 -12.2939 25.3059
# 3 60.8913 33.2970 171.6693 -22.5123 -3.6900 4.7433
# 4 -0.8466 -9.3531 -22.5123 34.6381 0.0276 1.7764
# 5 0.7097 -12.2939 -3.6900 0.0276 59.1169 5.1810
# 6 4.8612 25.3059 4.7433 1.7764 5.1810 23.5914
#
#
#
# Elastic Compliance Matrix: (Units=1/GPa)
#
#
# Indices 1 2 3 4 5 6 
#
# 1 0.015923 -0.005512 -0.005381 -0.004827 -0.002068 0.004532
# 2 -0.005512 0.032377 -0.001909 0.009209 0.009836 -0.036064
# 3 -0.005381 -0.001909 0.008732 0.004977 0.000123 0.000999
# 4 -0.004827 0.009209 0.004977 0.035152 0.003431 -0.013284
# 5 -0.002068 0.009836 0.000123 0.003431 0.020295 -0.014865
# 6 0.004532 -0.036064 0.000999 -0.013284 -0.014865 0.084203
#
#
# Mechanical properties :
#
#
# Convention : Reuss Voigt Hill
#
# Bulk Modulus (GPa) = 31.82084 63.41317 47.61700
# Shear Modulus (GPa) = 21.48118 37.79925 29.64022
#
# Velocity S-wave (km/s) = 3.10066 4.11308 3.64222
# Velocity P-wave (km/s) = 5.20198 7.13707 6.24493
#
# Compressibility (1/GPa) = 0.03142595
#
# Stress axis : x y z
#
# Youngs Moduli (GPa) = 62.80416 30.88619 114.52315
#
# Poissons Ratio (x) = 0.17025 0.61628
# Poissons Ratio (y) = 0.34619 0.21864
# Poissons Ratio (z) = 0.33797 0.05897
#
# Static dielectric constant tensor:
#      x y z
#    x 3.918690 0.369520 0.088910 
#    y 0.369520 3.920660 -0.074520 
#    z 0.088910 -0.074520 4.364750 
# 
# 
# High freq. dielectric constant tensor:
#      x y z
#    x 1.870520 0.031270 0.014740 
#    y 0.031270 1.862780 -0.006940 
#    z 0.014740 -0.006940 1.908210 
# 
# From -- ./inp_files/147406.got.cif
#   From: 2010.06.25/outbox.cif.g09.slc.cpg/sg2_74_cif.got.tgz:147406.got - 2010.06.27 13:26:56.
