data_PCOD8014261
_publ_section_title
;
Structure prediction by ZEFSAII (Michael W. Deem and Ramdas Pophale) SiO2 
 PCOD8014261
Probable space group: P -1
;
_chemical_formula_sum "Si O2"
_cell_formula_units_Z 16
_cell_length_a 12.778345
_cell_length_b 14.765726
_cell_length_c 8.152760
_cell_angle_alpha 96.952821
_cell_angle_beta 106.401284
_cell_angle_gamma 30.936055
_cell_volume 735.374784
_symmetry_space_group_name_H-M "P -1"
_symmetry_group_IT_number 2
_symmetry_cell_setting 'triclinic'
loop_
_space_group_symop_operation_xyz
x,y,z
-x,-y,-z
loop_
_atom_site_type_symbol
_atom_site_label
_atom_site_fract_x
_atom_site_fract_y
_atom_site_fract_z
Si Si1 0.176411 0.351832 0.682476
Si Si2 0.663405 0.019538 0.720860
Si Si3 0.152666 0.015909 0.494071
Si Si4 0.079358 0.612632 0.778163
Si Si5 0.904401 0.983940 0.048284
Si Si6 0.251747 0.591696 0.163711
Si Si7 0.733989 0.224784 0.293730
Si Si8 0.963541 0.323007 0.606338
O O1 0.150220 0.457037 0.816733
O O2 0.000000 0.500000 0.500000
O O3 0.116086 0.297904 0.721382
O O4 0.419683 0.165400 0.680720
O O5 0.667345 0.073493 0.566358
O O6 0.819401 0.817500 0.729202
O O7 0.755646 0.020088 0.897250
O O8 0.917097 0.169898 0.334785
O O9 0.108408 0.125269 0.636810
O O10 0.230923 0.858705 0.543143
O O11 0.136973 0.593573 0.605977
O O12 0.202835 0.583989 0.961353
O O13 0.113363 0.782687 0.172554
O O14 0.739880 0.141654 0.143382
O O15 0.000000 0.000000 0.000000
O O16 0.502103 0.441447 0.241246
O O17 0.212819 0.554415 0.297196
#
# Coordination Sequence:
#
# PCOD8014261 Si02
#       8
#     2   2   2   2   2   2   2   2
#     4  10  22  40  65  97 125 169 224 260 325 381
#     4  10  21  41  66  90 131 169 207 276 317 379
#     4  10  22  41  62  94 130 167 219 261 327 386
#     4   9  22  42  63  96 126 164 222 260 321 389
#     4  11  22  44  66  97 130 169 214 264 329 389
#     4  11  24  43  67  96 133 168 215 269 322 384
#     4  11  23  41  63  97 129 169 214 264 325 392
#     4  10  22  43  64  93 130 166 219 267 311 388
#
# _framework density 21.757615000000001
#
# number of rings (size 3 to 8) (size 9 to 14) (size 15 to 20)
#    0.000    1.750    2.500    0.750    3.500    6.000 
#    6.750    2.500    0.000    0.000    0.000    0.000 
#    0.000    0.000    0.000    0.000    0.000    0.000 
#
# Total GULP energy -198216.010194 kJ/mol
# GULP energy per Si atom -12388.500637 kJ/mol
# Density = 2.170809 g / cm^3
# Si number density = 21.757615 Si / 1000 Ang^3
#
#
#
# Elastic Constant Matrix: (Units=GPa)
#
#
# Indices 1 2 3 4 5 6 
#
# 1 92.0781 32.5170 21.8830 0.6109 4.4751 -5.2860
# 2 32.5170 103.6852 26.7531 -7.0319 -0.3047 -15.2885
# 3 21.8830 26.7531 65.4418 4.5654 -9.7916 -13.2210
# 4 0.6109 -7.0319 4.5654 32.7014 -4.8781 6.5517
# 5 4.4751 -0.3047 -9.7916 -4.8781 16.6259 1.2336
# 6 -5.2860 -15.2885 -13.2210 6.5517 1.2336 37.9427
#
#
#
# Elastic Compliance Matrix: (Units=1/GPa)
#
#
# Indices 1 2 3 4 5 6 
#
# 1 0.013275 -0.003290 -0.004052 -0.001243 -0.006350 -0.000467
# 2 -0.003290 0.012177 -0.003561 0.002553 -0.000446 0.002781
# 3 -0.004052 -0.003561 0.021245 -0.002930 0.012269 0.005510
# 4 -0.001243 0.002553 -0.002930 0.034204 0.009164 -0.006369
# 5 -0.006350 -0.000446 0.012269 0.009164 0.071815 -0.000707
# 6 -0.000467 0.002781 0.005510 -0.006369 -0.000707 0.030454
#
#
# Mechanical properties :
#
#
# Convention : Reuss Voigt Hill
#
# Bulk Modulus (GPa) = 40.17389 47.05681 43.61535
# Shear Modulus (GPa) = 23.44424 29.45747 26.45085
#
# Velocity S-wave (km/s) = 3.28612 3.68352 3.49048
# Velocity P-wave (km/s) = 5.73607 6.30601 6.02778
#
# Compressibility (1/GPa) = 0.02489179
#
# Stress axis : x y z
#
# Youngs Moduli (GPa) = 75.32915 82.12211 47.07046
#
# Poissons Ratio (x) = 0.27015 0.19072
# Poissons Ratio (y) = 0.24780 0.16762
# Poissons Ratio (z) = 0.30523 0.29244
#
# Static dielectric constant tensor:
#      x y z
#    x 4.131610 0.389210 0.113470 
#    y 0.389210 4.137530 0.197030 
#    z 0.113470 0.197030 2.969980 
# 
# 
# High freq. dielectric constant tensor:
#      x y z
#    x 1.852230 0.011470 0.004530 
#    y 0.011470 1.858850 0.014820 
#    z 0.004530 0.014820 1.840470 
# 
# From -- ./inp_files/273448.got.cif
#   From: 2010.06.25/outbox.cif.g09.slc.cpg/sg2_137_cif.got.tgz:273448.got - 2010.06.27 13:26:56.
