data_PCOD8014381
_publ_section_title
;
Structure prediction by ZEFSAII (Michael W. Deem and Ramdas Pophale) SiO2 
 PCOD8014381
Probable space group: P -1
;
_chemical_formula_sum "Si O2"
_cell_formula_units_Z 16
_cell_length_a 15.152072
_cell_length_b 8.041095
_cell_length_c 8.937842
_cell_angle_alpha 110.086751
_cell_angle_beta 49.268861
_cell_angle_gamma 112.807134
_cell_volume 754.275641
_symmetry_space_group_name_H-M "P -1"
_symmetry_group_IT_number 2
_symmetry_cell_setting 'triclinic'
loop_
_space_group_symop_operation_xyz
x,y,z
-x,-y,-z
loop_
_atom_site_type_symbol
_atom_site_label
_atom_site_fract_x
_atom_site_fract_y
_atom_site_fract_z
Si Si1 0.251164 0.713841 0.884345
Si Si2 0.161916 0.156056 0.919013
Si Si3 0.389707 0.613427 0.454197
Si Si4 0.976950 0.229084 0.950640
Si Si5 0.562634 0.255903 0.883653
Si Si6 0.791424 0.776113 0.438734
Si Si7 0.681345 0.989242 0.857226
Si Si8 0.638238 0.553724 0.127660
O O1 0.345685 0.756039 0.656509
O O2 0.289478 0.552181 0.878120
O O3 0.114823 0.641445 0.945343
O O4 0.255363 0.888572 0.037616
O O5 0.226256 0.139208 0.680637
O O6 0.260736 0.263481 0.959849
O O7 0.052404 0.257847 0.033042
O O8 0.112269 0.968856 0.999562
O O9 0.389159 0.705841 0.323330
O O10 0.299408 0.417355 0.500599
O O11 0.522159 0.595312 0.350495
O O12 0.070220 0.242691 0.713209
O O13 0.624835 0.111889 0.846281
O O14 0.419968 0.177235 0.017599
O O15 0.592142 0.448776 0.995041
O O16 0.775507 0.910611 0.631684
#
# Coordination Sequence:
#
# PCOD8014381 Si02
#       8
#     2   2   2   2   2   2   2   2
#     4  11  24  39  63  95 126 165 209 259 306 368
#     4   9  21  39  66  90 124 165 207 260 300 373
#     4  12  24  38  66  97 124 167 205 256 319 374
#     4   9  22  42  61  94 123 169 212 255 302 367
#     4  10  24  40  61  93 136 157 206 253 319 378
#     4  10  21  41  67  86 128 169 204 255 311 366
#     4  10  23  42  61  92 132 168 196 262 311 369
#     4  11  22  41  62  94 128 162 206 257 320 371
#
# _framework density 21.212406000000001
#
# number of rings (size 3 to 8) (size 9 to 14) (size 15 to 20)
#    0.750    1.000    2.500    0.750    3.500    3.000 
#    0.000    0.000    0.000    3.750    0.000    0.000 
#    0.000    0.000    0.000    0.000    0.000    0.000 
#
# Total GULP energy -198233.450368 kJ/mol
# GULP energy per Si atom -12389.590648 kJ/mol
# Density = 2.116413 g / cm^3
# Si number density = 21.212406 Si / 1000 Ang^3
#
#
#
# Elastic Constant Matrix: (Units=GPa)
#
#
# Indices 1 2 3 4 5 6 
#
# 1 90.9433 14.8167 39.1281 1.4588 -21.3866 11.2040
# 2 14.8167 53.2374 35.1096 -13.5814 -11.0983 22.7613
# 3 39.1281 35.1096 85.2368 2.9012 -15.7410 11.5854
# 4 1.4588 -13.5814 2.9012 38.1803 1.3195 -1.4353
# 5 -21.3866 -11.0983 -15.7410 1.3195 35.5119 -3.5370
# 6 11.2040 22.7613 11.5854 -1.4353 -3.5370 28.7199
#
#
#
# Elastic Compliance Matrix: (Units=1/GPa)
#
#
# Indices 1 2 3 4 5 6 
#
# 1 0.015645 0.004554 -0.006968 0.001081 0.007122 -0.005971
# 2 0.004554 0.047369 -0.016777 0.016566 0.006413 -0.030932
# 3 -0.006968 -0.016777 0.021284 -0.007082 0.000975 0.007195
# 4 0.001081 0.016566 -0.007082 0.032222 0.000594 -0.009010
# 5 0.007122 0.006413 0.000975 0.000594 0.034467 -0.003980
# 6 -0.005971 -0.030932 0.007195 -0.009010 -0.003980 0.057820
#
#
# Mechanical properties :
#
#
# Convention : Reuss Voigt Hill
#
# Bulk Modulus (GPa) = 21.77882 45.28071 33.52976
# Shear Modulus (GPa) = 19.04809 29.83996 24.44402
#
# Velocity S-wave (km/s) = 2.99986 3.75470 3.39830
# Velocity P-wave (km/s) = 4.72104 6.33953 5.58918
#
# Compressibility (1/GPa) = 0.04591617
#
# Stress axis : x y z
#
# Youngs Moduli (GPa) = 63.91930 21.11096 46.98275
#
# Poissons Ratio (x) = -0.09614 0.32736
# Poissons Ratio (y) = -0.29110 0.78824
# Poissons Ratio (z) = 0.44537 0.35419
#
# Static dielectric constant tensor:
#      x y z
#    x 3.881390 0.095710 -0.132360 
#    y 0.095710 3.780100 -0.051690 
#    z -0.132360 -0.051690 3.900840 
# 
# 
# High freq. dielectric constant tensor:
#      x y z
#    x 1.837130 -0.000480 -0.008210 
#    y -0.000480 1.833520 -0.011180 
#    z -0.008210 -0.011180 1.816750 
# 
# From -- ./inp_files/295999.got.cif
#   From: 2010.06.25/outbox.cif.g09.slc.cpg/sg2_148_cif.got.tgz:295999.got - 2010.06.27 13:26:56.
