data_PCOD8014546
_publ_section_title
;
Structure prediction by ZEFSAII (Michael W. Deem and Ramdas Pophale) SiO2 
 PCOD8014546
Probable space group: P -1
;
_chemical_formula_sum "Si O2"
_cell_formula_units_Z 16
_cell_length_a 8.673143
_cell_length_b 15.893870
_cell_length_c 9.646021
_cell_angle_alpha 144.189656
_cell_angle_beta 77.075500
_cell_angle_gamma 110.957153
_cell_volume 721.164280
_symmetry_space_group_name_H-M "P -1"
_symmetry_group_IT_number 2
_symmetry_cell_setting 'triclinic'
loop_
_space_group_symop_operation_xyz
x,y,z
-x,-y,-z
loop_
_atom_site_type_symbol
_atom_site_label
_atom_site_fract_x
_atom_site_fract_y
_atom_site_fract_z
Si Si1 0.542630 0.452942 0.081166
Si Si2 0.972092 0.843302 0.149250
Si Si3 0.249922 0.984746 0.464017
Si Si4 0.798317 0.653734 0.494609
Si Si5 0.759425 0.546790 0.662311
Si Si6 0.586728 0.170314 0.570943
Si Si7 0.819404 0.267044 0.405932
Si Si8 0.144722 0.018677 0.102083
O O1 0.718894 0.558397 0.247059
O O2 0.401791 0.457649 0.224147
O O3 0.500000 0.500000 0.000000
O O4 0.560760 0.286644 0.846445
O O5 0.111582 0.841395 0.232204
O O6 0.818508 0.875786 0.299932
O O7 0.915581 0.689102 0.868065
O O8 0.063205 0.986794 0.227029
O O9 0.303296 0.926527 0.518409
O O10 0.404507 0.052363 0.417377
O O11 0.723830 0.564537 0.531242
O O12 0.742148 0.806531 0.699241
O O13 0.998920 0.692447 0.504673
O O14 0.814325 0.397662 0.474043
O O15 0.677065 0.258642 0.536439
O O16 0.764446 0.105856 0.121483
O O17 0.000000 0.000000 0.000000
#
# Coordination Sequence:
#
# PCOD8014546 Si02
#       8
#     2   2   2   2   2   2   2   2
#     4  12  27  46  66  95 140 180 224 280 339 397
#     4  11  22  41  70  98 132 176 224 276 340 395
#     4  10  24  40  68  99 134 176 227 275 332 406
#     4  11  26  44  73  98 132 182 228 273 343 402
#     4  12  24  44  70 102 137 174 226 283 338 401
#     4  11  24  44  63  98 139 180 223 276 336 398
#     4  11  24  42  72  99 136 172 226 280 334 406
#     4  10  21  41  68  95 129 168 219 276 327 398
#
# _framework density 22.186344999999999
#
# number of rings (size 3 to 8) (size 9 to 14) (size 15 to 20)
#    0.000    1.000    5.000    2.250    3.500    1.500 
#    0.000    2.500    0.000    0.000    0.000    0.000 
#    0.000    0.000    0.000    0.000    0.000    0.000 
#
# Total GULP energy -198383.671670 kJ/mol
# GULP energy per Si atom -12398.979479 kJ/mol
# Density = 2.213585 g / cm^3
# Si number density = 22.186345 Si / 1000 Ang^3
#
#
#
# Elastic Constant Matrix: (Units=GPa)
#
#
# Indices 1 2 3 4 5 6 
#
# 1 101.0517 41.2427 40.4270 1.9809 0.2301 0.1425
# 2 41.2427 127.1066 28.2499 2.4148 -3.6633 -3.8131
# 3 40.4270 28.2499 94.0143 12.8752 1.4765 -8.9413
# 4 1.9809 2.4148 12.8752 41.4847 -3.6208 -8.8897
# 5 0.2301 -3.6633 1.4765 -3.6208 32.2439 -0.1255
# 6 0.1425 -3.8131 -8.9413 -8.8897 -0.1255 21.6019
#
#
#
# Elastic Compliance Matrix: (Units=1/GPa)
#
#
# Indices 1 2 3 4 5 6 
#
# 1 0.013231 -0.003269 -0.005020 0.000562 -0.000183 -0.002512
# 2 -0.003269 0.009291 -0.001339 0.000410 0.001191 0.001283
# 3 -0.005020 -0.001339 0.014064 -0.003226 -0.001106 0.004284
# 4 0.000562 0.000410 -0.003226 0.027503 0.003318 0.010071
# 5 -0.000183 0.001191 -0.001106 0.003318 0.031579 0.001303
# 6 -0.002512 0.001283 0.004284 0.010071 0.001303 0.052461
#
#
# Mechanical properties :
#
#
# Convention : Reuss Voigt Hill
#
# Bulk Modulus (GPa) = 57.70255 60.22354 58.96304
# Shear Modulus (GPa) = 28.87464 33.21629 31.04547
#
# Velocity S-wave (km/s) = 3.61149 3.87350 3.74479
# Velocity P-wave (km/s) = 6.59205 6.87086 6.73290
#
# Compressibility (1/GPa) = 0.01733026
#
# Stress axis : x y z
#
# Youngs Moduli (GPa) = 75.57745 107.63514 71.10116
#
# Poissons Ratio (x) = 0.35183 0.35696
# Poissons Ratio (y) = 0.24704 0.09520
# Poissons Ratio (z) = 0.37944 0.14412
#
# Static dielectric constant tensor:
#      x y z
#    x 3.931460 0.037720 -0.049580 
#    y 0.037720 4.027410 0.345140 
#    z -0.049580 0.345140 4.367780 
# 
# 
# High freq. dielectric constant tensor:
#      x y z
#    x 1.871100 -0.000400 -0.004140 
#    y -0.000400 1.878830 0.005220 
#    z -0.004140 0.005220 1.870280 
# 
# From -- ./inp_files/209305.got.cif
#   From: 2010.06.25/outbox.cif.g09.slc.cpg/sg2_105_cif.got.tgz:209305.got - 2010.06.27 13:26:56.
