data_PCOD8014006
_publ_section_title
;
Structure prediction by ZEFSAII (Michael W. Deem and Ramdas Pophale) SiO2 
 PCOD8014006
Probable space group: P -1
;
_chemical_formula_sum "Si O2"
_cell_formula_units_Z 16
_cell_length_a 18.525944
_cell_length_b 8.680234
_cell_length_c 5.749924
_cell_angle_alpha 52.765541
_cell_angle_beta 93.799288
_cell_angle_gamma 92.209690
_cell_volume 734.549860
_symmetry_space_group_name_H-M "P -1"
_symmetry_group_IT_number 2
_symmetry_cell_setting 'triclinic'
loop_
_space_group_symop_operation_xyz
x,y,z
-x,-y,-z
loop_
_atom_site_type_symbol
_atom_site_label
_atom_site_fract_x
_atom_site_fract_y
_atom_site_fract_z
Si Si1 0.438206 0.485830 0.685672
Si Si2 0.015866 0.892958 0.353101
Si Si3 0.222305 0.405674 0.030250
Si Si4 0.160816 0.720919 0.407022
Si Si5 0.662206 0.677182 0.517630
Si Si6 0.112180 0.372631 0.422530
Si Si7 0.775329 0.892763 0.071845
Si Si8 0.476321 0.215193 0.327216
O O1 0.500000 0.500000 0.500000
O O2 0.359537 0.474277 0.555448
O O3 0.450351 0.667559 0.694034
O O4 0.447141 0.286910 0.009270
O O5 0.100266 0.836063 0.435768
O O6 0.970978 0.692563 0.539680
O O7 0.000000 0.000000 0.500000
O O8 0.000000 0.000000 0.000000
O O9 0.289341 0.447859 0.179212
O O10 0.145956 0.374200 0.171328
O O11 0.213706 0.590018 0.693557
O O12 0.243403 0.206093 0.088292
O O13 0.120195 0.588126 0.330374
O O14 0.212356 0.878018 0.150815
O O15 0.709838 0.855345 0.270468
O O16 0.588360 0.765798 0.519095
O O17 0.151940 0.212122 0.732650
O O18 0.500000 0.000000 0.500000
#
# Coordination Sequence:
#
# PCOD8014006 Si02
#       8
#     2   2   2   2   2   2   2   2
#     4   9  20  40  64  91 128 163 204 268 322 393
#     4  12  26  44  74 102 140 186 234 295 365 413
#     4  10  23  41  65  92 130 179 225 281 333 412
#     4  11  24  42  69  96 134 177 234 281 346 406
#     4  10  21  41  64  90 135 172 215 268 339 396
#     4  10  23  42  66  96 132 172 230 285 349 408
#     4  10  21  43  62  90 132 175 221 279 336 404
#     4  10  21  41  67  96 127 166 214 267 333 397
#
# _framework density 21.782046999999999
#
# number of rings (size 3 to 8) (size 9 to 14) (size 15 to 20)
#    0.000    1.750    1.250    1.875    3.500    4.500 
#    0.000   30.000    0.000    0.000    0.000    0.000 
#    0.000    0.000    0.000    0.000    0.000    0.000 
#
# Total GULP energy -198314.593062 kJ/mol
# GULP energy per Si atom -12394.662066 kJ/mol
# Density = 2.173247 g / cm^3
# Si number density = 21.782047 Si / 1000 Ang^3
#
#
#
# Elastic Constant Matrix: (Units=GPa)
#
#
# Indices 1 2 3 4 5 6 
#
# 1 104.3170 36.7314 38.2842 -9.5053 -9.7261 14.6587
# 2 36.7314 106.0844 69.0759 -8.8086 1.5389 8.0073
# 3 38.2842 69.0759 109.1617 -8.0962 -7.3896 12.1671
# 4 -9.5053 -8.8086 -8.0962 40.0567 2.9822 -3.1579
# 5 -9.7261 1.5389 -7.3896 2.9822 28.2142 4.8877
# 6 14.6587 8.0073 12.1671 -3.1579 4.8877 37.1460
#
#
#
# Elastic Compliance Matrix: (Units=1/GPa)
#
#
# Indices 1 2 3 4 5 6 
#
# 1 0.012324 -0.002828 -0.001660 0.001297 0.004558 -0.004200
# 2 -0.002828 0.017184 -0.010285 0.001528 -0.005040 0.001574
# 3 -0.001660 -0.010285 0.016971 0.000140 0.004996 -0.003332
# 4 0.001297 0.001528 0.000140 0.025964 -0.002633 0.001667
# 5 0.004558 -0.005040 0.004996 -0.002633 0.040239 -0.007867
# 6 -0.004200 0.001574 -0.003332 0.001667 -0.007867 0.030507
#
#
# Mechanical properties :
#
#
# Convention : Reuss Voigt Hill
#
# Bulk Modulus (GPa) = 59.05486 67.52734 63.29110
# Shear Modulus (GPa) = 28.02990 32.78149 30.40570
#
# Velocity S-wave (km/s) = 3.59114 3.88361 3.74024
# Velocity P-wave (km/s) = 6.66075 7.15392 6.91174
#
# Compressibility (1/GPa) = 0.01693341
#
# Stress axis : x y z
#
# Youngs Moduli (GPa) = 81.13954 58.19381 58.92319
#
# Poissons Ratio (x) = 0.16456 0.09781
# Poissons Ratio (y) = 0.22945 0.60604
# Poissons Ratio (z) = 0.13469 0.59854
#
# Static dielectric constant tensor:
#      x y z
#    x 4.052740 0.372220 -0.088420 
#    y 0.372220 4.189670 0.319430 
#    z -0.088420 0.319430 4.030800 
# 
# 
# High freq. dielectric constant tensor:
#      x y z
#    x 1.857350 0.014590 -0.014800 
#    y 0.014590 1.848860 0.015860 
#    z -0.014800 0.015860 1.860080 
# 
# From -- ./inp_files/10750.got.cif
#   From: 2010.06.25/outbox.cif.g09.slc.cpg/sg2_6_cif.got.tgz:10750.got - 2010.06.27 13:26:56.
