data_PCOD8014154
_publ_section_title
;
Structure prediction by ZEFSAII (Michael W. Deem and Ramdas Pophale) SiO2 
 PCOD8014154
Probable space group: P -1
;
_chemical_formula_sum "Si O2"
_cell_formula_units_Z 16
_cell_length_a 11.142121
_cell_length_b 6.546258
_cell_length_c 22.124638
_cell_angle_alpha 124.203402
_cell_angle_beta 35.413898
_cell_angle_gamma 115.284337
_cell_volume 771.779859
_symmetry_space_group_name_H-M "P -1"
_symmetry_group_IT_number 2
_symmetry_cell_setting 'triclinic'
loop_
_space_group_symop_operation_xyz
x,y,z
-x,-y,-z
loop_
_atom_site_type_symbol
_atom_site_label
_atom_site_fract_x
_atom_site_fract_y
_atom_site_fract_z
Si Si1 0.480063 0.206578 0.456692
Si Si2 0.775600 0.056697 0.072143
Si Si3 0.389532 0.252966 0.016453
Si Si4 0.472606 0.025046 0.297101
Si Si5 0.805974 0.076098 0.396084
Si Si6 0.788022 0.540536 0.559028
Si Si7 0.753267 0.856461 0.818659
Si Si8 0.487672 0.472644 0.222226
O O1 0.500000 0.500000 0.500000
O O2 0.535006 0.109991 0.351538
O O3 0.652466 0.053813 0.399629
O O4 0.255848 0.120571 0.559041
O O5 0.627906 0.113546 0.198458
O O6 0.714718 0.314494 0.102190
O O7 0.727833 0.829814 0.009925
O O8 0.000000 0.000000 0.000000
O O9 0.576741 0.070245 0.929457
O O10 0.500000 0.500000 0.000000
O O11 0.229316 0.270384 0.142429
O O12 0.248570 0.170103 0.398347
O O13 0.494071 0.732581 0.229357
O O14 0.786593 0.361640 0.472566
O O15 0.038081 0.018447 0.266704
O O16 0.596452 0.465440 0.666069
O O17 0.000000 0.500000 0.500000
O O18 0.691794 0.664040 0.761129
#
# Coordination Sequence:
#
# PCOD8014154 Si02
#       8
#     2   2   2   2   2   2   2   2
#     4  11  24  42  61  90 131 170 211 260 318 389
#     4  10  24  42  64  94 126 166 222 272 324 389
#     4  10  22  44  64  92 130 164 218 274 324 379
#     4  11  23  41  66  89 128 173 207 265 328 379
#     4  11  23  40  62  92 126 167 213 264 315 388
#     4  11  21  39  60  93 128 158 207 260 312 386
#     4  10  22  41  66  91 125 167 212 269 323 379
#     4  10  21  41  65  92 129 163 210 268 322 383
#
# _framework density 20.731300999999998
#
# number of rings (size 3 to 8) (size 9 to 14) (size 15 to 20)
#    0.000    1.500    3.750    0.750    1.750    2.000 
#    4.500    0.000    0.000    0.000    0.000    0.000 
#    0.000    0.000    0.000    0.000    0.000    0.000 
#
# Total GULP energy -198217.606479 kJ/mol
# GULP energy per Si atom -12388.600405 kJ/mol
# Density = 2.068412 g / cm^3
# Si number density = 20.731301 Si / 1000 Ang^3
#
#
#
# Elastic Constant Matrix: (Units=GPa)
#
#
# Indices 1 2 3 4 5 6 
#
# 1 126.8755 30.5489 44.4253 1.6151 -2.3573 -0.9318
# 2 30.5489 122.7296 23.9652 5.0638 -10.1363 -3.5545
# 3 44.4253 23.9652 82.2259 -8.1015 -0.2424 4.6419
# 4 1.6151 5.0638 -8.1015 28.0099 -6.1231 -1.2697
# 5 -2.3573 -10.1363 -0.2424 -6.1231 42.8752 0.3906
# 6 -0.9318 -3.5545 4.6419 -1.2697 0.3906 23.2104
#
#
#
# Elastic Compliance Matrix: (Units=1/GPa)
#
#
# Indices 1 2 3 4 5 6 
#
# 1 0.010100 -0.001376 -0.005302 -0.001830 -0.000072 0.001156
# 2 -0.001376 0.009190 -0.002196 -0.001744 0.001820 0.001665
# 3 -0.005302 -0.002196 0.016388 0.005298 0.000071 -0.003538
# 4 -0.001830 -0.001744 0.005298 0.038788 0.005051 0.000637
# 5 -0.000072 0.001820 0.000071 0.005051 0.024470 0.000126
# 6 0.001156 0.001665 -0.003538 0.000637 0.000126 0.044126
#
#
# Mechanical properties :
#
#
# Convention : Reuss Voigt Hill
#
# Bulk Modulus (GPa) = 55.76762 58.85664 57.31213
# Shear Modulus (GPa) = 29.97890 34.34523 32.16207
#
# Velocity S-wave (km/s) = 3.80685 4.07465 3.94303
# Velocity P-wave (km/s) = 6.80304 7.11259 6.95954
#
# Compressibility (1/GPa) = 0.01793155
#
# Stress axis : x y z
#
# Youngs Moduli (GPa) = 99.01202 108.81810 61.02097
#
# Poissons Ratio (x) = 0.14970 0.32351
# Poissons Ratio (y) = 0.13621 0.13398
# Poissons Ratio (z) = 0.52492 0.23892
#
# Static dielectric constant tensor:
#      x y z
#    x 4.192090 -0.538180 0.066850 
#    y -0.538180 4.966310 -0.251760 
#    z 0.066850 -0.251760 4.776950 
# 
# 
# High freq. dielectric constant tensor:
#      x y z
#    x 1.819500 -0.010430 0.017380 
#    y -0.010430 1.806600 0.008890 
#    z 0.017380 0.008890 1.806910 
# 
# From -- ./inp_files/525993.got.cif
#   From: 2010.06.25/outbox.cif.g09.slc.cpg/sg2_263_cif.got.tgz:525993.got - 2010.06.27 13:26:56.
