data_PCOD8014446
_publ_section_title
;
Structure prediction by ZEFSAII (Michael W. Deem and Ramdas Pophale) SiO2 
 PCOD8014446
Probable space group: P -1
;
_chemical_formula_sum "Si O2"
_cell_formula_units_Z 16
_cell_length_a 4.936157
_cell_length_b 17.460229
_cell_length_c 19.513669
_cell_angle_alpha 154.644899
_cell_angle_beta 95.297288
_cell_angle_gamma 90.320983
_cell_volume 701.315579
_symmetry_space_group_name_H-M "P -1"
_symmetry_group_IT_number 2
_symmetry_cell_setting 'triclinic'
loop_
_space_group_symop_operation_xyz
x,y,z
-x,-y,-z
loop_
_atom_site_type_symbol
_atom_site_label
_atom_site_fract_x
_atom_site_fract_y
_atom_site_fract_z
Si Si1 0.465517 0.374702 0.612492
Si Si2 0.452989 0.600311 0.210935
Si Si3 0.755169 0.827379 0.855957
Si Si4 0.581399 0.063463 0.941355
Si Si5 0.019478 0.588121 0.742631
Si Si6 0.470392 0.974645 0.245072
Si Si7 0.995208 0.795243 0.312477
Si Si8 0.924597 0.786381 0.147189
O O1 0.401391 0.387622 0.701689
O O2 0.788624 0.465097 0.684705
O O3 0.264648 0.478370 0.647815
O O4 0.403458 0.167506 0.419111
O O5 0.704457 0.657191 0.209501
O O6 0.248578 0.740707 0.314967
O O7 0.281743 0.399095 0.029046
O O8 0.874375 0.639038 0.708611
O O9 0.590913 0.861611 0.810303
O O10 0.580329 0.830416 0.923900
O O11 0.000000 0.000000 0.000000
O O12 0.445353 0.028555 0.835546
O O13 0.873309 0.211138 0.057653
O O14 0.740883 0.942252 0.265844
O O15 0.191662 0.824305 0.134060
O O16 0.046894 0.779997 0.220651
O O17 0.000000 0.000000 0.500000
#
# Coordination Sequence:
#
# PCOD8014446 Si02
#       8
#     2   2   2   2   2   2   2   2
#     4  12  24  41  62  95 133 167 213 263 327 379
#     4  12  24  42  67  95 125 174 217 264 311 379
#     4   9  20  38  70  93 126 160 222 258 313 377
#     4  10  21  41  67  96 123 169 214 264 313 380
#     4  11  21  41  64  92 125 170 210 264 311 384
#     4  12  26  42  64  96 132 168 210 269 324 375
#     4  12  24  43  67  94 132 170 210 265 326 375
#     4  12  25  44  65  96 127 170 221 266 310 381
#
# _framework density 22.814264999999999
#
# number of rings (size 3 to 8) (size 9 to 14) (size 15 to 20)
#    0.000    0.750    1.250    7.125    3.500    0.000 
#    0.000    1.250    0.000    0.000    0.000    0.000 
#    0.000    0.000    0.000    0.000    0.000    0.000 
#
# Total GULP energy -198340.496559 kJ/mol
# GULP energy per Si atom -12396.281035 kJ/mol
# Density = 2.276234 g / cm^3
# Si number density = 22.814265 Si / 1000 Ang^3
#
#
#
# Elastic Constant Matrix: (Units=GPa)
#
#
# Indices 1 2 3 4 5 6 
#
# 1 102.2738 31.1211 -6.6605 9.8053 2.8903 -4.4386
# 2 31.1211 90.2296 38.2370 12.6634 6.4852 10.8524
# 3 -6.6605 38.2370 58.1297 2.8079 -1.2887 1.1956
# 4 9.8053 12.6634 2.8079 24.1122 -6.7632 -12.1675
# 5 2.8903 6.4852 -1.2887 -6.7632 28.9942 11.7212
# 6 -4.4386 10.8524 1.1956 -12.1675 11.7212 40.1991
#
#
#
# Elastic Compliance Matrix: (Units=1/GPa)
#
#
# Indices 1 2 3 4 5 6 
#
# 1 0.012575 -0.007137 0.006086 -0.000712 -0.000831 0.003161
# 2 -0.007137 0.023528 -0.015538 -0.013725 -0.004607 -0.009488
# 3 0.006086 -0.015538 0.027819 0.005849 0.003538 0.004778
# 4 -0.000712 -0.013725 0.005849 0.060608 0.009892 0.018913
# 5 -0.000831 -0.004607 0.003538 0.009892 0.041302 -0.008002
# 6 0.003161 -0.009488 0.004778 0.018913 -0.008002 0.035702
#
#
# Mechanical properties :
#
#
# Convention : Reuss Voigt Hill
#
# Bulk Modulus (GPa) = 32.52682 41.78092 37.15387
# Shear Modulus (GPa) = 20.41160 31.19014 25.80087
#
# Velocity S-wave (km/s) = 2.99438 3.70149 3.36655
# Velocity P-wave (km/s) = 5.12281 6.05155 5.60645
#
# Compressibility (1/GPa) = 0.03074386
#
# Stress axis : x y z
#
# Youngs Moduli (GPa) = 79.52511 42.50323 35.94722
#
# Poissons Ratio (x) = 0.30334 -0.21879
# Poissons Ratio (y) = 0.56756 0.55855
# Poissons Ratio (z) = -0.48402 0.66041
#
# Static dielectric constant tensor:
#      x y z
#    x 4.019510 -0.558890 -0.093430 
#    y -0.558890 5.042610 0.191710 
#    z -0.093430 0.191710 3.787270 
# 
# 
# High freq. dielectric constant tensor:
#      x y z
#    x 1.916910 -0.007630 0.005040 
#    y -0.007630 1.914630 0.031490 
#    z 0.005040 0.031490 1.871330 
# 
# From -- ./inp_files/547980.got.cif
#   From: 2010.06.25/outbox.cif.g09.slc.cpg/sg2_274_cif.got.tgz:547980.got - 2010.06.27 13:26:56.
