data_PCOD8014686
_publ_section_title
;
Structure prediction by ZEFSAII (Michael W. Deem and Ramdas Pophale) SiO2 
 PCOD8014686
Probable space group: P -1
;
_chemical_formula_sum "Si O2"
_cell_formula_units_Z 16
_cell_length_a 11.712300
_cell_length_b 7.307444
_cell_length_c 16.633348
_cell_angle_alpha 127.181241
_cell_angle_beta 129.034642
_cell_angle_gamma 95.313693
_cell_volume 567.779076
_symmetry_space_group_name_H-M "P -1"
_symmetry_group_IT_number 2
_symmetry_cell_setting 'triclinic'
loop_
_space_group_symop_operation_xyz
x,y,z
-x,-y,-z
loop_
_atom_site_type_symbol
_atom_site_label
_atom_site_fract_x
_atom_site_fract_y
_atom_site_fract_z
Si Si1 0.031806 0.777243 0.251131
Si Si2 0.381873 0.988810 0.149887
Si Si3 0.139522 0.271156 0.561184
Si Si4 0.341154 0.097438 0.335455
Si Si5 0.456329 0.377935 0.069307
Si Si6 0.839050 0.836621 0.984337
Si Si7 0.746992 0.098462 0.295230
Si Si8 0.744268 0.421536 0.692328
O O1 0.154113 0.699401 0.320673
O O2 0.114261 0.091409 0.421741
O O3 0.100955 0.882814 0.214241
O O4 0.763369 0.408688 0.048894
O O5 0.646865 0.233228 0.313055
O O6 0.320151 0.929069 0.200680
O O7 0.308611 0.140368 0.119384
O O8 0.401491 0.600905 0.795211
O O9 0.000000 0.000000 0.500000
O O10 0.024744 0.387152 0.518381
O O11 0.500000 0.500000 0.500000
O O12 0.476479 0.108395 0.466475
O O13 0.253803 0.282610 0.997199
O O14 0.629205 0.759891 0.206053
O O15 0.324328 0.042851 0.864960
O O16 0.786775 0.534035 0.835345
O O17 0.110229 0.212896 0.197773
#
# Coordination Sequence:
#
# PCOD8014686 Si02
#       8
#     2   2   2   2   2   2   2   2
#     4  11  24  42  69  95 129 177 222 263 337 400
#     4  11  24  43  64  97 136 172 220 273 329 398
#     4  10  22  41  67  99 130 169 223 281 320 388
#     4  12  25  41  65  99 137 166 216 282 328 389
#     4  10  21  41  70  93 132 177 217 283 329 384
#     4  10  22  43  64  92 138 171 213 278 339 383
#     4  10  23  42  65 101 127 176 233 264 328 405
#     4  10  23  41  63  97 127 174 222 263 333 404
#
# _framework density 28.179976
#
# number of rings (size 3 to 8) (size 9 to 14) (size 15 to 20)
#    0.000    1.500    1.250    3.750    5.250    2.500 
#    0.000    0.625    0.000    0.000    0.000    0.000 
#    0.000    0.000    0.000    0.000    0.000    0.000 
#
# Total GULP energy -198443.781156 kJ/mol
# GULP energy per Si atom -12402.736322 kJ/mol
# Density = 2.811584 g / cm^3
# Si number density = 28.179976 Si / 1000 Ang^3
#
#
#
# Elastic Constant Matrix: (Units=GPa)
#
#
# Indices 1 2 3 4 5 6 
#
# 1 178.7941 21.3046 63.4561 -7.6367 7.5654 12.3717
# 2 21.3046 50.7725 8.0694 3.2172 -9.5607 -4.1907
# 3 63.4561 8.0694 135.5105 3.8241 13.2349 0.8355
# 4 -7.6367 3.2172 3.8241 29.8982 5.8240 -1.8164
# 5 7.5654 -9.5607 13.2349 5.8240 57.7454 0.7792
# 6 12.3717 -4.1907 0.8355 -1.8164 0.7792 54.2741
#
#
#
# Elastic Compliance Matrix: (Units=1/GPa)
#
#
# Indices 1 2 3 4 5 6 
#
# 1 0.007395 -0.003091 -0.003248 0.002721 -0.000987 -0.001769
# 2 -0.003091 0.022310 -0.000226 -0.003905 0.004514 0.002235
# 3 -0.003248 -0.000226 0.009107 -0.001637 -0.001542 0.000550
# 4 0.002721 -0.003905 -0.001637 0.035616 -0.004225 0.000356
# 5 -0.000987 0.004514 -0.001542 -0.004225 0.018971 0.000183
# 6 -0.001769 0.002235 0.000550 0.000356 0.000183 0.019002
#
#
# Mechanical properties :
#
#
# Convention : Reuss Voigt Hill
#
# Bulk Modulus (GPa) = 38.93622 61.19303 50.06463
# Shear Modulus (GPa) = 37.28803 46.53333 41.91068
#
# Velocity S-wave (km/s) = 3.64154 4.06802 3.86067
# Velocity P-wave (km/s) = 5.61499 6.62021 6.13821
#
# Compressibility (1/GPa) = 0.02568303
#
# Stress axis : x y z
#
# Youngs Moduli (GPa) = 135.23535 44.82200 109.80197
#
# Poissons Ratio (x) = 0.13854 0.35665
# Poissons Ratio (y) = 0.41799 0.02478
# Poissons Ratio (z) = 0.43926 0.01012
#
# Static dielectric constant tensor:
#      x y z
#    x 5.282970 0.324240 0.191070 
#    y 0.324240 4.389610 1.412710 
#    z 0.191070 1.412710 3.738870 
# 
# 
# High freq. dielectric constant tensor:
#      x y z
#    x 2.150950 -0.001680 0.031640 
#    y -0.001680 2.188710 0.013150 
#    z 0.031640 0.013150 2.147560 
# 
# From -- ./inp_files/566950.got.cif
#   From: 2010.06.25/outbox.cif.g09.slc.cpg/sg2_284_cif.got.tgz:566950.got - 2010.06.27 13:26:56.
