data_PCOD8014568
_publ_section_title
;
Structure prediction by ZEFSAII (Michael W. Deem and Ramdas Pophale) SiO2 
 PCOD8014568
Probable space group: P -1
;
_chemical_formula_sum "Si O2"
_cell_formula_units_Z 14
_cell_length_a 25.097161
_cell_length_b 13.634055
_cell_length_c 8.789618
_cell_angle_alpha 52.759119
_cell_angle_beta 140.980530
_cell_angle_gamma 156.614307
_cell_volume 677.846577
_symmetry_space_group_name_H-M "P -1"
_symmetry_group_IT_number 2
_symmetry_cell_setting 'triclinic'
loop_
_space_group_symop_operation_xyz
x,y,z
-x,-y,-z
loop_
_atom_site_type_symbol
_atom_site_label
_atom_site_fract_x
_atom_site_fract_y
_atom_site_fract_z
Si Si1 0.088808 0.252364 0.446663
Si Si2 0.862170 0.932789 0.741957
Si Si3 0.444023 0.675777 0.996486
Si Si4 0.860987 0.578185 0.299010
Si Si5 0.178460 0.974762 0.150120
Si Si6 0.811308 0.247080 0.413175
Si Si7 0.497689 0.516242 0.799987
O O1 0.021350 0.244579 0.450736
O O2 0.319900 0.547501 0.688884
O O3 0.000000 0.000000 0.500000
O O4 0.021914 0.239663 0.161373
O O5 0.991622 0.214363 0.705858
O O6 0.768357 0.855511 0.762966
O O7 0.701697 0.683542 0.500509
O O8 0.000000 0.000000 0.000000
O O9 0.484997 0.585262 0.165437
O O10 0.643447 0.003096 0.149442
O O11 0.311373 0.544541 0.969526
O O12 0.773340 0.328071 0.334599
O O13 0.332075 0.175292 0.167059
O O14 0.171416 0.830079 0.341180
O O15 0.000000 0.500000 0.500000
O O16 0.500000 0.500000 0.000000
#
# Coordination Sequence:
#
# PCOD8014568 Si02
#       7
#     2   2   2   2   2   2   2
#     4  10  21  41  68  97 135 172 221 280 348 389
#     4  12  24  38  68 103 132 173 232 282 345 404
#     4  10  23  44  72  93 139 181 223 286 344 397
#     4  10  23  43  70  93 137 185 220 277 344 397
#     4  12  24  41  69  98 141 177 223 287 339 405
#     4  12  24  46  67  99 139 185 235 274 330 413
#     4  12  25  42  67 103 136 174 227 284 354 399
#
# _framework density 20.653641
#
# number of rings (size 3 to 8) (size 9 to 14) (size 15 to 20)
#    0.857    0.000    4.286    3.429    4.000    0.571 
#    0.000    0.714    0.000    0.000    0.000    0.000 
#    0.000    0.000    0.000    0.000    0.000    0.000 
#
# Total GULP energy -173461.192734 kJ/mol
# GULP energy per Si atom -12390.085195 kJ/mol
# Density = 2.060663 g / cm^3
# Si number density = 20.653641 Si / 1000 Ang^3
#
#
#
# Elastic Constant Matrix: (Units=GPa)
#
#
# Indices 1 2 3 4 5 6 
#
# 1 88.4414 42.2270 31.3958 -7.9194 -1.8322 -6.9322
# 2 42.2270 117.8205 60.7029 5.2831 -8.3617 0.4940
# 3 31.3958 60.7029 171.5535 15.7816 -9.1507 -5.1879
# 4 -7.9194 5.2831 15.7816 39.4803 -1.9838 3.0959
# 5 -1.8322 -8.3617 -9.1507 -1.9838 30.8064 0.2273
# 6 -6.9322 0.4940 -5.1879 3.0959 0.2273 43.8053
#
#
#
# Elastic Compliance Matrix: (Units=1/GPa)
#
#
# Indices 1 2 3 4 5 6 
#
# 1 0.014530 -0.004758 -0.001306 0.003893 -0.000579 0.001926
# 2 -0.004758 0.012047 -0.003224 -0.001085 0.001968 -0.001204
# 3 -0.001306 -0.003224 0.007559 -0.002869 0.001101 0.000922
# 4 0.003893 -0.001085 -0.002869 0.027577 0.000873 -0.001665
# 5 -0.000579 0.001968 0.001101 0.000873 0.033346 -0.000218
# 6 0.001926 -0.001204 0.000922 -0.001665 -0.000218 0.023375
#
#
# Mechanical properties :
#
#
# Convention : Reuss Voigt Hill
#
# Bulk Modulus (GPa) = 64.26631 71.82962 68.04796
# Shear Modulus (GPa) = 35.16259 39.05106 37.10683
#
# Velocity S-wave (km/s) = 4.13060 4.35300 4.24326
# Velocity P-wave (km/s) = 7.34390 7.75361 7.55154
#
# Compressibility (1/GPa) = 0.01556025
#
# Stress axis : x y z
#
# Youngs Moduli (GPa) = 68.82240 83.00737 132.28638
#
# Poissons Ratio (x) = 0.39498 0.17279
# Poissons Ratio (y) = 0.32748 0.42644
# Poissons Ratio (z) = 0.08990 0.26758
#
# Static dielectric constant tensor:
#      x y z
#    x 3.775220 -0.036670 0.082960 
#    y -0.036670 3.750790 0.137710 
#    z 0.082960 0.137710 3.904050 
# 
# 
# High freq. dielectric constant tensor:
#      x y z
#    x 1.807490 -0.003650 0.007880 
#    y -0.003650 1.786990 0.015620 
#    z 0.007880 0.015620 1.816460 
# 
# From -- ./inp_files/357385.got.cif
#   From: 2010.06.25/outbox.cif.g09.slc.cpg/sg2_179_cif.got.tgz:357385.got - 2010.06.27 13:26:56.
