data_PCOD8014244
_publ_section_title
;
Structure prediction by ZEFSAII (Michael W. Deem and Ramdas Pophale) SiO2 
 PCOD8014244
Probable space group: P -1
;
_chemical_formula_sum "Si O2"
_cell_formula_units_Z 16
_cell_length_a 9.309597
_cell_length_b 11.980678
_cell_length_c 12.354514
_cell_angle_alpha 92.526703
_cell_angle_beta 58.766144
_cell_angle_gamma 52.313392
_cell_volume 788.565985
_symmetry_space_group_name_H-M "P -1"
_symmetry_group_IT_number 2
_symmetry_cell_setting 'triclinic'
loop_
_space_group_symop_operation_xyz
x,y,z
-x,-y,-z
loop_
_atom_site_type_symbol
_atom_site_label
_atom_site_fract_x
_atom_site_fract_y
_atom_site_fract_z
Si Si1 0.359664 0.126363 0.307421
Si Si2 0.591008 0.422511 0.301045
Si Si3 0.120358 0.613069 0.627789
Si Si4 0.263094 0.479005 0.909110
Si Si5 0.722567 0.755105 0.208580
Si Si6 0.707877 0.156891 0.121479
Si Si7 0.418548 0.421088 0.073152
Si Si8 0.890555 0.647802 0.373375
O O1 0.573310 0.105324 0.184227
O O2 0.228908 0.234981 0.471449
O O3 0.154374 0.213376 0.296585
O O4 0.488357 0.943462 0.268213
O O5 0.325027 0.569340 0.468187
O O6 0.820369 0.366465 0.275676
O O7 0.584081 0.486848 0.188777
O O8 0.636394 0.269288 0.256776
O O9 0.138160 0.470922 0.612166
O O10 0.330049 0.350267 0.790960
O O11 0.341465 0.393365 0.992658
O O12 0.970566 0.659235 0.036892
O O13 0.758801 0.760478 0.322089
O O14 0.642094 0.245528 0.035962
O O15 0.000000 0.000000 0.000000
O O16 0.183454 0.537838 0.252774
O O17 0.500000 0.500000 0.000000
#
# Coordination Sequence:
#
# PCOD8014244 Si02
#       8
#     2   2   2   2   2   2   2   2
#     4  12  24  41  65  95 128 164 211 268 316 370
#     4  11  22  42  66  92 125 169 212 257 316 379
#     4  11  23  40  68  93 124 169 212 259 316 377
#     4  10  21  41  66  86 123 169 210 254 313 382
#     4  10  23  40  63  92 124 164 211 259 316 372
#     4  12  25  41  62  97 130 159 208 271 319 366
#     4  11  23  39  66  92 120 168 216 253 310 383
#     4  11  21  42  65  92 123 172 215 253 312 386
#
# _framework density 20.289997
#
# number of rings (size 3 to 8) (size 9 to 14) (size 15 to 20)
#    0.000    1.000    5.000    2.250    1.750    1.000 
#    0.000    2.500    0.000    0.000    0.000    0.000 
#    0.000    0.000    0.000    0.000    0.000    0.000 
#
# Total GULP energy -198421.608399 kJ/mol
# GULP energy per Si atom -12401.350525 kJ/mol
# Density = 2.024382 g / cm^3
# Si number density = 20.289997 Si / 1000 Ang^3
#
#
#
# Elastic Constant Matrix: (Units=GPa)
#
#
# Indices 1 2 3 4 5 6 
#
# 1 74.8213 27.8222 24.6858 9.6429 -15.7812 -13.5942
# 2 27.8222 119.5503 38.9511 8.9473 -12.5783 -20.3404
# 3 24.6858 38.9511 77.6645 -6.7668 -15.7680 -14.4947
# 4 9.6429 8.9473 -6.7668 28.2939 2.6718 -8.0845
# 5 -15.7812 -12.5783 -15.7680 2.6718 37.8267 -2.1614
# 6 -13.5942 -20.3404 -14.4947 -8.0845 -2.1614 31.6921
#
#
#
# Elastic Compliance Matrix: (Units=1/GPa)
#
#
# Indices 1 2 3 4 5 6 
#
# 1 0.017808 -0.001182 -0.003545 -0.005940 0.006216 0.004168
# 2 -0.001182 0.011183 -0.004401 -0.003229 0.001846 0.003960
# 3 -0.003545 -0.004401 0.019277 0.008761 0.004877 0.007039
# 4 -0.005940 -0.003229 0.008761 0.043671 -0.002392 0.010364
# 5 0.006216 0.001846 0.004877 -0.002392 0.032284 0.007673
# 6 0.004168 0.003960 0.007039 0.010364 0.007673 0.042269
#
#
# Mechanical properties :
#
#
# Convention : Reuss Voigt Hill
#
# Bulk Modulus (GPa) = 33.31887 50.55048 41.93468
# Shear Modulus (GPa) = 25.67375 31.60102 28.63738
#
# Velocity S-wave (km/s) = 3.56102 3.95076 3.76094
# Velocity P-wave (km/s) = 5.77623 6.76605 6.29064
#
# Compressibility (1/GPa) = 0.03001302
#
# Stress axis : x y z
#
# Youngs Moduli (GPa) = 56.15417 89.42092 51.87574
#
# Poissons Ratio (x) = 0.10566 0.18392
# Poissons Ratio (y) = 0.06635 0.22828
# Poissons Ratio (z) = 0.19909 0.39350
#
# Static dielectric constant tensor:
#      x y z
#    x 3.986840 -0.209700 0.096420 
#    y -0.209700 3.652990 -0.232330 
#    z 0.096420 -0.232330 3.696290 
# 
# 
# High freq. dielectric constant tensor:
#      x y z
#    x 1.807740 -0.006390 -0.002040 
#    y -0.006390 1.782950 -0.017540 
#    z -0.002040 -0.017540 1.793840 
# 
# From -- ./inp_files/262187.got.cif
#   From: 2010.06.25/outbox.cif.g09.slc.cpg/sg2_132_cif.got.tgz:262187.got - 2010.06.27 13:26:56.
