data_PCOD8014041
_publ_section_title
;
Structure prediction by ZEFSAII (Michael W. Deem and Ramdas Pophale) SiO2 
 PCOD8014041
Probable space group: P -1
;
_chemical_formula_sum "Si O2"
_cell_formula_units_Z 14
_cell_length_a 11.432107
_cell_length_b 8.922527
_cell_length_c 10.396195
_cell_angle_alpha 112.271853
_cell_angle_beta 94.368866
_cell_angle_gamma 42.036134
_cell_volume 619.979733
_symmetry_space_group_name_H-M "P -1"
_symmetry_group_IT_number 2
_symmetry_cell_setting 'triclinic'
loop_
_space_group_symop_operation_xyz
x,y,z
-x,-y,-z
loop_
_atom_site_type_symbol
_atom_site_label
_atom_site_fract_x
_atom_site_fract_y
_atom_site_fract_z
Si Si1 0.199471 0.612276 0.830311
Si Si2 0.374638 0.164807 0.167880
Si Si3 0.968063 0.543670 0.161437
Si Si4 0.393942 0.878871 0.279780
Si Si5 0.829874 0.951762 0.451317
Si Si6 0.865765 0.115151 0.834152
Si Si7 0.215050 0.656622 0.369384
O O1 0.141307 0.490329 0.805089
O O2 0.413588 0.395888 0.736914
O O3 0.182134 0.721110 0.998361
O O4 0.073137 0.824360 0.777033
O O5 0.381179 0.347353 0.273033
O O6 0.164535 0.341316 0.181063
O O7 0.444086 0.982946 0.233429
O O8 0.500000 0.000000 0.000000
O O9 0.845202 0.834149 0.281995
O O10 0.000000 0.500000 0.000000
O O11 0.288473 0.861211 0.176316
O O12 0.267562 0.055214 0.450491
O O13 0.036020 0.774153 0.466107
O O14 0.721240 0.241912 0.525017
O O15 0.859247 0.230652 0.744517
#
# Coordination Sequence:
#
# PCOD8014041 Si02
#       7
#     2   2   2   2   2   2   2
#     4  11  22  38  64  97 130 172 215 269 327 380
#     4  11  22  39  67 100 129 172 219 267 326 385
#     4  11  22  40  65  92 131 169 217 277 326 386
#     4  11  22  41  67  95 131 172 220 266 320 398
#     4   9  21  40  66  91 127 178 216 267 332 382
#     4  10  21  41  64  94 131 175 216 268 319 388
#     4   9  19  40  65  93 128 173 218 266 324 388
#
# _framework density 22.581385000000001
#
# number of rings (size 3 to 8) (size 9 to 14) (size 15 to 20)
#    0.000    1.714    1.429    3.857    0.000    4.000 
#    2.571    0.714    0.000    0.000    0.000    0.000 
#    0.000    0.000    0.000    0.000    0.000    0.000 
#
# Total GULP energy -173533.921798 kJ/mol
# GULP energy per Si atom -12395.280128 kJ/mol
# Density = 2.252999 g / cm^3
# Si number density = 22.581385 Si / 1000 Ang^3
#
#
#
# Elastic Constant Matrix: (Units=GPa)
#
#
# Indices 1 2 3 4 5 6 
#
# 1 85.1100 43.3107 60.5351 14.1774 3.2525 11.0997
# 2 43.3107 95.5460 37.7760 17.2007 -7.7010 4.4516
# 3 60.5351 37.7760 144.6630 21.4118 6.1663 16.0506
# 4 14.1774 17.2007 21.4118 32.1633 6.7263 3.4035
# 5 3.2525 -7.7010 6.1663 6.7263 49.1159 1.9190
# 6 11.0997 4.4516 16.0506 3.4035 1.9190 35.1457
#
#
#
# Elastic Compliance Matrix: (Units=1/GPa)
#
#
# Indices 1 2 3 4 5 6 
#
# 1 0.019955 -0.006459 -0.006233 -0.000642 -0.001366 -0.002501
# 2 -0.006459 0.014880 -0.000601 -0.005538 0.003564 0.000771
# 3 -0.006233 -0.000601 0.010488 -0.003575 -0.000416 -0.002376
# 4 -0.000642 -0.005538 -0.003575 0.037964 -0.005543 -0.000837
# 5 -0.001366 0.003564 -0.000416 -0.005543 0.021840 -0.000486
# 6 -0.002501 0.000771 -0.002376 -0.000837 -0.000486 0.030338
#
#
# Mechanical properties :
#
#
# Convention : Reuss Voigt Hill
#
# Bulk Modulus (GPa) = 53.36833 67.61808 60.49321
# Shear Modulus (GPa) = 29.70967 35.53145 32.62056
#
# Velocity S-wave (km/s) = 3.63115 3.97102 3.80488
# Velocity P-wave (km/s) = 6.42382 7.14384 6.79338
#
# Compressibility (1/GPa) = 0.01873770
#
# Stress axis : x y z
#
# Youngs Moduli (GPa) = 50.11298 67.20502 95.34551
#
# Poissons Ratio (x) = 0.43409 0.59427
# Poissons Ratio (y) = 0.32369 0.05726
# Poissons Ratio (z) = 0.31235 0.04036
#
# Static dielectric constant tensor:
#      x y z
#    x 4.255830 0.067290 0.132760 
#    y 0.067290 3.831860 0.171790 
#    z 0.132760 0.171790 4.149390 
# 
# 
# High freq. dielectric constant tensor:
#      x y z
#    x 1.895740 0.009900 0.001010 
#    y 0.009900 1.866210 0.015150 
#    z 0.001010 0.015150 1.900830 
# 
# From -- ./inp_files/391226.got.cif
#   From: 2010.06.25/outbox.cif.g09.slc.cpg/sg2_196_cif.got.tgz:391226.got - 2010.06.27 13:26:56.
