data_PCOD8014005
_publ_section_title
;
Structure prediction by ZEFSAII (Michael W. Deem and Ramdas Pophale) SiO2 
 PCOD8014005
Probable space group: P -1
;
_chemical_formula_sum "Si O2"
_cell_formula_units_Z 14
_cell_length_a 6.767227
_cell_length_b 9.562401
_cell_length_c 16.619770
_cell_angle_alpha 64.669186
_cell_angle_beta 73.939306
_cell_angle_gamma 43.040740
_cell_volume 662.326381
_symmetry_space_group_name_H-M "P -1"
_symmetry_group_IT_number 2
_symmetry_cell_setting 'triclinic'
loop_
_space_group_symop_operation_xyz
x,y,z
-x,-y,-z
loop_
_atom_site_type_symbol
_atom_site_label
_atom_site_fract_x
_atom_site_fract_y
_atom_site_fract_z
Si Si1 0.134846 0.959671 0.354481
Si Si2 0.545706 0.357991 0.265048
Si Si3 0.323941 0.391810 0.120982
Si Si4 0.564501 0.842923 0.461391
Si Si5 0.060223 0.208457 0.162267
Si Si6 0.112362 0.804194 0.982172
Si Si7 0.836472 0.389921 0.611771
O O1 0.237784 0.999748 0.253543
O O2 0.779441 0.148597 0.350008
O O3 0.265962 0.975157 0.413924
O O4 0.248169 0.723089 0.397232
O O5 0.420028 0.308408 0.223297
O O6 0.275350 0.568805 0.293904
O O7 0.722934 0.395606 0.185780
O O8 0.176202 0.318756 0.121039
O O9 0.576132 0.302800 0.054037
O O10 0.108960 0.652825 0.075951
O O11 0.671063 0.622645 0.536289
O O12 0.816088 0.772134 0.390698
O O13 0.500000 0.000000 0.500000
O O14 0.085528 0.123957 0.091393
O O15 0.000000 0.000000 0.000000
#
# Coordination Sequence:
#
# PCOD8014005 Si02
#       7
#     2   2   2   2   2   2   2
#     4  10  24  42  63  92 130 159 212 261 317 375
#     4   9  23  39  66  94 127 165 208 265 316 364
#     4  10  21  41  64  90 133 163 212 255 312 373
#     4  11  26  43  67  92 125 170 211 262 321 377
#     4   9  22  41  63  93 126 168 206 256 317 366
#     4  10  22  40  64  93 128 168 208 260 307 369
#     4  11  24  42  66  93 126 162 218 257 322 371
#
# _framework density 21.137615
#
# number of rings (size 3 to 8) (size 9 to 14) (size 15 to 20)
#    0.857    1.143    0.000    1.714    6.000    6.286 
#    2.571    0.000    0.000    0.000    0.000    0.000 
#    0.000    0.000    0.000    0.000    0.000    0.000 
#
# Total GULP energy -173473.453494 kJ/mol
# GULP energy per Si atom -12390.960964 kJ/mol
# Density = 2.108950 g / cm^3
# Si number density = 21.137615 Si / 1000 Ang^3
#
#
#
# Elastic Constant Matrix: (Units=GPa)
#
#
# Indices 1 2 3 4 5 6 
#
# 1 133.8772 64.2333 62.9647 10.7762 11.9438 35.6081
# 2 64.2333 120.8429 57.7466 10.3073 8.9623 26.9211
# 3 62.9647 57.7466 90.4541 12.9882 21.1305 9.3150
# 4 10.7762 10.3073 12.9882 35.5321 6.4120 -3.4890
# 5 11.9438 8.9623 21.1305 6.4120 31.7758 -0.9389
# 6 35.6081 26.9211 9.3150 -3.4890 -0.9389 37.3948
#
#
#
# Elastic Compliance Matrix: (Units=1/GPa)
#
#
# Indices 1 2 3 4 5 6 
#
# 1 0.015331 -0.001378 -0.008301 -0.002422 0.000287 -0.011758
# 2 -0.001378 0.014243 -0.007496 -0.001984 0.001673 -0.007217
# 3 -0.008301 -0.007496 0.023382 -0.001385 -0.009825 0.007101
# 4 -0.002422 -0.001984 -0.001385 0.031310 -0.003723 0.006907
# 5 0.000287 0.001673 -0.009825 -0.003723 0.038222 0.001582
# 6 -0.011758 -0.007217 0.007101 0.006907 0.001582 0.042049
#
#
# Mechanical properties :
#
#
# Convention : Reuss Voigt Hill
#
# Bulk Modulus (GPa) = 53.74568 79.45150 66.59859
# Shear Modulus (GPa) = 24.37957 31.62251 28.00104
#
# Velocity S-wave (km/s) = 3.39982 3.87205 3.64359
# Velocity P-wave (km/s) = 6.39480 7.59340 7.01973
#
# Compressibility (1/GPa) = 0.01860615
#
# Stress axis : x y z
#
# Youngs Moduli (GPa) = 65.22595 70.21056 42.76792
#
# Poissons Ratio (x) = 0.09674 0.35501
# Poissons Ratio (y) = 0.08987 0.32060
# Poissons Ratio (z) = 0.54144 0.52632
#
# Static dielectric constant tensor:
#      x y z
#    x 3.824720 -0.004700 -0.077240 
#    y -0.004700 3.738740 -0.022680 
#    z -0.077240 -0.022680 3.846550 
# 
# 
# High freq. dielectric constant tensor:
#      x y z
#    x 1.832250 0.009910 -0.002550 
#    y 0.009910 1.809550 0.003660 
#    z -0.002550 0.003660 1.831570 
# 
# From -- ./inp_files/548033.got.cif
#   From: 2010.06.25/outbox.cif.g09.slc.cpg/sg2_275_cif.got.tgz:548033.got - 2010.06.27 13:26:56.
