data_PCOD8015956
_publ_section_title
;
Structure prediction by ZEFSAII (Michael W. Deem and Ramdas Pophale) SiO2 
 PCOD8015956
Probable space group: P -1
;
_chemical_formula_sum "Si O2"
_cell_formula_units_Z 16
_cell_length_a 9.307092
_cell_length_b 17.783376
_cell_length_c 8.657627
_cell_angle_alpha 74.269608
_cell_angle_beta 123.633268
_cell_angle_gamma 141.567633
_cell_volume 703.967115
_symmetry_space_group_name_H-M "P -1"
_symmetry_group_IT_number 2
_symmetry_cell_setting 'triclinic'
loop_
_space_group_symop_operation_xyz
x,y,z
-x,-y,-z
loop_
_atom_site_type_symbol
_atom_site_label
_atom_site_fract_x
_atom_site_fract_y
_atom_site_fract_z
Si Si1 0.803423 0.110096 0.755791
Si Si2 0.796463 0.464854 0.769060
Si Si3 0.734906 0.750411 0.607195
Si Si4 0.614022 0.540250 0.805066
Si Si5 0.057325 0.357664 0.763034
Si Si6 0.194244 0.136745 0.113380
Si Si7 0.210709 0.863671 0.606517
Si Si8 0.177700 0.672617 0.637413
O O1 0.793832 0.085593 0.581481
O O2 0.813654 0.206443 0.721856
O O3 0.546325 0.983691 0.776601
O O4 0.095171 0.182540 0.956402
O O5 0.522494 0.318209 0.625675
O O6 0.654888 0.496989 0.710956
O O7 0.994603 0.548399 0.695475
O O8 0.000000 0.500000 0.000000
O O9 0.656651 0.645257 0.720675
O O10 0.798494 0.846956 0.705106
O O11 0.024403 0.839279 0.637984
O O12 0.313325 0.420082 0.771868
O O13 0.842304 0.586887 0.037015
O O14 0.902779 0.371956 0.567247
O O15 0.503796 0.230808 0.185646
O O16 0.000000 0.000000 0.000000
O O17 0.104288 0.736881 0.595566
#
# Coordination Sequence:
#
# PCOD8015956 Si02
#       8
#     2   2   2   2   2   2   2   2
#     4  10  21  43  68 100 133 186 237 280 343 408
#     4  12  27  42  66 107 146 178 227 292 354 417
#     4  12  25  47  71 103 137 189 236 286 348 414
#     4  11  22  43  69 102 139 179 239 284 340 419
#     4  10  22  40  69 101 133 186 230 282 337 422
#     4  12  27  46  66 102 142 181 231 293 354 410
#     4  10  22  43  73  96 133 186 243 284 330 421
#     4  11  23  42  70  97 146 182 224 287 355 408
#
# _framework density 22.728332999999999
#
# number of rings (size 3 to 8) (size 9 to 14) (size 15 to 20)
#    0.000    1.000    5.000    1.875    5.250    1.000 
#    2.250    0.625    0.000    0.000    0.000    0.000 
#    0.000    0.000    0.000    0.000    0.000    0.000 
#
# Total GULP energy -198216.013363 kJ/mol
# GULP energy per Si atom -12388.500835 kJ/mol
# Density = 2.267660 g / cm^3
# Si number density = 22.728333 Si / 1000 Ang^3
#
#
#
# Elastic Constant Matrix: (Units=GPa)
#
#
# Indices 1 2 3 4 5 6 
#
# 1 93.5632 24.4884 27.3734 16.7792 -13.4778 10.2468
# 2 24.4884 81.5156 32.1846 5.9945 -9.7251 14.4220
# 3 27.3734 32.1846 151.5104 11.8450 9.9252 1.6937
# 4 16.7792 5.9945 11.8450 34.5879 -3.8411 0.0013
# 5 -13.4778 -9.7251 9.9252 -3.8411 30.3591 5.4652
# 6 10.2468 14.4220 1.6937 0.0013 5.4652 27.6187
#
#
#
# Elastic Compliance Matrix: (Units=1/GPa)
#
#
# Indices 1 2 3 4 5 6 
#
# 1 0.014272 -0.001053 -0.002358 -0.005133 0.007205 -0.006026
# 2 -0.001053 0.016724 -0.003749 -0.000234 0.007825 -0.009661
# 3 -0.002358 -0.003749 0.008296 -0.001691 -0.005799 0.003471
# 4 -0.005133 -0.000234 -0.001691 0.032240 0.001965 0.001740
# 5 0.007205 0.007825 -0.005799 0.001965 0.043490 -0.015009
# 6 -0.006026 -0.009661 0.003471 0.001740 -0.015009 0.046245
#
#
# Mechanical properties :
#
#
# Convention : Reuss Voigt Hill
#
# Bulk Modulus (GPa) = 40.04504 54.96464 47.50484
# Shear Modulus (GPa) = 27.18716 34.68267 30.93491
#
# Velocity S-wave (km/s) = 3.46233 3.91060 3.69327
# Velocity P-wave (km/s) = 5.80008 6.68028 6.25568
#
# Compressibility (1/GPa) = 0.02497188
#
# Stress axis : x y z
#
# Youngs Moduli (GPa) = 70.06797 59.79433 120.54277
#
# Poissons Ratio (x) = 0.06298 0.28425
# Poissons Ratio (y) = 0.07380 0.45186
# Poissons Ratio (z) = 0.16522 0.22414
#
# Static dielectric constant tensor:
#      x y z
#    x 3.898250 0.091330 -0.014370 
#    y 0.091330 3.960030 0.101060 
#    z -0.014370 0.101060 4.699830 
# 
# 
# High freq. dielectric constant tensor:
#      x y z
#    x 1.882430 0.010190 0.004080 
#    y 0.010190 1.882020 0.013160 
#    z 0.004080 0.013160 1.920250 
# 
# From -- ./inp_files/217545.got.cif
#   From: 2010.06.25/outbox.cif.g09.slc.cpg/sg2_109_cif.got.tgz:217545.got - 2010.06.27 13:26:56.
