data_PCOD8015513
_publ_section_title
;
Structure prediction by ZEFSAII (Michael W. Deem and Ramdas Pophale) SiO2 
 PCOD8015513
Probable space group: P -1
;
_chemical_formula_sum "Si O2"
_cell_formula_units_Z 14
_cell_length_a 26.035751
_cell_length_b 6.279731
_cell_length_c 18.071989
_cell_angle_alpha 137.930209
_cell_angle_beta 161.860152
_cell_angle_gamma 51.948985
_cell_volume 557.363758
_symmetry_space_group_name_H-M "P -1"
_symmetry_group_IT_number 2
_symmetry_cell_setting 'triclinic'
loop_
_space_group_symop_operation_xyz
x,y,z
-x,-y,-z
loop_
_atom_site_type_symbol
_atom_site_label
_atom_site_fract_x
_atom_site_fract_y
_atom_site_fract_z
Si Si1 0.778005 0.198011 0.885141
Si Si2 0.467630 0.245299 0.823041
Si Si3 0.301871 0.081392 0.891740
Si Si4 0.854682 0.994122 0.193837
Si Si5 0.925039 0.092709 0.774820
Si Si6 0.195088 0.160418 0.621073
Si Si7 0.600007 0.115563 0.770479
O O1 0.674412 0.013409 0.771068
O O2 0.620344 0.056633 0.569773
O O3 0.863873 0.618127 0.110026
O O4 0.934482 0.064983 0.050312
O O5 0.508673 0.924799 0.827187
O O6 0.256648 0.095485 0.471258
O O7 0.500000 0.500000 0.000000
O O8 0.618281 0.473234 0.027470
O O9 0.318718 0.468776 0.010614
O O10 0.148341 0.875911 0.691761
O O11 0.234319 0.915679 0.673979
O O12 0.033993 0.251841 0.459107
O O13 0.668506 0.956892 0.891214
O O14 0.865105 0.023964 0.588198
O O15 0.000000 0.500000 0.000000
#
# Coordination Sequence:
#
# PCOD8015513 Si02
#       7
#     2   2   2   2   2   2   2
#     4  10  22  42  70 103 145 182 234 290 359 412
#     4  10  25  45  70 100 147 188 235 286 345 417
#     4  11  24  42  72 103 142 186 236 284 362 413
#     4  11  23  42  72 109 141 184 232 296 359 420
#     4  11  24  49  75 103 142 188 241 290 344 428
#     4  11  25  45  70 106 145 182 235 293 350 418
#     4  10  21  42  70 106 142 180 229 302 354 415
#
# _framework density 25.118245000000002
#
# number of rings (size 3 to 8) (size 9 to 14) (size 15 to 20)
#    0.000    1.429    1.429    2.571    4.000    4.571 
#    5.143    2.143    0.000    0.000    0.000    0.000 
#    0.000    0.000    0.000    0.000    0.000    0.000 
#
# Total GULP energy -173457.720467 kJ/mol
# GULP energy per Si atom -12389.837176 kJ/mol
# Density = 2.506107 g / cm^3
# Si number density = 25.118245 Si / 1000 Ang^3
#
#
#
# Elastic Constant Matrix: (Units=GPa)
#
#
# Indices 1 2 3 4 5 6 
#
# 1 114.4519 49.4226 62.6292 -14.9357 13.8644 11.8641
# 2 49.4226 137.4860 54.8885 -38.6802 13.9246 -10.2689
# 3 62.6292 54.8885 166.7586 -35.9923 33.0835 3.3786
# 4 -14.9357 -38.6802 -35.9923 45.7958 -3.1123 0.2336
# 5 13.8644 13.9246 33.0835 -3.1123 30.3534 -6.3227
# 6 11.8641 -10.2689 3.3786 0.2336 -6.3227 35.9544
#
#
#
# Elastic Compliance Matrix: (Units=1/GPa)
#
#
# Indices 1 2 3 4 5 6 
#
# 1 0.012891 -0.004048 -0.003559 -0.002085 -0.001475 -0.005321
# 2 -0.004048 0.011618 -0.000391 0.008074 -0.001309 0.004408
# 3 -0.003559 -0.000391 0.010775 0.006331 -0.009642 -0.001687
# 4 -0.002085 0.008074 0.006331 0.032533 -0.006084 0.001118
# 5 -0.001475 -0.001309 -0.009642 -0.006084 0.046011 0.009149
# 6 -0.005321 0.004408 -0.001687 0.001118 0.009149 0.032588
#
#
# Mechanical properties :
#
#
# Convention : Reuss Voigt Hill
#
# Bulk Modulus (GPa) = 51.84109 83.61969 67.73039
# Shear Modulus (GPa) = 29.61400 39.20446 34.40923
#
# Velocity S-wave (km/s) = 3.43736 3.95498 3.70522
# Velocity P-wave (km/s) = 6.03635 7.36332 6.73261
#
# Compressibility (1/GPa) = 0.01928972
#
# Stress axis : x y z
#
# Youngs Moduli (GPa) = 77.57568 86.07441 92.80367
#
# Poissons Ratio (x) = 0.34840 0.33025
# Poissons Ratio (y) = 0.31400 0.03627
# Poissons Ratio (z) = 0.27606 0.03364
#
# Static dielectric constant tensor:
#      x y z
#    x 6.091080 0.501310 0.861930 
#    y 0.501310 4.493800 0.043840 
#    z 0.861930 0.043840 5.080370 
# 
# 
# High freq. dielectric constant tensor:
#      x y z
#    x 2.006040 0.002110 0.010180 
#    y 0.002110 2.001660 -0.016320 
#    z 0.010180 -0.016320 2.002970 
# 
# From -- ./inp_files/579517.got.cif
#   From: 2010.06.25/outbox.cif.g09.slc.cpg/sg2_290_cif.got.tgz:579517.got - 2010.06.27 13:26:56.
