data_PCOD8015355
_publ_section_title
;
Structure prediction by ZEFSAII (Michael W. Deem and Ramdas Pophale) SiO2 
 PCOD8015355
Probable space group: P -1
;
_chemical_formula_sum "Si O2"
_cell_formula_units_Z 14
_cell_length_a 4.922258
_cell_length_b 18.921688
_cell_length_c 9.848611
_cell_angle_alpha 41.778515
_cell_angle_beta 68.031803
_cell_angle_gamma 83.479353
_cell_volume 546.076730
_symmetry_space_group_name_H-M "P -1"
_symmetry_group_IT_number 2
_symmetry_cell_setting 'triclinic'
loop_
_space_group_symop_operation_xyz
x,y,z
-x,-y,-z
loop_
_atom_site_type_symbol
_atom_site_label
_atom_site_fract_x
_atom_site_fract_y
_atom_site_fract_z
Si Si1 0.266658 0.784756 0.951960
Si Si2 0.254396 0.564106 0.137633
Si Si3 0.588534 0.448173 0.422406
Si Si4 0.406013 0.833724 0.381685
Si Si5 0.376859 0.200104 0.879321
Si Si6 0.080826 0.895264 0.576949
Si Si7 0.245680 0.264297 0.333978
O O1 0.231625 0.655493 0.123318
O O2 0.544769 0.835539 0.932603
O O3 0.974543 0.804555 0.055025
O O4 0.280133 0.845184 0.716937
O O5 0.351372 0.462443 0.331855
O O6 0.920622 0.515328 0.208908
O O7 0.503746 0.619528 0.897010
O O8 0.500000 0.500000 0.500000
O O9 0.576872 0.322079 0.628687
O O10 0.536302 0.875410 0.148465
O O11 0.297433 0.927219 0.355420
O O12 0.669104 0.799416 0.462872
O O13 0.099042 0.728837 0.582786
O O14 0.773225 0.803387 0.712577
O O15 0.000000 0.000000 0.500000
#
# Coordination Sequence:
#
# PCOD8015355 Si02
#       7
#     2   2   2   2   2   2   2
#     4  12  22  40  68  92 131 165 219 263 325 381
#     4  12  20  39  61  97 121 170 224 274 296 358
#     4  12  22  35  60  93 133 170 226 259 297 388
#     4  10  23  43  65  90 137 171 203 267 332 388
#     4  12  25  41  62  98 133 179 204 264 336 365
#     4  10  24  45  74  98 118 167 223 266 317 399
#     4  10  21  42  68  87 130 168 210 267 330 370
#
# _framework density 25.637423999999999
#
# number of rings (size 3 to 8) (size 9 to 14) (size 15 to 20)
#    0.857    0.000    4.286    4.714    0.000    0.571 
#    0.000    5.714    0.000    0.000    0.000    0.000 
#    0.000    0.000    0.000    0.000    0.000    0.000 
#
# Total GULP energy -173495.340653 kJ/mol
# GULP energy per Si atom -12392.524332 kJ/mol
# Density = 2.557907 g / cm^3
# Si number density = 25.637424 Si / 1000 Ang^3
#
#
#
# Elastic Constant Matrix: (Units=GPa)
#
#
# Indices 1 2 3 4 5 6 
#
# 1 112.5263 -2.4785 13.0166 -2.1936 24.6771 4.9057
# 2 -2.4785 70.1080 7.0449 17.5060 9.5764 -6.3164
# 3 13.0166 7.0449 45.9171 20.5735 9.7299 9.5077
# 4 -2.1936 17.5060 20.5735 36.2999 2.8424 -3.2422
# 5 24.6771 9.5764 9.7299 2.8424 43.2847 7.2100
# 6 4.9057 -6.3164 9.5077 -3.2422 7.2100 20.8613
#
#
#
# Elastic Compliance Matrix: (Units=1/GPa)
#
#
# Indices 1 2 3 4 5 6 
#
# 1 0.010601 0.001023 -0.003552 0.002801 -0.005979 0.001937
# 2 0.001023 0.017320 0.000431 -0.007678 -0.004892 0.005304
# 3 -0.003552 0.000431 0.037453 -0.023215 -0.001784 -0.019095
# 4 0.002801 -0.007678 -0.023215 0.045911 -0.000158 0.014787
# 5 -0.005979 -0.004892 -0.001784 -0.000158 0.029590 -0.009513
# 6 0.001937 0.005304 -0.019095 0.014787 -0.009513 0.063375
#
#
# Mechanical properties :
#
#
# Convention : Reuss Voigt Hill
#
# Bulk Modulus (GPa) = 16.34520 29.30195 22.82358
# Shear Modulus (GPa) = 21.84960 34.15373 28.00167
#
# Velocity S-wave (km/s) = 2.92251 3.65387 3.30846
# Velocity P-wave (km/s) = 4.21633 5.40881 4.84936
#
# Compressibility (1/GPa) = 0.06118002
#
# Stress axis : x y z
#
# Youngs Moduli (GPa) = 94.32646 57.73702 26.70032
#
# Poissons Ratio (x) = -0.05909 0.09483
# Poissons Ratio (y) = -0.09653 -0.01151
# Poissons Ratio (z) = 0.33502 -0.02490
#
# Static dielectric constant tensor:
#      x y z
#    x 4.904020 -0.049400 0.072570 
#    y -0.049400 4.555860 0.290290 
#    z 0.072570 0.290290 4.332600 
# 
# 
# High freq. dielectric constant tensor:
#      x y z
#    x 2.047600 -0.012450 -0.002810 
#    y -0.012450 2.005670 0.028370 
#    z -0.002810 0.028370 2.002330 
# 
# From -- ./inp_files/140448.got.cif
#   From: 2010.06.25/outbox.cif.g09.slc.cpg/sg2_71_cif.got.tgz:140448.got - 2010.06.27 13:26:56.
