data_PCOD8015017
_publ_section_title
;
Structure prediction by ZEFSAII (Michael W. Deem and Ramdas Pophale) SiO2 
 PCOD8015017
Probable space group: P -1
;
_chemical_formula_sum "Si O2"
_cell_formula_units_Z 16
_cell_length_a 11.434105
_cell_length_b 9.481665
_cell_length_c 14.153251
_cell_angle_alpha 91.066868
_cell_angle_beta 149.902219
_cell_angle_gamma 99.242410
_cell_volume 719.969676
_symmetry_space_group_name_H-M "P -1"
_symmetry_group_IT_number 2
_symmetry_cell_setting 'triclinic'
loop_
_space_group_symop_operation_xyz
x,y,z
-x,-y,-z
loop_
_atom_site_type_symbol
_atom_site_label
_atom_site_fract_x
_atom_site_fract_y
_atom_site_fract_z
Si Si1 0.374462 0.159837 0.161121
Si Si2 0.241495 0.201908 0.647876
Si Si3 0.948209 0.137707 0.153808
Si Si4 0.997319 0.282647 0.802408
Si Si5 0.471988 0.153701 0.448545
Si Si6 0.828324 0.336087 0.341934
Si Si7 0.985470 0.043326 0.643326
Si Si8 0.253786 0.616791 0.925782
O O1 0.443905 0.178090 0.318425
O O2 0.618504 0.241300 0.268479
O O3 0.175158 0.241673 0.000480
O O4 0.240769 0.978877 0.052239
O O5 0.254838 0.071350 0.582956
O O6 0.015689 0.248151 0.453384
O O7 0.496169 0.341895 0.836289
O O8 0.197793 0.135297 0.721101
O O9 0.907105 0.295346 0.135889
O O10 0.240035 0.176851 0.337638
O O11 0.882503 0.050430 0.205633
O O12 0.126109 0.439958 0.844057
O O13 0.737397 0.279503 0.668214
O O14 0.903220 0.155266 0.652836
O O15 0.500000 0.000000 0.500000
O O16 0.698344 0.348133 0.151769
O O17 0.000000 0.500000 0.500000
#
# Coordination Sequence:
#
# PCOD8015017 Si02
#       8
#     2   2   2   2   2   2   2   2
#     4  11  25  43  72 104 131 179 239 273 335 412
#     4  11  24  39  68  98 142 181 220 280 339 401
#     4  11  25  42  69 103 134 178 233 286 326 408
#     4  11  25  46  69  99 136 182 226 281 341 407
#     4  12  24  45  75  97 133 177 235 289 337 392
#     4  12  25  42  69 103 145 179 223 277 342 415
#     4  10  21  42  64  99 130 180 230 268 336 396
#     4  12  26  44  67 105 144 177 222 277 348 402
#
# _framework density 22.223158000000002
#
# number of rings (size 3 to 8) (size 9 to 14) (size 15 to 20)
#    0.000    0.750    3.750    4.875    5.250    3.000 
#    0.000    0.625    0.000    0.000    0.000    0.000 
#    0.000    0.000    0.000    0.000    0.000    0.000 
#
# Total GULP energy -198295.300088 kJ/mol
# GULP energy per Si atom -12393.456255 kJ/mol
# Density = 2.217258 g / cm^3
# Si number density = 22.223158 Si / 1000 Ang^3
#
#
#
# Elastic Constant Matrix: (Units=GPa)
#
#
# Indices 1 2 3 4 5 6 
#
# 1 41.6543 40.0793 19.8902 -3.9629 8.4461 4.9753
# 2 40.0793 105.0179 44.0209 -0.0257 -3.9199 6.2166
# 3 19.8902 44.0209 112.3869 3.3066 16.1524 -2.5446
# 4 -3.9629 -0.0257 3.3066 37.4516 7.7799 -0.7647
# 5 8.4461 -3.9199 16.1524 7.7799 29.7237 -4.7333
# 6 4.9753 6.2166 -2.5446 -0.7647 -4.7333 29.5896
#
#
#
# Elastic Compliance Matrix: (Units=1/GPa)
#
#
# Indices 1 2 3 4 5 6 
#
# 1 0.047421 -0.019116 0.001593 0.008939 -0.020290 -0.006835
# 2 -0.019116 0.019781 -0.006024 -0.004053 0.012443 0.000426
# 3 0.001593 -0.006024 0.012106 0.000752 -0.007896 0.000795
# 4 0.008939 -0.004053 0.000752 0.029951 -0.011588 -0.001666
# 5 -0.020290 0.012443 -0.007896 -0.011588 0.049608 0.007755
# 6 -0.006835 0.000426 0.000795 -0.001666 0.007755 0.036121
#
#
# Mechanical properties :
#
#
# Convention : Reuss Voigt Hill
#
# Bulk Modulus (GPa) = 31.04255 51.89334 41.46795
# Shear Modulus (GPa) = 19.77683 29.69089 24.73386
#
# Velocity S-wave (km/s) = 2.98639 3.65915 3.33975
# Velocity P-wave (km/s) = 5.08825 6.42294 5.79415
#
# Compressibility (1/GPa) = 0.03221384
#
# Stress axis : x y z
#
# Youngs Moduli (GPa) = 21.08788 50.55289 82.60186
#
# Poissons Ratio (x) = 0.96638 -0.13162
# Poissons Ratio (y) = 0.40312 0.49763
# Poissons Ratio (z) = -0.03360 0.30455
#
# Static dielectric constant tensor:
#      x y z
#    x 4.089810 0.025690 0.066510 
#    y 0.025690 4.112160 -0.040800 
#    z 0.066510 -0.040800 4.277520 
# 
# 
# High freq. dielectric constant tensor:
#      x y z
#    x 1.861810 0.008660 0.000560 
#    y 0.008660 1.875730 -0.005290 
#    z 0.000560 -0.005290 1.892780 
# 
# From -- ./inp_files/515712.got.cif
#   From: 2010.06.25/outbox.cif.g09.slc.cpg/sg2_258_cif.got.tgz:515712.got - 2010.06.27 13:26:56.
