data_PCOD8015335
_publ_section_title
;
Structure prediction by ZEFSAII (Michael W. Deem and Ramdas Pophale) SiO2 
 PCOD8015335
Probable space group: P -1
;
_chemical_formula_sum "Si O2"
_cell_formula_units_Z 14
_cell_length_a 7.018319
_cell_length_b 14.507639
_cell_length_c 10.829373
_cell_angle_alpha 44.693268
_cell_angle_beta 115.664846
_cell_angle_gamma 131.822849
_cell_volume 576.143948
_symmetry_space_group_name_H-M "P -1"
_symmetry_group_IT_number 2
_symmetry_cell_setting 'triclinic'
loop_
_space_group_symop_operation_xyz
x,y,z
-x,-y,-z
loop_
_atom_site_type_symbol
_atom_site_label
_atom_site_fract_x
_atom_site_fract_y
_atom_site_fract_z
Si Si1 0.277143 0.493749 0.869161
Si Si2 0.249246 0.243182 0.937377
Si Si3 0.970870 0.099338 0.760152
Si Si4 0.110320 0.855499 0.573438
Si Si5 0.537516 0.995931 0.157307
Si Si6 0.790590 0.309559 0.056980
Si Si7 0.620822 0.823992 0.536962
O O1 0.056430 0.465583 0.931315
O O2 0.373133 0.656728 0.669737
O O3 0.500000 0.500000 0.000000
O O4 0.173961 0.356983 0.865329
O O5 0.550847 0.323911 0.971148
O O6 0.054699 0.067188 0.112470
O O7 0.211335 0.224319 0.795279
O O8 0.974386 0.181630 0.556957
O O9 0.719931 0.045647 0.814696
O O10 0.181899 0.734590 0.752984
O O11 0.867297 0.817715 0.622174
O O12 0.346256 0.039526 0.490979
O O13 0.592321 0.867089 0.345521
O O14 0.762661 0.170920 0.096279
O O15 0.500000 0.000000 0.000000
#
# Coordination Sequence:
#
# PCOD8015335 Si02
#       7
#     2   2   2   2   2   2   2
#     4  12  23  43  66  98 138 180 212 270 344 390
#     4  10  24  41  66 100 129 176 222 274 328 396
#     4  10  22  41  69  96 129 170 226 282 319 385
#     4  10  21  42  67  99 125 171 228 270 328 385
#     4  10  22  41  70  97 124 175 227 272 329 393
#     4  10  23  42  67  97 132 175 222 274 321 399
#     4  10  23  39  68  98 132 170 221 276 323 402
#
# _framework density 24.299484
#
# number of rings (size 3 to 8) (size 9 to 14) (size 15 to 20)
#    0.000    1.714    1.429    1.714   10.000    6.857 
#    2.571    3.571    0.000    0.000    0.000    0.000 
#    0.000    0.000    0.000    0.000    0.000    0.000 
#
# Total GULP energy -173591.614035 kJ/mol
# GULP energy per Si atom -12399.401003 kJ/mol
# Density = 2.424418 g / cm^3
# Si number density = 24.299484 Si / 1000 Ang^3
#
#
#
# Elastic Constant Matrix: (Units=GPa)
#
#
# Indices 1 2 3 4 5 6 
#
# 1 38.0346 7.9862 28.8496 -5.7459 -6.7362 11.3121
# 2 7.9862 72.9580 53.8364 -4.4339 -3.1323 -0.0147
# 3 28.8496 53.8364 173.5752 21.3626 -3.1172 12.4268
# 4 -5.7459 -4.4339 21.3626 42.1570 7.4101 -3.2239
# 5 -6.7362 -3.1323 -3.1172 7.4101 34.4361 4.7778
# 6 11.3121 -0.0147 12.4268 -3.2239 4.7778 29.9169
#
#
#
# Elastic Compliance Matrix: (Units=1/GPa)
#
#
# Indices 1 2 3 4 5 6 
#
# 1 0.036372 0.001301 -0.006250 0.006152 0.006954 -0.011603
# 2 0.001301 0.019212 -0.007171 0.006152 -0.000418 0.003226
# 3 -0.006250 -0.007171 0.010114 -0.007110 0.000953 -0.002760
# 4 0.006152 0.006152 -0.007110 0.030246 -0.006063 0.004858
# 5 0.006954 -0.000418 0.000953 -0.006063 0.032994 -0.008948
# 6 -0.011603 0.003226 -0.002760 0.004858 -0.008948 0.040914
#
#
# Mechanical properties :
#
#
# Convention : Reuss Voigt Hill
#
# Bulk Modulus (GPa) = 24.12124 51.76802 37.94463
# Shear Modulus (GPa) = 24.04881 34.22837 29.13859
#
# Velocity S-wave (km/s) = 3.14934 3.75721 3.46662
# Velocity P-wave (km/s) = 4.81380 6.33818 5.62784
#
# Compressibility (1/GPa) = 0.04145723
#
# Stress axis : x y z
#
# Youngs Moduli (GPa) = 27.49402 52.05098 98.87486
#
# Poissons Ratio (x) = -0.06771 0.61799
# Poissons Ratio (y) = -0.03576 0.70899
# Poissons Ratio (z) = 0.17184 0.37324
#
# Static dielectric constant tensor:
#      x y z
#    x 4.228030 0.214260 0.258880 
#    y 0.214260 4.334590 -0.098410 
#    z 0.258880 -0.098410 4.429990 
# 
# 
# High freq. dielectric constant tensor:
#      x y z
#    x 1.972570 -0.005320 0.003950 
#    y -0.005320 1.959350 0.008090 
#    z 0.003950 0.008090 1.960150 
# 
# From -- ./inp_files/185242.got.cif
#   From: 2010.06.25/outbox.cif.g09.slc.cpg/sg2_93_cif.got.tgz:185242.got - 2010.06.27 13:26:56.
