data_PCOD8015715
_publ_section_title
;
Structure prediction by ZEFSAII (Michael W. Deem and Ramdas Pophale) SiO2 
 PCOD8015715
Probable space group: P -1
;
_chemical_formula_sum "Si O2"
_cell_formula_units_Z 12
_cell_length_a 9.492428
_cell_length_b 14.603964
_cell_length_c 19.470549
_cell_angle_alpha 153.235665
_cell_angle_beta 27.011183
_cell_angle_gamma 138.025278
_cell_volume 533.866835
_symmetry_space_group_name_H-M "P -1"
_symmetry_group_IT_number 2
_symmetry_cell_setting 'triclinic'
loop_
_space_group_symop_operation_xyz
x,y,z
-x,-y,-z
loop_
_atom_site_type_symbol
_atom_site_label
_atom_site_fract_x
_atom_site_fract_y
_atom_site_fract_z
Si Si1 0.272145 0.835690 0.811285
Si Si2 0.713929 0.200912 0.739288
Si Si3 0.389753 0.833850 0.089602
Si Si4 0.694091 0.512063 0.188541
Si Si5 0.629652 0.957254 0.491369
Si Si6 0.835629 0.510545 0.277716
O O1 0.518817 0.691921 0.554839
O O2 0.115125 0.690230 0.829348
O O3 0.458757 0.974521 0.868405
O O4 0.000000 0.000000 0.000000
O O5 0.511473 0.244651 0.927339
O O6 0.510099 0.146140 0.725885
O O7 0.849259 0.399967 0.792778
O O8 0.000000 0.000000 0.500000
O O9 0.522008 0.631803 0.847126
O O10 0.011695 0.913075 0.294363
O O11 0.804491 0.427564 0.159323
O O12 0.507467 0.758088 0.438380
O O13 0.000000 0.500000 0.000000
O O14 0.500000 0.000000 0.500000
#
# Coordination Sequence:
#
# PCOD8015715 Si02
#       6
#     2   2   2   2   2   2
#     4  11  25  43  65  94 130 180 224 254 320 401
#     4  10  16  37  68  87 120 175 210 271 331 367
#     4  10  20  41  63  87 135 161 215 270 314 390
#     4  10  19  38  63  94 127 164 209 274 334 372
#     4  10  19  33  60  96 125 158 211 269 325 375
#     4  11  21  43  69  91 133 173 212 278 321 380
#
# _framework density 22.477512999999998
#
# number of rings (size 3 to 8) (size 9 to 14) (size 15 to 20)
#    0.000    1.667    8.333    0.000    0.000    2.000 
#   12.000    2.500    0.000    0.000    0.000    0.000 
#    0.000    0.000    0.000    0.000    0.000    0.000 
#
# Total GULP energy -148723.430036 kJ/mol
# GULP energy per Si atom -12393.619170 kJ/mol
# Density = 2.242635 g / cm^3
# Si number density = 22.477513 Si / 1000 Ang^3
#
#
#
# Elastic Constant Matrix: (Units=GPa)
#
#
# Indices 1 2 3 4 5 6 
#
# 1 183.4442 49.2524 55.3838 18.7826 38.2113 -13.5991
# 2 49.2524 123.0877 46.4275 38.4226 15.8100 -2.8845
# 3 55.3838 46.4275 68.1577 25.6840 23.6030 2.3558
# 4 18.7826 38.4226 25.6840 36.0490 6.6116 9.0908
# 5 38.2113 15.8100 23.6030 6.6116 50.4384 6.7310
# 6 -13.5991 -2.8845 2.3558 9.0908 6.7310 35.6243
#
#
#
# Elastic Compliance Matrix: (Units=1/GPa)
#
#
# Indices 1 2 3 4 5 6 
#
# 1 0.008380 -0.000735 -0.004737 -0.000511 -0.004424 0.004419
# 2 -0.000735 0.014180 -0.004075 -0.012815 -0.000912 0.004580
# 3 -0.004737 -0.004075 0.028210 -0.012136 -0.006795 0.000377
# 4 -0.000511 -0.012815 -0.012136 0.053146 0.005113 -0.014958
# 5 -0.004424 -0.000912 -0.006795 0.005113 0.027004 -0.007720
# 6 0.004419 0.004580 0.000377 -0.014958 -0.007720 0.035379
#
#
# Mechanical properties :
#
#
# Convention : Reuss Voigt Hill
#
# Bulk Modulus (GPa) = 31.56950 75.20189 53.38569
# Shear Modulus (GPa) = 25.51620 39.33072 32.42346
#
# Velocity S-wave (km/s) = 3.37291 4.18758 3.80213
# Velocity P-wave (km/s) = 5.40778 7.54388 6.56332
#
# Compressibility (1/GPa) = 0.03167615
#
# Stress axis : x y z
#
# Youngs Moduli (GPa) = 119.32792 70.51968 35.44807
#
# Poissons Ratio (x) = 0.05185 0.16792
# Poissons Ratio (y) = 0.08774 0.14446
# Poissons Ratio (z) = 0.56525 0.28738
#
# Static dielectric constant tensor:
#      x y z
#    x 4.805660 0.195680 1.091970 
#    y 0.195680 4.270630 0.439810 
#    z 1.091970 0.439810 4.767890 
# 
# 
# High freq. dielectric constant tensor:
#      x y z
#    x 1.886040 -0.002790 0.025960 
#    y -0.002790 1.875550 0.025790 
#    z 0.025960 0.025790 1.878770 
# 
# From -- ./inp_files/242381.got.cif
#   From: 2010.06.25/outbox.cif.g09.slc.cpg/sg2_122_cif.got.tgz:242381.got - 2010.06.27 13:26:56.
