data_PCOD8015644
_publ_section_title
;
Structure prediction by ZEFSAII (Michael W. Deem and Ramdas Pophale) SiO2 
 PCOD8015644
Probable space group: P -1
;
_chemical_formula_sum "Si O2"
_cell_formula_units_Z 16
_cell_length_a 8.686749
_cell_length_b 12.189817
_cell_length_c 9.407312
_cell_angle_alpha 46.603096
_cell_angle_beta 88.035712
_cell_angle_gamma 89.351460
_cell_volume 723.278527
_symmetry_space_group_name_H-M "P -1"
_symmetry_group_IT_number 2
_symmetry_cell_setting 'triclinic'
loop_
_space_group_symop_operation_xyz
x,y,z
-x,-y,-z
loop_
_atom_site_type_symbol
_atom_site_label
_atom_site_fract_x
_atom_site_fract_y
_atom_site_fract_z
Si Si1 0.057968 0.151534 0.791278
Si Si2 0.274318 0.383254 0.697991
Si Si3 0.740229 0.535058 0.692869
Si Si4 0.531670 0.262046 0.991426
Si Si5 0.025982 0.829507 0.697195
Si Si6 0.310223 0.225210 0.290528
Si Si7 0.083801 0.638159 0.599176
Si Si8 0.261949 0.982550 0.724830
O O1 0.135276 0.259861 0.809814
O O2 0.920549 0.239917 0.638694
O O3 0.184821 0.115059 0.699801
O O4 0.000000 0.000000 0.000000
O O5 0.316220 0.438585 0.489692
O O6 0.224661 0.525548 0.669707
O O7 0.422567 0.302791 0.828356
O O8 0.665994 0.658943 0.685339
O O9 0.925465 0.540045 0.691274
O O10 0.677016 0.375290 0.891975
O O11 0.442186 0.262605 0.141913
O O12 0.600594 0.093553 0.122609
O O13 0.109309 0.728346 0.664709
O O14 0.138535 0.845574 0.815001
O O15 0.856742 0.756454 0.798856
O O16 0.000000 0.000000 0.500000
O O17 0.323389 0.057969 0.508655
#
# Coordination Sequence:
#
# PCOD8015644 Si02
#       8
#     2   2   2   2   2   2   2   2
#     4  11  23  40  71 100 124 167 224 274 326 382
#     4  11  25  45  64  98 135 170 218 268 328 388
#     4  10  21  45  64  91 132 173 215 267 324 381
#     4  12  27  37  64  96 135 178 216 257 319 407
#     4   9  18  39  69  94 121 160 213 270 325 371
#     4  10  21  44  66  92 131 170 219 271 323 380
#     4  10  21  42  73  93 126 168 214 282 323 373
#     4  11  23  43  67  95 134 169 212 277 329 379
#
# _framework density 22.121492
#
# number of rings (size 3 to 8) (size 9 to 14) (size 15 to 20)
#    0.000    1.500    5.000    2.625    5.250    2.500 
#    0.000    2.500    0.000    0.000    0.000    0.000 
#    0.000    0.000    0.000    0.000    0.000    0.000 
#
# Total GULP energy -198354.268949 kJ/mol
# GULP energy per Si atom -12397.141809 kJ/mol
# Density = 2.207114 g / cm^3
# Si number density = 22.121492 Si / 1000 Ang^3
#
#
#
# Elastic Constant Matrix: (Units=GPa)
#
#
# Indices 1 2 3 4 5 6 
#
# 1 43.3935 12.3247 37.1594 -0.9355 17.2278 -7.2958
# 2 12.3247 99.5174 12.2915 -0.9557 13.3053 -7.9161
# 3 37.1594 12.2915 86.4979 -11.5555 -9.2840 -5.0620
# 4 -0.9355 -0.9557 -11.5555 24.4515 -0.6436 -5.0023
# 5 17.2278 13.3053 -9.2840 -0.6436 49.0022 -8.1167
# 6 -7.2958 -7.9161 -5.0620 -5.0023 -8.1167 16.8071
#
#
#
# Elastic Compliance Matrix: (Units=1/GPa)
#
#
# Indices 1 2 3 4 5 6 
#
# 1 0.058764 -0.000197 -0.029721 -0.012502 -0.026403 -0.000007
# 2 -0.000197 0.010881 -0.001492 0.000349 -0.002593 0.003441
# 3 -0.029721 -0.001492 0.028874 0.014566 0.017849 0.008047
# 4 -0.012502 0.000349 0.014566 0.051662 0.011022 0.019823
# 5 -0.026403 -0.002593 0.017849 0.011022 0.036145 0.013429
# 6 -0.000007 0.003441 0.008047 0.019823 0.013429 0.075925
#
#
# Mechanical properties :
#
#
# Convention : Reuss Voigt Hill
#
# Bulk Modulus (GPa) = 28.01293 39.21777 33.61535
# Shear Modulus (GPa) = 14.83811 29.22773 22.03292
#
# Velocity S-wave (km/s) = 2.59270 3.63883 3.15936
# Velocity P-wave (km/s) = 4.65334 5.95160 5.34206
#
# Compressibility (1/GPa) = 0.03569780
#
# Stress axis : x y z
#
# Youngs Moduli (GPa) = 17.01731 91.90357 34.63357
#
# Poissons Ratio (x) = 0.01814 1.02935
# Poissons Ratio (y) = 0.00336 0.05167
# Poissons Ratio (z) = 0.50577 0.13710
#
# Static dielectric constant tensor:
#      x y z
#    x 4.064090 0.158530 0.041940 
#    y 0.158530 4.056840 -0.022690 
#    z 0.041940 -0.022690 4.018450 
# 
# 
# High freq. dielectric constant tensor:
#      x y z
#    x 1.852420 -0.000880 -0.000770 
#    y -0.000880 1.872510 -0.008740 
#    z -0.000770 -0.008740 1.872320 
# 
# From -- ./inp_files/184238.got.cif
#   From: 2010.06.25/outbox.cif.g09.slc.cpg/sg2_93_cif.got.tgz:184238.got - 2010.06.27 13:26:56.
