data_PCOD8015766
_publ_section_title
;
Structure prediction by ZEFSAII (Michael W. Deem and Ramdas Pophale) SiO2 
 PCOD8015766
Probable space group: P -1
;
_chemical_formula_sum "Si O2"
_cell_formula_units_Z 12
_cell_length_a 14.635710
_cell_length_b 5.707845
_cell_length_c 11.592281
_cell_angle_alpha 125.194729
_cell_angle_beta 139.220621
_cell_angle_gamma 72.917387
_cell_volume 498.073643
_symmetry_space_group_name_H-M "P -1"
_symmetry_group_IT_number 2
_symmetry_cell_setting 'triclinic'
loop_
_space_group_symop_operation_xyz
x,y,z
-x,-y,-z
loop_
_atom_site_type_symbol
_atom_site_label
_atom_site_fract_x
_atom_site_fract_y
_atom_site_fract_z
Si Si1 0.360533 0.342811 0.750940
Si Si2 0.949304 0.799817 0.509365
Si Si3 0.002367 0.620690 0.165449
Si Si4 0.539722 0.158200 0.417131
Si Si5 0.273531 0.856278 0.199568
Si Si6 0.277174 0.451003 0.461541
O O1 0.224358 0.301983 0.693660
O O2 0.337195 0.533435 0.670984
O O3 0.376159 0.031422 0.631434
O O4 0.500000 0.500000 0.000000
O O5 0.000000 0.500000 0.500000
O O6 0.000450 0.032495 0.731920
O O7 0.000000 0.000000 0.500000
O O8 0.148951 0.605761 0.364304
O O9 0.000000 0.500000 0.000000
O O10 0.861224 0.420400 0.041443
O O11 0.614052 0.243316 0.636781
O O12 0.582897 0.461495 0.468779
O O13 0.367848 0.991842 0.214174
O O14 0.210661 0.099636 0.275494
#
# Coordination Sequence:
#
# PCOD8015766 Si02
#       6
#     2   2   2   2   2   2
#     4  11  26  49  70  98 149 207 259 311 388 465
#     4  12  29  54  78 115 161 204 264 330 389 477
#     4  12  23  47  78 111 151 201 258 319 397 462
#     4  10  21  43  65 107 151 185 253 316 375 460
#     4  10  22  38  71 111 149 187 249 314 388 454
#     4  11  21  44  72 107 150 197 251 328 382 461
#
# _framework density 24.092822999999999
#
# number of rings (size 3 to 8) (size 9 to 14) (size 15 to 20)
#    0.000    1.000    3.333    3.000    2.333    2.000 
#    0.000    0.000    0.000    0.000    0.000    0.000 
#    0.000    0.000    0.000    0.000    0.000    0.000 
#
# Total GULP energy -148708.226539 kJ/mol
# GULP energy per Si atom -12392.352212 kJ/mol
# Density = 2.403799 g / cm^3
# Si number density = 24.092823 Si / 1000 Ang^3
#
#
#
# Elastic Constant Matrix: (Units=GPa)
#
#
# Indices 1 2 3 4 5 6 
#
# 1 139.8028 47.0146 62.4585 0.5691 31.3432 15.2149
# 2 47.0146 135.7309 63.0657 13.7730 -0.4872 -5.4977
# 3 62.4585 63.0657 153.9229 3.1332 24.9166 3.4418
# 4 0.5691 13.7730 3.1332 34.3543 3.1778 -6.3974
# 5 31.3432 -0.4872 24.9166 3.1778 51.2179 3.9395
# 6 15.2149 -5.4977 3.4418 -6.3974 3.9395 44.4360
#
#
#
# Elastic Compliance Matrix: (Units=1/GPa)
#
#
# Indices 1 2 3 4 5 6 
#
# 1 0.010659 -0.002918 -0.002223 0.001087 -0.005289 -0.003213
# 2 -0.002918 0.010589 -0.003730 -0.003893 0.003812 0.001700
# 3 -0.002223 -0.003730 0.009447 0.000980 -0.003332 0.000005
# 4 0.001087 -0.003893 0.000980 0.031611 -0.003442 0.003926
# 5 -0.005289 0.003812 -0.003332 -0.003442 0.024642 -0.000140
# 6 -0.003213 0.001700 0.000005 0.003926 -0.000140 0.024392
#
#
# Mechanical properties :
#
#
# Convention : Reuss Voigt Hill
#
# Bulk Modulus (GPa) = 77.21791 86.05936 81.63863
# Shear Modulus (GPa) = 37.48086 43.12948 40.30517
#
# Velocity S-wave (km/s) = 3.94850 4.23559 4.09456
# Velocity P-wave (km/s) = 7.27374 7.72773 7.50417
#
# Compressibility (1/GPa) = 0.01295036
#
# Stress axis : x y z
#
# Youngs Moduli (GPa) = 93.81961 94.43622 105.85773
#
# Poissons Ratio (x) = 0.27559 0.23537
# Poissons Ratio (y) = 0.27380 0.39488
# Poissons Ratio (z) = 0.20861 0.35228
#
# Static dielectric constant tensor:
#      x y z
#    x 4.679180 0.110470 0.149330 
#    y 0.110470 4.880900 0.338990 
#    z 0.149330 0.338990 4.406690 
# 
# 
# High freq. dielectric constant tensor:
#      x y z
#    x 1.974470 -0.001450 0.017570 
#    y -0.001450 1.959580 0.015710 
#    z 0.017570 0.015710 1.937750 
# 
# From -- ./inp_files/26933.got.cif
#   From: 2010.06.25/outbox.cif.g09.slc.cpg/sg2_14_cif.got.tgz:26933.got - 2010.06.27 13:26:56.
