data_PCOD8015932
_publ_section_title
;
Structure prediction by ZEFSAII (Michael W. Deem and Ramdas Pophale) SiO2 
 PCOD8015932
Probable space group: P -1
;
_chemical_formula_sum "Si O2"
_cell_formula_units_Z 16
_cell_length_a 8.650185
_cell_length_b 12.648721
_cell_length_c 11.041719
_cell_angle_alpha 87.853867
_cell_angle_beta 130.425852
_cell_angle_gamma 119.684753
_cell_volume 721.736524
_symmetry_space_group_name_H-M "P -1"
_symmetry_group_IT_number 2
_symmetry_cell_setting 'triclinic'
loop_
_space_group_symop_operation_xyz
x,y,z
-x,-y,-z
loop_
_atom_site_type_symbol
_atom_site_label
_atom_site_fract_x
_atom_site_fract_y
_atom_site_fract_z
Si Si1 0.838853 0.229462 0.184614
Si Si2 0.562024 0.755209 0.653964
Si Si3 0.937518 0.860095 0.363861
Si Si4 0.950355 0.490685 0.614853
Si Si5 0.166057 0.146458 0.434835
Si Si6 0.799614 0.628130 0.131895
Si Si7 0.957118 0.204115 0.990299
Si Si8 0.445644 0.920212 0.727445
O O1 0.815171 0.224146 0.026319
O O2 0.593057 0.107163 0.144394
O O3 0.899408 0.367455 0.250102
O O4 0.076656 0.229820 0.333347
O O5 0.360388 0.594601 0.533869
O O6 0.606765 0.818790 0.539911
O O7 0.421765 0.797046 0.662737
O O8 0.823815 0.803305 0.849028
O O9 0.218394 0.918664 0.556912
O O10 0.742701 0.802108 0.382992
O O11 0.831724 0.750497 0.211120
O O12 0.948784 0.984519 0.318469
O O13 0.000000 0.500000 0.500000
O O14 0.027380 0.405220 0.719054
O O15 0.500000 0.500000 0.000000
O O16 0.904700 0.677543 0.045639
O O17 0.722953 0.058000 0.824691
#
# Coordination Sequence:
#
# PCOD8015932 Si02
#       8
#     2   2   2   2   2   2   2   2
#     4  10  23  44  66  98 134 178 222 270 329 400
#     4  11  22  40  70  96 130 173 224 270 327 397
#     4  10  21  43  67  96 134 175 220 273 334 389
#     4  12  23  45  72  93 130 182 224 262 329 403
#     4   9  21  39  66 102 125 171 222 277 327 384
#     4  12  27  45  67  99 139 175 220 276 336 393
#     4  11  26  41  64 103 136 172 221 278 336 383
#     4  11  21  41  72  97 135 173 225 276 329 395
#
# _framework density 22.168754
#
# number of rings (size 3 to 8) (size 9 to 14) (size 15 to 20)
#    0.000    1.250    2.500    3.000    1.750    5.500 
#    6.750    0.000    0.000    0.000    0.000    0.000 
#    0.000    0.000    0.000    0.000    0.000    0.000 
#
# Total GULP energy -198238.234417 kJ/mol
# GULP energy per Si atom -12389.889651 kJ/mol
# Density = 2.211830 g / cm^3
# Si number density = 22.168754 Si / 1000 Ang^3
#
#
#
# Elastic Constant Matrix: (Units=GPa)
#
#
# Indices 1 2 3 4 5 6 
#
# 1 116.2710 43.2306 27.1504 -9.8889 -21.4370 26.4036
# 2 43.2306 90.8111 18.6981 2.0400 -14.0570 21.4036
# 3 27.1504 18.6981 66.8404 10.0176 4.6030 17.0035
# 4 -9.8889 2.0400 10.0176 30.3799 9.4968 -4.1924
# 5 -21.4370 -14.0570 4.6030 9.4968 35.7624 1.9768
# 6 26.4036 21.4036 17.0035 -4.1924 1.9768 55.1515
#
#
#
# Elastic Compliance Matrix: (Units=1/GPa)
#
#
# Indices 1 2 3 4 5 6 
#
# 1 0.013273 -0.003676 -0.004439 0.003568 0.006329 -0.003514
# 2 -0.003676 0.014882 -0.001405 -0.003881 0.005082 -0.004059
# 3 -0.004439 -0.001405 0.019426 -0.007143 -0.003611 -0.003732
# 4 0.003568 -0.003881 -0.007143 0.040410 -0.009498 0.005413
# 5 0.006329 0.005082 -0.003611 -0.009498 0.037069 -0.005940
# 6 -0.003514 -0.004059 -0.003732 0.005413 -0.005940 0.023165
#
#
# Mechanical properties :
#
#
# Convention : Reuss Voigt Hill
#
# Bulk Modulus (GPa) = 35.04077 50.23117 42.63597
# Shear Modulus (GPa) = 28.28395 36.58165 32.43280
#
# Velocity S-wave (km/s) = 3.57578 4.06660 3.82906
# Velocity P-wave (km/s) = 5.73489 6.69010 6.23082
#
# Compressibility (1/GPa) = 0.02853818
#
# Stress axis : x y z
#
# Youngs Moduli (GPa) = 75.34337 67.19532 51.47766
#
# Poissons Ratio (x) = 0.24704 0.22853
# Poissons Ratio (y) = 0.27700 0.07234
# Poissons Ratio (z) = 0.33447 0.09443
#
# Static dielectric constant tensor:
#      x y z
#    x 4.472040 0.288090 -0.254040 
#    y 0.288090 4.470930 0.113690 
#    z -0.254040 0.113690 3.792910 
# 
# 
# High freq. dielectric constant tensor:
#      x y z
#    x 1.892630 0.011820 -0.013170 
#    y 0.011820 1.877640 -0.000040 
#    z -0.013170 -0.000040 1.851470 
# 
# From -- ./inp_files/207416.got.cif
#   From: 2010.06.25/outbox.cif.g09.slc.cpg/sg2_104_cif.got.tgz:207416.got - 2010.06.27 13:26:56.
