data_PCOD8015477
_publ_section_title
;
Structure prediction by ZEFSAII (Michael W. Deem and Ramdas Pophale) SiO2 
 PCOD8015477
Probable space group: P -1
;
_chemical_formula_sum "Si O2"
_cell_formula_units_Z 16
_cell_length_a 7.458747
_cell_length_b 6.319980
_cell_length_c 19.591825
_cell_angle_alpha 82.252707
_cell_angle_beta 63.227810
_cell_angle_gamma 121.021661
_cell_volume 620.041371
_symmetry_space_group_name_H-M "P -1"
_symmetry_group_IT_number 2
_symmetry_cell_setting 'triclinic'
loop_
_space_group_symop_operation_xyz
x,y,z
-x,-y,-z
loop_
_atom_site_type_symbol
_atom_site_label
_atom_site_fract_x
_atom_site_fract_y
_atom_site_fract_z
Si Si1 0.897839 0.740022 0.710077
Si Si2 0.691617 0.642215 0.893548
Si Si3 0.774846 0.293286 0.664660
Si Si4 0.340677 0.742296 0.687291
Si Si5 0.246583 0.049959 0.987263
Si Si6 0.552916 0.965991 0.854804
Si Si7 0.735329 0.599746 0.406473
Si Si8 0.935868 0.462783 0.122124
O O1 0.096245 0.693071 0.699502
O O2 0.686727 0.633587 0.810992
O O3 0.749913 0.531101 0.677213
O O4 0.068812 0.065758 0.651076
O O5 0.406583 0.350243 0.986071
O O6 0.699933 0.909015 0.886424
O O7 0.949604 0.697248 0.875542
O O8 0.079463 0.450020 0.586043
O O9 0.582424 0.076962 0.646208
O O10 0.713991 0.113796 0.751671
O O11 0.401571 0.589467 0.631239
O O12 0.241039 0.574874 0.783006
O O13 0.493589 0.154274 0.891342
O O14 0.000000 0.000000 0.000000
O O15 0.170568 0.791208 0.055348
O O16 0.252296 0.673472 0.905589
O O17 0.500000 0.500000 0.500000
#
# Coordination Sequence:
#
# PCOD8015477 Si02
#       8
#     2   2   2   2   2   2   2   2
#     4  10  21  43  67  98 130 180 230 279 353 416
#     4  11  22  41  65  92 131 184 231 291 346 405
#     4  10  21  42  69  95 135 181 223 283 346 419
#     4   9  23  43  65 100 135 179 233 280 340 427
#     4  12  24  41  62  96 140 181 235 294 341 401
#     4  11  22  43  64  91 135 182 235 283 349 411
#     4  11  24  43  70 102 137 173 222 287 350 423
#     4  10  23  42  62  98 133 177 240 289 342 405
#
# _framework density 25.804729999999999
#
# number of rings (size 3 to 8) (size 9 to 14) (size 15 to 20)
#    0.000    1.500    3.750    0.750    0.000    4.000 
#    9.000    1.250    0.000    0.000    0.000    0.000 
#    0.000    0.000    0.000    0.000    0.000    0.000 
#
# Total GULP energy -198211.537743 kJ/mol
# GULP energy per Si atom -12388.221109 kJ/mol
# Density = 2.574600 g / cm^3
# Si number density = 25.804730 Si / 1000 Ang^3
#
#
#
# Elastic Constant Matrix: (Units=GPa)
#
#
# Indices 1 2 3 4 5 6 
#
# 1 71.7406 19.5141 9.1470 1.8359 -5.3908 -10.5330
# 2 19.5141 186.2053 38.3556 -0.2494 4.6856 20.8937
# 3 9.1470 38.3556 93.6326 13.3431 -20.5310 -0.3210
# 4 1.8359 -0.2494 13.3431 32.7025 -3.3226 -4.9753
# 5 -5.3908 4.6856 -20.5310 -3.3226 28.9905 -2.6685
# 6 -10.5330 20.8937 -0.3210 -4.9753 -2.6685 42.6834
#
#
#
# Elastic Compliance Matrix: (Units=1/GPa)
#
#
# Indices 1 2 3 4 5 6 
#
# 1 0.015629 -0.002405 0.000337 0.000186 0.004043 0.005311
# 2 -0.002405 0.006980 -0.003718 0.000598 -0.004531 -0.004252
# 3 0.000337 -0.003718 0.015311 -0.004834 0.011151 0.002152
# 4 0.000186 0.000598 -0.004834 0.033162 0.000649 0.003623
# 5 0.004043 -0.004531 0.011151 0.000649 0.044517 0.006158
# 6 0.005311 -0.004252 0.002152 0.003623 0.006158 0.027644
#
#
# Mechanical properties :
#
#
# Convention : Reuss Voigt Hill
#
# Bulk Modulus (GPa) = 37.95206 53.95690 45.95448
# Shear Modulus (GPa) = 30.56277 39.84607 35.20442
#
# Velocity S-wave (km/s) = 3.44522 3.93382 3.69760
# Velocity P-wave (km/s) = 5.52860 6.44890 6.00640
#
# Compressibility (1/GPa) = 0.02634903
#
# Stress axis : x y z
#
# Youngs Moduli (GPa) = 63.98323 143.26412 65.31057
#
# Poissons Ratio (x) = 0.34450 -0.02198
# Poissons Ratio (y) = 0.15386 0.24281
# Poissons Ratio (z) = -0.02153 0.53262
#
# Static dielectric constant tensor:
#      x y z
#    x 4.408500 0.098500 -0.176830 
#    y 0.098500 5.781030 0.410480 
#    z -0.176830 0.410480 4.630930 
# 
# 
# High freq. dielectric constant tensor:
#      x y z
#    x 2.015390 0.003290 -0.014880 
#    y 0.003290 2.074780 0.016500 
#    z -0.014880 0.016500 2.016810 
# 
# From -- ./inp_files/605861.got.cif
#   From: 2010.06.25/outbox.cif.g09.slc.cpg/sg2_303_cif.got.tgz:605861.got - 2010.06.27 13:26:56.
