data_PCOD8015259
_publ_section_title
;
Structure prediction by ZEFSAII (Michael W. Deem and Ramdas Pophale) SiO2 
 PCOD8015259
Probable space group: P -1
;
_chemical_formula_sum "Si O2"
_cell_formula_units_Z 16
_cell_length_a 12.517797
_cell_length_b 7.116507
_cell_length_c 23.044464
_cell_angle_alpha 89.475167
_cell_angle_beta 151.496895
_cell_angle_gamma 106.878143
_cell_volume 789.809709
_symmetry_space_group_name_H-M "P -1"
_symmetry_group_IT_number 2
_symmetry_cell_setting 'triclinic'
loop_
_space_group_symop_operation_xyz
x,y,z
-x,-y,-z
loop_
_atom_site_type_symbol
_atom_site_label
_atom_site_fract_x
_atom_site_fract_y
_atom_site_fract_z
Si Si1 0.291679 0.453375 0.950255
Si Si2 0.848764 0.546012 0.716198
Si Si3 0.120730 0.061169 0.217406
Si Si4 0.761987 0.821812 0.250834
Si Si5 0.293043 0.964162 0.673392
Si Si6 0.746290 0.829993 0.595065
Si Si7 0.750373 0.644459 0.361537
Si Si8 0.291935 0.120556 0.170479
O O1 0.060429 0.479902 0.815028
O O2 0.500000 0.500000 0.000000
O O3 0.462814 0.647340 0.079952
O O4 0.163438 0.199124 0.916211
O O5 0.929398 0.736140 0.805387
O O6 0.844444 0.660870 0.652821
O O7 0.538322 0.305961 0.577158
O O8 0.290794 0.094028 0.358197
O O9 0.274968 0.082128 0.231792
O O10 0.805424 0.673507 0.318188
O O11 0.744190 0.012942 0.275655
O O12 0.013796 0.941079 0.325267
O O13 0.574902 0.995362 0.795094
O O14 0.028946 0.709298 0.526493
O O15 0.306460 0.169121 0.644267
O O16 0.480766 0.393978 0.248851
O O17 0.000000 0.000000 0.000000
#
# Coordination Sequence:
#
# PCOD8015259 Si02
#       8
#     2   2   2   2   2   2   2   2
#     4  12  23  42  62  96 127 167 205 255 318 381
#     4   9  23  42  63  94 130 163 204 256 324 368
#     4  10  24  40  63  95 128 161 211 253 317 369
#     4  10  21  42  67  90 129 160 213 257 312 371
#     4   9  23  43  64  94 120 171 216 256 304 364
#     4   9  20  45  63  97 119 169 207 255 322 364
#     4   9  22  44  64  90 121 173 208 258 310 354
#     4  12  25  41  63  97 130 164 213 254 311 382
#
# _framework density 20.258043000000001
#
# number of rings (size 3 to 8) (size 9 to 14) (size 15 to 20)
#    1.500    0.500    1.250    1.125    3.500    5.000 
#    4.500    0.000    0.000    0.000    0.000    0.000 
#    0.000    0.000    0.000    0.000    0.000    0.000 
#
# Total GULP energy -198224.871279 kJ/mol
# GULP energy per Si atom -12389.054455 kJ/mol
# Density = 2.021193 g / cm^3
# Si number density = 20.258043 Si / 1000 Ang^3
#
#
#
# Elastic Constant Matrix: (Units=GPa)
#
#
# Indices 1 2 3 4 5 6 
#
# 1 115.4490 35.6036 59.7770 5.3234 -6.3470 7.6971
# 2 35.6036 60.6318 51.6512 22.3814 4.0454 5.1231
# 3 59.7770 51.6512 160.1690 12.6716 0.9163 1.1965
# 4 5.3234 22.3814 12.6716 35.7978 1.4964 12.3223
# 5 -6.3470 4.0454 0.9163 1.4964 25.9424 1.2004
# 6 7.6971 5.1231 1.1965 12.3223 1.2004 32.3844
#
#
#
# Elastic Compliance Matrix: (Units=1/GPa)
#
#
# Indices 1 2 3 4 5 6 
#
# 1 0.012384 -0.006302 -0.002918 0.004197 0.004039 -0.003585
# 2 -0.006302 0.032709 -0.006755 -0.018160 -0.005527 0.003688
# 3 -0.002918 -0.006755 0.009427 0.000963 -0.000098 0.001051
# 4 0.004197 -0.018160 0.000963 0.043304 0.002007 -0.014712
# 5 0.004039 -0.005527 -0.000098 0.002007 0.040393 -0.002343
# 6 -0.003585 0.003688 0.001051 -0.014712 -0.002343 0.036794
#
#
# Mechanical properties :
#
#
# Convention : Reuss Voigt Hill
#
# Bulk Modulus (GPa) = 44.30640 70.03480 57.17060
# Shear Modulus (GPa) = 23.31176 31.43946 27.37561
#
# Velocity S-wave (km/s) = 3.39594 3.94375 3.68005
# Velocity P-wave (km/s) = 6.10696 7.44204 6.80731
#
# Compressibility (1/GPa) = 0.02257010
#
# Stress axis : x y z
#
# Youngs Moduli (GPa) = 80.75150 30.57271 106.07423
#
# Poissons Ratio (x) = 0.19266 0.30951
# Poissons Ratio (y) = 0.50888 0.71656
# Poissons Ratio (z) = 0.23562 0.20653
#
# Static dielectric constant tensor:
#      x y z
#    x 3.484240 -0.005530 -0.172470 
#    y -0.005530 3.554210 0.227920 
#    z -0.172470 0.227920 3.795610 
# 
# 
# High freq. dielectric constant tensor:
#      x y z
#    x 1.776460 -0.000490 -0.009950 
#    y -0.000490 1.781290 0.021850 
#    z -0.009950 0.021850 1.794770 
# 
# From -- ./inp_files/609609.got.cif
#   From: 2010.06.25/outbox.cif.g09.slc.cpg/sg2_305_cif.got.tgz:609609.got - 2010.06.27 13:26:56.
