data_PCOD8015083
_publ_section_title
;
Structure prediction by ZEFSAII (Michael W. Deem and Ramdas Pophale) SiO2 
 PCOD8015083
Probable space group: P -1
;
_chemical_formula_sum "Si O2"
_cell_formula_units_Z 14
_cell_length_a 13.449036
_cell_length_b 13.752175
_cell_length_c 6.950523
_cell_angle_alpha 82.188262
_cell_angle_beta 82.381600
_cell_angle_gamma 146.669641
_cell_volume 624.176430
_symmetry_space_group_name_H-M "P -1"
_symmetry_group_IT_number 2
_symmetry_cell_setting 'triclinic'
loop_
_space_group_symop_operation_xyz
x,y,z
-x,-y,-z
loop_
_atom_site_type_symbol
_atom_site_label
_atom_site_fract_x
_atom_site_fract_y
_atom_site_fract_z
Si Si1 0.787824 0.539044 0.394132
Si Si2 0.015950 0.545203 0.265237
Si Si3 0.675645 0.183632 0.187972
Si Si4 0.422187 0.095951 0.534509
Si Si5 0.228182 0.194948 0.184103
Si Si6 0.596054 0.550137 0.261234
Si Si7 0.973285 0.142074 0.460877
O O1 0.567539 0.300939 0.538234
O O2 0.766426 0.612830 0.236586
O O3 0.947567 0.599936 0.243885
O O4 0.868947 0.643953 0.553428
O O5 0.000000 0.500000 0.500000
O O6 0.869597 0.349946 0.235395
O O7 0.245885 0.732645 0.073624
O O8 0.515401 0.132008 0.300697
O O9 0.581866 0.995682 0.284954
O O10 0.203714 0.955040 0.584661
O O11 0.423160 0.355862 0.227109
O O12 0.087551 0.167944 0.278178
O O13 0.110700 0.992853 0.299452
O O14 0.298520 0.268203 0.924326
O O15 0.500000 0.500000 0.500000
#
# Coordination Sequence:
#
# PCOD8015083 Si02
#       7
#     2   2   2   2   2   2   2
#     4  11  23  40  66  96 127 171 215 261 321 378
#     4  10  21  42  65  96 128 166 217 262 315 387
#     4   9  21  42  66  90 129 176 200 268 331 366
#     4  10  21  42  67  94 132 165 217 264 318 386
#     4  10  24  42  68  91 133 173 208 271 321 372
#     4  11  22  46  64  94 132 167 217 266 319 382
#     4  11  22  43  65  99 126 171 217 262 321 383
#
# _framework density 22.429556000000002
#
# number of rings (size 3 to 8) (size 9 to 14) (size 15 to 20)
#    0.000    1.714    2.857    0.857    2.000    0.571 
#    7.714   10.000    0.000    0.000    0.000    0.000 
#    0.000    0.000    0.000    0.000    0.000    0.000 
#
# Total GULP energy -173595.889031 kJ/mol
# GULP energy per Si atom -12399.706359 kJ/mol
# Density = 2.237851 g / cm^3
# Si number density = 22.429556 Si / 1000 Ang^3
#
#
#
# Elastic Constant Matrix: (Units=GPa)
#
#
# Indices 1 2 3 4 5 6 
#
# 1 83.9765 25.5138 18.8730 3.7706 -9.6973 10.7469
# 2 25.5138 101.5038 18.6851 3.0329 6.6665 -3.6169
# 3 18.8730 18.6851 145.6711 -7.9598 5.5140 -1.5666
# 4 3.7706 3.0329 -7.9598 21.4565 2.5354 -0.9054
# 5 -9.6973 6.6665 5.5140 2.5354 22.6769 -7.8182
# 6 10.7469 -3.6169 -1.5666 -0.9054 -7.8182 37.8282
#
#
#
# Elastic Compliance Matrix: (Units=1/GPa)
#
#
# Indices 1 2 3 4 5 6 
#
# 1 0.014964 -0.003884 -0.001961 -0.003811 0.007312 -0.003284
# 2 -0.003884 0.011323 -0.000809 -0.000659 -0.004288 0.001251
# 3 -0.001961 -0.000809 0.007525 0.003586 -0.002723 0.000314
# 4 -0.003811 -0.000659 0.003586 0.049628 -0.007585 0.000788
# 5 0.007312 -0.004288 -0.002723 -0.007585 0.052798 0.008131
# 6 -0.003284 0.001251 0.000314 0.000788 0.008131 0.029200
#
#
# Mechanical properties :
#
#
# Convention : Reuss Voigt Hill
#
# Bulk Modulus (GPa) = 48.77080 50.81057 49.79068
# Shear Modulus (GPa) = 26.94224 34.26429 30.60326
#
# Velocity S-wave (km/s) = 3.46958 3.91274 3.69781
# Velocity P-wave (km/s) = 6.15157 6.56623 6.36228
#
# Compressibility (1/GPa) = 0.02050407
#
# Stress axis : x y z
#
# Youngs Moduli (GPa) = 66.82497 88.31617 132.88972
#
# Poissons Ratio (x) = 0.34301 0.26059
# Poissons Ratio (y) = 0.25954 0.10757
# Poissons Ratio (z) = 0.13104 0.07149
#
# Static dielectric constant tensor:
#      x y z
#    x 4.412390 0.005510 0.084250 
#    y 0.005510 4.145480 -0.239940 
#    z 0.084250 -0.239940 4.015080 
# 
# 
# High freq. dielectric constant tensor:
#      x y z
#    x 1.889070 0.002160 -0.001170 
#    y 0.002160 1.887060 -0.012390 
#    z -0.001170 -0.012390 1.865270 
# 
# From -- ./inp_files/98110.got.cif
#   From: 2010.06.25/outbox.cif.g09.slc.cpg/sg2_50_cif.got.tgz:98110.got - 2010.06.27 13:26:56.
