data_PCOD8015402
_publ_section_title
;
Structure prediction by ZEFSAII (Michael W. Deem and Ramdas Pophale) SiO2 
 PCOD8015402
Probable space group: P -1
;
_chemical_formula_sum "Si O2"
_cell_formula_units_Z 16
_cell_length_a 11.634151
_cell_length_b 11.795088
_cell_length_c 8.669602
_cell_angle_alpha 74.383923
_cell_angle_beta 125.244281
_cell_angle_gamma 131.416940
_cell_volume 716.223584
_symmetry_space_group_name_H-M "P -1"
_symmetry_group_IT_number 2
_symmetry_cell_setting 'triclinic'
loop_
_space_group_symop_operation_xyz
x,y,z
-x,-y,-z
loop_
_atom_site_type_symbol
_atom_site_label
_atom_site_fract_x
_atom_site_fract_y
_atom_site_fract_z
Si Si1 0.016297 0.761688 0.977216
Si Si2 0.668582 0.131366 0.290513
Si Si3 0.666403 0.198445 0.915598
Si Si4 0.328474 0.541789 0.076799
Si Si5 0.289578 0.363754 0.686325
Si Si6 0.910962 0.882626 0.615935
Si Si7 0.203941 0.561070 0.656635
Si Si8 0.943283 0.128707 0.692918
O O1 0.802762 0.607803 0.862422
O O2 0.049092 0.874011 0.824185
O O3 0.145268 0.717664 0.064113
O O4 0.075193 0.851537 0.150531
O O5 0.649299 0.252067 0.305228
O O6 0.848068 0.171695 0.491440
O O7 0.489566 0.955438 0.245369
O O8 0.699296 0.158475 0.122173
O O9 0.611697 0.306258 0.844516
O O10 0.501483 0.560059 0.143440
O O11 0.203245 0.503564 0.846537
O O12 0.248993 0.285577 0.515535
O O13 0.264522 0.492435 0.607847
O O14 0.157054 0.240049 0.762971
O O15 0.843959 0.948439 0.657550
O O16 0.000000 0.000000 0.500000
O O17 0.000000 0.500000 0.500000
#
# Coordination Sequence:
#
# PCOD8015402 Si02
#       8
#     2   2   2   2   2   2   2   2
#     4  12  24  42  66 100 136 175 222 288 344 395
#     4  10  21  42  68  97 130 181 235 266 329 407
#     4  10  23  42  67  99 132 182 230 276 331 398
#     4  11  24  41  68 100 140 176 228 276 333 398
#     4  11  22  43  69  96 136 181 226 269 330 406
#     4  10  24  42  68  91 128 174 224 274 341 407
#     4  11  21  39  69 102 134 177 224 274 325 399
#     4  11  22  42  67 100 135 173 225 280 342 391
#
# _framework density 22.339392
#
# number of rings (size 3 to 8) (size 9 to 14) (size 15 to 20)
#    0.000    1.250    2.500    3.375    1.750    6.000 
#    4.500    0.000    0.000    0.000    0.000    0.000 
#    0.000    0.000    0.000    0.000    0.000    0.000 
#
# Total GULP energy -198339.200149 kJ/mol
# GULP energy per Si atom -12396.200009 kJ/mol
# Density = 2.228855 g / cm^3
# Si number density = 22.339392 Si / 1000 Ang^3
#
#
#
# Elastic Constant Matrix: (Units=GPa)
#
#
# Indices 1 2 3 4 5 6 
#
# 1 141.1746 64.0918 48.3814 7.3553 20.8430 -19.9011
# 2 64.0918 127.5649 41.7959 13.2091 0.4503 -33.2209
# 3 48.3814 41.7959 104.2830 3.8532 12.3042 -3.2519
# 4 7.3553 13.2091 3.8532 27.2650 -7.0750 0.1196
# 5 20.8430 0.4503 12.3042 -7.0750 31.8082 3.9462
# 6 -19.9011 -33.2209 -3.2519 0.1196 3.9462 45.4847
#
#
#
# Elastic Compliance Matrix: (Units=1/GPa)
#
#
# Indices 1 2 3 4 5 6 
#
# 1 0.011317 -0.003822 -0.002681 -0.002715 -0.007251 0.002604
# 2 -0.003822 0.013328 -0.003354 -0.004558 0.001645 0.007691
# 3 -0.002681 -0.003354 0.012424 -0.000101 -0.002714 -0.002499
# 4 -0.002715 -0.004558 -0.000101 0.042799 0.012108 -0.005688
# 5 -0.007251 0.001645 -0.002714 0.012108 0.040619 -0.005721
# 6 0.002604 0.007691 -0.002499 -0.005688 -0.005721 0.029075
#
#
# Mechanical properties :
#
#
# Convention : Reuss Voigt Hill
#
# Bulk Modulus (GPa) = 57.62852 75.72895 66.67873
# Shear Modulus (GPa) = 28.56144 35.49516 32.02830
#
# Velocity S-wave (km/s) = 3.57952 3.99043 3.79055
# Velocity P-wave (km/s) = 6.55262 7.42996 7.00504
#
# Compressibility (1/GPa) = 0.01735252
#
# Stress axis : x y z
#
# Youngs Moduli (GPa) = 88.36428 75.03125 80.49236
#
# Poissons Ratio (x) = 0.28680 0.21582
# Poissons Ratio (y) = 0.33776 0.26998
# Poissons Ratio (z) = 0.23693 0.25167
#
# Static dielectric constant tensor:
#      x y z
#    x 4.007670 -0.588600 -0.086280 
#    y -0.588600 4.387450 0.198950 
#    z -0.086280 0.198950 3.956230 
# 
# 
# High freq. dielectric constant tensor:
#      x y z
#    x 1.866660 -0.033710 -0.000390 
#    y -0.033710 1.883450 0.011720 
#    z -0.000390 0.011720 1.877100 
# 
# From -- ./inp_files/262339.got.cif
#   From: 2010.06.25/outbox.cif.g09.slc.cpg/sg2_132_cif.got.tgz:262339.got - 2010.06.27 13:26:56.
