data_PCOD8015125
_publ_section_title
;
Structure prediction by ZEFSAII (Michael W. Deem and Ramdas Pophale) SiO2 
 PCOD8015125
Probable space group: P -1
;
_chemical_formula_sum "Si O2"
_cell_formula_units_Z 16
_cell_length_a 8.331893
_cell_length_b 22.666470
_cell_length_c 13.355459
_cell_angle_alpha 20.868193
_cell_angle_beta 54.509332
_cell_angle_gamma 53.827198
_cell_volume 721.567526
_symmetry_space_group_name_H-M "P -1"
_symmetry_group_IT_number 2
_symmetry_cell_setting 'triclinic'
loop_
_space_group_symop_operation_xyz
x,y,z
-x,-y,-z
loop_
_atom_site_type_symbol
_atom_site_label
_atom_site_fract_x
_atom_site_fract_y
_atom_site_fract_z
Si Si1 0.351310 0.469914 0.690692
Si Si2 0.987472 0.733393 0.435790
Si Si3 0.334766 0.127261 0.982533
Si Si4 0.396013 0.440988 0.366448
Si Si5 0.756391 0.214909 0.232951
Si Si6 0.560589 0.673584 0.679337
Si Si7 0.786022 0.037186 0.901543
Si Si8 0.804434 0.854619 0.773364
O O1 0.500000 0.500000 0.500000
O O2 0.421641 0.520457 0.693815
O O3 0.136175 0.581447 0.570456
O O4 0.332741 0.273067 0.017395
O O5 0.785442 0.669996 0.643541
O O6 0.096765 0.805317 0.376891
O O7 0.928938 0.875267 0.149220
O O8 0.270806 0.325588 0.660349
O O9 0.577230 0.073358 0.982211
O O10 0.235147 0.113260 0.146348
O O11 0.246731 0.997965 0.146985
O O12 0.465121 0.308119 0.460923
O O13 0.280711 0.619184 0.086444
O O14 0.590225 0.195160 0.409623
O O15 0.963441 0.221803 0.203872
O O16 0.762569 0.041634 0.441148
O O17 0.500000 0.500000 0.000000
#
# Coordination Sequence:
#
# PCOD8015125 Si02
#       8
#     2   2   2   2   2   2   2   2
#     4  12  24  40  64  99 136 164 213 270 326 381
#     4  11  21  38  62  95 130 165 213 266 324 378
#     4  11  21  41  69  99 132 161 215 275 325 388
#     4  11  22  42  67  96 127 170 213 268 329 374
#     4  10  25  45  65  90 130 180 215 259 325 388
#     4  10  21  42  66  88 127 172 215 261 318 381
#     4  10  22  36  64 102 127 158 210 276 333 370
#     4  11  24  43  65  93 132 176 217 258 321 394
#
# _framework density 22.173946999999998
#
# number of rings (size 3 to 8) (size 9 to 14) (size 15 to 20)
#    0.000    1.250    3.750    2.250    1.750    3.000 
#    0.000   10.625    0.000    0.000    0.000    0.000 
#    0.000    0.000    0.000    0.000    0.000    0.000 
#
# Total GULP energy -198251.440447 kJ/mol
# GULP energy per Si atom -12390.715028 kJ/mol
# Density = 2.212348 g / cm^3
# Si number density = 22.173947 Si / 1000 Ang^3
#
#
#
# Elastic Constant Matrix: (Units=GPa)
#
#
# Indices 1 2 3 4 5 6 
#
# 1 114.0665 52.9263 31.3826 -9.3480 -29.0297 -3.6442
# 2 52.9263 88.7035 21.0223 -6.3795 -4.0028 -25.0167
# 3 31.3826 21.0223 112.1313 -27.5395 -9.1980 -9.5590
# 4 -9.3480 -6.3795 -27.5395 32.0852 -6.9018 -1.2668
# 5 -29.0297 -4.0028 -9.1980 -6.9018 52.6403 -3.8993
# 6 -3.6442 -25.0167 -9.5590 -1.2668 -3.8993 31.0980
#
#
#
# Elastic Compliance Matrix: (Units=1/GPa)
#
#
# Indices 1 2 3 4 5 6 
#
# 1 0.015958 -0.010224 -0.001824 0.002452 0.007592 -0.005864
# 2 -0.010224 0.021900 0.000393 0.001829 -0.002457 0.016307
# 3 -0.001824 0.000393 0.012838 0.011433 0.003129 0.004907
# 4 0.002452 0.001829 0.011433 0.044526 0.009944 0.008333
# 5 0.007592 -0.002457 0.003129 0.009944 0.025101 0.003428
# 6 -0.005864 0.016307 0.004907 0.008333 0.003428 0.046865
#
#
# Mechanical properties :
#
#
# Convention : Reuss Voigt Hill
#
# Bulk Modulus (GPa) = 36.51501 58.39597 47.45549
# Shear Modulus (GPa) = 25.04658 37.13606 31.09132
#
# Velocity S-wave (km/s) = 3.36452 4.09682 3.74860
# Velocity P-wave (km/s) = 5.62109 6.98364 6.33908
#
# Compressibility (1/GPa) = 0.02738600
#
# Stress axis : x y z
#
# Youngs Moduli (GPa) = 62.66277 45.66117 77.89485
#
# Poissons Ratio (x) = 0.46685 0.14211
# Poissons Ratio (y) = 0.64068 -0.03064
# Poissons Ratio (z) = 0.11432 -0.01796
#
# Static dielectric constant tensor:
#      x y z
#    x 3.401010 -0.250530 -0.392010 
#    y -0.250530 1.698790 -0.777820 
#    z -0.392010 -0.777820 4.206990 
# 
# 
# High freq. dielectric constant tensor:
#      x y z
#    x 1.859580 -0.010610 -0.011670 
#    y -0.010610 1.859100 -0.021660 
#    z -0.011670 -0.021660 1.899190 
# 
# From -- ./inp_files/354433.got.cif
#   From: 2010.06.25/outbox.cif.g09.slc.cpg/sg2_178_cif.got.tgz:354433.got - 2010.06.27 13:26:56.
