data_PCOD8015271
_publ_section_title
;
Structure prediction by ZEFSAII (Michael W. Deem and Ramdas Pophale) SiO2 
 PCOD8015271
Probable space group: P -1
;
_chemical_formula_sum "Si O2"
_cell_formula_units_Z 16
_cell_length_a 11.828824
_cell_length_b 15.423142
_cell_length_c 7.898971
_cell_angle_alpha 86.834722
_cell_angle_beta 107.813910
_cell_angle_gamma 38.394971
_cell_volume 738.498404
_symmetry_space_group_name_H-M "P -1"
_symmetry_group_IT_number 2
_symmetry_cell_setting 'triclinic'
loop_
_space_group_symop_operation_xyz
x,y,z
-x,-y,-z
loop_
_atom_site_type_symbol
_atom_site_label
_atom_site_fract_x
_atom_site_fract_y
_atom_site_fract_z
Si Si1 0.399679 0.776704 0.385741
Si Si2 0.056246 0.357122 0.380779
Si Si3 0.518664 0.103588 0.750676
Si Si4 0.880168 0.736537 0.940934
Si Si5 0.876464 0.179803 0.568371
Si Si6 0.668555 0.164404 0.286119
Si Si7 0.841783 0.398050 0.588087
Si Si8 0.703757 0.695637 0.067264
O O1 0.361819 0.876093 0.221141
O O2 0.197390 0.831787 0.298717
O O3 0.410824 0.819566 0.567291
O O4 0.619767 0.589161 0.461245
O O5 0.004555 0.330123 0.522684
O O6 0.905078 0.536743 0.291692
O O7 0.313122 0.224083 0.514196
O O8 0.003117 0.340299 0.180825
O O9 0.432008 0.152298 0.897872
O O10 0.682701 0.925129 0.812515
O O11 0.790502 0.695222 0.945583
O O12 0.049685 0.662175 0.170645
O O13 0.758992 0.208059 0.344342
O O14 0.788252 0.330854 0.533318
O O15 0.139618 0.015292 0.683099
O O16 0.453321 0.288612 0.056828
#
# Coordination Sequence:
#
# PCOD8015271 Si02
#       8
#     2   2   2   2   2   2   2   2
#     4  10  21  42  67  92 131 176 215 265 332 380
#     4  12  26  42  66 101 136 175 214 273 335 393
#     4  12  24  42  65 101 136 172 218 274 331 394
#     4  12  27  40  69 102 135 172 220 271 332 401
#     4   9  22  41  71  93 131 180 217 273 329 383
#     4   9  21  40  69  94 125 179 219 268 326 386
#     4  12  23  45  68 100 135 173 221 269 330 396
#     4  12  22  44  65  99 136 172 220 268 335 396
#
# _framework density 21.665583999999999
#
# number of rings (size 3 to 8) (size 9 to 14) (size 15 to 20)
#    0.750    0.250    2.500    4.875    3.500    0.000 
#    0.000    4.375    0.000    0.000    0.000    0.000 
#    0.000    0.000    0.000    0.000    0.000    0.000 
#
# Total GULP energy -198324.557475 kJ/mol
# GULP energy per Si atom -12395.284842 kJ/mol
# Density = 2.161627 g / cm^3
# Si number density = 21.665584 Si / 1000 Ang^3
#
#
#
# Elastic Constant Matrix: (Units=GPa)
#
#
# Indices 1 2 3 4 5 6 
#
# 1 87.7341 27.0850 16.0749 -3.7291 -3.1986 11.5238
# 2 27.0850 82.3241 12.7886 -0.4117 -1.0546 -8.1476
# 3 16.0749 12.7886 54.5554 5.0112 1.8645 5.0412
# 4 -3.7291 -0.4117 5.0112 34.0951 -3.6436 -9.2018
# 5 -3.1986 -1.0546 1.8645 -3.6436 29.4207 7.2781
# 6 11.5238 -8.1476 5.0412 -9.2018 7.2781 28.9407
#
#
#
# Elastic Compliance Matrix: (Units=1/GPa)
#
#
# Indices 1 2 3 4 5 6 
#
# 1 0.014574 -0.005108 -0.002534 0.000224 0.003470 -0.007601
# 2 -0.005108 0.015033 -0.002868 0.001981 -0.001513 0.007776
# 3 -0.002534 -0.002868 0.020646 -0.004711 -0.001130 -0.004608
# 4 0.000224 0.001981 -0.004711 0.033346 0.001687 0.011467
# 5 0.003470 -0.001513 -0.001130 0.001687 0.037172 -0.010423
# 6 -0.007601 0.007776 -0.004608 0.011467 -0.010423 0.046839
#
#
# Mechanical properties :
#
#
# Convention : Reuss Voigt Hill
#
# Bulk Modulus (GPa) = 34.20649 37.39007 35.79828
# Shear Modulus (GPa) = 25.20512 29.73566 27.47039
#
# Velocity S-wave (km/s) = 3.41452 3.70872 3.56466
# Velocity P-wave (km/s) = 5.60071 5.96949 5.78804
#
# Compressibility (1/GPa) = 0.02923422
#
# Stress axis : x y z
#
# Youngs Moduli (GPa) = 68.61711 66.51911 48.43576
#
# Poissons Ratio (x) = 0.33977 0.12272
# Poissons Ratio (y) = 0.35049 0.13890
# Poissons Ratio (z) = 0.17385 0.19076
#
# Static dielectric constant tensor:
#      x y z
#    x 3.847660 -0.127630 0.024670 
#    y -0.127630 3.950250 0.126100 
#    z 0.024670 0.126100 3.666580 
# 
# 
# High freq. dielectric constant tensor:
#      x y z
#    x 1.842640 -0.010470 0.004360 
#    y -0.010470 1.867220 0.008740 
#    z 0.004360 0.008740 1.832200 
# 
# From -- ./inp_files/273230.got.cif
#   From: 2010.06.25/outbox.cif.g09.slc.cpg/sg2_137_cif.got.tgz:273230.got - 2010.06.27 13:26:56.
