data_PCOD8015148
_publ_section_title
;
Structure prediction by ZEFSAII (Michael W. Deem and Ramdas Pophale) SiO2 
 PCOD8015148
Probable space group: P -1
;
_chemical_formula_sum "Si O2"
_cell_formula_units_Z 16
_cell_length_a 9.989346
_cell_length_b 15.530626
_cell_length_c 12.434084
_cell_angle_alpha 153.411776
_cell_angle_beta 99.872809
_cell_angle_gamma 70.965670
_cell_volume 782.561431
_symmetry_space_group_name_H-M "P -1"
_symmetry_group_IT_number 2
_symmetry_cell_setting 'triclinic'
loop_
_space_group_symop_operation_xyz
x,y,z
-x,-y,-z
loop_
_atom_site_type_symbol
_atom_site_label
_atom_site_fract_x
_atom_site_fract_y
_atom_site_fract_z
Si Si1 0.961214 0.767209 0.980876
Si Si2 0.911337 0.594410 0.988707
Si Si3 0.274257 0.488229 0.631203
Si Si4 0.243779 0.460730 0.353689
Si Si5 0.961230 0.205510 0.432394
Si Si6 0.374314 0.223231 0.738646
Si Si7 0.705410 0.846445 0.574988
Si Si8 0.500103 0.678325 0.940226
O O1 0.104743 0.647107 0.795530
O O2 0.824106 0.716258 0.863343
O O3 0.996113 0.686635 0.019494
O O4 0.916544 0.014808 0.245039
O O5 0.759321 0.782473 0.211759
O O6 0.879219 0.403251 0.719631
O O7 0.000000 0.500000 0.000000
O O8 0.313125 0.448251 0.466678
O O9 0.303000 0.268462 0.445379
O O10 0.379398 0.581565 0.806482
O O11 0.112486 0.694298 0.580697
O O12 0.373155 0.420412 0.240502
O O13 0.136974 0.133622 0.383286
O O14 0.312731 0.289129 0.682212
O O15 0.500000 0.000000 0.500000
O O16 0.438920 0.367548 0.978194
O O17 0.575431 0.073184 0.812454
#
# Coordination Sequence:
#
# PCOD8015148 Si02
#       8
#     2   2   2   2   2   2   2   2
#     4  11  23  40  66  96 128 172 216 265 324 381
#     4  11  20  41  65  94 130 166 218 270 309 384
#     4  12  24  42  69  95 130 173 219 265 335 381
#     4  11  25  44  66  97 131 168 221 279 312 384
#     4  11  22  40  66  95 129 172 216 263 324 378
#     4  10  21  42  66  90 135 168 202 269 323 375
#     4  11  23  42  67  96 132 172 211 269 326 386
#     4  11  24  44  64  95 135 167 215 270 325 391
#
# _framework density 20.445678999999998
#
# number of rings (size 3 to 8) (size 9 to 14) (size 15 to 20)
#    0.000    1.000    7.500    0.750    0.000    4.000 
#    0.000    1.250    0.000    0.000    0.000    0.000 
#    0.000    0.000    0.000    0.000    0.000    0.000 
#
# Total GULP energy -198270.309216 kJ/mol
# GULP energy per Si atom -12391.894326 kJ/mol
# Density = 2.039914 g / cm^3
# Si number density = 20.445679 Si / 1000 Ang^3
#
#
#
# Elastic Constant Matrix: (Units=GPa)
#
#
# Indices 1 2 3 4 5 6 
#
# 1 66.4085 11.7619 22.4872 2.8270 2.2320 -0.5862
# 2 11.7619 111.4206 40.7579 -4.1062 16.3440 -3.1674
# 3 22.4872 40.7579 71.7459 12.4012 1.3332 12.3252
# 4 2.8270 -4.1062 12.4012 37.2478 3.6632 4.8075
# 5 2.2320 16.3440 1.3332 3.6632 44.1109 3.8177
# 6 -0.5862 -3.1674 12.3252 4.8075 3.8177 25.0786
#
#
#
# Elastic Compliance Matrix: (Units=1/GPa)
#
#
# Indices 1 2 3 4 5 6 
#
# 1 0.017212 0.000986 -0.006718 0.000674 -0.001428 0.003917
# 2 0.000986 0.013683 -0.009881 0.004434 -0.005764 0.006635
# 3 -0.006718 -0.009881 0.025145 -0.007762 0.005014 -0.013038
# 4 0.000674 0.004434 -0.007762 0.030360 -0.003891 -0.000837
# 5 -0.001428 -0.005764 0.005014 -0.003891 0.025601 -0.006377
# 6 0.003917 0.006635 -0.013038 -0.000837 -0.006377 0.048343
#
#
# Mechanical properties :
#
#
# Convention : Reuss Voigt Hill
#
# Bulk Modulus (GPa) = 40.29883 44.39878 42.34880
# Shear Modulus (GPa) = 25.01967 32.92531 28.97249
#
# Velocity S-wave (km/s) = 3.50196 4.01731 3.76845
# Velocity P-wave (km/s) = 6.00871 6.57883 6.30022
#
# Compressibility (1/GPa) = 0.02481462
#
# Stress axis : x y z
#
# Youngs Moduli (GPa) = 58.09789 73.08364 39.76880
#
# Poissons Ratio (x) = -0.07207 0.26716
# Poissons Ratio (y) = -0.05729 0.39297
# Poissons Ratio (z) = 0.39029 0.72216
#
# Static dielectric constant tensor:
#      x y z
#    x 4.183760 -0.292220 -0.078330 
#    y -0.292220 3.510320 -0.161560 
#    z -0.078330 -0.161560 3.768750 
# 
# 
# High freq. dielectric constant tensor:
#      x y z
#    x 1.802920 -0.018200 -0.011220 
#    y -0.018200 1.800950 -0.012550 
#    z -0.011220 -0.012550 1.793760 
# 
# From -- ./inp_files/400039.got.cif
#   From: 2010.06.25/outbox.cif.g09.slc.cpg/sg2_201_cif.got.tgz:400039.got - 2010.06.27 13:26:56.
