data_PCOD8015380
_publ_section_title
;
Structure prediction by ZEFSAII (Michael W. Deem and Ramdas Pophale) SiO2 
 PCOD8015380
Probable space group: P -1
;
_chemical_formula_sum "Si O2"
_cell_formula_units_Z 16
_cell_length_a 11.563903
_cell_length_b 12.037378
_cell_length_c 12.038876
_cell_angle_alpha 58.186714
_cell_angle_beta 54.098728
_cell_angle_gamma 32.675164
_cell_volume 730.690606
_symmetry_space_group_name_H-M "P -1"
_symmetry_group_IT_number 2
_symmetry_cell_setting 'triclinic'
loop_
_space_group_symop_operation_xyz
x,y,z
-x,-y,-z
loop_
_atom_site_type_symbol
_atom_site_label
_atom_site_fract_x
_atom_site_fract_y
_atom_site_fract_z
Si Si1 0.669636 0.653887 0.382764
Si Si2 0.055509 0.312366 0.185206
Si Si3 0.902862 0.324627 0.603187
Si Si4 0.835447 0.995909 0.566159
Si Si5 0.859850 0.464428 0.985486
Si Si6 0.142536 0.201977 0.760487
Si Si7 0.260399 0.835683 0.912584
Si Si8 0.484864 0.553099 0.143940
O O1 0.811236 0.496304 0.283569
O O2 0.759937 0.537110 0.510799
O O3 0.692371 0.794705 0.305215
O O4 0.418038 0.779690 0.435526
O O5 0.177067 0.096014 0.274808
O O6 0.191698 0.348833 0.118242
O O7 0.046628 0.317033 0.054161
O O8 0.736926 0.322710 0.727677
O O9 0.088070 0.134056 0.518207
O O10 0.018996 0.304058 0.657386
O O11 0.000000 0.000000 0.500000
O O12 0.947413 0.327318 0.898140
O O13 0.637988 0.554487 0.115475
O O14 0.297556 0.962802 0.799907
O O15 0.353302 0.689140 0.831809
O O16 0.418340 0.672708 0.006037
O O17 0.000000 0.000000 0.000000
#
# Coordination Sequence:
#
# PCOD8015380 Si02
#       8
#     2   2   2   2   2   2   2   2
#     4  10  25  45  67  93 128 180 214 268 325 367
#     4   9  23  45  64  95 128 165 224 264 322 380
#     4  11  25  43  65  99 133 170 219 262 320 388
#     4  11  27  45  67  94 125 174 227 268 310 384
#     4  10  21  42  68  94 132 168 205 276 321 383
#     4  11  22  43  68  97 136 165 215 266 323 400
#     4  11  21  39  56  95 133 164 206 251 318 391
#     4  11  23  36  63  93 129 172 201 259 327 372
#
# _framework density 21.897092000000001
#
# number of rings (size 3 to 8) (size 9 to 14) (size 15 to 20)
#    0.000    1.500    2.500    1.125    7.000    2.500 
#    2.250    1.875    0.000    0.000    0.000    0.000 
#    0.000    0.000    0.000    0.000    0.000    0.000 
#
# Total GULP energy -198351.811220 kJ/mol
# GULP energy per Si atom -12396.988201 kJ/mol
# Density = 2.184725 g / cm^3
# Si number density = 21.897092 Si / 1000 Ang^3
#
#
#
# Elastic Constant Matrix: (Units=GPa)
#
#
# Indices 1 2 3 4 5 6 
#
# 1 89.2812 28.4557 25.2695 -4.4208 -3.3727 -3.8529
# 2 28.4557 82.9827 18.9955 -23.0183 1.6943 -3.6820
# 3 25.2695 18.9955 91.6156 -17.0882 4.3071 7.1560
# 4 -4.4208 -23.0183 -17.0882 35.6939 1.7349 -10.7333
# 5 -3.3727 1.6943 4.3071 1.7349 41.2717 3.6545
# 6 -3.8529 -3.6820 7.1560 -10.7333 3.6545 23.0569
#
#
#
# Elastic Compliance Matrix: (Units=1/GPa)
#
#
# Indices 1 2 3 4 5 6 
#
# 1 0.013631 -0.004615 -0.003471 -0.002703 0.001682 0.001093
# 2 -0.004615 0.017964 -0.000504 0.013585 -0.002427 0.008962
# 3 -0.003471 -0.000504 0.013151 0.004970 -0.001653 -0.002167
# 4 -0.002703 0.013585 0.004970 0.045783 -0.005197 0.022312
# 5 0.001682 -0.002427 -0.001653 -0.005197 0.025392 -0.006038
# 6 0.001093 0.008962 -0.002167 0.022312 -0.006038 0.057001
#
#
# Mechanical properties :
#
#
# Convention : Reuss Voigt Hill
#
# Bulk Modulus (GPa) = 36.27754 45.48011 40.87883
# Shear Modulus (GPa) = 25.08891 32.74842 28.91867
#
# Velocity S-wave (km/s) = 3.38859 3.87144 3.63803
# Velocity P-wave (km/s) = 5.64918 6.38742 6.02961
#
# Compressibility (1/GPa) = 0.02756526
#
# Stress axis : x y z
#
# Youngs Moduli (GPa) = 73.36246 55.66662 76.03956
#
# Poissons Ratio (x) = 0.25691 0.26397
# Poissons Ratio (y) = 0.33858 0.03831
# Poissons Ratio (z) = 0.25467 0.02804
#
# Static dielectric constant tensor:
#      x y z
#    x 3.910520 0.106250 -0.077600 
#    y 0.106250 3.906070 -0.137610 
#    z -0.077600 -0.137610 4.113530 
# 
# 
# High freq. dielectric constant tensor:
#      x y z
#    x 1.861810 0.004460 -0.005950 
#    y 0.004460 1.848000 -0.007760 
#    z -0.005950 -0.007760 1.869160 
# 
# From -- ./inp_files/69910.got.cif
#   From: 2010.06.25/outbox.cif.g09.slc.cpg/sg2_35_cif.got.tgz:69910.got - 2010.06.27 13:26:56.
