data_PCOD8015634
_publ_section_title
;
Structure prediction by ZEFSAII (Michael W. Deem and Ramdas Pophale) SiO2 
 PCOD8015634
Probable space group: P -1
;
_chemical_formula_sum "Si O2"
_cell_formula_units_Z 12
_cell_length_a 11.312377
_cell_length_b 8.255220
_cell_length_c 8.967804
_cell_angle_alpha 144.738883
_cell_angle_beta 105.148294
_cell_angle_gamma 88.545946
_cell_volume 439.313836
_symmetry_space_group_name_H-M "P -1"
_symmetry_group_IT_number 2
_symmetry_cell_setting 'triclinic'
loop_
_space_group_symop_operation_xyz
x,y,z
-x,-y,-z
loop_
_atom_site_type_symbol
_atom_site_label
_atom_site_fract_x
_atom_site_fract_y
_atom_site_fract_z
Si Si1 0.178924 0.857003 0.790981
Si Si2 0.783510 0.317737 0.826675
Si Si3 0.616834 0.121864 0.346012
Si Si4 0.005166 0.097139 0.743513
Si Si5 0.720866 0.647659 0.579301
Si Si6 0.396643 0.570124 0.915231
O O1 0.210844 0.023841 0.086071
O O2 0.041856 0.867411 0.691108
O O3 0.291198 0.016798 0.825148
O O4 0.173430 0.515002 0.552247
O O5 0.664645 0.139091 0.546339
O O6 0.732063 0.448790 0.050298
O O7 0.863358 0.105067 0.751255
O O8 0.884323 0.577917 0.956023
O O9 0.625088 0.441438 0.520031
O O10 0.466493 0.905398 0.125259
O O11 0.000000 0.000000 0.500000
O O12 0.641254 0.658545 0.409436
O O13 0.500000 0.500000 0.000000
#
# Coordination Sequence:
#
# PCOD8015634 Si02
#       6
#     2   2   2   2   2   2
#     4  10  21  42  73 101 131 191 234 280 336 427
#     4  11  24  41  69 104 138 179 237 290 348 408
#     4  10  22  44  71  99 143 182 231 274 353 421
#     4  11  20  42  71  98 134 184 235 288 343 418
#     4  10  24  45  71 102 143 185 236 276 358 425
#     4  12  27  44  67 107 144 182 229 299 351 414
#
# _framework density 27.315322999999999
#
# number of rings (size 3 to 8) (size 9 to 14) (size 15 to 20)
#    1.000    0.333    3.333    2.000    2.333    3.333 
#    0.000    1.667    0.000    0.000    0.000    0.000 
#    0.000    0.000    0.000    0.000    0.000    0.000 
#
# Total GULP energy -148808.991556 kJ/mol
# GULP energy per Si atom -12400.749296 kJ/mol
# Density = 2.725315 g / cm^3
# Si number density = 27.315323 Si / 1000 Ang^3
#
#
#
# Elastic Constant Matrix: (Units=GPa)
#
#
# Indices 1 2 3 4 5 6 
#
# 1 92.5441 20.9093 10.2480 -7.7566 -1.4514 0.5527
# 2 20.9093 68.0290 5.9335 -35.6785 1.4065 -17.6667
# 3 10.2480 5.9335 133.5364 -31.8799 -14.8323 5.5922
# 4 -7.7566 -35.6785 -31.8799 48.8605 -2.7757 5.2444
# 5 -1.4514 1.4065 -14.8323 -2.7757 38.5719 -0.0400
# 6 0.5527 -17.6667 5.5922 5.2444 -0.0400 45.7033
#
#
#
# Elastic Compliance Matrix: (Units=1/GPa)
#
#
# Indices 1 2 3 4 5 6 
#
# 1 0.011959 -0.005450 -0.001250 -0.002706 -0.000029 -0.001788
# 2 -0.005450 0.030566 0.004583 0.023643 0.002153 0.008609
# 3 -0.001250 0.004583 0.010349 0.010226 0.004501 -0.000649
# 4 -0.002706 0.023643 0.010226 0.044013 0.006139 0.002876
# 5 -0.000029 0.002153 0.004501 0.006139 0.028018 -0.000398
# 6 -0.001788 0.008609 -0.000649 0.002876 -0.000398 0.024979
#
#
# Mechanical properties :
#
#
# Convention : Reuss Voigt Hill
#
# Bulk Modulus (GPa) = 20.55879 40.92125 30.74002
# Shear Modulus (GPa) = 29.35466 43.76173 36.55819
#
# Velocity S-wave (km/s) = 3.28176 4.00696 3.66235
# Velocity P-wave (km/s) = 4.68003 6.03500 5.40018
#
# Compressibility (1/GPa) = 0.04864099
#
# Stress axis : x y z
#
# Youngs Moduli (GPa) = 83.62076 32.71627 96.62488
#
# Poissons Ratio (x) = 0.17829 0.12078
# Poissons Ratio (y) = 0.45569 -0.44284
# Poissons Ratio (z) = 0.10452 -0.14994
#
# Static dielectric constant tensor:
#      x y z
#    x 4.842780 -0.052430 0.065160 
#    y -0.052430 4.739900 0.052770 
#    z 0.065160 0.052770 4.809320 
# 
# 
# High freq. dielectric constant tensor:
#      x y z
#    x 2.091580 -0.004740 -0.002680 
#    y -0.004740 2.098850 -0.010110 
#    z -0.002680 -0.010110 2.095450 
# 
# From -- ./inp_files/229334.got.cif
#   From: 2010.06.25/outbox.cif.g09.slc.cpg/sg2_115_cif.got.tgz:229334.got - 2010.06.27 13:26:56.
