data_PCOD8015635
_publ_section_title
;
Structure prediction by ZEFSAII (Michael W. Deem and Ramdas Pophale) SiO2 
 PCOD8015635
Probable space group: P -1
;
_chemical_formula_sum "Si O2"
_cell_formula_units_Z 16
_cell_length_a 8.807880
_cell_length_b 8.639961
_cell_length_c 11.975970
_cell_angle_alpha 100.570480
_cell_angle_beta 91.106723
_cell_angle_gamma 126.303944
_cell_volume 712.520919
_symmetry_space_group_name_H-M "P -1"
_symmetry_group_IT_number 2
_symmetry_cell_setting 'triclinic'
loop_
_space_group_symop_operation_xyz
x,y,z
-x,-y,-z
loop_
_atom_site_type_symbol
_atom_site_label
_atom_site_fract_x
_atom_site_fract_y
_atom_site_fract_z
Si Si1 0.426101 0.307895 0.824972
Si Si2 0.977374 0.436705 0.365721
Si Si3 0.738306 0.930413 0.828198
Si Si4 0.615887 0.252419 0.633946
Si Si5 0.940249 0.115522 0.197727
Si Si6 0.583223 0.368542 0.067424
Si Si7 0.559095 0.187987 0.371629
Si Si8 0.858653 0.282491 0.016288
O O1 0.543977 0.356275 0.718790
O O2 0.329968 0.422332 0.840991
O O3 0.273356 0.075084 0.808661
O O4 0.580906 0.397179 0.938591
O O5 0.004405 0.266859 0.321740
O O6 0.755024 0.337127 0.321083
O O7 0.000000 0.500000 0.500000
O O8 0.153856 0.633308 0.328822
O O9 0.632556 0.787193 0.913311
O O10 0.609043 0.836062 0.703176
O O11 0.930563 0.957046 0.813541
O O12 0.781101 0.138430 0.888806
O O13 0.577669 0.274277 0.506823
O O14 0.491270 0.026706 0.641434
O O15 0.955267 0.224060 0.097476
O O16 0.697214 0.278846 0.080769
O O17 0.000000 0.500000 0.000000
#
# Coordination Sequence:
#
# PCOD8015635 Si02
#       8
#     2   2   2   2   2   2   2   2
#     4  11  23  43  68 100 141 176 227 287 347 407
#     4  10  22  42  71 101 131 179 228 280 342 408
#     4  12  25  45  67 101 137 182 231 286 343 406
#     4  10  21  42  73 101 135 183 221 287 346 408
#     4  12  25  44  68  98 141 183 225 288 345 406
#     4  11  25  41  66  97 135 181 226 284 346 406
#     4  10  22  43  71 101 135 175 236 283 339 409
#     4  12  27  42  66 100 135 184 233 279 345 416
#
# _framework density 22.455480000000001
#
# number of rings (size 3 to 8) (size 9 to 14) (size 15 to 20)
#    0.000    1.000    2.500    3.750    7.000    0.000 
#    2.250    7.500    0.000    0.000    0.000    0.000 
#    0.000    0.000    0.000    0.000    0.000    0.000 
#
# Total GULP energy -198309.785897 kJ/mol
# GULP energy per Si atom -12394.361619 kJ/mol
# Density = 2.240437 g / cm^3
# Si number density = 22.455480 Si / 1000 Ang^3
#
#
#
# Elastic Constant Matrix: (Units=GPa)
#
#
# Indices 1 2 3 4 5 6 
#
# 1 112.7847 30.8218 61.4878 -4.5394 -7.7446 5.6656
# 2 30.8218 116.0152 46.9727 11.6871 -6.1992 13.5532
# 3 61.4878 46.9727 128.6751 10.1405 -21.0299 1.3730
# 4 -4.5394 11.6871 10.1405 28.8598 -4.2046 -4.6522
# 5 -7.7446 -6.1992 -21.0299 -4.2046 36.3626 1.9803
# 6 5.6656 13.5532 1.3730 -4.6522 1.9803 36.0206
#
#
#
# Elastic Compliance Matrix: (Units=1/GPa)
#
#
# Indices 1 2 3 4 5 6 
#
# 1 0.012680 -0.001342 -0.005986 0.004471 -0.000437 -0.000660
# 2 -0.001342 0.011176 -0.003117 -0.004420 -0.000454 -0.004421
# 3 -0.005986 -0.003117 0.012871 -0.003296 0.005207 0.000912
# 4 0.004471 -0.004420 -0.003296 0.039651 0.002547 0.006067
# 5 -0.000437 -0.000454 0.005207 0.002547 0.030708 -0.001318
# 6 -0.000660 -0.004421 0.000912 0.006067 -0.001318 0.030350
#
#
# Mechanical properties :
#
#
# Convention : Reuss Voigt Hill
#
# Bulk Modulus (GPa) = 63.14538 70.67105 66.90822
# Shear Modulus (GPa) = 30.56176 34.79478 32.67827
#
# Velocity S-wave (km/s) = 3.69317 3.94064 3.81891
# Velocity P-wave (km/s) = 6.80935 7.22806 7.02183
#
# Compressibility (1/GPa) = 0.01583647
#
# Stress axis : x y z
#
# Youngs Moduli (GPa) = 78.86687 89.48064 77.69528
#
# Poissons Ratio (x) = 0.12005 0.46508
# Poissons Ratio (y) = 0.10581 0.24219
# Poissons Ratio (z) = 0.47210 0.27892
#
# Static dielectric constant tensor:
#      x y z
#    x 4.284260 0.137750 -0.389190 
#    y 0.137750 4.326090 0.293760 
#    z -0.389190 0.293760 4.214110 
# 
# 
# High freq. dielectric constant tensor:
#      x y z
#    x 1.870300 0.016110 -0.024200 
#    y 0.016110 1.894210 0.015570 
#    z -0.024200 0.015570 1.888790 
# 
# From -- ./inp_files/382658.got.cif
#   From: 2010.06.25/outbox.cif.g09.slc.cpg/sg2_192_cif.got.tgz:382658.got - 2010.06.27 13:26:56.
