data_PCOD8015393
_publ_section_title
;
Structure prediction by ZEFSAII (Michael W. Deem and Ramdas Pophale) SiO2 
 PCOD8015393
Probable space group: P -1
;
_chemical_formula_sum "Si O2"
_cell_formula_units_Z 16
_cell_length_a 10.216442
_cell_length_b 14.992581
_cell_length_c 8.794461
_cell_angle_alpha 110.261253
_cell_angle_beta 110.198144
_cell_angle_gamma 38.576761
_cell_volume 781.575094
_symmetry_space_group_name_H-M "P -1"
_symmetry_group_IT_number 2
_symmetry_cell_setting 'triclinic'
loop_
_space_group_symop_operation_xyz
x,y,z
-x,-y,-z
loop_
_atom_site_type_symbol
_atom_site_label
_atom_site_fract_x
_atom_site_fract_y
_atom_site_fract_z
Si Si1 0.572351 0.014535 0.881380
Si Si2 0.962724 0.931148 0.054762
Si Si3 0.432597 0.160262 0.414095
Si Si4 0.215037 0.905576 0.614258
Si Si5 0.434875 0.632277 0.128903
Si Si6 0.895028 0.535696 0.639964
Si Si7 0.665447 0.707931 0.215686
Si Si8 0.531849 0.584116 0.490522
O O1 0.413237 0.184346 0.888792
O O2 0.566049 0.951241 0.691493
O O3 0.500000 0.000000 0.000000
O O4 0.815727 0.924429 0.921423
O O5 0.183116 0.772033 0.099179
O O6 0.823792 0.038697 0.200914
O O7 0.000000 0.000000 0.000000
O O8 0.668129 0.075935 0.428981
O O9 0.273923 0.292340 0.306421
O O10 0.377345 0.215936 0.597265
O O11 0.351249 0.740714 0.584907
O O12 0.000000 0.000000 0.500000
O O13 0.548516 0.666651 0.123418
O O14 0.506705 0.591409 0.305742
O O15 0.500000 0.500000 0.000000
O O16 0.767147 0.501873 0.573293
O O17 0.000000 0.500000 0.500000
O O18 0.080547 0.439204 0.784331
O O19 0.500000 0.500000 0.500000
#
# Coordination Sequence:
#
# PCOD8015393 Si02
#       8
#     2   2   2   2   2   2   2   2
#     4  12  26  42  66 100 137 170 221 278 339 397
#     4  12  26  45  68  97 137 184 222 278 345 398
#     4  10  21  42  68  96 130 174 222 278 328 399
#     4  11  21  43  70  91 138 178 225 278 332 395
#     4  12  26  44  65 101 137 174 225 279 338 406
#     4   9  19  40  69  89 128 170 219 266 324 388
#     4  11  22  45  68  96 132 180 228 271 331 406
#     4  11  24  41  68 102 132 171 228 280 332 394
#
# _framework density 20.471482999999999
#
# number of rings (size 3 to 8) (size 9 to 14) (size 15 to 20)
#    0.000    1.000    7.500    0.375    3.500    2.000 
#    0.000    0.625    0.000    0.000    0.000    0.000 
#    0.000    0.000    0.000    0.000    0.000    0.000 
#
# Total GULP energy -198348.262830 kJ/mol
# GULP energy per Si atom -12396.766427 kJ/mol
# Density = 2.042489 g / cm^3
# Si number density = 20.471483 Si / 1000 Ang^3
#
#
#
# Elastic Constant Matrix: (Units=GPa)
#
#
# Indices 1 2 3 4 5 6 
#
# 1 146.3018 64.9564 15.8394 -13.9017 21.0928 3.2141
# 2 64.9564 115.8107 34.8053 -10.1890 16.8664 -7.0071
# 3 15.8394 34.8053 48.0401 4.9711 12.1696 3.9399
# 4 -13.9017 -10.1890 4.9711 41.2345 -0.4102 7.7832
# 5 21.0928 16.8664 12.1696 -0.4102 39.8635 -4.3957
# 6 3.2141 -7.0071 3.9399 7.7832 -4.3957 45.3874
#
#
#
# Elastic Compliance Matrix: (Units=1/GPa)
#
#
# Indices 1 2 3 4 5 6 
#
# 1 0.009862 -0.005423 0.001569 0.002213 -0.003645 -0.002404
# 2 -0.005423 0.014962 -0.009508 0.002431 -0.000194 0.003084
# 3 0.001569 -0.009508 0.029602 -0.004706 -0.006329 -0.003954
# 4 0.002213 0.002431 -0.004706 0.026927 -0.000936 -0.004081
# 5 -0.003645 -0.000194 -0.006329 -0.000936 0.029436 0.003789
# 6 -0.002404 0.003084 -0.003954 -0.004081 0.003789 0.024089
#
#
# Mechanical properties :
#
#
# Convention : Reuss Voigt Hill
#
# Bulk Modulus (GPa) = 36.09834 60.15054 48.12444
# Shear Modulus (GPa) = 29.26805 38.26717 33.76761
#
# Velocity S-wave (km/s) = 3.78524 4.32822 4.06580
# Velocity P-wave (km/s) = 6.06430 7.37729 6.75278
#
# Compressibility (1/GPa) = 0.02770211
#
# Stress axis : x y z
#
# Youngs Moduli (GPa) = 101.40436 66.83455 33.78203
#
# Poissons Ratio (x) = 0.36241 -0.05299
# Poissons Ratio (y) = 0.54987 0.32119
# Poissons Ratio (z) = -0.15907 0.63545
#
# Static dielectric constant tensor:
#      x y z
#    x 3.796170 -0.185510 0.256540 
#    y -0.185510 4.124260 -0.092670 
#    z 0.256540 -0.092670 3.715850 
# 
# 
# High freq. dielectric constant tensor:
#      x y z
#    x 1.810400 -0.006490 0.013210 
#    y -0.006490 1.811190 -0.005760 
#    z 0.013210 -0.005760 1.793280 
# 
# From -- ./inp_files/208473.got.cif
#   From: 2010.06.25/outbox.cif.g09.slc.cpg/sg2_105_cif.got.tgz:208473.got - 2010.06.27 13:26:56.
