data_PCOD8015126
_publ_section_title
;
Structure prediction by ZEFSAII (Michael W. Deem and Ramdas Pophale) SiO2 
 PCOD8015126
Probable space group: P -1
;
_chemical_formula_sum "Si O2"
_cell_formula_units_Z 16
_cell_length_a 21.003458
_cell_length_b 7.702987
_cell_length_c 8.992677
_cell_angle_alpha 113.019275
_cell_angle_beta 146.302312
_cell_angle_gamma 59.971656
_cell_volume 697.890042
_symmetry_space_group_name_H-M "P -1"
_symmetry_group_IT_number 2
_symmetry_cell_setting 'triclinic'
loop_
_space_group_symop_operation_xyz
x,y,z
-x,-y,-z
loop_
_atom_site_type_symbol
_atom_site_label
_atom_site_fract_x
_atom_site_fract_y
_atom_site_fract_z
Si Si1 0.545553 0.185379 0.120180
Si Si2 0.103691 0.204016 0.771073
Si Si3 0.292759 0.443651 0.733736
Si Si4 0.739164 0.250899 0.703916
Si Si5 0.843371 0.244811 0.209968
Si Si6 0.252335 0.128664 0.748608
Si Si7 0.081742 0.129658 0.169548
Si Si8 0.865209 0.491614 0.828982
O O1 0.601083 0.266969 0.398529
O O2 0.652090 0.099344 0.172636
O O3 0.429804 0.380143 0.908900
O O4 0.500000 0.000000 0.000000
O O5 0.215129 0.165651 0.859541
O O6 0.966582 0.305439 0.469206
O O7 0.112691 0.993578 0.789499
O O8 0.128101 0.338663 0.991436
O O9 0.236746 0.668370 0.767485
O O10 0.307094 0.295016 0.852432
O O11 0.202940 0.408812 0.421911
O O12 0.790163 0.362515 0.714296
O O13 0.807184 0.008368 0.760557
O O14 0.758370 0.335832 0.931094
O O15 0.126008 0.172395 0.430567
O O16 0.002384 0.338189 0.003497
O O17 0.000000 0.000000 0.000000
#
# Coordination Sequence:
#
# PCOD8015126 Si02
#       8
#     2   2   2   2   2   2   2   2
#     4   9  22  43  71  94 127 171 223 268 321 378
#     4  11  25  42  63 100 137 168 213 266 333 386
#     4  11  25  42  66  97 129 173 219 267 320 382
#     4  10  22  42  67  92 130 174 217 266 322 383
#     4  11  26  40  65  98 136 169 211 273 325 388
#     4  10  21  42  66  88 129 172 212 264 322 382
#     4   9  19  33  62  90 122 161 209 256 320 377
#     4  11  24  39  66  99 132 170 218 263 323 396
#
# _framework density 22.926247
#
# number of rings (size 3 to 8) (size 9 to 14) (size 15 to 20)
#    0.000    1.750    0.000    3.000   14.000    3.500 
#    0.000    0.625    0.000    0.000    0.000    0.000 
#    0.000    0.000    0.000    0.000    0.000    0.000 
#
# Total GULP energy -198289.051903 kJ/mol
# GULP energy per Si atom -12393.065744 kJ/mol
# Density = 2.287407 g / cm^3
# Si number density = 22.926247 Si / 1000 Ang^3
#
#
#
# Elastic Constant Matrix: (Units=GPa)
#
#
# Indices 1 2 3 4 5 6 
#
# 1 77.4873 22.5731 38.9009 -2.3455 -5.0470 -22.6080
# 2 22.5731 106.6818 49.2593 1.2235 6.3314 -29.9837
# 3 38.9009 49.2593 152.3425 4.0421 9.2395 -32.6550
# 4 -2.3455 1.2235 4.0421 41.8171 -7.9154 4.7359
# 5 -5.0470 6.3314 9.2395 -7.9154 32.7575 2.9368
# 6 -22.6080 -29.9837 -32.6550 4.7359 2.9368 34.0610
#
#
#
# Elastic Compliance Matrix: (Units=1/GPa)
#
#
# Indices 1 2 3 4 5 6 
#
# 1 0.016896 -0.000249 -0.002713 0.000858 0.002904 0.008025
# 2 -0.000249 0.013451 -0.001733 -0.002127 -0.003616 0.010621
# 3 -0.002713 -0.001733 0.009513 -0.002503 -0.003952 0.006483
# 4 0.000858 -0.002127 -0.002503 0.026790 0.008454 -0.008157
# 5 0.002904 -0.003616 -0.003952 0.008454 0.035665 -0.009295
# 6 0.008025 0.010621 0.006483 -0.008157 -0.009295 0.052186
#
#
# Mechanical properties :
#
#
# Convention : Reuss Voigt Hill
#
# Bulk Modulus (GPa) = 32.81933 61.99757 47.40845
# Shear Modulus (GPa) = 28.72770 36.77901 32.75336
#
# Velocity S-wave (km/s) = 3.54368 4.00963 3.78384
# Velocity P-wave (km/s) = 5.57583 6.96686 6.30979
#
# Compressibility (1/GPa) = 0.03046985
#
# Stress axis : x y z
#
# Youngs Moduli (GPa) = 59.18436 74.34499 105.11922
#
# Poissons Ratio (x) = 0.01854 0.28515
# Poissons Ratio (y) = 0.01476 0.18220
# Poissons Ratio (z) = 0.16054 0.12886
#
# Static dielectric constant tensor:
#      x y z
#    x 3.984460 -0.217230 0.270130 
#    y -0.217230 4.562790 -0.281760 
#    z 0.270130 -0.281760 4.368650 
# 
# 
# High freq. dielectric constant tensor:
#      x y z
#    x 1.887350 -0.001540 0.009780 
#    y -0.001540 1.916510 0.009000 
#    z 0.009780 0.009000 1.901890 
# 
# From -- ./inp_files/352352.got.cif
#   From: 2010.06.25/outbox.cif.g09.slc.cpg/sg2_177_cif.got.tgz:352352.got - 2010.06.27 13:26:56.
