data_PCOD8015254
_publ_section_title
;
Structure prediction by ZEFSAII (Michael W. Deem and Ramdas Pophale) SiO2 
 PCOD8015254
Probable space group: P -1
;
_chemical_formula_sum "Si O2"
_cell_formula_units_Z 16
_cell_length_a 8.609322
_cell_length_b 10.803999
_cell_length_c 8.917269
_cell_angle_alpha 85.360726
_cell_angle_beta 65.921161
_cell_angle_gamma 101.248654
_cell_volume 730.696371
_symmetry_space_group_name_H-M "P -1"
_symmetry_group_IT_number 2
_symmetry_cell_setting 'triclinic'
loop_
_space_group_symop_operation_xyz
x,y,z
-x,-y,-z
loop_
_atom_site_type_symbol
_atom_site_label
_atom_site_fract_x
_atom_site_fract_y
_atom_site_fract_z
Si Si1 0.693508 0.551949 0.480681
Si Si2 0.559662 0.762503 0.644311
Si Si3 0.765713 0.299158 0.443152
Si Si4 0.984418 0.786721 0.836898
Si Si5 0.987899 0.746321 0.188385
Si Si6 0.631848 0.860035 0.911775
Si Si7 0.308185 0.851063 0.221427
Si Si8 0.882411 0.962136 0.400213
O O1 0.500000 0.500000 0.500000
O O2 0.675931 0.655606 0.603796
O O3 0.763004 0.430173 0.521859
O O4 0.831326 0.620287 0.291711
O O5 0.384338 0.724538 0.621367
O O6 0.511617 0.783016 0.833132
O O7 0.681929 0.898055 0.528846
O O8 0.953690 0.318064 0.281891
O O9 0.731360 0.180971 0.584892
O O10 0.783993 0.788561 0.889726
O O11 0.118372 0.917398 0.716354
O O12 0.013986 0.764914 0.000239
O O13 0.176014 0.741455 0.185388
O O14 0.950351 0.866981 0.275330
O O15 0.718146 0.007903 0.819716
O O16 0.509340 0.849623 0.107177
O O17 0.000000 0.000000 0.500000
#
# Coordination Sequence:
#
# PCOD8015254 Si02
#       8
#     2   2   2   2   2   2   2   2
#     4   9  23  44  69  90 125 168 225 275 316 377
#     4  10  21  42  67  89 131 173 211 267 324 380
#     4  11  25  43  66  95 125 174 225 262 323 377
#     4  12  24  38  67  97 134 168 210 264 325 388
#     4  11  23  41  66  93 131 174 211 265 324 377
#     4  11  24  41  63  99 140 165 208 267 324 387
#     4  11  25  41  65  98 136 170 212 262 319 397
#     4  11  20  37  64  98 130 165 211 257 322 385
#
# _framework density 21.896920000000001
#
# number of rings (size 3 to 8) (size 9 to 14) (size 15 to 20)
#    0.000    1.250    2.500    2.625    7.000    4.000 
#    0.000    0.625    0.000    0.000    0.000    0.000 
#    0.000    0.000    0.000    0.000    0.000    0.000 
#
# Total GULP energy -198301.822961 kJ/mol
# GULP energy per Si atom -12393.863935 kJ/mol
# Density = 2.184708 g / cm^3
# Si number density = 21.896920 Si / 1000 Ang^3
#
#
#
# Elastic Constant Matrix: (Units=GPa)
#
#
# Indices 1 2 3 4 5 6 
#
# 1 107.9625 26.7715 36.8239 3.4911 -9.6022 -4.9765
# 2 26.7715 62.8833 23.4074 -7.4435 -3.3715 2.4763
# 3 36.8239 23.4074 127.8394 11.6737 -1.7229 -0.1918
# 4 3.4911 -7.4435 11.6737 20.6882 0.3489 -4.8275
# 5 -9.6022 -3.3715 -1.7229 0.3489 33.2708 2.3607
# 6 -4.9765 2.4763 -0.1918 -4.8275 2.3607 29.1169
#
#
#
# Elastic Compliance Matrix: (Units=1/GPa)
#
#
# Indices 1 2 3 4 5 6 
#
# 1 0.011465 -0.004139 -0.002349 -0.001725 0.002659 0.001795
# 2 -0.004139 0.020124 -0.003363 0.009617 0.000633 -0.000898
# 3 -0.002349 -0.003363 0.009705 -0.006542 -0.000369 -0.001106
# 4 -0.001725 0.009617 -0.006542 0.057783 -0.001072 0.008511
# 5 0.002659 0.000633 -0.000369 -0.001072 0.031043 -0.002296
# 6 0.001795 -0.000898 -0.001106 0.008511 -0.002296 0.036317
#
#
# Mechanical properties :
#
#
# Convention : Reuss Voigt Hill
#
# Bulk Modulus (GPa) = 46.31258 52.52120 49.41689
# Shear Modulus (GPa) = 25.86146 30.72735 28.29441
#
# Velocity S-wave (km/s) = 3.44038 3.75009 3.59857
# Velocity P-wave (km/s) = 6.08093 6.54130 6.31532
#
# Compressibility (1/GPa) = 0.02159240
#
# Stress axis : x y z
#
# Youngs Moduli (GPa) = 87.22338 49.69133 103.03501
#
# Poissons Ratio (x) = 0.20567 0.24198
# Poissons Ratio (y) = 0.36102 0.34655
# Poissons Ratio (z) = 0.20485 0.16714
#
# Static dielectric constant tensor:
#      x y z
#    x 4.043770 -0.022540 -0.295140 
#    y -0.022540 4.344940 0.128440 
#    z -0.295140 0.128440 3.984830 
# 
# 
# High freq. dielectric constant tensor:
#      x y z
#    x 1.858970 -0.002070 -0.020000 
#    y -0.002070 1.854580 0.013180 
#    z -0.020000 0.013180 1.862070 
# 
# From -- ./inp_files/186548.got.cif
#   From: 2010.06.25/outbox.cif.g09.slc.cpg/sg2_94_cif.got.tgz:186548.got - 2010.06.27 13:26:56.
