data_PCOD8015532
_publ_section_title
;
Structure prediction by ZEFSAII (Michael W. Deem and Ramdas Pophale) SiO2 
 PCOD8015532
Probable space group: P -1
;
_chemical_formula_sum "Si O2"
_cell_formula_units_Z 16
_cell_length_a 12.392357
_cell_length_b 10.599279
_cell_length_c 12.207208
_cell_angle_alpha 112.400875
_cell_angle_beta 68.988288
_cell_angle_gamma 53.289317
_cell_volume 726.888405
_symmetry_space_group_name_H-M "P -1"
_symmetry_group_IT_number 2
_symmetry_cell_setting 'triclinic'
loop_
_space_group_symop_operation_xyz
x,y,z
-x,-y,-z
loop_
_atom_site_type_symbol
_atom_site_label
_atom_site_fract_x
_atom_site_fract_y
_atom_site_fract_z
Si Si1 0.755718 0.890946 0.144459
Si Si2 0.990045 0.906768 0.774570
Si Si3 0.734021 0.911190 0.898755
Si Si4 0.813714 0.521901 0.006447
Si Si5 0.432829 0.423191 0.547347
Si Si6 0.396658 0.514109 0.832244
Si Si7 0.229340 0.420438 0.205150
Si Si8 0.176848 0.754249 0.428370
O O1 0.714429 0.772555 0.145089
O O2 0.555074 0.176783 0.362340
O O3 0.748656 0.929011 0.029962
O O4 0.982708 0.709334 0.060949
O O5 0.853490 0.911205 0.788650
O O6 0.170734 0.670651 0.714961
O O7 0.118736 0.847353 0.606028
O O8 0.834153 0.173446 0.978832
O O9 0.852424 0.646228 0.745791
O O10 0.492658 0.148582 0.013375
O O11 0.625930 0.595688 0.118547
O O12 0.880177 0.440680 0.827970
O O13 0.500000 0.500000 0.500000
O O14 0.477754 0.371640 0.641514
O O15 0.589283 0.427460 0.764057
O O16 0.160182 0.607498 0.375795
O O17 0.000000 0.000000 0.500000
#
# Coordination Sequence:
#
# PCOD8015532 Si02
#       8
#     2   2   2   2   2   2   2   2
#     4  10  22  44  68  99 134 166 223 267 328 391
#     4  12  24  43  68  95 130 173 217 271 331 380
#     4  10  21  42  70  95 127 172 211 272 326 383
#     4  10  23  42  70  96 132 180 208 271 329 389
#     4  12  23  40  67  98 130 167 216 275 321 388
#     4  12  25  43  66  96 132 174 219 264 328 386
#     4  10  22  43  67  95 131 167 219 267 323 385
#     4  12  27  42  63  97 133 171 220 268 313 400
#
# _framework density 22.011633
#
# number of rings (size 3 to 8) (size 9 to 14) (size 15 to 20)
#    0.000    1.000    2.500    4.125    3.500    2.000 
#    2.250    0.000    0.000    0.000    0.000    0.000 
#    0.000    0.000    0.000    0.000    0.000    0.000 
#
# Total GULP energy -198338.878527 kJ/mol
# GULP energy per Si atom -12396.179908 kJ/mol
# Density = 2.196153 g / cm^3
# Si number density = 22.011633 Si / 1000 Ang^3
#
#
#
# Elastic Constant Matrix: (Units=GPa)
#
#
# Indices 1 2 3 4 5 6 
#
# 1 98.6881 15.8458 34.5394 6.3987 3.2901 17.3375
# 2 15.8458 76.5110 19.0251 7.4697 0.1753 -2.9686
# 3 34.5394 19.0251 101.2971 17.5474 10.9308 10.8336
# 4 6.3987 7.4697 17.5474 30.6642 4.3434 -0.3277
# 5 3.2901 0.1753 10.9308 4.3434 31.2179 -4.0157
# 6 17.3375 -2.9686 10.8336 -0.3277 -4.0157 44.0459
#
#
#
# Elastic Compliance Matrix: (Units=1/GPa)
#
#
# Indices 1 2 3 4 5 6 
#
# 1 0.012373 -0.001885 -0.003309 -0.000182 -0.000656 -0.004245
# 2 -0.001885 0.014267 -0.002083 -0.002069 0.001436 0.002331
# 3 -0.003309 -0.002083 0.013052 -0.005770 -0.003720 -0.002430
# 4 -0.000182 -0.002069 -0.005770 0.036881 -0.002905 0.001361
# 5 -0.000656 0.001436 -0.003720 -0.002905 0.034364 0.004381
# 6 -0.004245 0.002331 -0.002430 0.001361 0.004381 0.025539
#
#
# Mechanical properties :
#
#
# Convention : Reuss Voigt Hill
#
# Bulk Modulus (GPa) = 39.77796 46.14633 42.96215
# Shear Modulus (GPa) = 31.36573 34.99131 33.17852
#
# Velocity S-wave (km/s) = 3.77896 3.99140 3.88663
# Velocity P-wave (km/s) = 6.09519 6.50013 6.30091
#
# Compressibility (1/GPa) = 0.02513955
#
# Stress axis : x y z
#
# Youngs Moduli (GPa) = 80.82166 70.08939 76.61589
#
# Poissons Ratio (x) = 0.13214 0.25349
# Poissons Ratio (y) = 0.15237 0.15957
# Poissons Ratio (z) = 0.26740 0.14598
#
# Static dielectric constant tensor:
#      x y z
#    x 4.342600 0.067520 -0.361300 
#    y 0.067520 3.036110 3.205530 
#    z -0.361300 3.205530 -5.706230 
# 
# 
# High freq. dielectric constant tensor:
#      x y z
#    x 1.884290 0.003080 0.008500 
#    y 0.003080 1.871800 0.006270 
#    z 0.008500 0.006270 1.844800 
# 
# From -- ./inp_files/364076.got.cif
#   From: 2010.06.25/outbox.cif.g09.slc.cpg/sg2_183_cif.got.tgz:364076.got - 2010.06.27 13:26:56.
