data_PCOD8015734
_publ_section_title
;
Structure prediction by ZEFSAII (Michael W. Deem and Ramdas Pophale) SiO2 
 PCOD8015734
Probable space group: P -1
;
_chemical_formula_sum "Si O2"
_cell_formula_units_Z 16
_cell_length_a 7.764752
_cell_length_b 7.764239
_cell_length_c 16.735673
_cell_angle_alpha 99.203335
_cell_angle_beta 111.617977
_cell_angle_gamma 126.431648
_cell_volume 650.776502
_symmetry_space_group_name_H-M "P -1"
_symmetry_group_IT_number 2
_symmetry_cell_setting 'triclinic'
loop_
_space_group_symop_operation_xyz
x,y,z
-x,-y,-z
loop_
_atom_site_type_symbol
_atom_site_label
_atom_site_fract_x
_atom_site_fract_y
_atom_site_fract_z
Si Si1 0.935116 0.733925 0.767110
Si Si2 0.972840 0.106212 0.891353
Si Si3 0.379042 0.315807 0.691037
Si Si4 0.956961 0.550300 0.181526
Si Si5 0.861835 0.165761 0.606393
Si Si6 0.131817 0.793524 0.633173
Si Si7 0.420990 0.351766 0.102988
Si Si8 0.651650 0.298942 0.456051
O O1 0.614852 0.524137 0.684931
O O2 0.994999 0.624631 0.837211
O O3 0.101139 0.793141 0.722436
O O4 0.033823 0.988482 0.831704
O O5 0.885187 0.222979 0.837932
O O6 0.734074 0.898050 0.892267
O O7 0.238002 0.318232 0.002749
O O8 0.469508 0.422524 0.804399
O O9 0.112379 0.236510 0.617426
O O10 0.314719 0.069821 0.651827
O O11 0.655836 0.404235 0.105394
O O12 0.053325 0.645942 0.295436
O O13 0.738122 0.188783 0.514794
O O14 0.658488 0.885239 0.590109
O O15 0.285461 0.717784 0.626756
O O16 0.832211 0.586654 0.530312
#
# Coordination Sequence:
#
# PCOD8015734 Si02
#       8
#     2   2   2   2   2   2   2   2
#     4  11  23  42  64  98 133 165 222 263 316 388
#     4  10  22  43  66  95 131 169 209 265 319 382
#     4  10  23  42  65  92 130 168 210 270 320 382
#     4  11  21  38  67  92 126 174 208 261 324 376
#     4  10  21  43  64  89 128 170 213 269 322 373
#     4  11  23  42  60  93 125 169 212 270 320 376
#     4   9  21  42  65  94 131 166 211 260 317 385
#     4  10  23  42  64  88 127 169 217 267 319 388
#
# _framework density 24.586012
#
# number of rings (size 3 to 8) (size 9 to 14) (size 15 to 20)
#    0.000    1.750    1.250    2.625    1.750    3.500 
#   13.500    5.625    0.000    0.000    0.000    2.625 
#    0.000    0.000    0.000    0.000    0.000    0.000 
#
# Total GULP energy -198333.446490 kJ/mol
# GULP energy per Si atom -12395.840406 kJ/mol
# Density = 2.453005 g / cm^3
# Si number density = 24.586012 Si / 1000 Ang^3
#
#
#
# Elastic Constant Matrix: (Units=GPa)
#
#
# Indices 1 2 3 4 5 6 
#
# 1 50.8532 5.8218 9.8225 -6.2680 -1.1665 10.4156
# 2 5.8218 61.8889 17.0396 3.1882 -11.9111 6.8369
# 3 9.8225 17.0396 69.4967 11.1010 -8.6229 -0.2662
# 4 -6.2680 3.1882 11.1010 39.5013 3.9144 -1.3880
# 5 -1.1665 -11.9111 -8.6229 3.9144 21.1047 3.6473
# 6 10.4156 6.8369 -0.2662 -1.3880 3.6473 40.0048
#
#
#
# Elastic Compliance Matrix: (Units=1/GPa)
#
#
# Indices 1 2 3 4 5 6 
#
# 1 0.022135 -0.000809 -0.003753 0.004507 -0.000663 -0.005433
# 2 -0.000809 0.019769 -0.003048 -0.002106 0.010995 -0.004264
# 3 -0.003753 -0.003048 0.017352 -0.005799 0.006089 0.000857
# 4 0.004507 -0.002106 -0.005799 0.028736 -0.008803 0.000947
# 5 -0.000663 0.010995 0.006089 -0.008803 0.058941 -0.007345
# 6 -0.005433 -0.004264 0.000857 0.000947 -0.007345 0.027848
#
#
# Mechanical properties :
#
#
# Convention : Reuss Voigt Hill
#
# Bulk Modulus (GPa) = 22.70891 27.51184 25.11038
# Shear Modulus (GPa) = 24.42818 30.09249 27.26033
#
# Velocity S-wave (km/s) = 3.15553 3.50232 3.33344
# Velocity P-wave (km/s) = 4.74690 5.25065 5.00512
#
# Compressibility (1/GPa) = 0.04403557
#
# Stress axis : x y z
#
# Youngs Moduli (GPa) = 45.17712 50.58443 57.62932
#
# Poissons Ratio (x) = 0.04090 0.21630
# Poissons Ratio (y) = 0.03653 0.17568
# Poissons Ratio (z) = 0.16957 0.15421
#
# Static dielectric constant tensor:
#      x y z
#    x 4.368470 0.312180 0.056210 
#    y 0.312180 4.638840 0.243920 
#    z 0.056210 0.243920 4.333510 
# 
# 
# High freq. dielectric constant tensor:
#      x y z
#    x 1.962900 0.020350 -0.001120 
#    y 0.020350 1.991330 0.012130 
#    z -0.001120 0.012130 1.961560 
# 
# From -- ./inp_files/557315.got.cif
#   From: 2010.06.25/outbox.cif.g09.slc.cpg/sg2_279_cif.got.tgz:557315.got - 2010.06.27 13:26:56.
