data_PCOD8015610
_publ_section_title
;
Structure prediction by ZEFSAII (Michael W. Deem and Ramdas Pophale) SiO2 
 PCOD8015610
Probable space group: P -1
;
_chemical_formula_sum "Si O2"
_cell_formula_units_Z 16
_cell_length_a 23.679461
_cell_length_b 5.321918
_cell_length_c 5.604228
_cell_angle_alpha 93.270656
_cell_angle_beta 107.897031
_cell_angle_gamma 67.335543
_cell_volume 618.655492
_symmetry_space_group_name_H-M "P -1"
_symmetry_group_IT_number 2
_symmetry_cell_setting 'triclinic'
loop_
_space_group_symop_operation_xyz
x,y,z
-x,-y,-z
loop_
_atom_site_type_symbol
_atom_site_label
_atom_site_fract_x
_atom_site_fract_y
_atom_site_fract_z
Si Si1 0.039168 0.440317 0.800061
Si Si2 0.516712 0.263079 0.320040
Si Si3 0.805440 0.345373 0.464534
Si Si4 0.248624 0.065150 0.381234
Si Si5 0.397515 0.179575 0.256486
Si Si6 0.927219 0.124292 0.323342
Si Si7 0.286535 0.655997 0.022768
Si Si8 0.367836 0.827001 0.823481
O O1 0.081707 0.626144 0.857640
O O2 0.000000 0.500000 0.500000
O O3 0.085720 0.118047 0.845964
O O4 0.000000 0.500000 0.000000
O O5 0.500000 0.500000 0.500000
O O6 0.448927 0.248118 0.157399
O O7 0.557351 0.329577 0.165404
O O8 0.564414 0.969619 0.468223
O O9 0.790357 0.607803 0.631862
O O10 0.881163 0.227149 0.498340
O O11 0.787160 0.103705 0.535943
O O12 0.768723 0.432260 0.165122
O O13 0.254606 0.959717 0.110054
O O14 0.321076 0.004917 0.563623
O O15 0.333962 0.445197 0.268159
O O16 0.367193 0.005820 0.060098
O O17 0.000000 0.000000 0.500000
O O18 0.335642 0.624011 0.864509
#
# Coordination Sequence:
#
# PCOD8015610 Si02
#       8
#     2   2   2   2   2   2   2   2
#     4  10  21  42  72 106 152 198 247 300 376 451
#     4  11  25  41  63  99 134 178 231 288 365 435
#     4  11  25  48  72 107 145 191 244 303 364 439
#     4  11  25  44  74 101 145 188 246 298 364 432
#     4  11  23  41  66  93 134 175 234 286 362 425
#     4  10  22  45  73 106 151 189 246 303 376 448
#     4  11  26  45  70  99 136 186 242 296 362 434
#     4  11  23  42  67  92 138 179 231 294 362 421
#
# _framework density 25.862535999999999
#
# number of rings (size 3 to 8) (size 9 to 14) (size 15 to 20)
#    0.000    1.250    1.250    3.750    3.500    4.000 
#   13.500    0.000    0.000    0.000    0.000    0.000 
#    0.000    0.000    0.000    0.000    0.000    0.000 
#
# Total GULP energy -198258.106497 kJ/mol
# GULP energy per Si atom -12391.131656 kJ/mol
# Density = 2.580367 g / cm^3
# Si number density = 25.862536 Si / 1000 Ang^3
#
#
#
# Elastic Constant Matrix: (Units=GPa)
#
#
# Indices 1 2 3 4 5 6 
#
# 1 136.9172 39.1138 11.2340 5.0695 -12.9977 -9.2342
# 2 39.1138 140.0338 14.2353 35.9820 -1.3516 4.7513
# 3 11.2340 14.2353 71.0523 17.0636 -8.3089 -7.9117
# 4 5.0695 35.9820 17.0636 32.3449 -9.1234 -3.1429
# 5 -12.9977 -1.3516 -8.3089 -9.1234 31.8908 0.1464
# 6 -9.2342 4.7513 -7.9117 -3.1429 0.1464 50.9419
#
#
#
# Elastic Compliance Matrix: (Units=1/GPa)
#
#
# Indices 1 2 3 4 5 6 
#
# 1 0.008795 -0.003553 -0.001028 0.004574 0.004465 0.002035
# 2 -0.003553 0.011870 0.000868 -0.014739 -0.004924 -0.002512
# 3 -0.001028 0.000868 0.016577 -0.008997 0.001355 0.001748
# 4 0.004574 -0.014739 -0.008997 0.055950 0.014883 0.004216
# 5 0.004465 -0.004924 0.001355 0.014883 0.037568 0.002289
# 6 0.002035 -0.002512 0.001748 0.004216 0.002289 0.020758
#
#
# Mechanical properties :
#
#
# Convention : Reuss Voigt Hill
#
# Bulk Modulus (GPa) = 33.54127 53.01883 43.28005
# Shear Modulus (GPa) = 29.60597 41.93021 35.76809
#
# Velocity S-wave (km/s) = 3.38708 4.03087 3.72292
# Velocity P-wave (km/s) = 5.31917 6.49682 5.93727
#
# Compressibility (1/GPa) = 0.02981402
#
# Stress axis : x y z
#
# Youngs Moduli (GPa) = 113.70129 84.24357 60.32561
#
# Poissons Ratio (x) = 0.29935 0.06204
# Poissons Ratio (y) = 0.40402 -0.05235
# Poissons Ratio (z) = 0.11693 -0.07310
#
# Static dielectric constant tensor:
#      x y z
#    x 5.250410 0.567440 0.003760 
#    y 0.567440 5.301930 -0.166220 
#    z 0.003760 -0.166220 4.196090 
# 
# 
# High freq. dielectric constant tensor:
#      x y z
#    x 2.048650 0.008420 -0.005010 
#    y 0.008420 2.038950 0.008980 
#    z -0.005010 0.008980 2.008360 
# 
# From -- ./inp_files/14814.got.cif
#   From: 2010.06.25/outbox.cif.g09.slc.cpg/sg2_8_cif.got.tgz:14814.got - 2010.06.27 13:26:56.
