data_PCOD8016605
_publ_section_title
;
Structure prediction by ZEFSAII (Michael W. Deem and Ramdas Pophale) SiO2 
 PCOD8016605
Probable space group: P -1
;
_chemical_formula_sum "Si O2"
_cell_formula_units_Z 16
_cell_length_a 27.719812
_cell_length_b 8.215179
_cell_length_c 15.633818
_cell_angle_alpha 51.109729
_cell_angle_beta 161.137622
_cell_angle_gamma 138.079871
_cell_volume 719.411277
_symmetry_space_group_name_H-M "P -1"
_symmetry_group_IT_number 2
_symmetry_cell_setting 'triclinic'
loop_
_space_group_symop_operation_xyz
x,y,z
-x,-y,-z
loop_
_atom_site_type_symbol
_atom_site_label
_atom_site_fract_x
_atom_site_fract_y
_atom_site_fract_z
Si Si1 0.594336 0.086296 0.004592
Si Si2 0.121941 0.021218 0.452128
Si Si3 0.419585 0.502320 0.683924
Si Si4 0.038584 0.897092 0.682752
Si Si5 0.245802 0.397932 0.107236
Si Si6 0.303737 0.593881 0.776756
Si Si7 0.459996 0.351947 0.612306
Si Si8 0.409077 0.966214 0.267296
O O1 0.713048 0.355834 0.168739
O O2 0.732501 0.009564 0.244244
O O3 0.511201 0.144633 0.765494
O O4 0.411578 0.867883 0.820574
O O5 0.229976 0.281517 0.488677
O O6 0.999513 0.019422 0.320443
O O7 0.974252 0.771422 0.227042
O O8 0.422050 0.408229 0.624075
O O9 0.445735 0.777057 0.633117
O O10 0.589554 0.539281 0.009707
O O11 0.897860 0.584192 0.545289
O O12 0.246995 0.995885 0.002535
O O13 0.000000 0.000000 0.500000
O O14 0.275628 0.253022 0.280915
O O15 0.361209 0.401618 0.218465
O O16 0.330719 0.693208 0.181317
O O17 0.500000 0.000000 0.500000
#
# Coordination Sequence:
#
# PCOD8016605 Si02
#       8
#     2   2   2   2   2   2   2   2
#     4   9  20  39  69  99 130 167 221 269 335 389
#     4  11  26  43  67 104 135 172 224 278 332 400
#     4  10  21  45  69  97 139 172 218 278 337 386
#     4  12  26  43  69  96 137 174 225 275 333 395
#     4  11  25  42  68 100 131 177 228 270 330 396
#     4   9  19  40  67  98 131 171 212 276 333 391
#     4  10  22  41  70  95 131 178 220 275 322 399
#     4  12  25  46  70  98 133 181 222 273 335 398
#
# _framework density 22.240407000000001
#
# number of rings (size 3 to 8) (size 9 to 14) (size 15 to 20)
#    0.000    1.500    2.500    2.250    5.250    4.000 
#    2.250    0.625    0.000    0.000    0.000    0.000 
#    0.000    0.000    0.000    0.000    0.000    0.000 
#
# Total GULP energy -198215.629592 kJ/mol
# GULP energy per Si atom -12388.476849 kJ/mol
# Density = 2.218979 g / cm^3
# Si number density = 22.240407 Si / 1000 Ang^3
#
#
#
# Elastic Constant Matrix: (Units=GPa)
#
#
# Indices 1 2 3 4 5 6 
#
# 1 96.0492 36.5283 38.0669 0.1261 1.1266 6.2613
# 2 36.5283 125.0285 62.4412 -3.4622 -18.2968 4.3925
# 3 38.0669 62.4412 96.2852 -8.5650 0.2346 12.4556
# 4 0.1261 -3.4622 -8.5650 42.3487 2.2825 -7.2746
# 5 1.1266 -18.2968 0.2346 2.2825 22.5474 -2.9045
# 6 6.2613 4.3925 12.4556 -7.2746 -2.9045 28.9136
#
#
#
# Elastic Compliance Matrix: (Units=1/GPa)
#
#
# Indices 1 2 3 4 5 6 
#
# 1 0.012801 -0.002409 -0.003394 -0.001031 -0.002644 -0.001469
# 2 -0.002409 0.015183 -0.009435 -0.000780 0.013056 0.003394
# 3 -0.003394 -0.009435 0.018892 0.002461 -0.008734 -0.006228
# 4 -0.001031 -0.000780 0.002461 0.025102 -0.002459 0.005350
# 5 -0.002644 0.013056 -0.008734 -0.002459 0.056370 0.007396
# 6 -0.001469 0.003394 -0.006228 0.005350 0.007396 0.039160
#
#
# Mechanical properties :
#
#
# Convention : Reuss Voigt Hill
#
# Bulk Modulus (GPa) = 60.97019 65.71506 63.34262
# Shear Modulus (GPa) = 24.57607 30.78371 27.67989
#
# Velocity S-wave (km/s) = 3.32779 3.72443 3.53168
# Velocity P-wave (km/s) = 6.49917 6.93592 6.72109
#
# Compressibility (1/GPa) = 0.01640146
#
# Stress axis : x y z
#
# Youngs Moduli (GPa) = 78.12114 65.86165 52.93288
#
# Poissons Ratio (x) = 0.15863 0.17966
# Poissons Ratio (y) = 0.18816 0.49940
# Poissons Ratio (z) = 0.26515 0.62137
#
# Static dielectric constant tensor:
#      x y z
#    x 3.948740 0.052220 -0.063500 
#    y 0.052220 4.495030 -0.273030 
#    z -0.063500 -0.273030 4.498100 
# 
# 
# High freq. dielectric constant tensor:
#      x y z
#    x 1.871030 0.006990 -0.007060 
#    y 0.006990 1.877330 -0.001370 
#    z -0.007060 -0.001370 1.869870 
# 
# From -- ./inp_files/543823.got.cif
#   From: 2010.06.25/outbox.cif.g09.slc.cpg/sg2_272_cif.got.tgz:543823.got - 2010.06.27 13:26:56.
