data_PCOD8016033
_publ_section_title
;
Structure prediction by ZEFSAII (Michael W. Deem and Ramdas Pophale) SiO2 
 PCOD8016033
Probable space group: P -1
;
_chemical_formula_sum "Si O2"
_cell_formula_units_Z 16
_cell_length_a 10.659849
_cell_length_b 15.449654
_cell_length_c 8.074760
_cell_angle_alpha 129.266574
_cell_angle_beta 43.073759
_cell_angle_gamma 108.698121
_cell_volume 677.395196
_symmetry_space_group_name_H-M "P -1"
_symmetry_group_IT_number 2
_symmetry_cell_setting 'triclinic'
loop_
_space_group_symop_operation_xyz
x,y,z
-x,-y,-z
loop_
_atom_site_type_symbol
_atom_site_label
_atom_site_fract_x
_atom_site_fract_y
_atom_site_fract_z
Si Si1 0.253188 0.364488 0.616629
Si Si2 0.322142 0.741363 0.891274
Si Si3 0.120114 0.565407 0.749097
Si Si4 0.196154 0.176194 0.198899
Si Si5 0.225062 0.716896 0.326651
Si Si6 0.290952 0.490352 0.152111
Si Si7 0.440000 0.233941 0.740484
Si Si8 0.388736 0.946686 0.908352
O O1 0.460871 0.323390 0.450291
O O2 0.258900 0.462097 0.593963
O O3 0.193364 0.259166 0.458990
O O4 0.100527 0.418774 0.972504
O O5 0.176566 0.683160 0.872123
O O6 0.268967 0.872913 0.034919
O O7 0.311531 0.739186 0.095717
O O8 0.142044 0.534371 0.498290
O O9 0.988302 0.202425 0.349158
O O10 0.348338 0.191452 0.937070
O O11 0.247069 0.045072 0.056524
O O12 0.219192 0.581020 0.179153
O O13 0.353296 0.749847 0.387786
O O14 0.500000 0.500000 0.000000
O O15 0.304570 0.354754 0.944774
O O16 0.461755 0.137651 0.461280
O O17 0.500000 0.000000 0.000000
#
# Coordination Sequence:
#
# PCOD8016033 Si02
#       8
#     2   2   2   2   2   2   2   2
#     4  11  22  41  68 104 146 178 230 287 346 417
#     4  12  23  43  71 100 140 193 231 286 349 407
#     4  11  23  41  69 108 145 181 227 286 353 424
#     4  12  24  48  69 103 145 185 235 289 345 417
#     4  11  24  43  72 108 142 183 231 285 360 421
#     4  10  21  43  69 104 144 180 228 281 352 427
#     4  11  24  48  72 100 142 187 232 290 353 418
#     4  12  27  48  74 100 136 192 247 291 345 412
#
# _framework density 23.619890999999999
#
# number of rings (size 3 to 8) (size 9 to 14) (size 15 to 20)
#    0.000    0.750    5.000    3.000    0.000    3.500 
#    0.000    0.000    0.000    0.000    0.000    0.000 
#    0.000    0.000    0.000    0.000    0.000    0.000 
#
# Total GULP energy -198467.360816 kJ/mol
# GULP energy per Si atom -12404.210051 kJ/mol
# Density = 2.356613 g / cm^3
# Si number density = 23.619891 Si / 1000 Ang^3
#
#
#
# Elastic Constant Matrix: (Units=GPa)
#
#
# Indices 1 2 3 4 5 6 
#
# 1 80.5613 36.0018 33.3989 11.1906 -8.1533 2.5757
# 2 36.0018 191.1786 57.8240 26.9625 -9.1789 -26.7392
# 3 33.3989 57.8240 115.5584 5.1870 9.0498 -8.2913
# 4 11.1906 26.9625 5.1870 47.2329 -3.2860 -1.2325
# 5 -8.1533 -9.1789 9.0498 -3.2860 43.5683 4.5694
# 6 2.5757 -26.7392 -8.2913 -1.2325 4.5694 41.6173
#
#
#
# Elastic Compliance Matrix: (Units=1/GPa)
#
#
# Indices 1 2 3 4 5 6 
#
# 1 0.015637 -0.001700 -0.004095 -0.002121 0.003609 -0.003335
# 2 -0.001700 0.007553 -0.002932 -0.003396 0.001192 0.004143
# 3 -0.004095 -0.002932 0.011636 0.001129 -0.003836 0.001143
# 4 -0.002121 -0.003396 0.001129 0.023496 0.000550 -0.001190
# 5 0.003609 0.001192 -0.003836 0.000550 0.025027 -0.002954
# 6 -0.003335 0.004143 0.001143 -0.001190 -0.002954 0.027413
#
#
# Mechanical properties :
#
#
# Convention : Reuss Voigt Hill
#
# Bulk Modulus (GPa) = 57.56551 71.30530 64.43541
# Shear Modulus (GPa) = 37.31145 43.82193 40.56669
#
# Velocity S-wave (km/s) = 3.97881 4.31199 4.14874
# Velocity P-wave (km/s) = 6.74777 7.41925 7.09146
#
# Compressibility (1/GPa) = 0.01737151
#
# Stress axis : x y z
#
# Youngs Moduli (GPa) = 63.95123 132.39455 85.94000
#
# Poissons Ratio (x) = 0.22508 0.35196
# Poissons Ratio (y) = 0.10872 0.25196
# Poissons Ratio (z) = 0.26191 0.38815
#
# Static dielectric constant tensor:
#      x y z
#    x 4.054440 -0.139760 -0.047640 
#    y -0.139760 4.762530 0.093320 
#    z -0.047640 0.093320 4.349760 
# 
# 
# High freq. dielectric constant tensor:
#      x y z
#    x 1.934710 -0.009460 0.001850 
#    y -0.009460 1.952670 -0.004890 
#    z 0.001850 -0.004890 1.933300 
# 
# From -- ./inp_files/274222.got.cif
#   From: 2010.06.25/outbox.cif.g09.slc.cpg/sg2_138_cif.got.tgz:274222.got - 2010.06.27 13:26:56.
