data_PCOD8016185
_publ_section_title
;
Structure prediction by ZEFSAII (Michael W. Deem and Ramdas Pophale) SiO2 
 PCOD8016185
Probable space group: P -1
;
_chemical_formula_sum "Si O2"
_cell_formula_units_Z 16
_cell_length_a 9.605419
_cell_length_b 14.825702
_cell_length_c 5.222882
_cell_angle_alpha 78.326608
_cell_angle_beta 96.388617
_cell_angle_gamma 107.607077
_cell_volume 693.269573
_symmetry_space_group_name_H-M "P -1"
_symmetry_group_IT_number 2
_symmetry_cell_setting 'triclinic'
loop_
_space_group_symop_operation_xyz
x,y,z
-x,-y,-z
loop_
_atom_site_type_symbol
_atom_site_label
_atom_site_fract_x
_atom_site_fract_y
_atom_site_fract_z
Si Si1 0.895946 0.340997 0.556134
Si Si2 0.897112 0.523419 0.167901
Si Si3 0.939218 0.174336 0.378500
Si Si4 0.603849 0.875854 0.094794
Si Si5 0.418972 0.695340 0.401357
Si Si6 0.073520 0.112616 0.941078
Si Si7 0.613751 0.059767 0.288791
Si Si8 0.590911 0.427730 0.026068
O O1 0.869066 0.442847 0.429334
O O2 0.941227 0.285182 0.358579
O O3 0.738601 0.281889 0.676588
O O4 0.031967 0.368114 0.769578
O O5 0.745975 0.508857 0.003112
O O6 0.000000 0.500000 0.000000
O O7 0.770646 0.112286 0.411396
O O8 0.035229 0.146953 0.637247
O O9 0.007647 0.164032 0.123120
O O10 0.546432 0.796697 0.351246
O O11 0.750593 0.861527 0.003949
O O12 0.646084 0.985971 0.132750
O O13 0.464199 0.862876 0.883909
O O14 0.433413 0.650130 0.706429
O O15 0.443094 0.627302 0.217542
O O16 0.000000 0.000000 0.000000
O O17 0.500000 0.000000 0.500000
O O18 0.500000 0.500000 0.000000
#
# Coordination Sequence:
#
# PCOD8016185 Si02
#       8
#     2   2   2   2   2   2   2   2
#     4  10  24  43  70 106 136 179 246 287 356 419
#     4  10  21  43  72  97 137 185 224 297 351 423
#     4  12  28  45  77 103 144 189 244 300 352 434
#     4  11  27  45  71 106 147 188 248 290 370 428
#     4  11  25  44  73 104 141 189 232 303 351 427
#     4  12  27  50  69 104 148 196 233 301 370 417
#     4  11  25  44  75 104 140 196 242 301 345 442
#     4  11  25  46  71 102 145 184 236 290 364 430
#
# _framework density 23.079046999999999
#
# number of rings (size 3 to 8) (size 9 to 14) (size 15 to 20)
#    0.000    1.000    2.500    2.250   12.250    1.000 
#    2.250    0.000    0.000    0.000    0.000    0.000 
#    0.000    0.000    0.000    0.000    0.000    0.000 
#
# Total GULP energy -198288.350711 kJ/mol
# GULP energy per Si atom -12393.021919 kJ/mol
# Density = 2.302652 g / cm^3
# Si number density = 23.079047 Si / 1000 Ang^3
#
#
#
# Elastic Constant Matrix: (Units=GPa)
#
#
# Indices 1 2 3 4 5 6 
#
# 1 154.9694 46.4421 22.6778 1.7552 -10.2075 6.8844
# 2 46.4421 93.1577 4.7705 17.4958 -9.3948 -1.4736
# 3 22.6778 4.7705 74.2406 10.5603 -10.9335 -0.5454
# 4 1.7552 17.4958 10.5603 35.9255 -3.2436 -7.7463
# 5 -10.2075 -9.3948 -10.9335 -3.2436 38.2001 -1.0497
# 6 6.8844 -1.4736 -0.5454 -7.7463 -1.0497 34.4513
#
#
#
# Elastic Compliance Matrix: (Units=1/GPa)
#
#
# Indices 1 2 3 4 5 6 
#
# 1 0.008183 -0.004329 -0.002460 0.002192 0.000567 -0.001349
# 2 -0.004329 0.014365 0.001743 -0.007096 0.002272 -0.000019
# 3 -0.002460 0.001743 0.015363 -0.004947 0.003743 -0.000189
# 4 0.002192 -0.007096 -0.004947 0.034168 0.000515 0.006878
# 5 0.000567 0.002272 0.003743 0.000515 0.028031 0.001013
# 6 -0.001349 -0.000019 -0.000189 0.006878 0.001013 0.030870
#
#
# Mechanical properties :
#
#
# Convention : Reuss Voigt Hill
#
# Bulk Modulus (GPa) = 35.94662 52.23870 44.09266
# Shear Modulus (GPa) = 33.25729 38.28053 35.76891
#
# Velocity S-wave (km/s) = 3.80019 4.07710 3.94108
# Velocity P-wave (km/s) = 5.90462 6.69682 6.31316
#
# Compressibility (1/GPa) = 0.02781903
#
# Stress axis : x y z
#
# Youngs Moduli (GPa) = 122.20985 69.61421 65.09302
#
# Poissons Ratio (x) = 0.30137 0.16010
# Poissons Ratio (y) = 0.52907 -0.11346
# Poissons Ratio (z) = 0.30058 -0.12135
#
# Static dielectric constant tensor:
#      x y z
#    x 4.486080 0.011380 0.090720 
#    y 0.011380 3.992090 0.306990 
#    z 0.090720 0.306990 4.057230 
# 
# 
# High freq. dielectric constant tensor:
#      x y z
#    x 1.922170 0.008260 -0.007080 
#    y 0.008260 1.919000 0.006680 
#    z -0.007080 0.006680 1.906580 
# 
# From -- ./inp_files/38057.got.cif
#   From: 2010.06.25/outbox.cif.g09.slc.cpg/sg2_20_cif.got.tgz:38057.got - 2010.06.27 13:26:56.
