data_PCOD8016048
_publ_section_title
;
Structure prediction by ZEFSAII (Michael W. Deem and Ramdas Pophale) SiO2 
 PCOD8016048
Probable space group: P -1
;
_chemical_formula_sum "Si O2"
_cell_formula_units_Z 14
_cell_length_a 9.311821
_cell_length_b 8.277102
_cell_length_c 14.735065
_cell_angle_alpha 76.812161
_cell_angle_beta 53.144589
_cell_angle_gamma 42.738057
_cell_volume 567.583957
_symmetry_space_group_name_H-M "P -1"
_symmetry_group_IT_number 2
_symmetry_cell_setting 'triclinic'
loop_
_space_group_symop_operation_xyz
x,y,z
-x,-y,-z
loop_
_atom_site_type_symbol
_atom_site_label
_atom_site_fract_x
_atom_site_fract_y
_atom_site_fract_z
Si Si1 0.900647 0.508067 0.310295
Si Si2 0.897175 0.686829 0.096069
Si Si3 0.685785 0.187725 0.434500
Si Si4 0.305620 0.681498 0.406016
Si Si5 0.863329 0.379552 0.681231
Si Si6 0.635289 0.070968 0.788019
Si Si7 0.421726 0.498251 0.930879
O O1 0.059898 0.492431 0.333226
O O2 0.937893 0.578082 0.193645
O O3 0.580292 0.720385 0.434851
O O4 0.052063 0.221419 0.282600
O O5 0.567086 0.939386 0.164880
O O6 0.000000 0.500000 0.000000
O O7 0.081631 0.725679 0.020064
O O8 0.591929 0.405411 0.378231
O O9 0.863717 0.127832 0.464976
O O10 0.894392 0.919105 0.335065
O O11 0.145940 0.639935 0.422693
O O12 0.406143 0.755672 0.292916
O O13 0.554170 0.543952 0.809653
O O14 0.548119 0.223964 0.896044
O O15 0.500000 0.500000 0.000000
#
# Coordination Sequence:
#
# PCOD8016048 Si02
#       7
#     2   2   2   2   2   2   2
#     4  12  25  43  69 107 134 181 223 279 347 401
#     4  10  22  44  68  95 138 178 226 275 334 404
#     4  11  25  42  73  97 138 182 224 277 341 411
#     4  10  24  43  68 100 132 177 231 268 343 401
#     4  11  25  44  67 100 142 173 228 285 334 403
#     4  10  24  42  72  98 138 175 224 281 339 410
#     4  10  21  43  69  94 131 178 225 278 328 395
#
# _framework density 24.665952999999998
#
# number of rings (size 3 to 8) (size 9 to 14) (size 15 to 20)
#    0.000    1.429    2.857    0.857   10.000    4.000 
#    0.000    3.571    0.000    0.000    0.000    0.000 
#    0.000    0.000    0.000    0.000    0.000    0.000 
#
# Total GULP energy -173450.193702 kJ/mol
# GULP energy per Si atom -12389.299550 kJ/mol
# Density = 2.460981 g / cm^3
# Si number density = 24.665953 Si / 1000 Ang^3
#
#
#
# Elastic Constant Matrix: (Units=GPa)
#
#
# Indices 1 2 3 4 5 6 
#
# 1 170.9329 2.8225 47.6583 2.1048 3.4857 -8.9030
# 2 2.8225 43.3547 32.4136 -1.5118 9.9605 1.8540
# 3 47.6583 32.4136 103.1365 -4.1986 -15.0524 -7.7912
# 4 2.1048 -1.5118 -4.1986 21.5768 1.2321 0.0315
# 5 3.4857 9.9605 -15.0524 1.2321 53.2565 3.9935
# 6 -8.9030 1.8540 -7.7912 0.0315 3.9935 22.6800
#
#
#
# Elastic Compliance Matrix: (Units=1/GPa)
#
#
# Indices 1 2 3 4 5 6 
#
# 1 0.007276 0.003632 -0.004830 -0.001249 -0.002594 0.001358
# 2 0.003632 0.037045 -0.015319 -0.000097 -0.011126 -0.004906
# 3 -0.004830 -0.015319 0.018330 0.002502 0.007986 0.004243
# 4 -0.001249 -0.000097 0.002502 0.046965 -0.000307 0.000366
# 5 -0.002594 -0.011126 0.007986 -0.000307 0.023403 -0.001486
# 6 0.001358 -0.004906 0.004243 0.000366 -0.001486 0.046745
#
#
# Mechanical properties :
#
#
# Convention : Reuss Voigt Hill
#
# Bulk Modulus (GPa) = 33.76529 53.69033 43.72781
# Shear Modulus (GPa) = 22.45465 35.13797 28.79631
#
# Velocity S-wave (km/s) = 3.02047 3.77842 3.42051
# Velocity P-wave (km/s) = 5.08754 6.39136 5.77636
#
# Compressibility (1/GPa) = 0.02961621
#
# Stress axis : x y z
#
# Youngs Moduli (GPa) = 137.43650 26.99451 54.55430
#
# Poissons Ratio (x) = -0.09804 0.26352
# Poissons Ratio (y) = -0.49916 0.83571
# Poissons Ratio (z) = 0.66388 0.41353
#
# Static dielectric constant tensor:
#      x y z
#    x 5.241060 -0.260160 -0.057190 
#    y -0.260160 4.039670 0.303960 
#    z -0.057190 0.303960 5.085040 
# 
# 
# High freq. dielectric constant tensor:
#      x y z
#    x 2.012900 -0.013110 -0.005100 
#    y -0.013110 1.940750 0.011830 
#    z -0.005100 0.011830 1.990040 
# 
# From -- ./inp_files/492905.got.cif
#   From: 2010.06.25/outbox.cif.g09.slc.cpg/sg2_247_cif.got.tgz:492905.got - 2010.06.27 13:26:56.
