data_PCOD8016955
_publ_section_title
;
Structure prediction by ZEFSAII (Michael W. Deem and Ramdas Pophale) SiO2 
 PCOD8016955
Probable space group: P -1
;
_chemical_formula_sum "Si O2"
_cell_formula_units_Z 12
_cell_length_a 15.964743
_cell_length_b 15.810954
_cell_length_c 5.159575
_cell_angle_alpha 90.326620
_cell_angle_beta 85.698318
_cell_angle_gamma 23.926324
_cell_volume 517.746529
_symmetry_space_group_name_H-M "P -1"
_symmetry_group_IT_number 2
_symmetry_cell_setting 'triclinic'
loop_
_space_group_symop_operation_xyz
x,y,z
-x,-y,-z
loop_
_atom_site_type_symbol
_atom_site_label
_atom_site_fract_x
_atom_site_fract_y
_atom_site_fract_z
Si Si1 0.144402 0.116167 0.940912
Si Si2 0.468932 0.929835 0.027202
Si Si3 0.713314 0.184924 0.900899
Si Si4 0.725532 0.445037 0.206096
Si Si5 0.745523 0.255590 0.404596
Si Si6 0.513151 0.792228 0.523721
O O1 0.219668 0.135977 0.053878
O O2 0.264364 0.997678 0.632327
O O3 0.892537 0.340483 0.981963
O O4 0.231280 0.965028 0.118797
O O5 0.596570 0.761940 0.766196
O O6 0.551472 0.821780 0.282062
O O7 0.500000 0.000000 0.000000
O O8 0.459417 0.423319 0.926323
O O9 0.831782 0.131126 0.646968
O O10 0.785060 0.155728 0.157285
O O11 0.846737 0.254453 0.316550
O O12 0.636021 0.591277 0.446411
O O13 0.500000 0.500000 0.500000
#
# Coordination Sequence:
#
# PCOD8016955 Si02
#       6
#     2   2   2   2   2   2
#     4  10  24  40  69  93 128 168 213 259 317 373
#     4  10  22  45  68  90 127 163 198 263 327 377
#     4  11  22  42  57  90 132 169 212 261 302 359
#     4  11  21  44  64  97 125 176 212 257 316 367
#     4  10  22  37  61  86 129 173 211 257 303 361
#     4  10  22  43  64  93 128 160 205 265 311 376
#
# _framework density 23.177365000000002
#
# number of rings (size 3 to 8) (size 9 to 14) (size 15 to 20)
#    1.000    0.667    1.667    4.500    0.000    2.667 
#   15.000    1.667    0.000    1.000    0.000    0.000 
#    0.000    0.000    0.000    0.000    0.000    0.000 
#
# Total GULP energy -148690.699329 kJ/mol
# GULP energy per Si atom -12390.891611 kJ/mol
# Density = 2.312461 g / cm^3
# Si number density = 23.177365 Si / 1000 Ang^3
#
#
#
# Elastic Constant Matrix: (Units=GPa)
#
#
# Indices 1 2 3 4 5 6 
#
# 1 163.4849 32.0150 65.7756 6.3088 -14.2281 17.8946
# 2 32.0150 32.2486 32.4830 -0.2333 -4.1399 4.4890
# 3 65.7756 32.4830 161.7048 -10.7432 -0.5621 9.3238
# 4 6.3088 -0.2333 -10.7432 37.9463 2.8071 -4.7189
# 5 -14.2281 -4.1399 -0.5621 2.8071 37.9101 3.4984
# 6 17.8946 4.4890 9.3238 -4.7189 3.4984 25.1915
#
#
#
# Elastic Compliance Matrix: (Units=1/GPa)
#
#
# Indices 1 2 3 4 5 6 
#
# 1 0.009282 -0.005378 -0.002567 -0.003294 0.003638 -0.005807
# 2 -0.005378 0.043571 -0.006508 -0.001166 0.002929 -0.002161
# 3 -0.002567 -0.006508 0.008698 0.003058 -0.001826 0.000590
# 4 -0.003294 -0.001166 0.003058 0.028989 -0.004150 0.007423
# 5 0.003638 0.002929 -0.001826 -0.004150 0.029012 -0.007237
# 6 -0.005807 -0.002161 0.000590 0.007423 -0.007237 0.046383
#
#
# Mechanical properties :
#
#
# Convention : Reuss Voigt Hill
#
# Bulk Modulus (GPa) = 30.63055 68.66505 49.64780
# Shear Modulus (GPa) = 24.30458 35.35388 29.82923
#
# Velocity S-wave (km/s) = 3.24178 3.90983 3.59137
# Velocity P-wave (km/s) = 5.22078 7.07620 6.21808
#
# Compressibility (1/GPa) = 0.03264714
#
# Stress axis : x y z
#
# Youngs Moduli (GPa) = 107.73582 22.95083 114.96670
#
# Poissons Ratio (x) = 0.12343 0.29508
# Poissons Ratio (y) = 0.57939 0.74817
# Poissons Ratio (z) = 0.27652 0.14936
#
# Static dielectric constant tensor:
#      x y z
#    x 4.170380 0.075690 -0.325880 
#    y 0.075690 3.852100 -0.001800 
#    z -0.325880 -0.001800 4.270800 
# 
# 
# High freq. dielectric constant tensor:
#      x y z
#    x 1.912510 0.003940 -0.014310 
#    y 0.003940 1.888610 0.002650 
#    z -0.014310 0.002650 1.925140 
# 
# From -- ./inp_files/43919.got.cif
#   From: 2010.06.25/outbox.cif.g09.slc.cpg/sg2_22_cif.got.tgz:43919.got - 2010.06.27 13:26:56.
