data_PCOD8016422
_publ_section_title
;
Structure prediction by ZEFSAII (Michael W. Deem and Ramdas Pophale) SiO2 
 PCOD8016422
Probable space group: P -1
;
_chemical_formula_sum "Si O2"
_cell_formula_units_Z 12
_cell_length_a 11.031838
_cell_length_b 11.705045
_cell_length_c 8.512016
_cell_angle_alpha 94.074489
_cell_angle_beta 61.966050
_cell_angle_gamma 143.414091
_cell_volume 470.111968
_symmetry_space_group_name_H-M "P -1"
_symmetry_group_IT_number 2
_symmetry_cell_setting 'triclinic'
loop_
_space_group_symop_operation_xyz
x,y,z
-x,-y,-z
loop_
_atom_site_type_symbol
_atom_site_label
_atom_site_fract_x
_atom_site_fract_y
_atom_site_fract_z
Si Si1 0.562688 0.953878 0.128189
Si Si2 0.812459 0.114174 0.585619
Si Si3 0.234509 0.287613 0.937287
Si Si4 0.386923 0.148549 0.613798
Si Si5 0.860632 0.670515 0.307385
Si Si6 0.650677 0.432440 0.871797
O O1 0.383672 0.938419 0.204853
O O2 0.514454 0.880588 0.331953
O O3 0.456271 0.775338 0.055484
O O4 0.897145 0.221086 0.928257
O O5 0.981675 0.161333 0.617393
O O6 0.034411 0.345062 0.366012
O O7 0.627555 0.901540 0.563155
O O8 0.346827 0.488373 0.965412
O O9 0.264982 0.324695 0.732824
O O10 0.433170 0.327289 0.867175
O O11 0.916606 0.023217 0.159113
O O12 0.626004 0.417633 0.495649
#
# Coordination Sequence:
#
# PCOD8016422 Si02
#       6
#     2   2   2   2   2   2
#     4  11  23  43  64  94 130 167 209 259 313 377
#     4  11  23  43  65  96 128 167 210 256 319 371
#     4   9  23  45  63  96 126 165 215 258 317 369
#     4  10  23  43  65  95 127 167 209 259 314 373
#     4  11  24  41  65  98 124 169 208 262 315 367
#     4  10  21  44  70  87 130 172 205 263 314 372
#
# _framework density 25.525835000000001
#
# number of rings (size 3 to 8) (size 9 to 14) (size 15 to 20)
#    0.000    1.667    1.667    1.500    2.333    4.000 
#    3.000    2.500    0.000    0.000    0.000    0.000 
#    0.000    0.000    0.000    0.000    0.000    0.000 
#
# Total GULP energy -148806.582136 kJ/mol
# GULP energy per Si atom -12400.548511 kJ/mol
# Density = 2.546774 g / cm^3
# Si number density = 25.525835 Si / 1000 Ang^3
#
#
#
# Elastic Constant Matrix: (Units=GPa)
#
#
# Indices 1 2 3 4 5 6 
#
# 1 87.5265 21.2272 2.5374 -2.0320 11.8173 9.8168
# 2 21.2272 90.7221 24.0994 5.5122 10.1488 19.1497
# 3 2.5374 24.0994 87.2141 -6.5173 2.2712 -8.4126
# 4 -2.0320 5.5122 -6.5173 37.0848 5.5999 -1.2769
# 5 11.8173 10.1488 2.2712 5.5999 43.0684 12.3733
# 6 9.8168 19.1497 -8.4126 -1.2769 12.3733 33.5331
#
#
#
# Elastic Compliance Matrix: (Units=1/GPa)
#
#
# Indices 1 2 3 4 5 6 
#
# 1 0.012572 -0.002641 0.000458 0.001547 -0.002772 -0.000976
# 2 -0.002641 0.015270 -0.005380 -0.003798 0.000689 -0.009696
# 3 0.000458 -0.005380 0.014003 0.003878 -0.002233 0.007423
# 4 0.001547 -0.003798 0.003878 0.029276 -0.005183 0.005716
# 5 -0.002772 0.000689 -0.002233 -0.005183 0.027636 -0.010537
# 6 -0.000976 -0.009696 0.007423 0.005716 -0.010537 0.041612
#
#
# Mechanical properties :
#
#
# Convention : Reuss Voigt Hill
#
# Bulk Modulus (GPa) = 37.42640 40.13228 38.77934
# Shear Modulus (GPa) = 30.41350 37.24382 33.82866
#
# Velocity S-wave (km/s) = 3.45553 3.82391 3.64438
# Velocity P-wave (km/s) = 5.53307 5.93740 5.73880
#
# Compressibility (1/GPa) = 0.02671911
#
# Stress axis : x y z
#
# Youngs Moduli (GPa) = 79.54183 65.48850 71.41214
#
# Poissons Ratio (x) = 0.17297 -0.03269
# Poissons Ratio (y) = 0.21008 0.38417
# Poissons Ratio (z) = -0.03641 0.35230
#
# Static dielectric constant tensor:
#      x y z
#    x 4.490190 0.474000 0.036070 
#    y 0.474000 4.710480 0.046090 
#    z 0.036070 0.046090 4.681960 
# 
# 
# High freq. dielectric constant tensor:
#      x y z
#    x 2.009790 0.028720 0.003680 
#    y 0.028720 2.017990 -0.000320 
#    z 0.003680 -0.000320 2.040110 
# 
# From -- ./inp_files/233257.got.cif
#   From: 2010.06.25/outbox.cif.g09.slc.cpg/sg2_117_cif.got.tgz:233257.got - 2010.06.27 13:26:56.
