data_PCOD8016271
_publ_section_title
;
Structure prediction by ZEFSAII (Michael W. Deem and Ramdas Pophale) SiO2 
 PCOD8016271
Probable space group: P -1
;
_chemical_formula_sum "Si O2"
_cell_formula_units_Z 16
_cell_length_a 21.895071
_cell_length_b 10.397716
_cell_length_c 9.779892
_cell_angle_alpha 126.606210
_cell_angle_beta 127.511476
_cell_angle_gamma 26.264290
_cell_volume 773.475149
_symmetry_space_group_name_H-M "P -1"
_symmetry_group_IT_number 2
_symmetry_cell_setting 'triclinic'
loop_
_space_group_symop_operation_xyz
x,y,z
-x,-y,-z
loop_
_atom_site_type_symbol
_atom_site_label
_atom_site_fract_x
_atom_site_fract_y
_atom_site_fract_z
Si Si1 0.825221 0.100629 0.949080
Si Si2 0.388189 0.241920 0.887963
Si Si3 0.517573 0.821300 0.311888
Si Si4 0.813865 0.676729 0.430888
Si Si5 0.757114 0.863149 0.775524
Si Si6 0.127698 0.074862 0.402301
Si Si7 0.197550 0.766601 0.549465
Si Si8 0.029269 0.749467 0.243821
O O1 0.766688 0.037010 0.889900
O O2 0.881952 0.981522 0.797626
O O3 0.701172 0.446099 0.995665
O O4 0.956333 0.925513 0.112288
O O5 0.476671 0.122610 0.797512
O O6 0.284657 0.272074 0.752438
O O7 0.500000 0.000000 0.000000
O O8 0.659743 0.479335 0.325506
O O9 0.500000 0.000000 0.500000
O O10 0.388827 0.922570 0.213268
O O11 0.762796 0.769704 0.575988
O O12 0.804379 0.867545 0.470125
O O13 0.973635 0.337160 0.425839
O O14 0.888535 0.563421 0.852828
O O15 0.225891 0.800115 0.462733
O O16 0.146562 0.675369 0.396173
O O17 0.086427 0.060241 0.673945
#
# Coordination Sequence:
#
# PCOD8016271 Si02
#       8
#     2   2   2   2   2   2   2   2
#     4  11  26  42  64 102 134 168 215 281 324 380
#     4  12  27  45  64  94 138 170 215 273 330 382
#     4  12  24  44  69  94 125 180 222 259 318 402
#     4  10  21  44  65  95 131 171 216 268 314 396
#     4  11  23  43  71  96 133 173 222 264 324 389
#     4  10  23  40  69  96 128 170 217 265 330 379
#     4  11  22  39  71  96 125 173 225 260 321 391
#     4  11  21  41  67  97 133 168 214 279 321 376
#
# _framework density 20.685862
#
# number of rings (size 3 to 8) (size 9 to 14) (size 15 to 20)
#    0.000    1.000    5.000    1.125    1.750    4.500 
#    2.250    2.500    0.000    0.000    0.000    0.000 
#    0.000    0.000    0.000    0.000    0.000    0.000 
#
# Total GULP energy -198479.091606 kJ/mol
# GULP energy per Si atom -12404.943225 kJ/mol
# Density = 2.063878 g / cm^3
# Si number density = 20.685862 Si / 1000 Ang^3
#
#
#
# Elastic Constant Matrix: (Units=GPa)
#
#
# Indices 1 2 3 4 5 6 
#
# 1 118.2045 58.2936 43.5104 -11.2509 -13.1429 -8.5416
# 2 58.2936 149.1485 49.8543 -15.0791 1.0464 11.3669
# 3 43.5104 49.8543 88.7778 -2.7837 -6.3472 8.1529
# 4 -11.2509 -15.0791 -2.7837 33.6097 6.7985 -9.2600
# 5 -13.1429 1.0464 -6.3472 6.7985 31.1425 -7.4030
# 6 -8.5416 11.3669 8.1529 -9.2600 -7.4030 26.9722
#
#
#
# Elastic Compliance Matrix: (Units=1/GPa)
#
#
# Indices 1 2 3 4 5 6 
#
# 1 0.014518 -0.004502 -0.004996 0.004128 0.007059 0.011360
# 2 -0.004502 0.010241 -0.003326 0.002318 -0.004669 -0.005222
# 3 -0.004996 -0.003326 0.016073 -0.003645 0.000620 -0.006120
# 4 0.004128 0.002318 -0.003645 0.036190 -0.003942 0.012775
# 5 0.007059 -0.004669 0.000620 -0.003942 0.039440 0.013487
# 6 0.011360 -0.005222 -0.006120 0.012775 0.013487 0.052811
#
#
# Mechanical properties :
#
#
# Convention : Reuss Voigt Hill
#
# Bulk Modulus (GPa) = 65.86372 73.27195 69.56784
# Shear Modulus (GPa) = 25.00218 31.97638 28.48928
#
# Velocity S-wave (km/s) = 3.48035 3.93594 3.71514
# Velocity P-wave (km/s) = 6.93250 7.49358 7.21849
#
# Compressibility (1/GPa) = 0.01518287
#
# Stress axis : x y z
#
# Youngs Moduli (GPa) = 68.88041 97.64425 62.21754
#
# Poissons Ratio (x) = 0.43961 0.31085
# Poissons Ratio (y) = 0.31011 0.20695
# Poissons Ratio (z) = 0.34414 0.32478
#
# Static dielectric constant tensor:
#      x y z
#    x 3.829040 0.061460 -0.171010 
#    y 0.061460 3.736950 0.179720 
#    z -0.171010 0.179720 3.462400 
# 
# 
# High freq. dielectric constant tensor:
#      x y z
#    x 1.817050 0.007840 -0.004450 
#    y 0.007840 1.814100 0.001650 
#    z -0.004450 0.001650 1.807970 
# 
# From -- ./inp_files/209518.got.cif
#   From: 2010.06.25/outbox.cif.g09.slc.cpg/sg2_105_cif.got.tgz:209518.got - 2010.06.27 13:26:56.
