data_PCOD8016879
_publ_section_title
;
Structure prediction by ZEFSAII (Michael W. Deem and Ramdas Pophale) SiO2 
 PCOD8016879
Probable space group: P -1
;
_chemical_formula_sum "Si O2"
_cell_formula_units_Z 14
_cell_length_a 21.663846
_cell_length_b 9.557517
_cell_length_c 5.306064
_cell_angle_alpha 106.965143
_cell_angle_beta 121.659312
_cell_angle_gamma 43.417673
_cell_volume 635.174489
_symmetry_space_group_name_H-M "P -1"
_symmetry_group_IT_number 2
_symmetry_cell_setting 'triclinic'
loop_
_space_group_symop_operation_xyz
x,y,z
-x,-y,-z
loop_
_atom_site_type_symbol
_atom_site_label
_atom_site_fract_x
_atom_site_fract_y
_atom_site_fract_z
Si Si1 0.570803 0.556858 0.913418
Si Si2 0.083270 0.329653 0.394365
Si Si3 0.204089 0.830174 0.936796
Si Si4 0.892016 0.483923 0.853565
Si Si5 0.469749 0.724590 0.284523
Si Si6 0.114176 0.837045 0.256573
Si Si7 0.237918 0.085855 0.967241
O O1 0.517882 0.714108 0.644721
O O2 0.531016 0.448509 0.790727
O O3 0.692057 0.391282 0.056709
O O4 0.538027 0.681451 0.170786
O O5 0.126707 0.414279 0.401170
O O6 0.182491 0.104921 0.602473
O O7 0.000000 0.500000 0.500000
O O8 0.016744 0.312779 0.069250
O O9 0.122399 0.911465 0.580972
O O10 0.218639 0.985901 0.081073
O O11 0.181648 0.802503 0.152580
O O12 0.851945 0.376708 0.721869
O O13 0.822761 0.677525 0.996206
O O14 0.356828 0.950073 0.118544
O O15 0.000000 0.000000 0.000000
#
# Coordination Sequence:
#
# PCOD8016879 Si02
#       7
#     2   2   2   2   2   2   2
#     4   9  18  36  56  87 122 154 192 252 311 352
#     4   9  20  36  60  85 120 159 205 252 300 357
#     4  11  25  41  64  91 127 164 203 252 309 364
#     4  10  23  39  61  86 126 164 204 252 305 362
#     4   9  18  32  60  90 117 148 202 256 299 353
#     4  12  27  42  63  91 128 167 204 246 302 374
#     4  10  22  36  65  93 119 158 209 258 303 357
#
# _framework density 22.041188999999999
#
# number of rings (size 3 to 8) (size 9 to 14) (size 15 to 20)
#    0.000    2.000    0.000    2.143   14.000    2.286 
#    0.000    0.000    0.000    5.143    0.000    0.000 
#    0.000    0.000    0.000    0.000    0.000    0.000 
#
# Total GULP energy -173463.611059 kJ/mol
# GULP energy per Si atom -12390.257933 kJ/mol
# Density = 2.199102 g / cm^3
# Si number density = 22.041189 Si / 1000 Ang^3
#
#
#
# Elastic Constant Matrix: (Units=GPa)
#
#
# Indices 1 2 3 4 5 6 
#
# 1 80.5676 0.1710 -0.9835 5.9411 -20.8059 5.0898
# 2 0.1710 50.8982 1.1874 -11.0033 5.7660 5.1519
# 3 -0.9835 1.1874 80.1944 -18.1719 -20.2086 -4.2068
# 4 5.9411 -11.0033 -18.1719 40.1461 -4.1054 9.0720
# 5 -20.8059 5.7660 -20.2086 -4.1054 35.1103 1.8914
# 6 5.0898 5.1519 -4.2068 9.0720 1.8914 33.5823
#
#
#
# Elastic Compliance Matrix: (Units=1/GPa)
#
#
# Indices 1 2 3 4 5 6 
#
# 1 0.015494 -0.001023 0.003041 0.000545 0.011303 -0.002594
# 2 -0.001023 0.022021 0.000267 0.007122 -0.002969 -0.004946
# 3 0.003041 0.000267 0.017896 0.009429 0.013245 -0.001553
# 4 0.000545 0.007122 0.009429 0.034180 0.009102 -0.009740
# 5 0.011303 -0.002969 0.013245 0.009102 0.044601 -0.004569
# 6 -0.002594 -0.004946 -0.001553 -0.009740 -0.004569 0.033624
#
#
# Mechanical properties :
#
#
# Convention : Reuss Voigt Hill
#
# Bulk Modulus (GPa) = 16.67175 23.60112 20.13643
# Shear Modulus (GPa) = 27.28682 35.85343 31.57013
#
# Velocity S-wave (km/s) = 3.52233 4.03756 3.78871
# Velocity P-wave (km/s) = 4.91149 5.69797 5.31928
#
# Compressibility (1/GPa) = 0.05998171
#
# Stress axis : x y z
#
# Youngs Moduli (GPa) = 64.54151 45.41117 55.87916
#
# Poissons Ratio (x) = 0.04646 -0.16993
# Poissons Ratio (y) = 0.06603 -0.01495
# Poissons Ratio (z) = -0.19627 -0.01215
#
# Static dielectric constant tensor:
#      x y z
#    x 3.979650 -0.235080 -0.402160 
#    y -0.235080 0.611040 -4.096200 
#    z -0.402160 -4.096200 -0.402140 
# 
# 
# High freq. dielectric constant tensor:
#      x y z
#    x 1.857210 -0.016160 -0.024570 
#    y -0.016160 1.845890 -0.019090 
#    z -0.024570 -0.019090 1.867550 
# 
# From -- ./inp_files/105241.got.cif
#   From: 2010.06.25/outbox.cif.g09.slc.cpg/sg2_53_cif.got.tgz:105241.got - 2010.06.27 13:26:56.
