data_PCOD8016596
_publ_section_title
;
Structure prediction by ZEFSAII (Michael W. Deem and Ramdas Pophale) SiO2 
 PCOD8016596
Probable space group: P -1
;
_chemical_formula_sum "Si O2"
_cell_formula_units_Z 16
_cell_length_a 9.180910
_cell_length_b 12.638337
_cell_length_c 15.180148
_cell_angle_alpha 143.114423
_cell_angle_beta 113.540275
_cell_angle_gamma 47.667945
_cell_volume 742.071163
_symmetry_space_group_name_H-M "P -1"
_symmetry_group_IT_number 2
_symmetry_cell_setting 'triclinic'
loop_
_space_group_symop_operation_xyz
x,y,z
-x,-y,-z
loop_
_atom_site_type_symbol
_atom_site_label
_atom_site_fract_x
_atom_site_fract_y
_atom_site_fract_z
Si Si1 0.903064 0.332301 0.067456
Si Si2 0.677187 0.161224 0.936947
Si Si3 0.939870 0.242725 0.642897
Si Si4 0.696140 0.472739 0.560412
Si Si5 0.763651 0.351243 0.858624
Si Si6 0.728276 0.781868 0.388199
Si Si7 0.327828 0.128382 0.117403
Si Si8 0.121847 0.106045 0.357671
O O1 0.717250 0.585683 0.228559
O O2 0.110033 0.281969 0.116095
O O3 0.867127 0.165991 0.991286
O O4 0.901166 0.324666 0.955798
O O5 0.646173 0.072756 0.957990
O O6 0.751999 0.970450 0.753223
O O7 0.472335 0.415241 0.028881
O O8 0.765557 0.386830 0.620870
O O9 0.846679 0.370207 0.799339
O O10 0.151130 0.201336 0.649801
O O11 0.000000 0.000000 0.500000
O O12 0.500000 0.500000 0.500000
O O13 0.649933 0.716992 0.710180
O O14 0.871306 0.279471 0.404444
O O15 0.786617 0.122272 0.714049
O O16 0.850732 0.730724 0.474259
O O17 0.500000 0.000000 0.500000
O O18 0.500000 0.000000 0.000000
#
# Coordination Sequence:
#
# PCOD8016596 Si02
#       8
#     2   2   2   2   2   2   2   2
#     4  11  24  45  71 101 145 183 227 292 345 410
#     4  11  25  44  73 101 137 193 229 277 356 418
#     4  11  22  43  71 101 136 179 232 287 341 410
#     4  11  25  48  70  98 143 185 229 291 348 403
#     4  11  22  44  72 104 135 181 235 285 348 411
#     4  11  21  41  65 105 141 172 226 289 350 399
#     4  12  27  49  67 103 144 185 236 285 342 426
#     4  10  21  45  68  98 143 174 236 291 335 415
#
# _framework density 21.561275999999999
#
# number of rings (size 3 to 8) (size 9 to 14) (size 15 to 20)
#    0.000    1.000    5.000    4.125    3.500    1.000 
#    9.000    0.000    0.000    0.000    0.000    0.000 
#    0.000    0.000    0.000    0.000    0.000    0.000 
#
# Total GULP energy -198287.805967 kJ/mol
# GULP energy per Si atom -12392.987873 kJ/mol
# Density = 2.151220 g / cm^3
# Si number density = 21.561276 Si / 1000 Ang^3
#
#
#
# Elastic Constant Matrix: (Units=GPa)
#
#
# Indices 1 2 3 4 5 6 
#
# 1 119.0907 50.9439 51.9421 -12.4075 -19.0412 -3.0213
# 2 50.9439 85.5817 32.1061 -2.3053 -1.9606 -0.0095
# 3 51.9421 32.1061 133.9774 -4.5093 -10.7986 5.5805
# 4 -12.4075 -2.3053 -4.5093 34.9283 -4.7931 -3.9045
# 5 -19.0412 -1.9606 -10.7986 -4.7931 45.9865 -3.7445
# 6 -3.0213 -0.0095 5.5805 -3.9045 -3.7445 36.9261
#
#
#
# Elastic Compliance Matrix: (Units=1/GPa)
#
#
# Indices 1 2 3 4 5 6 
#
# 1 0.014412 -0.007037 -0.003384 0.005310 0.005656 0.002824
# 2 -0.007037 0.016292 -0.001440 -0.002097 -0.002846 -0.000864
# 3 -0.003384 -0.001440 0.009226 -0.000214 0.000548 -0.001639
# 4 0.005310 -0.002097 -0.000214 0.031625 0.005713 0.004390
# 5 0.005656 -0.002846 0.000548 0.005713 0.024977 0.003516
# 6 0.002824 -0.000864 -0.001639 0.004390 0.003516 0.028380
#
#
# Mechanical properties :
#
#
# Convention : Reuss Voigt Hill
#
# Bulk Modulus (GPa) = 61.69607 67.62600 64.66104
# Shear Modulus (GPa) = 32.45963 37.14537 34.80250
#
# Velocity S-wave (km/s) = 3.88423 4.15514 4.02197
# Velocity P-wave (km/s) = 6.98518 7.37922 7.18491
#
# Compressibility (1/GPa) = 0.01620849
#
# Stress axis : x y z
#
# Youngs Moduli (GPa) = 69.38458 61.38031 108.38513
#
# Poissons Ratio (x) = 0.43191 0.36681
# Poissons Ratio (y) = 0.48824 0.15608
# Poissons Ratio (z) = 0.23482 0.08839
#
# Static dielectric constant tensor:
#      x y z
#    x 2.823270 0.398100 -0.559360 
#    y 0.398100 3.763970 0.249000 
#    z -0.559360 0.249000 4.060610 
# 
# 
# High freq. dielectric constant tensor:
#      x y z
#    x 1.846070 -0.005970 -0.007650 
#    y -0.005970 1.826060 0.006240 
#    z -0.007650 0.006240 1.872790 
# 
# From -- ./inp_files/446746.got.cif
#   From: 2010.06.25/outbox.cif.g09.slc.cpg/sg2_224_cif.got.tgz:446746.got - 2010.06.27 13:26:56.
