data_PCOD8016928
_publ_section_title
;
Structure prediction by ZEFSAII (Michael W. Deem and Ramdas Pophale) SiO2 
 PCOD8016928
Probable space group: P -1
;
_chemical_formula_sum "Si O2"
_cell_formula_units_Z 12
_cell_length_a 10.393666
_cell_length_b 28.166997
_cell_length_c 9.515094
_cell_angle_alpha 32.775070
_cell_angle_beta 43.411404
_cell_angle_gamma 25.510677
_cell_volume 643.155966
_symmetry_space_group_name_H-M "P -1"
_symmetry_group_IT_number 2
_symmetry_cell_setting 'triclinic'
loop_
_space_group_symop_operation_xyz
x,y,z
-x,-y,-z
loop_
_atom_site_type_symbol
_atom_site_label
_atom_site_fract_x
_atom_site_fract_y
_atom_site_fract_z
Si Si1 0.189466 0.538630 0.368939
Si Si2 0.845476 0.355945 0.380533
Si Si3 0.925552 0.611668 0.098335
Si Si4 0.764735 0.005953 0.659863
Si Si5 0.132523 0.225402 0.757342
Si Si6 0.424575 0.103962 0.408362
O O1 0.525684 0.442884 0.367933
O O2 0.164680 0.455101 0.673196
O O3 0.140447 0.550690 0.212062
O O4 0.943050 0.696092 0.234805
O O5 0.875086 0.348533 0.543530
O O6 0.112355 0.193262 0.515297
O O7 0.894588 0.433342 0.076862
O O8 0.629938 0.784117 0.910815
O O9 0.460123 0.137130 0.663311
O O10 0.691452 0.018699 0.521749
O O11 0.000000 0.000000 0.500000
O O12 0.901197 0.866137 0.961844
O O13 0.500000 0.000000 0.500000
#
# Coordination Sequence:
#
# PCOD8016928 Si02
#       6
#     2   2   2   2   2   2
#     4  11  20  38  58  85 116 149 188 235 289 337
#     4   9  21  36  58  83 116 147 188 237 283 341
#     4   9  22  36  56  83 119 145 194 234 274 351
#     4  10  22  40  59  86 117 151 196 237 283 346
#     4  10  22  37  60  86 115 148 192 240 282 340
#     4   9  19  40  58  81 114 151 190 236 280 337
#
# _framework density 18.657993000000001
#
# number of rings (size 3 to 8) (size 9 to 14) (size 15 to 20)
#    1.000    1.333    0.000    2.000    2.333    2.000 
#    6.000    0.833    0.000    0.000    0.000    0.000 
#    0.000    0.000    0.000    0.000    0.000    0.000 
#
# Total GULP energy -148702.683915 kJ/mol
# GULP energy per Si atom -12391.890326 kJ/mol
# Density = 1.861553 g / cm^3
# Si number density = 18.657993 Si / 1000 Ang^3
#
#
#
# Elastic Constant Matrix: (Units=GPa)
#
#
# Indices 1 2 3 4 5 6 
#
# 1 1645.1205 442.1319 121.1193 58.9663 36.6920 -387.6968
# 2 442.1319 165.4468 40.5186 12.9776 -2.9609 -105.6919
# 3 121.1193 40.5186 138.4624 8.9640 0.2842 -32.7559
# 4 58.9663 12.9776 8.9640 22.9455 0.6882 -19.2453
# 5 36.6920 -2.9609 0.2842 0.6882 34.1945 -12.0803
# 6 -387.6968 -105.6919 -32.7559 -19.2453 -12.0803 117.8153
#
#
#
# Elastic Compliance Matrix: (Units=1/GPa)
#
#
# Indices 1 2 3 4 5 6 
#
# 1 0.004252 -0.006149 0.000054 -0.000547 -0.002196 0.008175
# 2 -0.006149 0.024820 -0.001405 0.004916 0.009881 0.003458
# 3 0.000054 -0.001405 0.007896 -0.001728 0.000086 0.000840
# 4 -0.000547 0.004916 -0.001728 0.052011 0.003875 0.011025
# 5 -0.002196 0.009881 0.000086 0.003875 0.034436 0.005827
# 6 0.008175 0.003458 0.000840 0.011025 0.005827 0.041124
#
#
# Mechanical properties :
#
#
# Convention : Reuss Voigt Hill
#
# Bulk Modulus (GPa) = 45.51908 350.72993 198.12450
# Shear Modulus (GPa) = 26.75768 124.67505 75.71637
#
# Velocity S-wave (km/s) = 3.79108 8.18330 6.37725
# Velocity P-wave (km/s) = 6.60398 16.66358 12.67453
#
# Compressibility (1/GPa) = 0.02196881
#
# Stress axis : x y z
#
# Youngs Moduli (GPa) = 235.20829 40.28952 126.64171
#
# Poissons Ratio (x) = 0.24773 -0.00686
# Poissons Ratio (y) = 1.44624 0.17795
# Poissons Ratio (z) = -0.01275 0.05661
#
# Static dielectric constant tensor:
#      x y z
#    x 3.256980 0.020940 0.243260 
#    y 0.020940 3.261590 -0.005760 
#    z 0.243260 -0.005760 3.537910 
# 
# 
# High freq. dielectric constant tensor:
#      x y z
#    x 1.720960 -0.001040 0.017960 
#    y -0.001040 1.709560 -0.001990 
#    z 0.017960 -0.001990 1.734430 
# 
# From -- ./inp_files/182828.got.cif
#   From: 2010.06.25/outbox.cif.g09.slc.cpg/sg2_92_cif.got.tgz:182828.got - 2010.06.27 13:26:56.
