data_PCOD8016917
_publ_section_title
;
Structure prediction by ZEFSAII (Michael W. Deem and Ramdas Pophale) SiO2 
 PCOD8016917
Probable space group: P -1
;
_chemical_formula_sum "Si O2"
_cell_formula_units_Z 12
_cell_length_a 18.781686
_cell_length_b 12.882160
_cell_length_c 14.254335
_cell_angle_alpha 28.802155
_cell_angle_beta 160.407680
_cell_angle_gamma 152.250073
_cell_volume 518.099385
_symmetry_space_group_name_H-M "P -1"
_symmetry_group_IT_number 2
_symmetry_cell_setting 'triclinic'
loop_
_space_group_symop_operation_xyz
x,y,z
-x,-y,-z
loop_
_atom_site_type_symbol
_atom_site_label
_atom_site_fract_x
_atom_site_fract_y
_atom_site_fract_z
Si Si1 0.469115 0.079243 0.184709
Si Si2 0.430877 0.218661 0.219706
Si Si3 0.037072 0.746269 0.395212
Si Si4 0.840626 0.264565 0.234037
Si Si5 0.756584 0.418616 0.620901
Si Si6 0.350122 0.192302 0.744267
O O1 0.295984 0.830405 0.201474
O O2 0.369892 0.138011 0.920528
O O3 0.484229 0.271899 0.132155
O O4 0.720965 0.071725 0.486098
O O5 0.583033 0.418052 0.320925
O O6 0.500000 0.000000 0.500000
O O7 0.165097 0.166839 0.953840
O O8 0.038310 0.726875 0.523780
O O9 0.000000 0.500000 0.500000
O O10 0.988032 0.486711 0.179291
O O11 0.590585 0.271949 0.926229
O O12 0.831226 0.030206 0.355416
O O13 0.736310 0.594244 0.536835
#
# Coordination Sequence:
#
# PCOD8016917 Si02
#       6
#     2   2   2   2   2   2
#     4  10  23  39  62  93 122 161 209 253 306 370
#     4  10  22  37  58  91 126 157 201 256 306 361
#     4  11  22  40  66  91 123 166 206 252 313 372
#     4  10  22  39  61  88 120 159 203 255 306 362
#     4  11  22  37  61  89 119 161 205 252 305 361
#     4  10  22  42  60  85 125 161 203 253 306 367
#
# _framework density 23.161581999999999
#
# number of rings (size 3 to 8) (size 9 to 14) (size 15 to 20)
#    0.000    1.667    0.000    4.500    0.000    8.000 
#    0.000    9.167    0.000    0.000    0.000    0.000 
#    0.000    0.000    0.000    0.000    0.000    0.000 
#
# Total GULP energy -148805.603643 kJ/mol
# GULP energy per Si atom -12400.466970 kJ/mol
# Density = 2.310886 g / cm^3
# Si number density = 23.161582 Si / 1000 Ang^3
#
#
#
# Elastic Constant Matrix: (Units=GPa)
#
#
# Indices 1 2 3 4 5 6 
#
# 1 99.1857 45.5233 10.6558 -3.1289 18.2173 -12.9132
# 2 45.5233 104.4361 13.8334 6.9729 12.4349 0.2399
# 3 10.6558 13.8334 71.3250 1.9689 13.4430 1.6606
# 4 -3.1289 6.9729 1.9689 28.5302 -1.6626 10.0990
# 5 18.2173 12.4349 13.4430 -1.6626 25.8536 7.4726
# 6 -12.9132 0.2399 1.6606 10.0990 7.4726 53.7466
#
#
#
# Elastic Compliance Matrix: (Units=1/GPa)
#
#
# Indices 1 2 3 4 5 6 
#
# 1 0.014942 -0.005509 0.000490 0.000706 -0.009472 0.004784
# 2 -0.005509 0.012566 -0.001198 -0.003528 -0.001636 -0.000452
# 3 0.000490 -0.001198 0.015782 -0.001624 -0.008400 0.001109
# 4 0.000706 -0.003528 -0.001624 0.039383 0.006926 -0.008127
# 5 -0.009472 -0.001636 -0.008400 0.006926 0.054083 -0.010830
# 6 0.004784 -0.000452 0.001109 -0.008127 -0.010830 0.022756
#
#
# Mechanical properties :
#
#
# Convention : Reuss Voigt Hill
#
# Bulk Modulus (GPa) = 32.40666 46.10797 39.25731
# Shear Modulus (GPa) = 27.43766 35.28838 31.36302
#
# Velocity S-wave (km/s) = 3.44556 3.90753 3.68380
# Velocity P-wave (km/s) = 5.46362 6.34892 5.92283
#
# Compressibility (1/GPa) = 0.03085786
#
# Stress axis : x y z
#
# Youngs Moduli (GPa) = 66.92344 79.57671 63.36460
#
# Poissons Ratio (x) = 0.43836 -0.03107
# Poissons Ratio (y) = 0.36866 0.07591
# Poissons Ratio (z) = -0.03281 0.09534
#
# Static dielectric constant tensor:
#      x y z
#    x 4.591400 -0.407590 0.259430 
#    y -0.407590 4.314770 0.260820 
#    z 0.259430 0.260820 3.925700 
# 
# 
# High freq. dielectric constant tensor:
#      x y z
#    x 1.928060 -0.014540 0.018620 
#    y -0.014540 1.921600 0.012420 
#    z 0.018620 0.012420 1.902250 
# 
# From -- ./inp_files/398060.got.cif
#   From: 2010.06.25/outbox.cif.g09.slc.cpg/sg2_200_cif.got.tgz:398060.got - 2010.06.27 13:26:56.
