data_PCOD8016183
_publ_section_title
;
Structure prediction by ZEFSAII (Michael W. Deem and Ramdas Pophale) SiO2 
 PCOD8016183
Probable space group: P -1
;
_chemical_formula_sum "Si O2"
_cell_formula_units_Z 16
_cell_length_a 13.025570
_cell_length_b 9.441296
_cell_length_c 9.946137
_cell_angle_alpha 117.673248
_cell_angle_beta 47.892397
_cell_angle_gamma 123.725394
_cell_volume 746.266693
_symmetry_space_group_name_H-M "P -1"
_symmetry_group_IT_number 2
_symmetry_cell_setting 'triclinic'
loop_
_space_group_symop_operation_xyz
x,y,z
-x,-y,-z
loop_
_atom_site_type_symbol
_atom_site_label
_atom_site_fract_x
_atom_site_fract_y
_atom_site_fract_z
Si Si1 0.342483 0.330744 0.206570
Si Si2 0.835111 0.503774 0.048181
Si Si3 0.665793 0.410648 0.899659
Si Si4 0.346569 0.843500 0.603014
Si Si5 0.874998 0.303955 0.516472
Si Si6 0.361974 0.506493 0.544513
Si Si7 0.959487 0.947726 0.664783
Si Si8 0.116828 0.789224 0.994132
O O1 0.322914 0.471892 0.187700
O O2 0.324450 0.378723 0.396098
O O3 0.216409 0.149284 0.209934
O O4 0.494703 0.300193 0.033364
O O5 0.779465 0.555220 0.260060
O O6 0.827823 0.306395 0.977578
O O7 0.735950 0.523388 0.019730
O O8 0.003158 0.636109 0.934046
O O9 0.758208 0.289447 0.733023
O O10 0.227576 0.754883 0.551169
O O11 0.404848 0.701251 0.545169
O O12 0.255529 0.899814 0.824995
O O13 0.500000 0.000000 0.500000
O O14 0.000000 0.500000 0.500000
O O15 0.951281 0.166553 0.410939
O O16 0.500000 0.500000 0.500000
O O17 0.000000 0.000000 0.500000
O O18 0.981064 0.107343 0.814858
#
# Coordination Sequence:
#
# PCOD8016183 Si02
#       8
#     2   2   2   2   2   2   2   2
#     4  11  24  41  69 101 136 175 238 280 339 419
#     4  10  21  43  72  97 132 184 233 279 342 415
#     4  11  22  41  71 100 130 183 230 286 336 413
#     4  11  26  43  66 104 144 177 223 294 355 407
#     4  12  24  47  70  98 138 187 233 280 343 417
#     4  11  21  43  69  99 134 181 229 282 343 418
#     4  12  26  45  68 102 139 181 229 291 345 409
#     4  10  24  43  68  99 139 178 231 284 344 418
#
# _framework density 21.440058000000001
#
# number of rings (size 3 to 8) (size 9 to 14) (size 15 to 20)
#    0.000    1.000    3.750    2.250    1.750    4.500 
#    0.000    1.250    0.000    0.000    0.000    0.000 
#    0.000    0.000    0.000    0.000    0.000    0.000 
#
# Total GULP energy -198317.377631 kJ/mol
# GULP energy per Si atom -12394.836102 kJ/mol
# Density = 2.139126 g / cm^3
# Si number density = 21.440058 Si / 1000 Ang^3
#
#
#
# Elastic Constant Matrix: (Units=GPa)
#
#
# Indices 1 2 3 4 5 6 
#
# 1 147.3730 45.8467 54.7079 -3.4838 -1.3404 0.4854
# 2 45.8467 70.0441 54.1428 6.0768 -14.0577 1.8501
# 3 54.7079 54.1428 146.8296 0.0947 -15.2332 -2.6031
# 4 -3.4838 6.0768 0.0947 27.5429 2.8822 -7.6548
# 5 -1.3404 -14.0577 -15.2332 2.8822 43.6335 1.0989
# 6 0.4854 1.8501 -2.6031 -7.6548 1.0989 30.9765
#
#
#
# Elastic Compliance Matrix: (Units=1/GPa)
#
#
# Indices 1 2 3 4 5 6 
#
# 1 0.009120 -0.005440 -0.001612 0.002823 -0.002242 0.000824
# 2 -0.005440 0.025001 -0.006616 -0.007987 0.006210 -0.004158
# 3 -0.001612 -0.006616 0.009999 0.001544 0.001168 0.001601
# 4 0.002823 -0.007987 0.001544 0.042037 -0.005004 0.011128
# 5 -0.002242 0.006210 0.001168 -0.005004 0.025648 -0.002384
# 6 0.000824 -0.004158 0.001601 0.011128 -0.002384 0.035487
#
#
# Mechanical properties :
#
#
# Convention : Reuss Voigt Hill
#
# Bulk Modulus (GPa) = 59.58199 74.84907 67.21553
# Shear Modulus (GPa) = 27.74330 34.40053 31.07191
#
# Velocity S-wave (km/s) = 3.60111 4.00996 3.81103
# Velocity P-wave (km/s) = 6.71871 7.51175 7.12627
#
# Compressibility (1/GPa) = 0.01678359
#
# Stress axis : x y z
#
# Youngs Moduli (GPa) = 109.65086 39.99875 100.00571
#
# Poissons Ratio (x) = 0.21760 0.16120
# Poissons Ratio (y) = 0.59651 0.66167
# Poissons Ratio (z) = 0.17674 0.26464
#
# Static dielectric constant tensor:
#      x y z
#    x 4.000750 -0.275560 -0.072640 
#    y -0.275560 1.540320 -0.122340 
#    z -0.072640 -0.122340 4.208620 
# 
# 
# High freq. dielectric constant tensor:
#      x y z
#    x 1.855640 0.002770 -0.007010 
#    y 0.002770 1.819360 -0.007000 
#    z -0.007010 -0.007000 1.862470 
# 
# From -- ./inp_files/244912.got.cif
#   From: 2010.06.25/outbox.cif.g09.slc.cpg/sg2_123_cif.got.tgz:244912.got - 2010.06.27 13:26:56.
