data_PCOD8016929
_publ_section_title
;
Structure prediction by ZEFSAII (Michael W. Deem and Ramdas Pophale) SiO2 
 PCOD8016929
Probable space group: P -1
;
_chemical_formula_sum "Si O2"
_cell_formula_units_Z 14
_cell_length_a 14.233165
_cell_length_b 14.120266
_cell_length_c 11.241637
_cell_angle_alpha 55.466626
_cell_angle_beta 124.791129
_cell_angle_gamma 159.151722
_cell_volume 655.941342
_symmetry_space_group_name_H-M "P -1"
_symmetry_group_IT_number 2
_symmetry_cell_setting 'triclinic'
loop_
_space_group_symop_operation_xyz
x,y,z
-x,-y,-z
loop_
_atom_site_type_symbol
_atom_site_label
_atom_site_fract_x
_atom_site_fract_y
_atom_site_fract_z
Si Si1 0.101578 0.967956 0.127927
Si Si2 0.277057 0.753707 0.171552
Si Si3 0.652692 0.804089 0.093877
Si Si4 0.649199 0.420627 0.587647
Si Si5 0.609130 0.496950 0.253767
Si Si6 0.096214 0.964973 0.638422
Si Si7 0.290655 0.678687 0.967611
O O1 0.854008 0.677501 0.217630
O O2 0.342897 0.191933 0.236873
O O3 0.200712 0.002623 0.050875
O O4 0.000000 0.000000 0.000000
O O5 0.296307 0.664526 0.341084
O O6 0.003843 0.575646 0.117234
O O7 0.516615 0.058918 0.150434
O O8 0.298965 0.715190 0.086101
O O9 0.565266 0.594788 0.148020
O O10 0.856028 0.989553 0.218604
O O11 0.387975 0.636484 0.050544
O O12 0.676528 0.521119 0.418356
O O13 0.868743 0.664271 0.666448
O O14 0.358786 0.169009 0.612329
O O15 0.000000 0.000000 0.500000
#
# Coordination Sequence:
#
# PCOD8016929 Si02
#       7
#     2   2   2   2   2   2   2
#     4  10  23  41  60  89 122 163 207 247 297 360
#     4  10  22  40  56  87 123 161 204 238 303 364
#     4  11  23  40  65  92 127 157 204 255 307 360
#     4  12  24  41  62  88 130 165 197 245 312 375
#     4  11  24  41  63  89 124 163 203 249 303 363
#     4  12  25  37  58  98 130 158 193 247 319 377
#     4  10  22  37  60  86 122 159 200 251 295 362
#
# _framework density 21.343373
#
# number of rings (size 3 to 8) (size 9 to 14) (size 15 to 20)
#    0.000    1.143    2.857    3.857    6.000    4.571 
#    0.000    0.000    0.000    5.143    0.000    0.000 
#    0.000    0.000    0.000    0.000    0.000    0.000 
#
# Total GULP energy -173628.124597 kJ/mol
# GULP energy per Si atom -12402.008900 kJ/mol
# Density = 2.129479 g / cm^3
# Si number density = 21.343373 Si / 1000 Ang^3
#
#
#
# Elastic Constant Matrix: (Units=GPa)
#
#
# Indices 1 2 3 4 5 6 
#
# 1 85.3546 23.5191 46.4662 11.2523 11.8012 19.4072
# 2 23.5191 96.5185 28.1024 7.0662 14.9633 16.1965
# 3 46.4662 28.1024 64.6932 5.3009 10.0941 -2.9206
# 4 11.2523 7.0662 5.3009 25.7522 -10.4591 10.0925
# 5 11.8012 14.9633 10.0941 -10.4591 21.5146 12.2467
# 6 19.4072 16.1965 -2.9206 10.0925 12.2467 21.5000
#
#
#
# Elastic Compliance Matrix: (Units=1/GPa)
#
#
# Indices 1 2 3 4 5 6 
#
# 1 0.013307 0.000423 0.004791 -0.046447 -0.056504 0.042309
# 2 0.000423 0.013750 -0.002257 -0.012627 -0.017700 0.004963
# 3 0.004791 -0.002257 -0.010669 0.071291 0.088749 -0.088092
# 4 -0.046447 -0.012627 0.071291 -0.067203 -0.125204 0.163986
# 5 -0.056504 -0.017700 0.088749 -0.125204 -0.132684 0.210746
# 6 0.042309 0.004963 -0.088092 0.163986 0.210746 -0.204406
#
#
# Mechanical properties :
#
#
# Convention : Reuss Voigt Hill
#
# Bulk Modulus (GPa) = 44.83821 49.19354 47.01587
# Shear Modulus (GPa) = -12.94043 23.65194 5.35575
#
# Velocity S-wave (km/s) = -2.46498 3.33252 1.58580
# Velocity P-wave (km/s) = 3.59890 6.15680 5.04274
#
# Compressibility (1/GPa) = 0.02230241
#
# Stress axis : x y z
#
# Youngs Moduli (GPa) = 75.15059 72.72550 -93.72576
#
# Poissons Ratio (x) = -0.03077 0.44903
# Poissons Ratio (y) = -0.03179 -0.21149
# Poissons Ratio (z) = -0.36004 0.16411
#
# Static dielectric constant tensor:
#      x y z
#    x 4.116580 0.357720 -0.194410 
#    y 0.357720 4.077450 -0.112230 
#    z -0.194410 -0.112230 4.094420 
# 
# 
# High freq. dielectric constant tensor:
#      x y z
#    x 1.819290 0.019090 0.003730 
#    y 0.019090 1.849380 0.000070 
#    z 0.003730 0.000070 1.828890 
# 
# From -- ./inp_files/68634.got.cif
#   From: 2010.06.25/outbox.cif.g09.slc.cpg/sg2_35_cif.got.tgz:68634.got - 2010.06.27 13:26:56.
