data_PCOD8016755
_publ_section_title
;
Structure prediction by ZEFSAII (Michael W. Deem and Ramdas Pophale) SiO2 
 PCOD8016755
Probable space group: P -1
;
_chemical_formula_sum "Si O2"
_cell_formula_units_Z 14
_cell_length_a 11.425883
_cell_length_b 4.988287
_cell_length_c 12.877868
_cell_angle_alpha 81.126006
_cell_angle_beta 115.792031
_cell_angle_gamma 87.778230
_cell_volume 648.309394
_symmetry_space_group_name_H-M "P -1"
_symmetry_group_IT_number 2
_symmetry_cell_setting 'triclinic'
loop_
_space_group_symop_operation_xyz
x,y,z
-x,-y,-z
loop_
_atom_site_type_symbol
_atom_site_label
_atom_site_fract_x
_atom_site_fract_y
_atom_site_fract_z
Si Si1 0.151777 0.830358 0.734130
Si Si2 0.141302 0.381376 0.594444
Si Si3 0.575194 0.034451 0.132173
Si Si4 0.268288 0.577760 0.273667
Si Si5 0.312081 0.666674 0.504890
Si Si6 0.506014 0.493699 0.235589
Si Si7 0.132377 0.064121 0.292438
O O1 0.140803 0.060159 0.627580
O O2 0.280488 0.886537 0.845945
O O3 0.021806 0.853615 0.752463
O O4 0.179533 0.537631 0.705325
O O5 0.233864 0.426330 0.531433
O O6 0.000000 0.500000 0.500000
O O7 0.498436 0.287433 0.149861
O O8 0.417976 0.246453 0.780858
O O9 0.500000 0.000000 0.000000
O O10 0.361622 0.572457 0.413802
O O11 0.358388 0.604433 0.206217
O O12 0.153724 0.832113 0.224692
O O13 0.194838 0.313969 0.252956
O O14 0.426647 0.689537 0.631541
O O15 0.210989 0.947691 0.434468
#
# Coordination Sequence:
#
# PCOD8016755 Si02
#       7
#     2   2   2   2   2   2   2
#     4  12  22  39  59  88 122 164 202 255 309 347
#     4  12  21  32  57  91 132 161 192 237 304 380
#     4  12  27  45  66  90 115 160 219 269 309 344
#     4  10  23  38  57  94 131 165 198 228 299 383
#     4  10  22  33  58  94 128 161 195 230 296 384
#     4  12  24  42  66  86 128 164 202 255 306 360
#     4  10  22  35  59  89 132 159 199 239 292 382
#
# _framework density 21.594626999999999
#
# number of rings (size 3 to 8) (size 9 to 14) (size 15 to 20)
#    0.857    0.000    4.286    3.857    4.000    0.571 
#    0.000    0.000    0.000    5.143    0.000    0.000 
#    0.000    0.000    0.000    0.000    0.000    0.000 
#
# Total GULP energy -173472.070625 kJ/mol
# GULP energy per Si atom -12390.862187 kJ/mol
# Density = 2.154548 g / cm^3
# Si number density = 21.594627 Si / 1000 Ang^3
#
#
#
# Elastic Constant Matrix: (Units=GPa)
#
#
# Indices 1 2 3 4 5 6 
#
# 1 114.5053 24.2108 29.7902 5.6256 -9.1638 4.1436
# 2 24.2108 83.9972 7.8042 16.2782 -8.2133 5.8128
# 3 29.7902 7.8042 78.6949 12.1914 5.5746 -2.8744
# 4 5.6256 16.2782 12.1914 21.5066 -5.6956 2.2651
# 5 -9.1638 -8.2133 5.5746 -5.6956 27.4749 8.9579
# 6 4.1436 5.8128 -2.8744 2.2651 8.9579 31.2634
#
#
#
# Elastic Compliance Matrix: (Units=1/GPa)
#
#
# Indices 1 2 3 4 5 6 
#
# 1 0.011000 -0.002654 -0.005035 0.003876 0.005800 -0.003370
# 2 -0.002654 0.014937 0.000918 -0.010392 0.001938 -0.002144
# 3 -0.005035 0.000918 0.017279 -0.012223 -0.009281 0.005630
# 4 0.003876 -0.010392 -0.012223 0.065886 0.017411 -0.009468
# 5 0.005800 0.001938 -0.009281 0.017411 0.050145 -0.017612
# 6 -0.003370 -0.002144 0.005630 -0.009468 -0.017612 0.039081
#
#
# Mechanical properties :
#
#
# Convention : Reuss Voigt Hill
#
# Bulk Modulus (GPa) = 33.70067 44.53421 39.11744
# Shear Modulus (GPa) = 22.54664 30.40847 26.47756
#
# Velocity S-wave (km/s) = 3.23474 3.75660 3.50540
# Velocity P-wave (km/s) = 5.43979 6.28360 5.87686
#
# Compressibility (1/GPa) = 0.02967300
#
# Stress axis : x y z
#
# Youngs Moduli (GPa) = 90.90930 66.94948 57.87330
#
# Poissons Ratio (x) = 0.17766 0.29141
# Poissons Ratio (y) = 0.24124 -0.05311
# Poissons Ratio (z) = 0.45776 -0.06144
#
# Static dielectric constant tensor:
#      x y z
#    x 4.008030 -0.124400 -0.000200 
#    y -0.124400 4.645040 0.292400 
#    z -0.000200 0.292400 3.453720 
# 
# 
# High freq. dielectric constant tensor:
#      x y z
#    x 1.856020 -0.001790 -0.001850 
#    y -0.001790 1.854940 0.022420 
#    z -0.001850 0.022420 1.798810 
# 
# From -- ./inp_files/411130.got.cif
#   From: 2010.06.25/outbox.cif.g09.slc.cpg/sg2_206_cif.got.tgz:411130.got - 2010.06.27 13:26:56.
