data_PCOD8016799
_publ_section_title
;
Structure prediction by ZEFSAII (Michael W. Deem and Ramdas Pophale) SiO2 
 PCOD8016799
Probable space group: P -1
;
_chemical_formula_sum "Si O2"
_cell_formula_units_Z 16
_cell_length_a 18.217841
_cell_length_b 5.298075
_cell_length_c 16.423793
_cell_angle_alpha 66.243658
_cell_angle_beta 148.211851
_cell_angle_gamma 100.871423
_cell_volume 724.365370
_symmetry_space_group_name_H-M "P -1"
_symmetry_group_IT_number 2
_symmetry_cell_setting 'triclinic'
loop_
_space_group_symop_operation_xyz
x,y,z
-x,-y,-z
loop_
_atom_site_type_symbol
_atom_site_label
_atom_site_fract_x
_atom_site_fract_y
_atom_site_fract_z
Si Si1 0.666045 0.396520 0.695992
Si Si2 0.831157 0.844954 0.828594
Si Si3 0.391551 0.821636 0.848759
Si Si4 0.344031 0.016667 0.119056
Si Si5 0.085536 0.982445 0.278243
Si Si6 0.604264 0.181408 0.975453
Si Si7 0.387018 0.808930 0.669245
Si Si8 0.927782 0.571815 0.121007
O O1 0.500000 0.500000 0.500000
O O2 0.718296 0.676948 0.717747
O O3 0.748292 0.178150 0.731074
O O4 0.689636 0.231048 0.826519
O O5 0.935779 0.853873 0.850253
O O6 0.933490 0.684204 0.019993
O O7 0.307743 0.851508 0.678729
O O8 0.474702 0.055390 0.891322
O O9 0.500000 0.500000 0.000000
O O10 0.299686 0.861582 0.843070
O O11 0.519559 0.971690 0.291587
O O12 0.296438 0.983083 0.984996
O O13 0.239278 0.330240 0.013761
O O14 0.259394 0.850394 0.477997
O O15 0.020712 0.715898 0.248851
O O16 0.999882 0.221474 0.233913
O O17 0.520331 0.510402 0.827614
#
# Coordination Sequence:
#
# PCOD8016799 Si02
#       8
#     2   2   2   2   2   2   2   2
#     4  11  23  36  59  90 128 156 205 269 316 351
#     4  11  23  41  60  82 119 174 219 250 300 370
#     4   8  16  35  56  96 118 155 190 254 300 370
#     4  10  23  37  60  88 122 164 204 252 310 374
#     4  12  25  41  64  89 123 165 215 264 306 356
#     4   9  18  33  64  88 124 152 203 244 308 374
#     4  10  22  35  64  93 123 153 206 261 308 361
#     4  11  25  42  60  87 125 171 212 254 309 368
#
# _framework density 22.088301000000001
#
# number of rings (size 3 to 8) (size 9 to 14) (size 15 to 20)
#    0.000    1.750    0.000    4.125   10.500    0.000 
#    0.000    0.000    0.000    1.500    0.000    0.000 
#    0.000    0.000    0.000    0.000    0.000    0.000 
#
# Total GULP energy -198226.582924 kJ/mol
# GULP energy per Si atom -12389.161433 kJ/mol
# Density = 2.203803 g / cm^3
# Si number density = 22.088301 Si / 1000 Ang^3
#
#
#
# Elastic Constant Matrix: (Units=GPa)
#
#
# Indices 1 2 3 4 5 6 
#
# 1 108.4646 22.2427 19.8614 -4.7744 -4.8170 -29.3439
# 2 22.2427 95.8893 16.6633 15.3661 -0.6828 -18.1581
# 3 19.8614 16.6633 59.6936 12.3871 7.6771 -8.9969
# 4 -4.7744 15.3661 12.3871 29.1313 -0.7926 0.3527
# 5 -4.8170 -0.6828 7.6771 -0.7926 19.0672 1.4451
# 6 -29.3439 -18.1581 -8.9969 0.3527 1.4451 29.7878
#
#
#
# Elastic Compliance Matrix: (Units=1/GPa)
#
#
# Indices 1 2 3 4 5 6 
#
# 1 0.013614 -0.000996 -0.004028 0.004451 0.004352 0.011324
# 2 -0.000996 0.013215 -0.000863 -0.006857 -0.000239 0.006907
# 3 -0.004028 -0.000863 0.022195 -0.009966 -0.010615 0.002842
# 4 0.004451 -0.006857 -0.009966 0.043145 0.006962 -0.003654
# 5 0.004352 -0.000239 -0.010615 0.006962 0.058250 -0.001973
# 6 0.011324 0.006907 0.002842 -0.003654 -0.001973 0.049933
#
#
# Mechanical properties :
#
#
# Convention : Reuss Voigt Hill
#
# Bulk Modulus (GPa) = 26.84610 42.39804 34.62207
# Shear Modulus (GPa) = 22.26751 29.28261 25.77506
#
# Velocity S-wave (km/s) = 3.17852 3.64498 3.41971
# Velocity P-wave (km/s) = 5.06469 6.07873 5.59473
#
# Compressibility (1/GPa) = 0.03724936
#
# Stress axis : x y z
#
# Youngs Moduli (GPa) = 73.45276 75.67400 45.05523
#
# Poissons Ratio (x) = 0.07536 0.18150
# Poissons Ratio (y) = 0.07315 0.03888
# Poissons Ratio (z) = 0.29590 0.06530
#
# Static dielectric constant tensor:
#      x y z
#    x 4.498890 -0.357260 -0.358330 
#    y -0.357260 4.289970 0.017320 
#    z -0.358330 0.017320 3.641010 
# 
# 
# High freq. dielectric constant tensor:
#      x y z
#    x 1.873080 -0.015810 -0.011770 
#    y -0.015810 1.888030 0.006080 
#    z -0.011770 0.006080 1.820590 
# 
# From -- ./inp_files/289191.got.cif
#   From: 2010.06.25/outbox.cif.g09.slc.cpg/sg2_145_cif.got.tgz:289191.got - 2010.06.27 13:26:56.
