data_PCOD8016645
_publ_section_title
;
Structure prediction by ZEFSAII (Michael W. Deem and Ramdas Pophale) SiO2 
 PCOD8016645
Probable space group: P -1
;
_chemical_formula_sum "Si O2"
_cell_formula_units_Z 16
_cell_length_a 13.597136
_cell_length_b 12.558346
_cell_length_c 8.721324
_cell_angle_alpha 137.489402
_cell_angle_beta 130.549999
_cell_angle_gamma 51.434742
_cell_volume 733.872234
_symmetry_space_group_name_H-M "P -1"
_symmetry_group_IT_number 2
_symmetry_cell_setting 'triclinic'
loop_
_space_group_symop_operation_xyz
x,y,z
-x,-y,-z
loop_
_atom_site_type_symbol
_atom_site_label
_atom_site_fract_x
_atom_site_fract_y
_atom_site_fract_z
Si Si1 0.629830 0.348435 0.983447
Si Si2 0.545659 0.054190 0.449325
Si Si3 0.099531 0.760131 0.997817
Si Si4 0.761665 0.769460 0.191017
Si Si5 0.968772 0.873488 0.685920
Si Si6 0.757827 0.231912 0.299901
Si Si7 0.364185 0.040247 0.000491
Si Si8 0.116389 0.572285 0.121842
O O1 0.649638 0.322149 0.158280
O O2 0.500000 0.500000 0.000000
O O3 0.608663 0.201432 0.701064
O O4 0.766587 0.373635 0.074201
O O5 0.500000 0.000000 0.500000
O O6 0.646468 0.890760 0.303742
O O7 0.404470 0.113855 0.276199
O O8 0.059016 0.700333 0.058777
O O9 0.127051 0.939909 0.224394
O O10 0.979610 0.791511 0.780845
O O11 0.909431 0.764381 0.396630
O O12 0.752359 0.825983 0.064166
O O13 0.764606 0.578406 0.989845
O O14 0.115248 0.879728 0.783375
O O15 0.808415 0.350655 0.591336
O O16 0.686208 0.121105 0.207114
O O17 0.500000 0.000000 0.000000
O O18 0.000000 0.500000 0.000000
#
# Coordination Sequence:
#
# PCOD8016645 Si02
#       8
#     2   2   2   2   2   2   2   2
#     4  11  25  44  69 101 133 180 230 290 346 398
#     4  11  23  45  68  98 133 180 239 281 341 413
#     4  10  24  43  70 100 135 177 232 292 343 413
#     4  11  24  44  65 101 138 180 230 282 348 413
#     4  10  21  45  72  98 130 183 236 284 348 410
#     4  11  24  45  68 100 139 182 233 283 348 414
#     4  10  24  42  69  98 135 184 234 279 334 418
#     4  12  27  44  63 106 146 182 221 281 355 416
#
# _framework density 21.802161000000002
#
# number of rings (size 3 to 8) (size 9 to 14) (size 15 to 20)
#    0.000    1.250    3.750    0.750    7.000    1.500 
#    0.000    3.125    0.000    0.000    0.000    0.000 
#    0.000    0.000    0.000    0.000    0.000    0.000 
#
# Total GULP energy -198209.651223 kJ/mol
# GULP energy per Si atom -12388.103201 kJ/mol
# Density = 2.175254 g / cm^3
# Si number density = 21.802161 Si / 1000 Ang^3
#
#
#
# Elastic Constant Matrix: (Units=GPa)
#
#
# Indices 1 2 3 4 5 6 
#
# 1 80.9289 46.2611 33.2424 -1.9063 -2.0633 8.9312
# 2 46.2611 151.3639 70.1681 -17.3637 -13.3780 12.0910
# 3 33.2424 70.1681 156.1211 -24.3893 -0.6725 11.0375
# 4 -1.9063 -17.3637 -24.3893 38.3486 -0.7748 -12.4720
# 5 -2.0633 -13.3780 -0.6725 -0.7748 30.0789 1.5465
# 6 8.9312 12.0910 11.0375 -12.4720 1.5465 38.9204
#
#
#
# Elastic Compliance Matrix: (Units=1/GPa)
#
#
# Indices 1 2 3 4 5 6 
#
# 1 0.015684 -0.004186 -0.001758 -0.003153 -0.000763 -0.002780
# 2 -0.004186 0.010056 -0.003224 0.002142 0.004206 -0.000730
# 3 -0.001758 -0.003224 0.008851 0.004146 -0.001264 0.000273
# 4 -0.003153 0.002142 0.004146 0.032566 0.001191 0.009271
# 5 -0.000763 0.004206 -0.001264 0.001191 0.035159 -0.001788
# 6 -0.002780 -0.000730 0.000273 0.009271 -0.001788 0.029522
#
#
# Mechanical properties :
#
#
# Convention : Reuss Voigt Hill
#
# Bulk Modulus (GPa) = 61.51208 76.41747 68.96478
# Shear Modulus (GPa) = 32.13512 37.38573 34.76043
#
# Velocity S-wave (km/s) = 3.84336 4.14547 3.99727
# Velocity P-wave (km/s) = 6.92605 7.61838 7.28045
#
# Compressibility (1/GPa) = 0.01625697
#
# Stress axis : x y z
#
# Youngs Moduli (GPa) = 63.75782 99.43971 112.97602
#
# Poissons Ratio (x) = 0.41624 0.19857
# Poissons Ratio (y) = 0.26688 0.36425
# Poissons Ratio (z) = 0.11206 0.32060
#
# Static dielectric constant tensor:
#      x y z
#    x 3.733250 0.128030 -0.066280 
#    y 0.128030 4.155140 -0.464150 
#    z -0.066280 -0.464150 3.963550 
# 
# 
# High freq. dielectric constant tensor:
#      x y z
#    x 1.849010 -0.000910 -0.009880 
#    y -0.000910 1.861430 -0.021340 
#    z -0.009880 -0.021340 1.866190 
# 
# From -- ./inp_files/308897.got.cif
#   From: 2010.06.25/outbox.cif.g09.slc.cpg/sg2_155_cif.got.tgz:308897.got - 2010.06.27 13:26:56.
