data_PCOD8016749
_publ_section_title
;
Structure prediction by ZEFSAII (Michael W. Deem and Ramdas Pophale) SiO2 
 PCOD8016749
Probable space group: P -1
;
_chemical_formula_sum "Si O2"
_cell_formula_units_Z 12
_cell_length_a 13.845190
_cell_length_b 11.280872
_cell_length_c 7.038598
_cell_angle_alpha 106.233995
_cell_angle_beta 59.670868
_cell_angle_gamma 147.772025
_cell_volume 479.301029
_symmetry_space_group_name_H-M "P -1"
_symmetry_group_IT_number 2
_symmetry_cell_setting 'triclinic'
loop_
_space_group_symop_operation_xyz
x,y,z
-x,-y,-z
loop_
_atom_site_type_symbol
_atom_site_label
_atom_site_fract_x
_atom_site_fract_y
_atom_site_fract_z
Si Si1 0.565881 0.643997 0.321200
Si Si2 0.127419 0.858885 0.630088
Si Si3 0.678471 0.508033 0.988207
Si Si4 0.726204 0.205921 0.272256
Si Si5 0.187203 0.433643 0.695028
Si Si6 0.267841 0.971579 0.130950
O O1 0.500000 0.500000 0.500000
O O2 0.636717 0.616684 0.071907
O O3 0.355964 0.528071 0.422855
O O4 0.762842 0.917781 0.290615
O O5 0.123525 0.744980 0.735320
O O6 0.257214 0.936880 0.351236
O O7 0.884744 0.665132 0.728241
O O8 0.726927 0.510107 0.155273
O O9 0.467463 0.244386 0.999473
O O10 0.833139 0.439493 0.266873
O O11 0.500000 0.000000 0.500000
O O12 0.703654 0.132579 0.048404
O O13 0.947516 0.158261 0.779913
#
# Coordination Sequence:
#
# PCOD8016749 Si02
#       6
#     2   2   2   2   2   2
#     4  10  21  48  76 103 153 189 236 312 354 420
#     4  12  25  47  77 110 145 194 239 303 367 427
#     4  11  25  48  75 109 149 191 244 298 363 433
#     4  12  26  48  75 108 150 189 244 301 364 434
#     4  11  24  48  72 107 152 189 240 306 353 428
#     4  12  27  47  75 113 143 193 244 298 365 432
#
# _framework density 25.036456999999999
#
# number of rings (size 3 to 8) (size 9 to 14) (size 15 to 20)
#    0.000    0.667    6.667    1.000    2.333    4.000 
#    0.000    1.667    0.000    0.000    0.000    0.000 
#    0.000    0.000    0.000    0.000    0.000    0.000 
#
# Total GULP energy -148829.107822 kJ/mol
# GULP energy per Si atom -12402.425652 kJ/mol
# Density = 2.497947 g / cm^3
# Si number density = 25.036457 Si / 1000 Ang^3
#
#
#
# Elastic Constant Matrix: (Units=GPa)
#
#
# Indices 1 2 3 4 5 6 
#
# 1 87.4094 66.5447 27.6351 12.4554 -23.3757 -10.3827
# 2 66.5447 159.7327 42.0405 -28.4229 -34.8765 12.1720
# 3 27.6351 42.0405 122.8390 -8.6617 -33.1651 -9.5062
# 4 12.4554 -28.4229 -8.6617 39.2939 -0.5572 -12.7953
# 5 -23.3757 -34.8765 -33.1651 -0.5572 42.0949 -1.0024
# 6 -10.3827 12.1720 -9.5062 -12.7953 -1.0024 41.8381
#
#
#
# Elastic Compliance Matrix: (Units=1/GPa)
#
#
# Indices 1 2 3 4 5 6 
#
# 1 0.025022 -0.012789 -0.001448 -0.015915 0.002061 0.004784
# 2 -0.012789 0.015738 -0.000135 0.014443 0.005945 -0.003224
# 3 -0.001448 -0.000135 0.011287 0.004175 0.008121 0.003716
# 4 -0.015915 0.014443 0.004175 0.044061 0.007154 0.006444
# 5 0.002061 0.005945 0.008121 0.007154 0.036407 0.003687
# 6 0.004784 -0.003224 0.003716 0.006444 0.003687 0.028930
#
#
# Mechanical properties :
#
#
# Convention : Reuss Voigt Hill
#
# Bulk Modulus (GPa) = 42.91315 71.38020 57.14668
# Shear Modulus (GPa) = 25.25821 40.22942 32.74382
#
# Velocity S-wave (km/s) = 3.17970 4.01288 3.62034
# Velocity P-wave (km/s) = 5.53698 7.07413 6.35222
#
# Compressibility (1/GPa) = 0.02330288
#
# Stress axis : x y z
#
# Youngs Moduli (GPa) = 39.96497 63.54179 88.59769
#
# Poissons Ratio (x) = 0.81267 0.12825
# Poissons Ratio (y) = 0.51113 0.01194
# Poissons Ratio (z) = 0.05785 0.00857
#
# Static dielectric constant tensor:
#      x y z
#    x 4.953820 -0.137520 -0.628670 
#    y -0.137520 4.576720 -0.023580 
#    z -0.628670 -0.023580 5.311180 
# 
# 
# High freq. dielectric constant tensor:
#      x y z
#    x 1.991990 0.007240 -0.008390 
#    y 0.007240 1.998240 -0.011080 
#    z -0.008390 -0.011080 2.021770 
# 
# From -- ./inp_files/308271.got.cif
#   From: 2010.06.25/outbox.cif.g09.slc.cpg/sg2_155_cif.got.tgz:308271.got - 2010.06.27 13:26:56.
