data_PCOD8016213
_publ_section_title
;
Structure prediction by ZEFSAII (Michael W. Deem and Ramdas Pophale) SiO2 
 PCOD8016213
Probable space group: P -1
;
_chemical_formula_sum "Si O2"
_cell_formula_units_Z 16
_cell_length_a 8.932990
_cell_length_b 9.594835
_cell_length_c 10.851814
_cell_angle_alpha 86.302697
_cell_angle_beta 132.400992
_cell_angle_gamma 95.041414
_cell_volume 684.163251
_symmetry_space_group_name_H-M "P -1"
_symmetry_group_IT_number 2
_symmetry_cell_setting 'triclinic'
loop_
_space_group_symop_operation_xyz
x,y,z
-x,-y,-z
loop_
_atom_site_type_symbol
_atom_site_label
_atom_site_fract_x
_atom_site_fract_y
_atom_site_fract_z
Si Si1 0.714213 0.515290 0.546605
Si Si2 0.263435 0.718225 0.602577
Si Si3 0.063014 0.603138 0.921572
Si Si4 0.695725 0.116842 0.962448
Si Si5 0.705700 0.842469 0.123648
Si Si6 0.848104 0.765241 0.467307
Si Si7 0.602316 0.581028 0.945246
Si Si8 0.582676 0.979226 0.409888
O O1 0.500000 0.500000 0.500000
O O2 0.792931 0.367182 0.550357
O O3 0.704053 0.624120 0.419351
O O4 0.889791 0.589833 0.723323
O O5 0.446857 0.631024 0.755928
O O6 0.084538 0.724819 0.605782
O O7 0.344394 0.873089 0.611710
O O8 0.115516 0.769557 0.962726
O O9 0.278681 0.546402 0.025914
O O10 0.000000 0.500000 0.000000
O O11 0.532214 0.164060 0.970054
O O12 0.592378 0.086637 0.773692
O O13 0.782207 0.979094 0.080401
O O14 0.836003 0.829330 0.320043
O O15 0.744383 0.713497 0.062715
O O16 0.776310 0.880985 0.518893
O O17 0.500000 0.500000 0.000000
O O18 0.500000 0.000000 0.500000
#
# Coordination Sequence:
#
# PCOD8016213 Si02
#       8
#     2   2   2   2   2   2   2   2
#     4  12  27  47  72 106 152 193 246 302 371 443
#     4  12  25  44  71 111 146 187 248 299 366 440
#     4  12  28  45  72 102 146 194 241 296 363 441
#     4  10  23  45  72 107 140 188 247 298 362 438
#     4  10  21  43  75 104 142 184 241 301 360 427
#     4  11  25  44  74 108 145 193 246 305 366 437
#     4  12  22  42  74 104 141 187 236 297 359 428
#     4  11  25  45  75 105 151 195 238 305 376 439
#
# _framework density 23.386234000000002
#
# number of rings (size 3 to 8) (size 9 to 14) (size 15 to 20)
#    0.000    0.750    2.500    4.500    7.000    1.000 
#    0.000    0.625    0.000    0.000    0.000    0.000 
#    0.000    0.000    0.000    0.000    0.000    0.000 
#
# Total GULP energy -198212.488160 kJ/mol
# GULP energy per Si atom -12388.280510 kJ/mol
# Density = 2.333301 g / cm^3
# Si number density = 23.386234 Si / 1000 Ang^3
#
#
#
# Elastic Constant Matrix: (Units=GPa)
#
#
# Indices 1 2 3 4 5 6 
#
# 1 127.5806 48.6653 39.7038 2.4652 2.3590 13.0100
# 2 48.6653 174.1599 43.2947 11.6531 3.1996 21.1564
# 3 39.7038 43.2947 84.2127 8.9111 4.3126 -0.2366
# 4 2.4652 11.6531 8.9111 41.0943 -2.3868 -1.4753
# 5 2.3590 3.1996 4.3126 -2.3868 32.0450 -2.9978
# 6 13.0100 21.1564 -0.2366 -1.4753 -2.9978 45.9719
#
#
#
# Elastic Compliance Matrix: (Units=1/GPa)
#
#
# Indices 1 2 3 4 5 6 
#
# 1 0.009854 -0.001569 -0.003900 0.000614 -0.000193 -0.002080
# 2 -0.001569 0.007378 -0.002868 -0.001523 -0.000635 -0.003056
# 3 -0.003900 -0.002868 0.015515 -0.002319 -0.001469 0.002334
# 4 0.000614 -0.001523 -0.002319 0.025428 0.002452 0.001491
# 5 -0.000193 -0.000635 -0.001469 0.002452 0.031898 0.002498
# 6 -0.002080 -0.003056 0.002334 0.001491 0.002498 0.023970
#
#
# Mechanical properties :
#
#
# Convention : Reuss Voigt Hill
#
# Bulk Modulus (GPa) = 62.21822 72.14232 67.18027
# Shear Modulus (GPa) = 36.74405 40.77487 38.75946
#
# Velocity S-wave (km/s) = 3.96811 4.18010 4.07549
# Velocity P-wave (km/s) = 6.90340 7.36294 7.13687
#
# Compressibility (1/GPa) = 0.01607246
#
# Stress axis : x y z
#
# Youngs Moduli (GPa) = 101.47961 135.53542 64.45198
#
# Poissons Ratio (x) = 0.21263 0.25138
# Poissons Ratio (y) = 0.15921 0.18488
# Poissons Ratio (z) = 0.39580 0.38878
#
# Static dielectric constant tensor:
#      x y z
#    x 4.190320 -0.006350 -0.060340 
#    y -0.006350 4.812010 -0.251080 
#    z -0.060340 -0.251080 4.140580 
# 
# 
# High freq. dielectric constant tensor:
#      x y z
#    x 1.917630 0.003490 -0.004840 
#    y 0.003490 1.953620 -0.008690 
#    z -0.004840 -0.008690 1.919040 
# 
# From -- ./inp_files/382126.got.cif
#   From: 2010.06.25/outbox.cif.g09.slc.cpg/sg2_192_cif.got.tgz:382126.got - 2010.06.27 13:26:56.
