data_PCOD8016197
_publ_section_title
;
Structure prediction by ZEFSAII (Michael W. Deem and Ramdas Pophale) SiO2 
 PCOD8016197
Probable space group: P -1
;
_chemical_formula_sum "Si O2"
_cell_formula_units_Z 12
_cell_length_a 9.557144
_cell_length_b 8.534303
_cell_length_c 8.532190
_cell_angle_alpha 74.155028
_cell_angle_beta 130.758464
_cell_angle_gamma 97.365956
_cell_volume 505.907714
_symmetry_space_group_name_H-M "P -1"
_symmetry_group_IT_number 2
_symmetry_cell_setting 'triclinic'
loop_
_space_group_symop_operation_xyz
x,y,z
-x,-y,-z
loop_
_atom_site_type_symbol
_atom_site_label
_atom_site_fract_x
_atom_site_fract_y
_atom_site_fract_z
Si Si1 0.399658 0.802051 0.100192
Si Si2 0.981870 0.312298 0.520249
Si Si3 0.767844 0.797976 0.550218
Si Si4 0.374697 0.449272 0.279136
Si Si5 0.965577 0.978945 0.160764
Si Si6 0.560190 0.322572 0.151838
O O1 0.552129 0.838720 0.333386
O O2 0.314196 0.622408 0.105779
O O3 0.494364 0.803618 0.992915
O O4 0.227947 0.932856 0.951855
O O5 0.037075 0.212884 0.746864
O O6 0.777019 0.280793 0.330771
O O7 0.000000 0.500000 0.500000
O O8 0.124746 0.254611 0.510159
O O9 0.786840 0.650370 0.732983
O O10 0.857387 0.956331 0.638496
O O11 0.500000 0.500000 0.500000
O O12 0.470871 0.315913 0.262090
O O13 0.000000 0.000000 0.000000
O O14 0.500000 0.500000 0.000000
#
# Coordination Sequence:
#
# PCOD8016197 Si02
#       6
#     2   2   2   2   2   2
#     4  10  23  46  72 106 152 190 246 300 367 436
#     4  12  26  48  74 107 148 192 251 299 365 447
#     4  11  25  47  76 106 145 197 242 306 366 431
#     4   9  20  40  74 110 145 190 243 294 360 437
#     4  12  30  48  71 111 152 191 247 311 364 432
#     4  10  21  43  73 107 148 190 241 301 359 438
#
# _framework density 23.719740999999999
#
# number of rings (size 3 to 8) (size 9 to 14) (size 15 to 20)
#    0.000    1.333    1.667    3.500    7.000    6.000 
#    3.000    0.000    0.000    0.000    0.000    0.000 
#    0.000    0.000    0.000    0.000    0.000    0.000 
#
# Total GULP energy -148683.111796 kJ/mol
# GULP energy per Si atom -12390.259316 kJ/mol
# Density = 2.366575 g / cm^3
# Si number density = 23.719741 Si / 1000 Ang^3
#
#
#
# Elastic Constant Matrix: (Units=GPa)
#
#
# Indices 1 2 3 4 5 6 
#
# 1 118.6026 44.3088 59.5422 -8.7891 -27.2582 -0.6706
# 2 44.3088 115.8324 58.3297 -11.9072 -11.1200 -4.1852
# 3 59.5422 58.3297 120.4597 -8.8062 -5.5024 -6.4752
# 4 -8.7891 -11.9072 -8.8062 41.7400 -3.5025 -9.8159
# 5 -27.2582 -11.1200 -5.5024 -3.5025 50.3502 4.7513
# 6 -0.6706 -4.1852 -6.4752 -9.8159 4.7513 38.4596
#
#
#
# Elastic Compliance Matrix: (Units=1/GPa)
#
#
# Indices 1 2 3 4 5 6 
#
# 1 0.013399 -0.001629 -0.005502 0.001435 0.006516 -0.001309
# 2 -0.001629 0.012058 -0.004744 0.002429 0.001343 0.000939
# 3 -0.005502 -0.004744 0.013350 0.000574 -0.002727 0.002119
# 4 0.001435 0.002429 0.000574 0.026923 0.002594 0.006937
# 5 0.006516 0.001343 -0.002727 0.002594 0.023801 -0.002478
# 6 -0.001309 0.000939 0.002119 0.006937 -0.002478 0.028514
#
#
# Mechanical properties :
#
#
# Convention : Reuss Voigt Hill
#
# Bulk Modulus (GPa) = 66.41797 75.47289 70.94543
# Shear Modulus (GPa) = 34.05688 38.95756 36.50722
#
# Velocity S-wave (km/s) = 3.79331 4.05706 3.92740
# Velocity P-wave (km/s) = 6.87368 7.33717 7.10920
#
# Compressibility (1/GPa) = 0.01505617
#
# Stress axis : x y z
#
# Youngs Moduli (GPa) = 74.63420 82.93322 74.90894
#
# Poissons Ratio (x) = 0.13510 0.41214
# Poissons Ratio (y) = 0.12158 0.35538
# Poissons Ratio (z) = 0.41063 0.39344
#
# Static dielectric constant tensor:
#      x y z
#    x 4.852410 0.001920 -0.388350 
#    y 0.001920 4.667430 -0.056180 
#    z -0.388350 -0.056180 4.599800 
# 
# 
# High freq. dielectric constant tensor:
#      x y z
#    x 1.946920 -0.003220 -0.016260 
#    y -0.003220 1.934960 -0.003740 
#    z -0.016260 -0.003740 1.947120 
# 
# From -- ./inp_files/147621.got.cif
#   From: 2010.06.25/outbox.cif.g09.slc.cpg/sg2_74_cif.got.tgz:147621.got - 2010.06.27 13:26:56.
