data_PCOD8016613
_publ_section_title
;
Structure prediction by ZEFSAII (Michael W. Deem and Ramdas Pophale) SiO2 
 PCOD8016613
Probable space group: P -1
;
_chemical_formula_sum "Si O2"
_cell_formula_units_Z 16
_cell_length_a 16.370331
_cell_length_b 5.700629
_cell_length_c 14.147493
_cell_angle_alpha 109.114060
_cell_angle_beta 146.748459
_cell_angle_gamma 82.230154
_cell_volume 659.062238
_symmetry_space_group_name_H-M "P -1"
_symmetry_group_IT_number 2
_symmetry_cell_setting 'triclinic'
loop_
_space_group_symop_operation_xyz
x,y,z
-x,-y,-z
loop_
_atom_site_type_symbol
_atom_site_label
_atom_site_fract_x
_atom_site_fract_y
_atom_site_fract_z
Si Si1 0.043723 0.412223 0.798697
Si Si2 0.871714 0.803571 0.966064
Si Si3 0.598462 0.707498 0.331625
Si Si4 0.132568 0.109331 0.534949
Si Si5 0.703971 0.127358 0.961078
Si Si6 0.828355 0.169130 0.282211
Si Si7 0.442366 0.688119 0.897348
Si Si8 0.836993 0.732885 0.714022
O O1 0.989547 0.144345 0.658251
O O2 0.896719 0.526365 0.684533
O O3 0.118148 0.405126 0.973581
O O4 0.178365 0.589042 0.889221
O O5 0.812835 0.659795 0.791623
O O6 0.748089 0.954590 0.898757
O O7 0.043685 0.988501 0.144554
O O8 0.471689 0.866570 0.225343
O O9 0.529886 0.406692 0.194454
O O10 0.670898 0.734852 0.509817
O O11 0.730266 0.811975 0.395276
O O12 0.198096 0.054342 0.692392
O O13 0.012388 0.289208 0.454609
O O14 0.729245 0.026546 0.076845
O O15 0.743280 0.382671 0.266439
O O16 0.500000 0.500000 0.000000
O O17 0.500000 0.000000 0.000000
#
# Coordination Sequence:
#
# PCOD8016613 Si02
#       8
#     2   2   2   2   2   2   2   2
#     4  11  21  43  68 100 133 187 235 291 364 428
#     4  10  21  45  70 103 136 184 230 295 365 425
#     4  12  25  47  67 108 139 188 238 298 361 435
#     4  11  24  42  75 101 139 184 252 304 351 442
#     4  11  25  41  69  97 144 186 233 292 366 440
#     4  11  24  44  68 101 137 191 239 300 358 433
#     4  12  27  46  71 104 149 195 243 296 374 444
#     4  10  22  41  74 102 138 176 239 296 355 430
#
# _framework density 24.276917999999998
#
# number of rings (size 3 to 8) (size 9 to 14) (size 15 to 20)
#    0.000    1.000    3.750    2.625    1.750    3.500 
#    2.250    0.625    0.000    0.000    0.000    0.000 
#    0.000    0.000    0.000    0.000    0.000    0.000 
#
# Total GULP energy -198326.404846 kJ/mol
# GULP energy per Si atom -12395.400303 kJ/mol
# Density = 2.422166 g / cm^3
# Si number density = 24.276918 Si / 1000 Ang^3
#
#
#
# Elastic Constant Matrix: (Units=GPa)
#
#
# Indices 1 2 3 4 5 6 
#
# 1 79.5316 15.7564 43.4148 -12.5985 -7.3196 -2.1744
# 2 15.7564 75.5576 49.9158 -26.5621 8.1523 -1.2116
# 3 43.4148 49.9158 135.0933 -42.1795 -15.4075 -2.8936
# 4 -12.5985 -26.5621 -42.1795 42.3795 -4.2476 3.1830
# 5 -7.3196 8.1523 -15.4075 -4.2476 52.1862 -14.3169
# 6 -2.1744 -1.2116 -2.8936 3.1830 -14.3169 32.2467
#
#
#
# Elastic Compliance Matrix: (Units=1/GPa)
#
#
# Indices 1 2 3 4 5 6 
#
# 1 0.015311 -0.000241 -0.004801 -0.000355 0.001037 0.001088
# 2 -0.000241 0.019928 -0.006028 0.006104 -0.005172 -0.002707
# 3 -0.004801 -0.006028 0.015172 0.010332 0.006299 0.002588
# 4 -0.000355 0.006104 0.010332 0.038135 0.005043 -0.000392
# 5 0.001037 -0.005172 0.006299 0.005043 0.025473 0.011252
# 6 0.001088 -0.002707 0.002588 -0.000392 0.011252 0.036249
#
#
# Mechanical properties :
#
#
# Convention : Reuss Voigt Hill
#
# Bulk Modulus (GPa) = 35.37032 56.48404 45.92718
# Shear Modulus (GPa) = 27.49808 37.43552 32.46680
#
# Velocity S-wave (km/s) = 3.36919 3.93112 3.66095
# Velocity P-wave (km/s) = 5.45311 6.62737 6.06871
#
# Compressibility (1/GPa) = 0.02827229
#
# Stress axis : x y z
#
# Youngs Moduli (GPa) = 65.31288 50.18103 65.91015
#
# Poissons Ratio (x) = 0.01207 0.31642
# Poissons Ratio (y) = 0.01571 0.39730
# Poissons Ratio (z) = 0.31356 0.30249
#
# Static dielectric constant tensor:
#      x y z
#    x 4.640820 -0.138460 -0.012190 
#    y -0.138460 4.413380 -0.142350 
#    z -0.012190 -0.142350 4.742240 
# 
# 
# High freq. dielectric constant tensor:
#      x y z
#    x 1.970130 -0.009380 0.002670 
#    y -0.009380 1.963390 -0.019270 
#    z 0.002670 -0.019270 1.963690 
# 
# From -- ./inp_files/536430.got.cif
#   From: 2010.06.25/outbox.cif.g09.slc.cpg/sg2_269_cif.got.tgz:536430.got - 2010.06.27 13:26:56.
