data_PCOD8016963
_publ_section_title
;
Structure prediction by ZEFSAII (Michael W. Deem and Ramdas Pophale) SiO2 
 PCOD8016963
Probable space group: P -1
;
_chemical_formula_sum "Si O2"
_cell_formula_units_Z 16
_cell_length_a 11.453740
_cell_length_b 8.775119
_cell_length_c 12.420141
_cell_angle_alpha 52.798723
_cell_angle_beta 128.942640
_cell_angle_gamma 119.603041
_cell_volume 760.152524
_symmetry_space_group_name_H-M "P -1"
_symmetry_group_IT_number 2
_symmetry_cell_setting 'triclinic'
loop_
_space_group_symop_operation_xyz
x,y,z
-x,-y,-z
loop_
_atom_site_type_symbol
_atom_site_label
_atom_site_fract_x
_atom_site_fract_y
_atom_site_fract_z
Si Si1 0.194433 0.390838 0.695197
Si Si2 0.847165 0.210353 0.569525
Si Si3 0.992680 0.712705 0.869831
Si Si4 0.617677 0.840789 0.236959
Si Si5 0.668818 0.575022 0.019306
Si Si6 0.677306 0.241931 0.002963
Si Si7 0.149665 0.065395 0.129921
Si Si8 0.144504 0.095344 0.471772
O O1 0.227483 0.597561 0.563258
O O2 0.311940 0.257837 0.781048
O O3 0.212999 0.440945 0.810324
O O4 0.027805 0.268943 0.631551
O O5 0.801900 0.118520 0.701262
O O6 0.796169 0.058035 0.508103
O O7 0.168488 0.819594 0.924975
O O8 0.896238 0.803548 0.859478
O O9 0.911364 0.729639 0.700237
O O10 0.000000 0.500000 0.000000
O O11 0.709482 0.809811 0.411622
O O12 0.612317 0.068253 0.121256
O O13 0.437718 0.740679 0.171487
O O14 0.707167 0.443371 0.999656
O O15 0.500000 0.500000 0.000000
O O16 0.706280 0.803476 0.905128
O O17 0.000000 0.000000 0.000000
O O18 0.000000 0.000000 0.500000
#
# Coordination Sequence:
#
# PCOD8016963 Si02
#       8
#     2   2   2   2   2   2   2   2
#     4  11  21  37  63  98 125 166 224 266 321 391
#     4  10  22  37  61  94 129 165 219 273 320 377
#     4  11  23  39  65  95 124 168 215 265 320 386
#     4  11  22  38  64  95 130 169 213 275 321 386
#     4  12  24  40  67  96 130 173 215 266 330 394
#     4  11  23  40  64  96 133 165 216 268 332 384
#     4  11  23  41  65  96 134 165 218 275 324 381
#     4  11  20  37  62  92 126 166 220 263 315 384
#
# _framework density 21.048407000000001
#
# number of rings (size 3 to 8) (size 9 to 14) (size 15 to 20)
#    0.000    1.000    6.250    1.500    0.000    1.000 
#    0.000    1.250    0.000    0.000    0.000    0.000 
#    0.000    0.000    0.000    0.000    0.000    0.000 
#
# Total GULP energy -198279.935699 kJ/mol
# GULP energy per Si atom -12392.495981 kJ/mol
# Density = 2.100050 g / cm^3
# Si number density = 21.048407 Si / 1000 Ang^3
#
#
#
# Elastic Constant Matrix: (Units=GPa)
#
#
# Indices 1 2 3 4 5 6 
#
# 1 54.9963 16.5544 26.9995 2.0997 -3.7017 16.0495
# 2 16.5544 92.9692 60.5356 5.2694 -7.9308 8.7207
# 3 26.9995 60.5356 162.0228 7.4505 -10.9093 11.3815
# 4 2.0997 5.2694 7.4505 50.9027 7.2481 -0.9174
# 5 -3.7017 -7.9308 -10.9093 7.2481 32.8487 -3.9851
# 6 16.0495 8.7207 11.3815 -0.9174 -3.9851 21.7691
#
#
#
# Elastic Compliance Matrix: (Units=1/GPa)
#
#
# Indices 1 2 3 4 5 6 
#
# 1 0.024561 -0.001196 -0.002467 -0.000802 -0.000153 -0.016400
# 2 -0.001196 0.014588 -0.004941 -0.001020 0.001716 -0.002108
# 3 -0.002467 -0.004941 0.008604 -0.000871 0.001523 -0.000458
# 4 -0.000802 -0.001020 -0.000871 0.020651 -0.005012 0.001408
# 5 -0.000153 0.001716 0.001523 -0.005012 0.032992 0.004458
# 6 -0.016400 -0.002108 -0.000458 0.001408 0.004458 0.059987
#
#
# Mechanical properties :
#
#
# Convention : Reuss Voigt Hill
#
# Bulk Modulus (GPa) = 32.73882 57.57417 45.15650
# Shear Modulus (GPa) = 26.48691 34.83067 30.65879
#
# Velocity S-wave (km/s) = 3.55121 4.07232 3.82066
# Velocity P-wave (km/s) = 5.69233 7.03735 6.40027
#
# Compressibility (1/GPa) = 0.03054478
#
# Stress axis : x y z
#
# Youngs Moduli (GPa) = 40.71529 68.54862 116.22666
#
# Poissons Ratio (x) = 0.08199 0.28677
# Poissons Ratio (y) = 0.04870 0.57424
# Poissons Ratio (z) = 0.10046 0.33868
#
# Static dielectric constant tensor:
#      x y z
#    x 4.445230 0.991670 -0.932630 
#    y 0.991670 4.529250 -0.737790 
#    z -0.932630 -0.737790 4.388940 
# 
# 
# High freq. dielectric constant tensor:
#      x y z
#    x 1.796450 -0.002560 0.000260 
#    y -0.002560 1.833170 0.003020 
#    z 0.000260 0.003020 1.832200 
# 
# From -- ./inp_files/257411.got.cif
#   From: 2010.06.25/outbox.cif.g09.slc.cpg/sg2_129_cif.got.tgz:257411.got - 2010.06.27 13:26:56.
