data_PCOD8016210
_publ_section_title
;
Structure prediction by ZEFSAII (Michael W. Deem and Ramdas Pophale) SiO2 
 PCOD8016210
Probable space group: P -1
;
_chemical_formula_sum "Si O2"
_cell_formula_units_Z 14
_cell_length_a 12.574180
_cell_length_b 9.299349
_cell_length_c 8.333601
_cell_angle_alpha 57.871860
_cell_angle_beta 133.040009
_cell_angle_gamma 123.035609
_cell_volume 576.422795
_symmetry_space_group_name_H-M "P -1"
_symmetry_group_IT_number 2
_symmetry_cell_setting 'triclinic'
loop_
_space_group_symop_operation_xyz
x,y,z
-x,-y,-z
loop_
_atom_site_type_symbol
_atom_site_label
_atom_site_fract_x
_atom_site_fract_y
_atom_site_fract_z
Si Si1 0.826441 0.485512 0.663259
Si Si2 0.415179 0.600576 0.971241
Si Si3 0.614910 0.884933 0.192891
Si Si4 0.845131 0.974069 0.675610
Si Si5 0.360090 0.841010 0.506667
Si Si6 0.134587 0.401556 0.004904
Si Si7 0.110873 0.134351 0.653406
O O1 0.677618 0.326926 0.552760
O O2 0.809078 0.503110 0.824448
O O3 0.832484 0.666063 0.471888
O O4 0.974555 0.435100 0.785137
O O5 0.390612 0.771414 0.754272
O O6 0.500000 0.500000 0.000000
O O7 0.516880 0.678340 0.187475
O O8 0.252618 0.476789 0.937376
O O9 0.715211 0.910334 0.442024
O O10 0.736534 0.930840 0.140431
O O11 0.500000 0.000000 0.000000
O O12 0.885393 0.806052 0.886652
O O13 0.780867 0.077197 0.682238
O O14 0.009196 0.115794 0.718196
O O15 0.500000 0.000000 0.500000
O O16 0.000000 0.000000 0.500000
#
# Coordination Sequence:
#
# PCOD8016210 Si02
#       7
#     2   2   2   2   2   2   2
#     4  11  25  47  76 110 145 192 242 310 363 437
#     4  12  27  44  69 105 147 192 246 300 370 428
#     4  11  23  41  71 106 139 192 239 301 356 432
#     4  11  24  46  72 109 146 198 242 300 366 439
#     4  12  28  48  70 108 151 192 247 303 369 434
#     4  11  26  45  76 109 144 192 251 298 370 437
#     4  10  21  43  74 105 144 186 247 293 361 433
#
# _framework density 24.287728000000001
#
# number of rings (size 3 to 8) (size 9 to 14) (size 15 to 20)
#    0.000    0.857    4.286    2.571    4.000    5.714 
#    0.000    0.000    0.000    0.000    0.000    0.000 
#    0.000    0.000    0.000    0.000    0.000    0.000 
#
# Total GULP energy -173505.471801 kJ/mol
# GULP energy per Si atom -12393.247986 kJ/mol
# Density = 2.423245 g / cm^3
# Si number density = 24.287728 Si / 1000 Ang^3
#
#
#
# Elastic Constant Matrix: (Units=GPa)
#
#
# Indices 1 2 3 4 5 6 
#
# 1 175.1530 44.8162 39.2683 -29.3956 27.3452 15.6494
# 2 44.8162 154.7965 30.4035 -12.4753 4.7137 10.4273
# 3 39.2683 30.4035 77.2325 -17.5617 18.4304 8.5877
# 4 -29.3956 -12.4753 -17.5617 37.0147 -6.4986 1.3937
# 5 27.3452 4.7137 18.4304 -6.4986 43.1681 -6.8115
# 6 15.6494 10.4273 8.5877 1.3937 -6.8115 48.2104
#
#
#
# Elastic Compliance Matrix: (Units=1/GPa)
#
#
# Indices 1 2 3 4 5 6 
#
# 1 0.008021 -0.001399 -0.001142 0.004730 -0.004174 -0.002824
# 2 -0.001399 0.007357 -0.002246 0.000505 0.001022 -0.000607
# 3 -0.001142 -0.002246 0.017555 0.005703 -0.006190 -0.003310
# 4 0.004730 0.000505 0.005703 0.033612 -0.001022 -0.003777
# 5 -0.004174 0.001022 -0.006190 -0.001022 0.029195 0.006391
# 6 -0.002824 -0.000607 -0.003310 -0.003777 0.006391 0.023392
#
#
# Mechanical properties :
#
#
# Convention : Reuss Voigt Hill
#
# Bulk Modulus (GPa) = 42.81180 70.68421 56.74800
# Shear Modulus (GPa) = 36.63195 45.19155 40.91175
#
# Velocity S-wave (km/s) = 3.88783 4.31823 4.10867
# Velocity P-wave (km/s) = 6.14970 7.35043 6.77671
#
# Compressibility (1/GPa) = 0.02335805
#
# Stress axis : x y z
#
# Youngs Moduli (GPa) = 124.66862 135.92700 56.96482
#
# Poissons Ratio (x) = 0.19023 0.06503
# Poissons Ratio (y) = 0.17447 0.12796
# Poissons Ratio (z) = 0.14232 0.30533
#
# Static dielectric constant tensor:
#      x y z
#    x 5.103230 -0.194620 0.289600 
#    y -0.194620 4.583250 0.041800 
#    z 0.289600 0.041800 4.386060 
# 
# 
# High freq. dielectric constant tensor:
#      x y z
#    x 1.977210 -0.010630 0.023950 
#    y -0.010630 1.982420 0.007800 
#    z 0.023950 0.007800 1.954670 
# 
# From -- ./inp_files/242788.got.cif
#   From: 2010.06.25/outbox.cif.g09.slc.cpg/sg2_122_cif.got.tgz:242788.got - 2010.06.27 13:26:56.
