data_PCOD8016739
_publ_section_title
;
Structure prediction by ZEFSAII (Michael W. Deem and Ramdas Pophale) SiO2 
 PCOD8016739
Probable space group: P -1
;
_chemical_formula_sum "Si O2"
_cell_formula_units_Z 16
_cell_length_a 17.422823
_cell_length_b 9.354044
_cell_length_c 9.663899
_cell_angle_alpha 92.491212
_cell_angle_beta 87.789371
_cell_angle_gamma 151.384821
_cell_volume 753.575040
_symmetry_space_group_name_H-M "P -1"
_symmetry_group_IT_number 2
_symmetry_cell_setting 'triclinic'
loop_
_space_group_symop_operation_xyz
x,y,z
-x,-y,-z
loop_
_atom_site_type_symbol
_atom_site_label
_atom_site_fract_x
_atom_site_fract_y
_atom_site_fract_z
Si Si1 0.933298 0.534599 0.173731
Si Si2 0.528333 0.714669 0.518745
Si Si3 0.905452 0.816073 0.138118
Si Si4 0.795065 0.236351 0.882955
Si Si5 0.453410 0.839258 0.356334
Si Si6 0.111444 0.359086 0.303719
Si Si7 0.858072 0.367408 0.473183
Si Si8 0.554302 0.265713 0.211364
O O1 0.111644 0.754542 0.174421
O O2 0.952665 0.735214 0.175687
O O3 0.829615 0.331123 0.309923
O O4 0.826128 0.300012 0.046667
O O5 0.500000 0.500000 0.500000
O O6 0.500714 0.750676 0.374501
O O7 0.417865 0.597432 0.643932
O O8 0.710871 0.057212 0.556698
O O9 0.714943 0.535066 0.118345
O O10 0.962759 0.014798 0.264911
O O11 0.000000 0.000000 0.000000
O O12 0.875807 0.501664 0.811355
O O13 0.601757 0.920983 0.861392
O O14 0.270313 0.525702 0.312259
O O15 0.500000 0.000000 0.500000
O O16 0.537143 0.067268 0.237455
O O17 0.093159 0.399575 0.457769
O O18 0.000000 0.500000 0.500000
#
# Coordination Sequence:
#
# PCOD8016739 Si02
#       8
#     2   2   2   2   2   2   2   2
#     4  11  24  42  75 101 136 181 231 278 342 409
#     4  11  23  39  65 102 137 166 221 290 335 399
#     4  12  27  44  64 102 140 178 234 288 333 400
#     4  10  21  47  71  93 135 190 226 272 344 416
#     4   9  18  41  63  92 126 173 214 264 341 407
#     4  11  22  43  69  90 138 176 222 283 334 402
#     4  12  23  41  69 100 132 177 222 269 349 411
#     4  10  22  44  69  92 138 184 224 278 339 408
#
# _framework density 21.232126999999998
#
# number of rings (size 3 to 8) (size 9 to 14) (size 15 to 20)
#    0.000    1.250    6.250    0.750    3.500    3.000 
#    2.250    0.625    0.000    0.000    0.000    0.000 
#    0.000    0.000    0.000    0.000    0.000    0.000 
#
# Total GULP energy -198245.049974 kJ/mol
# GULP energy per Si atom -12390.315623 kJ/mol
# Density = 2.118380 g / cm^3
# Si number density = 21.232127 Si / 1000 Ang^3
#
#
#
# Elastic Constant Matrix: (Units=GPa)
#
#
# Indices 1 2 3 4 5 6 
#
# 1 149.5382 74.0581 31.7970 -3.0247 7.4391 -0.3608
# 2 74.0581 116.3199 36.9611 0.7791 -4.9717 10.4603
# 3 31.7970 36.9611 102.0706 -6.6127 -4.3643 4.7022
# 4 -3.0247 0.7791 -6.6127 32.3299 2.9331 -4.1247
# 5 7.4391 -4.9717 -4.3643 2.9331 34.1783 4.4913
# 6 -0.3608 10.4603 4.7022 -4.1247 4.4913 43.3790
#
#
#
# Elastic Compliance Matrix: (Units=1/GPa)
#
#
# Indices 1 2 3 4 5 6 
#
# 1 0.010460 -0.006732 -0.000991 0.001587 -0.003830 0.002365
# 2 -0.006732 0.014333 -0.002907 -0.002411 0.003889 -0.003829
# 3 -0.000991 -0.002907 0.011366 0.002143 0.001120 -0.000452
# 4 0.001587 -0.002411 0.002143 0.032401 -0.003706 0.003827
# 5 -0.003830 0.003889 0.001120 -0.003706 0.031740 -0.004730
# 6 0.002365 -0.003829 -0.000452 0.003827 -0.004730 0.024898
#
#
# Mechanical properties :
#
#
# Convention : Reuss Voigt Hill
#
# Bulk Modulus (GPa) = 67.11077 72.61790 69.86434
# Shear Modulus (GPa) = 33.01991 36.98494 35.00242
#
# Velocity S-wave (km/s) = 3.94786 4.17817 4.06465
# Velocity P-wave (km/s) = 7.24276 7.58633 7.41653
#
# Compressibility (1/GPa) = 0.01490074
#
# Stress axis : x y z
#
# Youngs Moduli (GPa) = 95.60030 69.76704 87.98318
#
# Poissons Ratio (x) = 0.46967 0.08716
# Poissons Ratio (y) = 0.64358 0.25574
# Poissons Ratio (z) = 0.09471 0.20279
#
# Static dielectric constant tensor:
#      x y z
#    x 4.166970 -0.003560 0.220470 
#    y -0.003560 3.594410 0.149830 
#    z 0.220470 0.149830 3.760310 
# 
# 
# High freq. dielectric constant tensor:
#      x y z
#    x 1.846800 0.011760 0.008480 
#    y 0.011760 1.812040 0.002530 
#    z 0.008480 0.002530 1.829680 
# 
# From -- ./inp_files/329043.got.cif
#   From: 2010.06.25/outbox.cif.g09.slc.cpg/sg2_165_cif.got.tgz:329043.got - 2010.06.27 13:26:56.
