data_PCOD8017822
_publ_section_title
;
Structure prediction by ZEFSAII (Michael W. Deem and Ramdas Pophale) SiO2 
 PCOD8017822
Probable space group: P -1
;
_chemical_formula_sum "Si O2"
_cell_formula_units_Z 16
_cell_length_a 11.835733
_cell_length_b 11.654342
_cell_length_c 11.965314
_cell_angle_alpha 73.121255
_cell_angle_beta 115.154152
_cell_angle_gamma 51.472789
_cell_volume 725.631878
_symmetry_space_group_name_H-M "P -1"
_symmetry_group_IT_number 2
_symmetry_cell_setting 'triclinic'
loop_
_space_group_symop_operation_xyz
x,y,z
-x,-y,-z
loop_
_atom_site_type_symbol
_atom_site_label
_atom_site_fract_x
_atom_site_fract_y
_atom_site_fract_z
Si Si1 0.753684 0.218503 0.682056
Si Si2 0.782955 0.044365 0.958642
Si Si3 0.173733 0.654674 0.850364
Si Si4 0.507701 0.443860 0.870086
Si Si5 0.465814 0.129340 0.294012
Si Si6 0.900588 0.645333 0.743370
Si Si7 0.730793 0.141465 0.450116
Si Si8 0.669121 0.864952 0.997081
O O1 0.500000 0.500000 0.500000
O O2 0.805640 0.070778 0.834876
O O3 0.739140 0.155464 0.581435
O O4 0.973553 0.133722 0.813143
O O5 0.549197 0.310975 0.831438
O O6 0.714325 0.963292 0.954133
O O7 0.432515 0.434235 0.953710
O O8 0.083425 0.601264 0.872310
O O9 0.232513 0.698958 0.963598
O O10 0.988851 0.860171 0.619473
O O11 0.295612 0.712201 0.667017
O O12 0.210425 0.317528 0.199473
O O13 0.512794 0.232948 0.294479
O O14 0.683058 0.872072 0.511081
O O15 0.459044 0.097395 0.170691
O O16 0.060612 0.420541 0.798202
O O17 0.500000 0.000000 0.000000
#
# Coordination Sequence:
#
# PCOD8017822 Si02
#       8
#     2   2   2   2   2   2   2   2
#     4  11  24  43  65  97 131 169 216 275 330 383
#     4  11  26  40  66  96 133 173 216 261 334 399
#     4  10  22  39  66  93 131 161 219 266 323 392
#     4  11  21  40  61  96 129 171 203 268 332 389
#     4  10  25  43  72  98 126 178 229 277 327 387
#     4  10  23  45  68  99 127 177 226 278 323 384
#     4  11  22  41  69  96 127 164 221 273 327 384
#     4  12  27  46  66  98 141 182 220 269 332 403
#
# _framework density 22.049747
#
# number of rings (size 3 to 8) (size 9 to 14) (size 15 to 20)
#    0.000    1.250    2.500    2.250    7.000    1.500 
#    4.500    0.000    0.000    0.000    0.000    0.000 
#    0.000    0.000    0.000    0.000    0.000    0.000 
#
# Total GULP energy -198293.088405 kJ/mol
# GULP energy per Si atom -12393.318025 kJ/mol
# Density = 2.199956 g / cm^3
# Si number density = 22.049747 Si / 1000 Ang^3
#
#
#
# Elastic Constant Matrix: (Units=GPa)
#
#
# Indices 1 2 3 4 5 6 
#
# 1 103.2919 60.7187 16.3048 6.5950 15.9794 6.8505
# 2 60.7187 114.3073 31.5925 14.0409 7.4479 -5.0789
# 3 16.3048 31.5925 51.1475 20.1766 8.7988 7.3430
# 4 6.5950 14.0409 20.1766 42.3630 4.4772 -3.7554
# 5 15.9794 7.4479 8.7988 4.4772 25.4245 0.2450
# 6 6.8505 -5.0789 7.3430 -3.7554 0.2450 39.6156
#
#
#
# Elastic Compliance Matrix: (Units=1/GPa)
#
#
# Indices 1 2 3 4 5 6 
#
# 1 0.016078 -0.008851 0.002499 -0.000269 -0.008287 -0.004352
# 2 -0.008851 0.015711 -0.008337 0.000194 0.003763 0.005085
# 3 0.002499 -0.008337 0.031376 -0.012505 -0.007703 -0.008454
# 4 -0.000269 0.000194 -0.012505 0.030100 -0.000911 0.005248
# 5 -0.008287 0.003763 -0.007703 -0.000911 0.046236 0.002971
# 6 -0.004352 0.005085 -0.008454 0.005248 0.002971 0.028693
#
#
# Mechanical properties :
#
#
# Convention : Reuss Voigt Hill
#
# Bulk Modulus (GPa) = 29.59782 53.99763 41.79772
# Shear Modulus (GPa) = 23.94225 32.15602 28.04914
#
# Velocity S-wave (km/s) = 3.29877 3.82296 3.57050
# Velocity P-wave (km/s) = 5.28786 6.63543 5.99960
#
# Compressibility (1/GPa) = 0.03378627
#
# Stress axis : x y z
#
# Youngs Moduli (GPa) = 62.19693 63.64929 31.87157
#
# Poissons Ratio (x) = 0.56338 -0.07964
# Poissons Ratio (y) = 0.55053 0.26570
# Poissons Ratio (z) = -0.15541 0.53062
#
# Static dielectric constant tensor:
#      x y z
#    x 3.931530 0.069260 0.042280 
#    y 0.069260 4.358900 -0.661340 
#    z 0.042280 -0.661340 4.912250 
# 
# 
# High freq. dielectric constant tensor:
#      x y z
#    x 1.868690 0.003890 0.000300 
#    y 0.003890 1.867920 -0.008800 
#    z 0.000300 -0.008800 1.881130 
# 
# From -- ./inp_files/428203.got.cif
#   From: 2010.06.25/outbox.cif.g09.slc.cpg/sg2_215_cif.got.tgz:428203.got - 2010.06.27 13:26:56.
