data_PCOD8017473
_publ_section_title
;
Structure prediction by ZEFSAII (Michael W. Deem and Ramdas Pophale) SiO2 
 PCOD8017473
Probable space group: P -1
;
_chemical_formula_sum "Si O2"
_cell_formula_units_Z 16
_cell_length_a 11.970216
_cell_length_b 12.014779
_cell_length_c 10.483715
_cell_angle_alpha 118.913518
_cell_angle_beta 127.950580
_cell_angle_gamma 36.423075
_cell_volume 705.713101
_symmetry_space_group_name_H-M "P -1"
_symmetry_group_IT_number 2
_symmetry_cell_setting 'triclinic'
loop_
_space_group_symop_operation_xyz
x,y,z
-x,-y,-z
loop_
_atom_site_type_symbol
_atom_site_label
_atom_site_fract_x
_atom_site_fract_y
_atom_site_fract_z
Si Si1 0.374935 0.770979 0.021472
Si Si2 0.623587 0.417529 0.846405
Si Si3 0.674859 0.769173 0.135396
Si Si4 0.913044 0.818792 0.940110
Si Si5 0.006802 0.599963 0.452891
Si Si6 0.541790 0.671131 0.475272
Si Si7 0.293757 0.052796 0.403333
Si Si8 0.614165 0.807745 0.831154
O O1 0.434337 0.635191 0.874722
O O2 0.354774 0.710075 0.105760
O O3 0.551725 0.764796 0.150506
O O4 0.164801 0.989857 0.960692
O O5 0.564039 0.399491 0.653644
O O6 0.839263 0.353755 0.958505
O O7 0.916948 0.606648 0.258497
O O8 0.591765 0.969120 0.192487
O O9 0.651495 0.727283 0.953897
O O10 0.856907 0.842327 0.765529
O O11 0.811202 0.766639 0.912213
O O12 0.849035 0.814850 0.503771
O O13 0.000000 0.500000 0.500000
O O14 0.240990 0.489652 0.535469
O O15 0.578687 0.707772 0.660480
O O16 0.378030 0.858519 0.381449
O O17 0.500000 0.000000 0.500000
#
# Coordination Sequence:
#
# PCOD8017473 Si02
#       8
#     2   2   2   2   2   2   2   2
#     4  10  22  39  60  91 127 163 212 258 316 379
#     4  11  25  38  61  93 132 170 209 260 321 387
#     4  10  22  43  70  95 126 169 216 268 315 382
#     4  11  22  39  67  93 125 175 206 262 325 376
#     4  12  23  34  64  99 125 161 204 271 330 364
#     4  12  24  39  59  96 128 167 212 268 317 378
#     4  12  21  37  61  95 134 158 214 274 320 371
#     4  10  22  44  70  94 125 169 221 264 315 379
#
# _framework density 22.672103
#
# number of rings (size 3 to 8) (size 9 to 14) (size 15 to 20)
#    0.000    1.000    5.000    1.875    7.000    0.500 
#    0.000    0.625    0.000    2.250    0.000    0.000 
#    0.000    0.000    0.000    0.000    0.000    0.000 
#
# Total GULP energy -198282.208295 kJ/mol
# GULP energy per Si atom -12392.638018 kJ/mol
# Density = 2.262050 g / cm^3
# Si number density = 22.672103 Si / 1000 Ang^3
#
#
#
# Elastic Constant Matrix: (Units=GPa)
#
#
# Indices 1 2 3 4 5 6 
#
# 1 45.1567 1.0453 30.5907 -11.1831 -4.6754 -6.9387
# 2 1.0453 73.9883 38.2767 9.5764 -3.6514 -17.2758
# 3 30.5907 38.2767 157.7959 8.1612 3.2932 -13.5994
# 4 -11.1831 9.5764 8.1612 38.8115 -1.9815 1.0699
# 5 -4.6754 -3.6514 3.2932 -1.9815 22.0417 2.0681
# 6 -6.9387 -17.2758 -13.5994 1.0699 2.0681 27.2450
#
#
#
# Elastic Compliance Matrix: (Units=1/GPa)
#
#
# Indices 1 2 3 4 5 6 
#
# 1 0.031087 0.003731 -0.007130 0.009820 0.008627 0.005684
# 2 0.003731 0.018639 -0.004266 -0.002749 0.003284 0.010498
# 3 -0.007130 -0.004266 0.009031 -0.003110 -0.003886 0.000404
# 4 0.009820 -0.002749 -0.003110 0.030249 0.005033 -0.002364
# 5 0.008627 0.003284 -0.003886 0.005033 0.048923 -0.001571
# 6 0.005684 0.010498 0.000404 -0.002364 -0.001571 0.045222
#
#
# Mechanical properties :
#
#
# Convention : Reuss Voigt Hill
#
# Bulk Modulus (GPa) = 23.02678 46.30737 34.66708
# Shear Modulus (GPa) = 23.47887 31.42154 27.45020
#
# Velocity S-wave (km/s) = 3.22154 3.72682 3.48336
# Velocity P-wave (km/s) = 4.90064 6.24405 5.61268
#
# Compressibility (1/GPa) = 0.04342769
#
# Stress axis : x y z
#
# Youngs Moduli (GPa) = 32.16767 53.65057 110.72789
#
# Poissons Ratio (x) = -0.20018 0.78946
# Poissons Ratio (y) = -0.12002 0.47239
# Poissons Ratio (z) = 0.22935 0.22889
#
# Static dielectric constant tensor:
#      x y z
#    x 4.362550 -0.986040 -0.754130 
#    y -0.986040 5.701980 1.404710 
#    z -0.754130 1.404710 5.158000 
# 
# 
# High freq. dielectric constant tensor:
#      x y z
#    x 1.857670 -0.006800 0.002220 
#    y -0.006800 1.911770 0.011490 
#    z 0.002220 0.011490 1.892690 
# 
# From -- ./inp_files/402311.got.cif
#   From: 2010.06.25/outbox.cif.g09.slc.cpg/sg2_202_cif.got.tgz:402311.got - 2010.06.27 13:26:56.
