data_PCOD8017781
_publ_section_title
;
Structure prediction by ZEFSAII (Michael W. Deem and Ramdas Pophale) SiO2 
 PCOD8017781
Probable space group: P -1
;
_chemical_formula_sum "Si O2"
_cell_formula_units_Z 12
_cell_length_a 12.523487
_cell_length_b 6.189775
_cell_length_c 9.047002
_cell_angle_alpha 101.446190
_cell_angle_beta 68.022619
_cell_angle_gamma 126.998446
_cell_volume 519.055211
_symmetry_space_group_name_H-M "P -1"
_symmetry_group_IT_number 2
_symmetry_cell_setting 'triclinic'
loop_
_space_group_symop_operation_xyz
x,y,z
-x,-y,-z
loop_
_atom_site_type_symbol
_atom_site_label
_atom_site_fract_x
_atom_site_fract_y
_atom_site_fract_z
Si Si1 0.426672 0.200622 0.937343
Si Si2 0.106106 0.194445 0.280591
Si Si3 0.225390 0.175288 0.796517
Si Si4 0.983491 0.736960 0.046511
Si Si5 0.692811 0.212709 0.802303
Si Si6 0.188255 0.023145 0.478898
O O1 0.338557 0.181700 0.839314
O O2 0.541427 0.145359 0.825570
O O3 0.500000 0.500000 0.000000
O O4 0.321315 0.972252 0.078904
O O5 0.197901 0.468153 0.171804
O O6 0.208411 0.223083 0.364554
O O7 0.063843 0.928837 0.174022
O O8 0.976478 0.178574 0.421486
O O9 0.272597 0.192348 0.605646
O O10 0.187024 0.391425 0.877204
O O11 0.062418 0.904954 0.876497
O O12 0.000000 0.500000 0.000000
O O13 0.751145 0.146712 0.621319
#
# Coordination Sequence:
#
# PCOD8017781 Si02
#       6
#     2   2   2   2   2   2
#     4  11  25  44  66  91 126 175 223 265 313 378
#     4  10  22  42  65  96 130 167 215 261 321 386
#     4  10  23  39  61  97 129 161 216 270 316 375
#     4  10  22  40  64  93 130 170 211 263 318 381
#     4  11  23  42  67  90 126 178 218 258 318 384
#     4  10  22  39  65  96 129 166 208 267 326 381
#
# _framework density 23.118928
#
# number of rings (size 3 to 8) (size 9 to 14) (size 15 to 20)
#    0.000    1.667    0.000    3.500    0.000   18.000 
#    0.000    3.333    0.000    0.000    0.000    0.000 
#    0.000    0.000    0.000    0.000    0.000    0.000 
#
# Total GULP energy -148709.434931 kJ/mol
# GULP energy per Si atom -12392.452911 kJ/mol
# Density = 2.306631 g / cm^3
# Si number density = 23.118928 Si / 1000 Ang^3
#
#
#
# Elastic Constant Matrix: (Units=GPa)
#
#
# Indices 1 2 3 4 5 6 
#
# 1 164.9858 42.9756 67.2328 18.3844 4.4657 -24.1006
# 2 42.9756 116.6393 59.4865 -1.1591 4.2865 -15.2981
# 3 67.2328 59.4865 143.6911 18.8319 0.2573 -22.8773
# 4 18.3844 -1.1591 18.8319 32.7701 -9.5712 -8.1390
# 5 4.4657 4.2865 0.2573 -9.5712 51.7868 -1.0416
# 6 -24.1006 -15.2981 -22.8773 -8.1390 -1.0416 27.8670
#
#
#
# Elastic Compliance Matrix: (Units=1/GPa)
#
#
# Indices 1 2 3 4 5 6 
#
# 1 0.008231 -0.001343 -0.002364 -0.002706 -0.001014 0.003613
# 2 -0.001343 0.011707 -0.004317 0.004409 0.000044 0.003011
# 3 -0.002364 -0.004317 0.010949 -0.004370 -0.000235 0.003290
# 4 -0.002706 0.004409 -0.004370 0.038825 0.007229 0.008102
# 5 -0.001014 0.000044 -0.000235 0.007229 0.020768 0.001841
# 6 0.003613 0.003011 0.003290 0.008102 0.001841 0.045798
#
#
# Mechanical properties :
#
#
# Convention : Reuss Voigt Hill
#
# Bulk Modulus (GPa) = 67.38329 84.96734 76.17532
# Shear Modulus (GPa) = 31.79238 39.52621 35.65929
#
# Velocity S-wave (km/s) = 3.71235 4.13933 3.93164
# Velocity P-wave (km/s) = 6.89819 7.72512 7.32333
#
# Compressibility (1/GPa) = 0.01484047
#
# Stress axis : x y z
#
# Youngs Moduli (GPa) = 121.49482 85.41998 91.32999
#
# Poissons Ratio (x) = 0.11472 0.21587
# Poissons Ratio (y) = 0.16317 0.39424
# Poissons Ratio (z) = 0.28717 0.36873
#
# Static dielectric constant tensor:
#      x y z
#    x 4.743440 -0.270470 -0.061440 
#    y -0.270470 3.960380 -0.122940 
#    z -0.061440 -0.122940 4.390840 
# 
# 
# High freq. dielectric constant tensor:
#      x y z
#    x 1.936640 -0.024530 -0.004780 
#    y -0.024530 1.883210 0.003750 
#    z -0.004780 0.003750 1.919900 
# 
# From -- ./inp_files/229838.got.cif
#   From: 2010.06.25/outbox.cif.g09.slc.cpg/sg2_115_cif.got.tgz:229838.got - 2010.06.27 13:26:56.
