data_PCOD8017626
_publ_section_title
;
Structure prediction by ZEFSAII (Michael W. Deem and Ramdas Pophale) SiO2 
 PCOD8017626
Probable space group: P -1
;
_chemical_formula_sum "Si O2"
_cell_formula_units_Z 16
_cell_length_a 11.410773
_cell_length_b 6.448042
_cell_length_c 11.448867
_cell_angle_alpha 105.081408
_cell_angle_beta 107.560210
_cell_angle_gamma 86.698571
_cell_volume 775.258697
_symmetry_space_group_name_H-M "P -1"
_symmetry_group_IT_number 2
_symmetry_cell_setting 'triclinic'
loop_
_space_group_symop_operation_xyz
x,y,z
-x,-y,-z
loop_
_atom_site_type_symbol
_atom_site_label
_atom_site_fract_x
_atom_site_fract_y
_atom_site_fract_z
Si Si1 0.148086 0.769477 0.471443
Si Si2 0.646689 0.045383 0.816512
Si Si3 0.401979 0.484383 0.068365
Si Si4 0.644554 0.967086 0.545692
Si Si5 0.097838 0.142896 0.686673
Si Si6 0.244947 0.434586 0.597220
Si Si7 0.739997 0.913283 0.063062
Si Si8 0.576419 0.201137 0.208885
O O1 0.148374 0.524417 0.485886
O O2 0.042527 0.778768 0.341060
O O3 0.280563 0.843847 0.471170
O O4 0.107684 0.926841 0.584931
O O5 0.693861 0.969806 0.693999
O O6 0.499881 0.979526 0.767517
O O7 0.653349 0.301119 0.866705
O O8 0.741926 0.956323 0.930377
O O9 0.467698 0.361659 0.173753
O O10 0.500000 0.500000 0.000000
O O11 0.293076 0.336287 0.962221
O O12 0.669487 0.737422 0.462654
O O13 0.500000 0.000000 0.500000
O O14 0.182984 0.331567 0.679423
O O15 0.136281 0.072421 0.819926
O O16 0.318836 0.659232 0.675740
O O17 0.636481 0.077826 0.100056
#
# Coordination Sequence:
#
# PCOD8017626 Si02
#       8
#     2   2   2   2   2   2   2   2
#     4  10  22  42  63  88 122 158 203 256 297 358
#     4  11  23  37  55  87 130 163 198 244 300 363
#     4  11  18  32  53  82 123 158 193 241 299 351
#     4  11  25  41  61  90 126 164 202 241 298 371
#     4  10  22  39  63  93 119 151 208 260 302 349
#     4  11  22  38  66  89 119 161 199 252 312 354
#     4  11  21  34  57  91 119 154 198 250 305 356
#     4  11  20  32  56  91 121 152 198 247 301 357
#
# _framework density 20.638269000000001
#
# number of rings (size 3 to 8) (size 9 to 14) (size 15 to 20)
#    0.000    1.250    3.750    3.375    1.750    4.000 
#    0.000    0.625    0.000    1.500    0.000    0.000 
#    0.000    0.000    0.000    0.000    0.000    0.000 
#
# Total GULP energy -198216.565727 kJ/mol
# GULP energy per Si atom -12388.535358 kJ/mol
# Density = 2.059130 g / cm^3
# Si number density = 20.638269 Si / 1000 Ang^3
#
#
#
# Elastic Constant Matrix: (Units=GPa)
#
#
# Indices 1 2 3 4 5 6 
#
# 1 69.2569 27.9796 24.1291 -3.9408 10.8641 -12.1208
# 2 27.9796 104.0468 32.9605 -1.0783 8.1958 -3.0002
# 3 24.1291 32.9605 94.1900 -6.7710 5.8000 -2.3539
# 4 -3.9408 -1.0783 -6.7710 35.4182 -3.7731 9.5823
# 5 10.8641 8.1958 5.8000 -3.7731 31.9048 -8.5902
# 6 -12.1208 -3.0002 -2.3539 9.5823 -8.5902 16.2150
#
#
#
# Elastic Compliance Matrix: (Units=1/GPa)
#
#
# Indices 1 2 3 4 5 6 
#
# 1 0.019750 -0.003691 -0.003500 -0.002615 -0.001609 0.014265
# 2 -0.003691 0.011665 -0.003102 -0.000360 -0.001684 -0.001731
# 3 -0.003500 -0.003102 0.012771 0.002802 -0.000942 -0.003491
# 4 -0.002615 -0.000360 0.002802 0.034475 -0.001597 -0.022834
# 5 -0.001609 -0.001684 -0.000942 -0.001597 0.037459 0.019137
# 6 0.014265 -0.001731 -0.003491 -0.022834 0.019137 0.095140
#
#
# Mechanical properties :
#
#
# Convention : Reuss Voigt Hill
#
# Bulk Modulus (GPa) = 42.37329 48.62580 45.49955
# Shear Modulus (GPa) = 20.85827 28.86923 24.86375
#
# Velocity S-wave (km/s) = 3.18254 3.74414 3.47470
# Velocity P-wave (km/s) = 5.83787 6.50412 6.17998
#
# Compressibility (1/GPa) = 0.02359977
#
# Stress axis : x y z
#
# Youngs Moduli (GPa) = 50.63340 85.72380 78.30182
#
# Poissons Ratio (x) = 0.31643 0.27406
# Poissons Ratio (y) = 0.18690 0.24289
# Poissons Ratio (z) = 0.17722 0.26591
#
# Static dielectric constant tensor:
#      x y z
#    x 3.550990 0.010390 0.256600 
#    y 0.010390 3.795860 -0.030360 
#    z 0.256600 -0.030360 3.869670 
# 
# 
# High freq. dielectric constant tensor:
#      x y z
#    x 1.766050 0.002220 0.016980 
#    y 0.002220 1.823810 -0.005170 
#    z 0.016980 -0.005170 1.808300 
# 
# From -- ./inp_files/77236.got.cif
#   From: 2010.06.25/outbox.cif.g09.slc.cpg/sg2_39_cif.got.tgz:77236.got - 2010.06.27 13:26:56.
