data_PCOD8017314
_publ_section_title
;
Structure prediction by ZEFSAII (Michael W. Deem and Ramdas Pophale) SiO2 
 PCOD8017314
Probable space group: P -1
;
_chemical_formula_sum "Si O2"
_cell_formula_units_Z 16
_cell_length_a 14.466244
_cell_length_b 11.260214
_cell_length_c 8.089201
_cell_angle_alpha 53.877896
_cell_angle_beta 71.841443
_cell_angle_gamma 40.677105
_cell_volume 670.404979
_symmetry_space_group_name_H-M "P -1"
_symmetry_group_IT_number 2
_symmetry_cell_setting 'triclinic'
loop_
_space_group_symop_operation_xyz
x,y,z
-x,-y,-z
loop_
_atom_site_type_symbol
_atom_site_label
_atom_site_fract_x
_atom_site_fract_y
_atom_site_fract_z
Si Si1 0.308354 0.028007 0.758818
Si Si2 0.433788 0.097676 0.141835
Si Si3 0.183821 0.470819 0.501132
Si Si4 0.360954 0.726372 0.224542
Si Si5 0.074437 0.043340 0.316356
Si Si6 0.145792 0.513418 0.112224
Si Si7 0.536594 0.684586 0.434990
Si Si8 0.891427 0.768427 0.583963
O O1 0.199774 0.277348 0.683896
O O2 0.262153 0.047691 0.580421
O O3 0.472107 0.904808 0.787627
O O4 0.292876 0.891571 0.974953
O O5 0.272251 0.349496 0.036086
O O6 0.430680 0.935119 0.356349
O O7 0.500000 0.000000 0.000000
O O8 0.209219 0.481204 0.284842
O O9 0.302207 0.423762 0.584193
O O10 0.020795 0.698466 0.461963
O O11 0.475296 0.703253 0.274816
O O12 0.450539 0.476797 0.325222
O O13 0.224089 0.818897 0.331831
O O14 0.129440 0.117916 0.331846
O O15 0.000000 0.000000 0.500000
O O16 0.958929 0.235496 0.089600
O O17 0.062763 0.451003 0.220516
#
# Coordination Sequence:
#
# PCOD8017314 Si02
#       8
#     2   2   2   2   2   2   2   2
#     4  10  22  38  66  93 125 168 213 266 320 379
#     4  11  23  40  69  94 126 169 218 268 317 379
#     4  10  22  42  66  94 131 169 217 267 322 381
#     4  11  22  42  64  95 131 175 214 260 324 389
#     4  12  27  40  65  96 135 169 218 265 322 389
#     4  11  25  43  67  97 127 171 218 269 321 385
#     4  10  23  38  68  92 129 170 216 260 323 377
#     4  11  23  41  66  95 132 170 217 268 318 385
#
# _framework density 23.866171000000001
#
# number of rings (size 3 to 8) (size 9 to 14) (size 15 to 20)
#    0.000    1.250    1.250    4.875    5.250    6.500 
#    0.000    2.500    0.000    9.750    0.000    0.000 
#    0.000    0.000    0.000    0.000    0.000    0.000 
#
# Total GULP energy -198279.943406 kJ/mol
# GULP energy per Si atom -12392.496463 kJ/mol
# Density = 2.381185 g / cm^3
# Si number density = 23.866171 Si / 1000 Ang^3
#
#
#
# Elastic Constant Matrix: (Units=GPa)
#
#
# Indices 1 2 3 4 5 6 
#
# 1 79.3163 6.2324 26.7572 -4.9750 7.7785 -16.6030
# 2 6.2324 71.8306 19.9020 2.2743 8.1080 -11.0058
# 3 26.7572 19.9020 144.6484 -17.4272 -7.4205 -1.3941
# 4 -4.9750 2.2743 -17.4272 31.3320 0.3058 -8.3046
# 5 7.7785 8.1080 -7.4205 0.3058 35.0860 -8.6270
# 6 -16.6030 -11.0058 -1.3941 -8.3046 -8.6270 18.3422
#
#
#
# Elastic Compliance Matrix: (Units=1/GPa)
#
#
# Indices 1 2 3 4 5 6 
#
# 1 0.018006 0.002077 -0.002627 0.006629 -0.000093 0.020302
# 2 0.002077 0.016320 -0.002566 0.000585 -0.002140 0.010736
# 3 -0.002627 -0.002566 0.008444 0.004475 0.002957 0.000141
# 4 0.006629 0.000585 0.004475 0.043058 0.006112 0.029061
# 5 -0.000093 -0.002140 0.002957 0.006112 0.033909 0.017572
# 6 0.020302 0.010736 0.000141 0.029061 0.017572 0.100771
#
#
# Mechanical properties :
#
#
# Convention : Reuss Voigt Hill
#
# Bulk Modulus (GPa) = 27.36797 44.61985 35.99391
# Shear Modulus (GPa) = 20.92756 33.14563 27.03660
#
# Velocity S-wave (km/s) = 2.96441 3.73072 3.36942
# Velocity P-wave (km/s) = 4.81759 6.10689 5.50015
#
# Compressibility (1/GPa) = 0.03653907
#
# Stress axis : x y z
#
# Youngs Moduli (GPa) = 55.53858 61.27367 118.42217
#
# Poissons Ratio (x) = -0.12726 0.31108
# Poissons Ratio (y) = -0.11535 0.30382
# Poissons Ratio (z) = 0.14589 0.15720
#
# Static dielectric constant tensor:
#      x y z
#    x 4.419830 -0.002250 -0.044230 
#    y -0.002250 4.035920 -0.274710 
#    z -0.044230 -0.274710 4.320740 
# 
# 
# High freq. dielectric constant tensor:
#      x y z
#    x 1.954160 -0.008140 0.001860 
#    y -0.008140 1.924400 -0.016860 
#    z 0.001860 -0.016860 1.945230 
# 
# From -- ./inp_files/306485.got.cif
#   From: 2010.06.25/outbox.cif.g09.slc.cpg/sg2_154_cif.got.tgz:306485.got - 2010.06.27 13:26:56.
