data_PCOD8017012
_publ_section_title
;
Structure prediction by ZEFSAII (Michael W. Deem and Ramdas Pophale) SiO2 
 PCOD8017012
Probable space group: P -1
;
_chemical_formula_sum "Si O2"
_cell_formula_units_Z 16
_cell_length_a 14.461847
_cell_length_b 10.147051
_cell_length_c 12.184666
_cell_angle_alpha 129.326533
_cell_angle_beta 131.097126
_cell_angle_gamma 88.321473
_cell_volume 779.037368
_symmetry_space_group_name_H-M "P -1"
_symmetry_group_IT_number 2
_symmetry_cell_setting 'triclinic'
loop_
_space_group_symop_operation_xyz
x,y,z
-x,-y,-z
loop_
_atom_site_type_symbol
_atom_site_label
_atom_site_fract_x
_atom_site_fract_y
_atom_site_fract_z
Si Si1 0.239014 0.392324 0.098175
Si Si2 0.919903 0.092778 0.302946
Si Si3 0.431082 0.757766 0.276537
Si Si4 0.307787 0.803743 0.766462
Si Si5 0.405460 0.326931 0.494828
Si Si6 0.774185 0.414148 0.180521
Si Si7 0.827148 0.587025 0.700151
Si Si8 0.868344 0.136399 0.050437
O O1 0.267078 0.566384 0.121229
O O2 0.415689 0.471214 0.312896
O O3 0.168689 0.409796 0.163467
O O4 0.124628 0.141501 0.820209
O O5 0.776601 0.090483 0.227156
O O6 0.930509 0.090142 0.178806
O O7 0.101939 0.314076 0.601136
O O8 0.560532 0.722330 0.382160
O O9 0.500000 0.000000 0.500000
O O10 0.385566 0.715803 0.090368
O O11 0.280654 0.655768 0.772813
O O12 0.227333 0.645753 0.512363
O O13 0.500000 0.000000 0.000000
O O14 0.295010 0.391446 0.441795
O O15 0.317602 0.091667 0.237437
O O16 0.879289 0.346326 0.193413
O O17 0.013203 0.802105 0.925192
#
# Coordination Sequence:
#
# PCOD8017012 Si02
#       8
#     2   2   2   2   2   2   2   2
#     4  10  24  37  65  93 118 164 210 256 300 355
#     4  11  21  41  60  94 125 165 201 251 318 362
#     4  10  23  42  64  84 120 178 209 236 304 381
#     4  11  24  35  66  96 126 157 202 264 312 355
#     4  10  22  37  64  90 120 157 210 253 304 357
#     4  11  21  43  62  85 131 172 202 235 313 385
#     4  12  21  38  61 104 121 146 208 270 313 341
#     4  11  20  36  64  94 122 157 195 262 311 360
#
# _framework density 20.538167999999999
#
# number of rings (size 3 to 8) (size 9 to 14) (size 15 to 20)
#    0.750    0.500    5.000    2.250    5.250    0.500 
#    0.000    1.250    2.750    0.000    0.000    0.000 
#    0.000    0.000    0.000    0.000    0.000    0.000 
#
# Total GULP energy -198271.851562 kJ/mol
# GULP energy per Si atom -12391.990723 kJ/mol
# Density = 2.049142 g / cm^3
# Si number density = 20.538168 Si / 1000 Ang^3
#
#
#
# Elastic Constant Matrix: (Units=GPa)
#
#
# Indices 1 2 3 4 5 6 
#
# 1 73.8256 12.1576 14.5106 15.4958 -5.8629 17.4956
# 2 12.1576 66.3229 16.7687 17.2266 -13.0545 4.7095
# 3 14.5106 16.7687 119.0093 27.9582 -12.5013 10.8722
# 4 15.4958 17.2266 27.9582 42.8836 -0.4540 3.6002
# 5 -5.8629 -13.0545 -12.5013 -0.4540 29.7771 0.7077
# 6 17.4956 4.7095 10.8722 3.6002 0.7077 11.8262
#
#
#
# Elastic Compliance Matrix: (Units=1/GPa)
#
#
# Indices 1 2 3 4 5 6 
#
# 1 0.023455 0.000853 0.002783 -0.007562 0.006894 -0.035707
# 2 0.000853 0.019024 0.000633 -0.007629 0.008839 -0.007627
# 3 0.002783 0.000633 0.011581 -0.007653 0.005881 -0.013037
# 4 -0.007562 -0.007629 -0.007653 0.033043 -0.007820 0.011669
# 5 0.006894 0.008839 0.005881 -0.007820 0.041622 -0.019235
# 6 -0.035707 -0.007627 -0.013037 0.011669 -0.019235 0.150005
#
#
# Mechanical properties :
#
#
# Convention : Reuss Voigt Hill
#
# Bulk Modulus (GPa) = 15.97495 38.44797 27.21146
# Shear Modulus (GPa) = 17.17868 31.27876 24.22872
#
# Velocity S-wave (km/s) = 2.89524 3.90674 3.43839
# Velocity P-wave (km/s) = 4.35564 6.25388 5.38900
#
# Compressibility (1/GPa) = 0.06259800
#
# Stress axis : x y z
#
# Youngs Moduli (GPa) = 42.63534 52.56434 86.34869
#
# Poissons Ratio (x) = -0.04486 -0.24027
# Poissons Ratio (y) = -0.03639 -0.05465
# Poissons Ratio (z) = -0.11864 -0.03327
#
# Static dielectric constant tensor:
#      x y z
#    x 3.466420 0.078420 -0.040240 
#    y 0.078420 3.585130 0.224370 
#    z -0.040240 0.224370 3.853340 
# 
# 
# High freq. dielectric constant tensor:
#      x y z
#    x 1.780220 0.007280 -0.005520 
#    y 0.007280 1.785350 0.019690 
#    z -0.005520 0.019690 1.817730 
# 
# From -- ./inp_files/450677.got.cif
#   From: 2010.06.25/outbox.cif.g09.slc.cpg/sg2_226_cif.got.tgz:450677.got - 2010.06.27 13:26:56.
