data_PCOD8017763
_publ_section_title
;
Structure prediction by ZEFSAII (Michael W. Deem and Ramdas Pophale) SiO2 
 PCOD8017763
Probable space group: P -1
;
_chemical_formula_sum "Si O2"
_cell_formula_units_Z 14
_cell_length_a 11.908564
_cell_length_b 9.681491
_cell_length_c 9.138584
_cell_angle_alpha 67.004712
_cell_angle_beta 133.401728
_cell_angle_gamma 123.458212
_cell_volume 638.530628
_symmetry_space_group_name_H-M "P -1"
_symmetry_group_IT_number 2
_symmetry_cell_setting 'triclinic'
loop_
_space_group_symop_operation_xyz
x,y,z
-x,-y,-z
loop_
_atom_site_type_symbol
_atom_site_label
_atom_site_fract_x
_atom_site_fract_y
_atom_site_fract_z
Si Si1 0.519647 0.346748 0.659251
Si Si2 0.236593 0.678468 0.638258
Si Si3 0.851536 0.282595 0.955270
Si Si4 0.843562 0.980851 0.193139
Si Si5 0.793108 0.993353 0.477085
Si Si6 0.538718 0.665621 0.047651
Si Si7 0.983285 0.497802 0.731951
O O1 0.500000 0.500000 0.500000
O O2 0.701855 0.345555 0.787494
O O3 0.370704 0.169738 0.549531
O O4 0.510705 0.369811 0.813842
O O5 0.134404 0.550107 0.728694
O O6 0.192846 0.568587 0.494233
O O7 0.196040 0.837241 0.511229
O O8 0.432309 0.750555 0.832566
O O9 0.967870 0.346656 0.887659
O O10 0.976923 0.349344 0.183399
O O11 0.780067 0.084805 0.982086
O O12 0.796905 0.020774 0.295924
O O13 0.737009 0.785839 0.152229
O O14 0.040482 0.030805 0.317665
O O15 0.500000 0.500000 0.000000
#
# Coordination Sequence:
#
# PCOD8017763 Si02
#       7
#     2   2   2   2   2   2   2
#     4  11  25  41  65  94 129 168 211 260 313 371
#     4  11  22  43  64  94 128 167 206 261 316 375
#     4  11  22  43  64  94 128 167 206 261 316 375
#     4  10  22  39  65  93 126 166 210 255 312 377
#     4  10  22  39  65  93 126 166 210 255 312 377
#     4  11  25  41  65  94 129 168 211 260 313 371
#     4  10  24  36  72  92 126 162 214 256 322 368
#
# _framework density 21.925338
#
# number of rings (size 3 to 8) (size 9 to 14) (size 15 to 20)
#    0.000    1.429    2.857    0.857   10.000    2.286 
#    2.571    2.143    0.000    0.000    0.000    0.000 
#    0.000    0.000    0.000    0.000    0.000    0.000 
#
# Total GULP energy -173476.362285 kJ/mol
# GULP energy per Si atom -12391.168735 kJ/mol
# Density = 2.187544 g / cm^3
# Si number density = 21.925338 Si / 1000 Ang^3
#
#
#
# Elastic Constant Matrix: (Units=GPa)
#
#
# Indices 1 2 3 4 5 6 
#
# 1 55.4068 48.8540 31.5257 -1.4926 -2.8864 8.5567
# 2 48.8540 134.7990 56.7545 -10.3806 2.6332 12.1596
# 3 31.5257 56.7545 108.9227 2.0127 -6.7974 6.5047
# 4 -1.4926 -10.3806 2.0127 46.3528 -3.2929 1.7475
# 5 -2.8864 2.6332 -6.7974 -3.2929 33.2367 0.3550
# 6 8.5567 12.1596 6.5047 1.7475 0.3550 28.7366
#
#
#
# Elastic Compliance Matrix: (Units=1/GPa)
#
#
# Indices 1 2 3 4 5 6 
#
# 1 0.028209 -0.008559 -0.003302 -0.000540 0.002442 -0.004028
# 2 -0.008559 0.012736 -0.004233 0.002671 -0.002332 -0.002016
# 3 -0.003302 -0.004233 0.012523 -0.001423 0.002469 -0.000004
# 4 -0.000540 0.002671 -0.001423 0.022413 0.001693 -0.002031
# 5 0.002442 -0.002332 0.002469 0.001693 0.031165 -0.000787
# 6 -0.004028 -0.002016 -0.000004 -0.002031 -0.000787 0.036985
#
#
# Mechanical properties :
#
#
# Convention : Reuss Voigt Hill
#
# Bulk Modulus (GPa) = 46.99498 63.71078 55.35288
# Shear Modulus (GPa) = 27.27587 32.46482 29.87034
#
# Velocity S-wave (km/s) = 3.53091 3.85216 3.69503
# Velocity P-wave (km/s) = 6.17282 6.99333 6.59585
#
# Compressibility (1/GPa) = 0.02127887
#
# Stress axis : x y z
#
# Youngs Moduli (GPa) = 35.45014 78.51830 79.85421
#
# Poissons Ratio (x) = 0.67206 0.26366
# Poissons Ratio (y) = 0.30343 0.33804
# Poissons Ratio (z) = 0.11705 0.33239
#
# Static dielectric constant tensor:
#      x y z
#    x 4.330980 0.229130 1.055150 
#    y 0.229130 3.982010 0.124270 
#    z 1.055150 0.124270 6.227290 
# 
# 
# High freq. dielectric constant tensor:
#      x y z
#    x 1.838990 0.019810 -0.000290 
#    y 0.019810 1.873280 0.006210 
#    z -0.000290 0.006210 1.863580 
# 
# From -- ./inp_files/158778.got.cif
#   From: 2010.06.25/outbox.cif.g09.slc.cpg/sg2_80_cif.got.tgz:158778.got - 2010.06.27 13:26:56.
