data_PCOD8017435
_publ_section_title
;
Structure prediction by ZEFSAII (Michael W. Deem and Ramdas Pophale) SiO2 
 PCOD8017435
Probable space group: P -1
;
_chemical_formula_sum "Si O2"
_cell_formula_units_Z 16
_cell_length_a 13.053828
_cell_length_b 11.252551
_cell_length_c 20.160552
_cell_angle_alpha 27.933999
_cell_angle_beta 29.281433
_cell_angle_gamma 36.492704
_cell_volume 671.292022
_symmetry_space_group_name_H-M "P -1"
_symmetry_group_IT_number 2
_symmetry_cell_setting 'triclinic'
loop_
_space_group_symop_operation_xyz
x,y,z
-x,-y,-z
loop_
_atom_site_type_symbol
_atom_site_label
_atom_site_fract_x
_atom_site_fract_y
_atom_site_fract_z
Si Si1 0.669554 0.185177 0.892673
Si Si2 0.025837 0.440482 0.093057
Si Si3 0.256407 0.724378 0.558739
Si Si4 0.992517 0.276492 0.419655
Si Si5 0.308831 0.910471 0.216072
Si Si6 0.986158 0.968267 0.919058
Si Si7 0.401021 0.409652 0.165923
Si Si8 0.325793 0.102376 0.753816
O O1 0.543845 0.428959 0.881364
O O2 0.693067 0.255708 0.767781
O O3 0.547131 0.935633 0.091954
O O4 0.901981 0.108456 0.830076
O O5 0.814578 0.350653 0.290525
O O6 0.087903 0.680585 0.981924
O O7 0.210057 0.204767 0.113667
O O8 0.000000 0.500000 0.000000
O O9 0.130795 0.569308 0.650742
O O10 0.150728 0.007814 0.450987
O O11 0.516187 0.682883 0.428930
O O12 0.145381 0.459087 0.275739
O O13 0.802824 0.237441 0.593884
O O14 0.780718 0.964183 0.084497
O O15 0.150421 0.135315 0.778256
O O16 0.497519 0.118539 0.266905
O O17 0.500000 0.500000 0.000000
#
# Coordination Sequence:
#
# PCOD8017435 Si02
#       8
#     2   2   2   2   2   2   2   2
#     4  11  22  38  63  88 118 162 202 248 295 355
#     4  11  22  39  63  88 123 161 196 241 301 362
#     4   9  20  38  62  89 120 156 199 248 296 353
#     4   9  20  36  63  91 117 153 201 254 294 345
#     4  10  22  41  64  87 120 159 205 247 295 354
#     4  11  22  37  61  88 124 158 198 247 299 356
#     4  11  22  36  62  89 120 157 201 247 300 355
#     4  10  22  39  59  89 122 155 199 251 300 349
#
# _framework density 23.834634000000001
#
# number of rings (size 3 to 8) (size 9 to 14) (size 15 to 20)
#    0.000    1.750    2.500    1.500    7.000    1.000 
#    0.000    1.875    2.750    0.000    0.000    0.000 
#    0.000    0.000    0.000    0.000    0.000    0.000 
#
# Total GULP energy -198261.948265 kJ/mol
# GULP energy per Si atom -12391.371767 kJ/mol
# Density = 2.378039 g / cm^3
# Si number density = 23.834634 Si / 1000 Ang^3
#
#
#
# Elastic Constant Matrix: (Units=GPa)
#
#
# Indices 1 2 3 4 5 6 
#
# 1 158.3046 36.0634 57.8445 14.3611 -16.0099 13.0975
# 2 36.0634 56.5502 1.6539 7.7850 -12.3747 12.4144
# 3 57.8445 1.6539 105.0948 26.7708 -7.5667 0.7767
# 4 14.3611 7.7850 26.7708 32.4769 2.0605 -4.6830
# 5 -16.0099 -12.3747 -7.5667 2.0605 40.2765 -0.2773
# 6 13.0975 12.4144 0.7767 -4.6830 -0.2773 45.5420
#
#
#
# Elastic Compliance Matrix: (Units=1/GPa)
#
#
# Indices 1 2 3 4 5 6 
#
# 1 0.009713 -0.005820 -0.005557 0.001483 0.000947 -0.000954
# 2 -0.005820 0.025497 0.005830 -0.009705 0.007069 -0.006331
# 3 -0.005557 0.005830 0.015900 -0.012469 0.003197 -0.001525
# 4 0.001483 -0.009705 -0.012469 0.044180 -0.006947 0.006932
# 5 0.000947 0.007069 0.003197 -0.006947 0.028313 -0.002796
# 6 -0.000954 -0.006331 -0.001525 0.006932 -0.002796 0.024680
#
#
# Mechanical properties :
#
#
# Convention : Reuss Voigt Hill
#
# Bulk Modulus (GPa) = 24.98987 56.78593 40.88790
# Shear Modulus (GPa) = 28.94918 38.61827 33.78373
#
# Velocity S-wave (km/s) = 3.48887 4.02961 3.76895
# Velocity P-wave (km/s) = 5.17079 6.74737 6.01099
#
# Compressibility (1/GPa) = 0.04001621
#
# Stress axis : x y z
#
# Youngs Moduli (GPa) = 102.94990 39.22042 62.89353
#
# Poissons Ratio (x) = 0.22824 0.34952
# Poissons Ratio (y) = 0.59912 -0.36666
# Poissons Ratio (z) = 0.57212 -0.22865
#
# Static dielectric constant tensor:
#      x y z
#    x 4.480150 0.065180 -0.398980 
#    y 0.065180 4.847410 0.023280 
#    z -0.398980 0.023280 4.184370 
# 
# 
# High freq. dielectric constant tensor:
#      x y z
#    x 1.949240 0.003780 -0.024080 
#    y 0.003780 1.964640 -0.000190 
#    z -0.024080 -0.000190 1.924390 
# 
# From -- ./inp_files/595037.got.cif
#   From: 2010.06.25/outbox.cif.g09.slc.cpg/sg2_298_cif.got.tgz:595037.got - 2010.06.27 13:26:56.
