data_PCOD8017843
_publ_section_title
;
Structure prediction by ZEFSAII (Michael W. Deem and Ramdas Pophale) SiO2 
 PCOD8017843
Probable space group: P -1
;
_chemical_formula_sum "Si O2"
_cell_formula_units_Z 16
_cell_length_a 20.531472
_cell_length_b 8.749241
_cell_length_c 7.950631
_cell_angle_alpha 101.979605
_cell_angle_beta 65.898367
_cell_angle_gamma 49.250308
_cell_volume 718.969182
_symmetry_space_group_name_H-M "P -1"
_symmetry_group_IT_number 2
_symmetry_cell_setting 'triclinic'
loop_
_space_group_symop_operation_xyz
x,y,z
-x,-y,-z
loop_
_atom_site_type_symbol
_atom_site_label
_atom_site_fract_x
_atom_site_fract_y
_atom_site_fract_z
Si Si1 0.603944 0.239118 0.207774
Si Si2 0.917464 0.767294 0.490911
Si Si3 0.178897 0.291210 0.926564
Si Si4 0.677375 0.371386 0.901011
Si Si5 0.969534 0.218048 0.379797
Si Si6 0.794149 0.710234 0.473873
Si Si7 0.531517 0.125360 0.993636
Si Si8 0.184275 0.613648 0.099862
O O1 0.500000 0.500000 0.500000
O O2 0.560200 0.151782 0.151697
O O3 0.732573 0.981469 0.119302
O O4 0.627571 0.319359 0.053521
O O5 0.834709 0.759148 0.588897
O O6 0.968286 0.728002 0.612174
O O7 0.817639 0.082901 0.610776
O O8 0.032151 0.545188 0.188536
O O9 0.188157 0.231806 0.706952
O O10 0.229086 0.379070 0.901172
O O11 0.583296 0.568299 0.891829
O O12 0.692400 0.501341 0.027254
O O13 0.890300 0.389882 0.330407
O O14 0.872706 0.335459 0.650253
O O15 0.079355 0.892750 0.160670
O O16 0.650254 0.922569 0.697494
O O17 0.500000 0.000000 0.000000
#
# Coordination Sequence:
#
# PCOD8017843 Si02
#       8
#     2   2   2   2   2   2   2   2
#     4  12  27  45  68  98 134 174 221 278 327 388
#     4  10  22  39  66  97 130 166 219 271 323 392
#     4  11  25  41  64  99 139 169 211 272 333 391
#     4  11  23  42  72  94 126 175 223 269 326 389
#     4   9  19  37  65  92 127 170 215 263 324 388
#     4  12  23  39  66  97 132 171 220 269 326 389
#     4  12  26  46  71  96 130 178 228 270 323 396
#     4   9  20  40  63  95 129 167 214 266 327 392
#
# _framework density 22.254083999999999
#
# number of rings (size 3 to 8) (size 9 to 14) (size 15 to 20)
#    0.000    1.250    1.250    5.625    5.250    1.500 
#    0.000    2.500    0.000    0.000    0.000    0.000 
#    0.000    0.000    0.000    0.000    0.000    0.000 
#
# Total GULP energy -198341.741065 kJ/mol
# GULP energy per Si atom -12396.358817 kJ/mol
# Density = 2.220343 g / cm^3
# Si number density = 22.254084 Si / 1000 Ang^3
#
#
#
# Elastic Constant Matrix: (Units=GPa)
#
#
# Indices 1 2 3 4 5 6 
#
# 1 98.5021 24.9572 27.4093 1.1471 -16.5080 15.3996
# 2 24.9572 123.5574 32.6353 11.0516 -7.3409 -30.5063
# 3 27.4093 32.6353 102.8272 10.6132 -11.0525 -10.5905
# 4 1.1471 11.0516 10.6132 26.8311 -3.5218 -9.2467
# 5 -16.5080 -7.3409 -11.0525 -3.5218 29.2165 3.2294
# 6 15.3996 -30.5063 -10.5905 -9.2467 3.2294 35.2060
#
#
#
# Elastic Compliance Matrix: (Units=1/GPa)
#
#
# Indices 1 2 3 4 5 6 
#
# 1 0.015608 -0.005045 -0.002976 -0.000887 0.007759 -0.013039
# 2 -0.005045 0.012574 -0.001493 -0.000199 -0.001690 0.012756
# 3 -0.002976 -0.001493 0.011739 -0.002756 0.001758 0.002654
# 4 -0.000887 -0.000199 -0.002756 0.042337 0.002373 0.010289
# 5 0.007759 -0.001690 0.001758 0.002373 0.039953 -0.007371
# 6 -0.013039 0.012756 0.002654 0.010289 -0.007371 0.049338
#
#
# Mechanical properties :
#
#
# Convention : Reuss Voigt Hill
#
# Bulk Modulus (GPa) = 47.86839 54.98782 51.42810
# Shear Modulus (GPa) = 25.31106 34.24305 29.77705
#
# Velocity S-wave (km/s) = 3.37615 3.92692 3.66190
# Velocity P-wave (km/s) = 6.06254 6.73229 6.40617
#
# Compressibility (1/GPa) = 0.02089061
#
# Stress axis : x y z
#
# Youngs Moduli (GPa) = 64.07012 79.53108 85.18508
#
# Poissons Ratio (x) = 0.40127 0.25355
# Poissons Ratio (y) = 0.32326 0.12719
# Poissons Ratio (z) = 0.19070 0.11875
#
# Static dielectric constant tensor:
#      x y z
#    x 4.283510 0.104970 -0.116280 
#    y 0.104970 4.085690 0.356450 
#    z -0.116280 0.356450 3.797460 
# 
# 
# High freq. dielectric constant tensor:
#      x y z
#    x 1.881520 0.006380 -0.015430 
#    y 0.006380 1.885620 0.024460 
#    z -0.015430 0.024460 1.853090 
# 
# From -- ./inp_files/343644.got.cif
#   From: 2010.06.25/outbox.cif.g09.slc.cpg/sg2_172_cif.got.tgz:343644.got - 2010.06.27 13:26:56.
