data_PCOD8017131
_publ_section_title
;
Structure prediction by ZEFSAII (Michael W. Deem and Ramdas Pophale) SiO2 
 PCOD8017131
Probable space group: P -1
;
_chemical_formula_sum "Si O2"
_cell_formula_units_Z 16
_cell_length_a 19.856170
_cell_length_b 12.193225
_cell_length_c 8.939524
_cell_angle_alpha 31.638906
_cell_angle_beta 47.459850
_cell_angle_gamma 47.588956
_cell_volume 808.716278
_symmetry_space_group_name_H-M "P -1"
_symmetry_group_IT_number 2
_symmetry_cell_setting 'triclinic'
loop_
_space_group_symop_operation_xyz
x,y,z
-x,-y,-z
loop_
_atom_site_type_symbol
_atom_site_label
_atom_site_fract_x
_atom_site_fract_y
_atom_site_fract_z
Si Si1 0.429821 0.534795 0.204362
Si Si2 0.173578 0.365451 0.945169
Si Si3 0.091899 0.065861 0.232738
Si Si4 0.063159 0.760897 0.197936
Si Si5 0.036284 0.573709 0.154885
Si Si6 0.515249 0.269713 0.822459
Si Si7 0.618630 0.821000 0.094104
Si Si8 0.786053 0.305476 0.708132
O O1 0.471923 0.692449 0.065311
O O2 0.423805 0.316136 0.556942
O O3 0.326622 0.659830 0.150813
O O4 0.500000 0.500000 0.000000
O O5 0.271686 0.280045 0.982460
O O6 0.190382 0.474890 0.637044
O O7 0.129926 0.166509 0.203383
O O8 0.105714 0.543414 0.944397
O O9 0.175584 0.876007 0.263577
O O10 0.000000 0.000000 0.500000
O O11 0.058807 0.239970 0.948523
O O12 0.090234 0.639646 0.139942
O O13 0.161305 0.756473 0.140478
O O14 0.994607 0.646308 0.523695
O O15 0.000000 0.000000 0.000000
O O16 0.500000 0.500000 0.500000
O O17 0.425867 0.185550 0.997538
O O18 0.604594 0.072046 0.870928
#
# Coordination Sequence:
#
# PCOD8017131 Si02
#       8
#     2   2   2   2   2   2   2   2
#     4  10  22  38  60  91 120 152 198 245 300 357
#     4  11  22  37  59  91 115 149 210 243 287 353
#     4  12  21  35  63  89 117 152 197 248 297 341
#     4  11  23  40  56  80 123 164 196 236 297 352
#     4  11  23  37  57  84 118 156 197 243 288 349
#     4   9  18  39  62  83 114 151 192 242 300 347
#     4   9  20  38  63  86 116 155 191 248 297 349
#     4  11  22  39  61  85 118 161 200 247 292 350
#
# _framework density 19.784441000000001
#
# number of rings (size 3 to 8) (size 9 to 14) (size 15 to 20)
#    0.000    1.500    3.750    1.875    0.000    1.500 
#    0.000    3.750    0.000    0.000    0.000    0.000 
#    0.000    0.000    0.000    0.000    0.000    0.000 
#
# Total GULP energy -198291.016727 kJ/mol
# GULP energy per Si atom -12393.188545 kJ/mol
# Density = 1.973941 g / cm^3
# Si number density = 19.784441 Si / 1000 Ang^3
#
#
#
# Elastic Constant Matrix: (Units=GPa)
#
#
# Indices 1 2 3 4 5 6 
#
# 1 157.7796 64.9366 29.6853 5.1622 -2.5534 4.0891
# 2 64.9366 117.7136 33.9330 -2.5305 -12.8734 -4.9284
# 3 29.6853 33.9330 70.1901 -8.9387 -5.7372 -5.9889
# 4 5.1622 -2.5305 -8.9387 34.1603 -3.4068 2.0517
# 5 -2.5534 -12.8734 -5.7372 -3.4068 22.4884 -7.1872
# 6 4.0891 -4.9284 -5.9889 2.0517 -7.1872 37.4778
#
#
#
# Elastic Compliance Matrix: (Units=1/GPa)
#
#
# Indices 1 2 3 4 5 6 
#
# 1 0.008799 -0.004743 -0.002234 -0.002461 -0.003448 -0.002467
# 2 -0.004743 0.012998 -0.003253 0.001369 0.007245 0.003021
# 3 -0.002234 -0.003253 0.018035 0.005048 0.004286 0.003243
# 4 -0.002461 0.001369 0.005048 0.031702 0.006862 0.000836
# 5 -0.003448 0.007245 0.004286 0.006862 0.054202 0.012033
# 6 -0.002467 0.003021 0.003243 0.000836 0.012033 0.030129
#
#
# Mechanical properties :
#
#
# Convention : Reuss Voigt Hill
#
# Bulk Modulus (GPa) = 51.62496 66.97702 59.30099
# Shear Modulus (GPa) = 27.35481 33.30053 30.32767
#
# Velocity S-wave (km/s) = 3.72242 4.10709 3.91948
# Velocity P-wave (km/s) = 6.68024 7.51118 7.10786
#
# Compressibility (1/GPa) = 0.01937047
#
# Stress axis : x y z
#
# Youngs Moduli (GPa) = 113.64790 76.93543 55.44877
#
# Poissons Ratio (x) = 0.36492 0.12387
# Poissons Ratio (y) = 0.53906 0.18039
# Poissons Ratio (z) = 0.25389 0.25030
#
# Static dielectric constant tensor:
#      x y z
#    x 4.032120 0.063280 0.141620 
#    y 0.063280 3.559100 -0.331530 
#    z 0.141620 -0.331530 3.817090 
# 
# 
# High freq. dielectric constant tensor:
#      x y z
#    x 1.790330 0.002320 0.000900 
#    y 0.002320 1.762690 -0.029880 
#    z 0.000900 -0.029880 1.757340 
# 
# From -- ./inp_files/38734.got.cif
#   From: 2010.06.25/outbox.cif.g09.slc.cpg/sg2_20_cif.got.tgz:38734.got - 2010.06.27 13:26:56.
