data_PCOD8017954
_publ_section_title
;
Structure prediction by ZEFSAII (Michael W. Deem and Ramdas Pophale) SiO2 
 PCOD8017954
Probable space group: P -1
;
_chemical_formula_sum "Si O2"
_cell_formula_units_Z 16
_cell_length_a 9.271534
_cell_length_b 12.269527
_cell_length_c 11.735535
_cell_angle_alpha 70.396352
_cell_angle_beta 45.814910
_cell_angle_gamma 49.844421
_cell_volume 715.688571
_symmetry_space_group_name_H-M "P -1"
_symmetry_group_IT_number 2
_symmetry_cell_setting 'triclinic'
loop_
_space_group_symop_operation_xyz
x,y,z
-x,-y,-z
loop_
_atom_site_type_symbol
_atom_site_label
_atom_site_fract_x
_atom_site_fract_y
_atom_site_fract_z
Si Si1 0.451360 0.886418 0.028674
Si Si2 0.424853 0.708742 0.498255
Si Si3 0.225014 0.204173 0.472667
Si Si4 0.029771 0.017139 0.610169
Si Si5 0.192473 0.590810 0.545407
Si Si6 0.250786 0.988502 0.858796
Si Si7 0.922422 0.557100 0.895837
Si Si8 0.139692 0.282206 0.752202
O O1 0.231907 0.897344 0.211505
O O2 0.407378 0.914964 0.910831
O O3 0.670366 0.718420 0.984765
O O4 0.500000 0.000000 0.000000
O O5 0.302440 0.681094 0.468161
O O6 0.573588 0.577617 0.556541
O O7 0.610711 0.739819 0.329849
O O8 0.198827 0.857048 0.632010
O O9 0.530020 0.116943 0.319573
O O10 0.141480 0.279666 0.615023
O O11 0.170287 0.087980 0.530942
O O12 0.044406 0.334618 0.435872
O O13 0.000000 0.000000 0.500000
O O14 0.122762 0.571007 0.717906
O O15 0.137633 0.155911 0.849271
O O16 0.000000 0.000000 0.000000
O O17 0.903011 0.442919 0.873048
O O18 0.000000 0.500000 0.000000
#
# Coordination Sequence:
#
# PCOD8017954 Si02
#       8
#     2   2   2   2   2   2   2   2
#     4  12  26  44  75 108 142 190 242 303 359 435
#     4  10  22  39  70 105 136 180 236 294 354 415
#     4  12  24  47  72 105 144 190 251 298 361 440
#     4  12  24  41  74 107 137 187 244 298 353 429
#     4  10  22  43  70 105 139 182 238 293 356 434
#     4  12  26  48  68 105 147 192 242 300 372 433
#     4  11  25  46  70 104 152 189 236 300 373 430
#     4  11  26  46  73 103 146 196 236 305 368 431
#
# _framework density 22.356092
#
# number of rings (size 3 to 8) (size 9 to 14) (size 15 to 20)
#    0.000    0.750    3.750    3.375    5.250    2.000 
#    0.000    2.500    0.000    0.000    0.000    0.000 
#    0.000    0.000    0.000    0.000    0.000    0.000 
#
# Total GULP energy -198244.937918 kJ/mol
# GULP energy per Si atom -12390.308620 kJ/mol
# Density = 2.230521 g / cm^3
# Si number density = 22.356092 Si / 1000 Ang^3
#
#
#
# Elastic Constant Matrix: (Units=GPa)
#
#
# Indices 1 2 3 4 5 6 
#
# 1 96.1127 68.2673 58.4403 3.0338 -4.8876 0.7259
# 2 68.2673 204.6946 66.7377 19.6861 3.6939 -5.3749
# 3 58.4403 66.7377 113.3110 0.0187 5.6698 3.3131
# 4 3.0338 19.6861 0.0187 41.9293 3.1855 -1.9386
# 5 -4.8876 3.6939 5.6698 3.1855 42.5569 -2.2584
# 6 0.7259 -5.3749 3.3131 -1.9386 -2.2584 35.6322
#
#
#
# Elastic Compliance Matrix: (Units=1/GPa)
#
#
# Indices 1 2 3 4 5 6 
#
# 1 0.017370 -0.003585 -0.007008 0.000183 0.003225 -0.000029
# 2 -0.003585 0.007194 -0.002401 -0.003030 -0.000426 0.001190
# 3 -0.007008 -0.002401 0.014035 0.001758 -0.002683 -0.001599
# 4 0.000183 -0.003030 0.001758 0.025426 -0.001819 0.000644
# 5 0.003225 -0.000426 -0.002683 -0.001819 0.024482 0.001572
# 6 -0.000029 0.001190 -0.001599 0.000644 0.001572 0.028528
#
#
# Mechanical properties :
#
#
# Convention : Reuss Voigt Hill
#
# Bulk Modulus (GPa) = 79.29595 89.00099 84.14847
# Shear Modulus (GPa) = 33.96125 38.73520 36.34823
#
# Velocity S-wave (km/s) = 3.90180 4.16702 4.03659
# Velocity P-wave (km/s) = 7.47297 7.94035 7.71020
#
# Compressibility (1/GPa) = 0.01261099
#
# Stress axis : x y z
#
# Youngs Moduli (GPa) = 57.57003 139.00262 71.25286
#
# Poissons Ratio (x) = 0.49830 0.49933
# Poissons Ratio (y) = 0.20638 0.17109
# Poissons Ratio (z) = 0.40344 0.33378
#
# Static dielectric constant tensor:
#      x y z
#    x 4.022540 0.013510 -0.063650 
#    y 0.013510 4.669620 0.224640 
#    z -0.063650 0.224640 4.208150 
# 
# 
# High freq. dielectric constant tensor:
#      x y z
#    x 1.872670 -0.001940 -0.005630 
#    y -0.001940 1.913490 0.002690 
#    z -0.005630 0.002690 1.871440 
# 
# From -- ./inp_files/392443.got.cif
#   From: 2010.06.25/outbox.cif.g09.slc.cpg/sg2_197_cif.got.tgz:392443.got - 2010.06.27 13:26:56.
