data_PCOD8017205
_publ_section_title
;
Structure prediction by ZEFSAII (Michael W. Deem and Ramdas Pophale) SiO2 
 PCOD8017205
Probable space group: P -1
;
_chemical_formula_sum "Si O2"
_cell_formula_units_Z 16
_cell_length_a 13.004054
_cell_length_b 22.699249
_cell_length_c 6.548392
_cell_angle_alpha 133.684748
_cell_angle_beta 126.242774
_cell_angle_gamma 31.846991
_cell_volume 737.516827
_symmetry_space_group_name_H-M "P -1"
_symmetry_group_IT_number 2
_symmetry_cell_setting 'triclinic'
loop_
_space_group_symop_operation_xyz
x,y,z
-x,-y,-z
loop_
_atom_site_type_symbol
_atom_site_label
_atom_site_fract_x
_atom_site_fract_y
_atom_site_fract_z
Si Si1 0.421311 0.810028 0.884559
Si Si2 0.046557 0.271174 0.311060
Si Si3 0.363732 0.563019 0.684057
Si Si4 0.919773 0.449153 0.237728
Si Si5 0.856460 0.072370 0.812169
Si Si6 0.497850 0.628776 0.281382
Si Si7 0.857136 0.640528 0.091590
Si Si8 0.134978 0.045324 0.844328
O O1 0.373133 0.762434 0.550669
O O2 0.310843 0.938874 0.955041
O O3 0.352369 0.821261 0.062661
O O4 0.654726 0.705155 0.919723
O O5 0.191592 0.266399 0.575440
O O6 0.859675 0.347144 0.421503
O O7 0.971677 0.350535 0.210880
O O8 0.148422 0.136489 0.056947
O O9 0.500000 0.500000 0.500000
O O10 0.448813 0.452495 0.661115
O O11 0.361636 0.649630 0.009153
O O12 0.687058 0.569068 0.237900
O O13 0.000000 0.500000 0.500000
O O14 0.018291 0.372542 0.962329
O O15 0.928194 0.115308 0.866167
O O16 0.846546 0.000003 0.472524
O O17 0.000000 0.000000 0.000000
O O18 0.000000 0.500000 0.000000
#
# Coordination Sequence:
#
# PCOD8017205 Si02
#       8
#     2   2   2   2   2   2   2   2
#     4  11  24  41  69  97 132 177 228 280 326 402
#     4  11  25  41  65  96 134 177 220 275 336 399
#     4  10  22  39  61  96 129 166 216 279 337 396
#     4  11  21  43  64  92 134 172 219 280 331 396
#     4   9  22  43  69  96 132 177 226 273 330 401
#     4  10  22  38  62  95 129 167 220 270 339 394
#     4  12  24  44  70  96 130 178 234 271 335 400
#     4  10  24  44  64 102 135 176 223 271 344 399
#
# _framework density 21.694419
#
# number of rings (size 3 to 8) (size 9 to 14) (size 15 to 20)
#    0.000    1.500    2.500    1.500    7.000    4.500 
#    0.000    1.250    0.000    0.000    0.000    0.000 
#    0.000    0.000    0.000    0.000    0.000    0.000 
#
# Total GULP energy -198238.276193 kJ/mol
# GULP energy per Si atom -12389.892262 kJ/mol
# Density = 2.164504 g / cm^3
# Si number density = 21.694419 Si / 1000 Ang^3
#
#
#
# Elastic Constant Matrix: (Units=GPa)
#
#
# Indices 1 2 3 4 5 6 
#
# 1 102.1870 32.9710 26.7895 11.8280 -11.3784 -4.9289
# 2 32.9710 93.9937 33.7029 6.3726 7.9632 4.3724
# 3 26.7895 33.7029 107.2129 17.1589 8.0573 9.2515
# 4 11.8280 6.3726 17.1589 31.4548 2.2482 7.6731
# 5 -11.3784 7.9632 8.0573 2.2482 46.1139 9.5398
# 6 -4.9289 4.3724 9.2515 7.6731 9.5398 20.3121
#
#
#
# Elastic Compliance Matrix: (Units=1/GPa)
#
#
# Indices 1 2 3 4 5 6 
#
# 1 0.012680 -0.003985 -0.001890 -0.004356 0.003353 0.004867
# 2 -0.003985 0.013341 -0.003034 0.001040 -0.002457 -0.001696
# 3 -0.001890 -0.003034 0.011787 -0.004288 -0.001171 -0.003004
# 4 -0.004356 0.001040 -0.004288 0.039013 0.000557 -0.014327
# 5 0.003353 -0.002457 -0.001171 0.000557 0.025220 -0.010179
# 6 0.004867 -0.001696 -0.003004 -0.014327 -0.010179 0.062339
#
#
# Mechanical properties :
#
#
# Convention : Reuss Voigt Hill
#
# Bulk Modulus (GPa) = 50.02563 54.48005 52.25284
# Shear Modulus (GPa) = 26.47451 33.57153 30.02302
#
# Velocity S-wave (km/s) = 3.49712 3.93806 3.72412
# Velocity P-wave (km/s) = 6.27820 6.77088 6.52919
#
# Compressibility (1/GPa) = 0.01998975
#
# Stress axis : x y z
#
# Youngs Moduli (GPa) = 78.86689 74.95609 84.84156
#
# Poissons Ratio (x) = 0.29870 0.16037
# Poissons Ratio (y) = 0.31429 0.25737
# Poissons Ratio (z) = 0.14908 0.22738
#
# Static dielectric constant tensor:
#      x y z
#    x 4.497290 -0.095970 -0.315690 
#    y -0.095970 3.725980 -0.029970 
#    z -0.315690 -0.029970 4.141490 
# 
# 
# High freq. dielectric constant tensor:
#      x y z
#    x 1.856750 0.000480 -0.004490 
#    y 0.000480 1.839990 -0.005300 
#    z -0.004490 -0.005300 1.861880 
# 
# From -- ./inp_files/83535.got.cif
#   From: 2010.06.25/outbox.cif.g09.slc.cpg/sg2_42_cif.got.tgz:83535.got - 2010.06.27 13:26:56.
