data_PCOD8017746
_publ_section_title
;
Structure prediction by ZEFSAII (Michael W. Deem and Ramdas Pophale) SiO2 
 PCOD8017746
Probable space group: P -1
;
_chemical_formula_sum "Si O2"
_cell_formula_units_Z 16
_cell_length_a 18.103236
_cell_length_b 8.222370
_cell_length_c 5.110238
_cell_angle_alpha 96.143120
_cell_angle_beta 90.128444
_cell_angle_gamma 120.646498
_cell_volume 649.229788
_symmetry_space_group_name_H-M "P -1"
_symmetry_group_IT_number 2
_symmetry_cell_setting 'triclinic'
loop_
_space_group_symop_operation_xyz
x,y,z
-x,-y,-z
loop_
_atom_site_type_symbol
_atom_site_label
_atom_site_fract_x
_atom_site_fract_y
_atom_site_fract_z
Si Si1 0.647883 0.748327 0.925889
Si Si2 0.789950 0.112174 0.223191
Si Si3 0.585718 0.511071 0.407874
Si Si4 0.326591 0.787000 0.486629
Si Si5 0.028822 0.824403 0.707793
Si Si6 0.067113 0.247738 0.804070
Si Si7 0.525551 0.900555 0.763546
Si Si8 0.241562 0.596817 0.945817
O O1 0.656588 0.643264 0.648778
O O2 0.390803 0.406184 0.868665
O O3 0.590077 0.844317 0.893256
O O4 0.743653 0.911093 0.035663
O O5 0.728873 0.107519 0.459709
O O6 0.881426 0.162717 0.343706
O O7 0.804587 0.278538 0.050073
O O8 0.500000 0.500000 0.500000
O O9 0.560892 0.288899 0.376276
O O10 0.313946 0.662122 0.727980
O O11 0.424790 0.956198 0.456810
O O12 0.290378 0.634714 0.225939
O O13 0.962533 0.699813 0.455967
O O14 0.044618 0.033991 0.752072
O O15 0.984784 0.720293 0.959812
O O16 0.169444 0.376659 0.872795
O O17 0.500000 0.000000 0.000000
#
# Coordination Sequence:
#
# PCOD8017746 Si02
#       8
#     2   2   2   2   2   2   2   2
#     4  11  22  42  63  91 129 165 212 262 314 379
#     4  10  23  39  67  92 126 172 208 263 304 386
#     4  10  22  39  65  89 120 168 209 262 314 378
#     4  10  22  40  61  93 124 168 204 267 314 372
#     4  10  23  39  68  91 130 162 216 246 326 362
#     4  10  22  43  61  97 127 168 198 271 302 386
#     4  11  22  43  70  92 131 166 219 271 328 375
#     4  10  22  39  66  85 134 160 209 260 319 362
#
# _framework density 24.644584999999999
#
# number of rings (size 3 to 8) (size 9 to 14) (size 15 to 20)
#    0.750    1.000    1.250    3.750    1.750    2.000 
#    2.250   15.625    5.500    0.000    0.000    0.000 
#    0.000    0.000    0.000    0.000    0.000    0.000 
#
# Total GULP energy -198364.406194 kJ/mol
# GULP energy per Si atom -12397.775387 kJ/mol
# Density = 2.458849 g / cm^3
# Si number density = 24.644585 Si / 1000 Ang^3
#
#
#
# Elastic Constant Matrix: (Units=GPa)
#
#
# Indices 1 2 3 4 5 6 
#
# 1 78.1670 13.2065 20.4397 2.2837 -12.9122 19.6641
# 2 13.2065 104.5989 48.0102 10.3544 -4.4576 15.0502
# 3 20.4397 48.0102 161.7797 13.6210 -11.4235 11.3034
# 4 2.2837 10.3544 13.6210 43.4325 9.4719 8.1727
# 5 -12.9122 -4.4576 -11.4235 9.4719 34.0800 -0.4857
# 6 19.6641 15.0502 11.3034 8.1727 -0.4857 33.1336
#
#
#
# Elastic Compliance Matrix: (Units=1/GPa)
#
#
# Indices 1 2 3 4 5 6 
#
# 1 0.016333 -0.000023 -0.001002 -0.000049 0.005731 -0.009245
# 2 -0.000023 0.011677 -0.003024 -0.001269 0.000802 -0.003934
# 3 -0.001002 -0.003024 0.007550 -0.002093 0.002337 -0.000057
# 4 -0.000049 -0.001269 -0.002093 0.026844 -0.008424 -0.005425
# 5 0.005731 0.000802 0.002337 -0.008424 0.034715 -0.001976
# 6 -0.009245 -0.003934 -0.000057 -0.005425 -0.001976 0.038783
#
#
# Mechanical properties :
#
#
# Convention : Reuss Voigt Hill
#
# Bulk Modulus (GPa) = 36.41352 56.42871 46.42111
# Shear Modulus (GPa) = 32.64671 39.65518 36.15095
#
# Velocity S-wave (km/s) = 3.64359 4.01569 3.83416
# Velocity P-wave (km/s) = 5.70163 6.66691 6.20308
#
# Compressibility (1/GPa) = 0.02746233
#
# Stress axis : x y z
#
# Youngs Moduli (GPa) = 61.22641 85.63777 132.44161
#
# Poissons Ratio (x) = 0.00197 0.13270
# Poissons Ratio (y) = 0.00141 0.40052
# Poissons Ratio (z) = 0.06135 0.25898
#
# Static dielectric constant tensor:
#      x y z
#    x 4.256700 -0.084640 -0.117320 
#    y -0.084640 4.740270 0.354190 
#    z -0.117320 0.354190 4.967400 
# 
# 
# High freq. dielectric constant tensor:
#      x y z
#    x 1.975870 0.001810 0.002820 
#    y 0.001810 1.983380 0.004730 
#    z 0.002820 0.004730 1.988830 
# 
# From -- ./inp_files/105390.got.cif
#   From: 2010.06.25/outbox.cif.g09.slc.cpg/sg2_53_cif.got.tgz:105390.got - 2010.06.27 13:26:56.
