data_PCOD8017619
_publ_section_title
;
Structure prediction by ZEFSAII (Michael W. Deem and Ramdas Pophale) SiO2 
 PCOD8017619
Probable space group: P -1
;
_chemical_formula_sum "Si O2"
_cell_formula_units_Z 16
_cell_length_a 11.835858
_cell_length_b 11.982901
_cell_length_c 8.389707
_cell_angle_alpha 92.290992
_cell_angle_beta 120.919218
_cell_angle_gamma 49.079257
_cell_volume 685.864676
_symmetry_space_group_name_H-M "P -1"
_symmetry_group_IT_number 2
_symmetry_cell_setting 'triclinic'
loop_
_space_group_symop_operation_xyz
x,y,z
-x,-y,-z
loop_
_atom_site_type_symbol
_atom_site_label
_atom_site_fract_x
_atom_site_fract_y
_atom_site_fract_z
Si Si1 0.570771 0.138450 0.823616
Si Si2 0.735598 0.417051 0.028177
Si Si3 0.097520 0.711342 0.507791
Si Si4 0.136382 0.098773 0.213380
Si Si5 0.308208 0.098560 0.646056
Si Si6 0.513414 0.583475 0.365906
Si Si7 0.222836 0.827355 0.424955
Si Si8 0.475758 0.784488 0.862895
O O1 0.378325 0.181969 0.701101
O O2 0.544744 0.250451 0.680270
O O3 0.756328 0.952210 0.881632
O O4 0.612096 0.172722 0.021951
O O5 0.798533 0.341046 0.246930
O O6 0.921908 0.284131 0.040745
O O7 0.563208 0.446768 0.836571
O O8 0.674318 0.586694 0.985923
O O9 0.250285 0.555702 0.488356
O O10 0.064485 0.851769 0.405502
O O11 0.887340 0.783998 0.377636
O O12 0.257466 0.092680 0.430612
O O13 0.113239 0.980779 0.234894
O O14 0.487171 0.910426 0.837918
O O15 0.396964 0.636444 0.457746
O O16 0.317433 0.843369 0.627931
#
# Coordination Sequence:
#
# PCOD8017619 Si02
#       8
#     2   2   2   2   2   2   2   2
#     4  11  22  42  66  89 124 167 209 246 303 367
#     4  11  22  40  63  95 127 154 205 255 319 360
#     4  11  21  39  60  95 122 162 200 254 302 367
#     4   9  23  42  65  93 120 164 205 256 304 367
#     4  10  24  41  65  87 125 168 210 244 300 369
#     4  11  22  38  65  94 125 162 199 260 310 365
#     4  10  22  39  63  91 129 158 204 254 317 360
#     4  11  22  41  62  89 128 159 203 259 305 361
#
# _framework density 23.328216999999999
#
# number of rings (size 3 to 8) (size 9 to 14) (size 15 to 20)
#    0.000    1.500    2.500    2.250    0.000    9.000 
#    0.000    0.625    0.000    0.000    0.000    0.000 
#    0.000    0.000    0.000    0.000    0.000    0.000 
#
# Total GULP energy -198250.670748 kJ/mol
# GULP energy per Si atom -12390.666922 kJ/mol
# Density = 2.327512 g / cm^3
# Si number density = 23.328217 Si / 1000 Ang^3
#
#
#
# Elastic Constant Matrix: (Units=GPa)
#
#
# Indices 1 2 3 4 5 6 
#
# 1 98.7356 43.2260 27.6101 -2.0606 7.0037 -23.5272
# 2 43.2260 127.2904 33.2168 -14.0174 6.1615 -30.2109
# 3 27.6101 33.2168 54.0314 -9.2967 -0.4247 -7.0684
# 4 -2.0606 -14.0174 -9.2967 29.2420 -6.3899 2.3309
# 5 7.0037 6.1615 -0.4247 -6.3899 13.1126 -1.4879
# 6 -23.5272 -30.2109 -7.0684 2.3309 -1.4879 35.9723
#
#
#
# Elastic Compliance Matrix: (Units=1/GPa)
#
#
# Indices 1 2 3 4 5 6 
#
# 1 0.014863 -0.001803 -0.006391 -0.004276 -0.008603 0.006872
# 2 -0.001803 0.012030 -0.004999 0.002876 -0.002582 0.007648
# 3 -0.006391 -0.004999 0.025828 0.007827 0.010028 -0.003396
# 4 -0.004276 0.002876 0.007827 0.042597 0.021865 -0.000699
# 5 -0.008603 -0.002582 0.010028 0.021865 0.092664 -0.003408
# 6 0.006872 0.007648 -0.003396 -0.000699 -0.003408 0.037954
#
#
# Mechanical properties :
#
#
# Convention : Reuss Voigt Hill
#
# Bulk Modulus (GPa) = 37.97248 54.24037 46.10642
# Shear Modulus (GPa) = 19.14973 27.39901 23.27437
#
# Velocity S-wave (km/s) = 2.86821 3.43082 3.16205
# Velocity P-wave (km/s) = 5.22319 6.24463 5.75661
#
# Compressibility (1/GPa) = 0.02633486
#
# Stress axis : x y z
#
# Youngs Moduli (GPa) = 67.28078 83.12671 38.71759
#
# Poissons Ratio (x) = 0.14988 0.24744
# Poissons Ratio (y) = 0.12131 0.19355
# Poissons Ratio (z) = 0.42999 0.41555
#
# Static dielectric constant tensor:
#      x y z
#    x 4.157580 -0.039270 -0.335200 
#    y -0.039270 4.658560 -0.196920 
#    z -0.335200 -0.196920 4.054710 
# 
# 
# High freq. dielectric constant tensor:
#      x y z
#    x 1.910980 -0.013240 -0.023820 
#    y -0.013240 1.944570 -0.005950 
#    z -0.023820 -0.005950 1.905040 
# 
# From -- ./inp_files/262546.got.cif
#   From: 2010.06.25/outbox.cif.g09.slc.cpg/sg2_132_cif.got.tgz:262546.got - 2010.06.27 13:26:56.
