data_PCOD8017483
_publ_section_title
;
Structure prediction by ZEFSAII (Michael W. Deem and Ramdas Pophale) SiO2 
 PCOD8017483
Probable space group: P -1
;
_chemical_formula_sum "Si O2"
_cell_formula_units_Z 16
_cell_length_a 11.833270
_cell_length_b 8.954147
_cell_length_c 12.041319
_cell_angle_alpha 90.077480
_cell_angle_beta 131.582753
_cell_angle_gamma 115.070801
_cell_volume 785.648752
_symmetry_space_group_name_H-M "P -1"
_symmetry_group_IT_number 2
_symmetry_cell_setting 'triclinic'
loop_
_space_group_symop_operation_xyz
x,y,z
-x,-y,-z
loop_
_atom_site_type_symbol
_atom_site_label
_atom_site_fract_x
_atom_site_fract_y
_atom_site_fract_z
Si Si1 0.530958 0.533861 0.390790
Si Si2 0.427452 0.900648 0.068447
Si Si3 0.857657 0.506841 0.161498
Si Si4 0.915609 0.761393 0.384346
Si Si5 0.908408 0.628075 0.609783
Si Si6 0.900570 0.084356 0.079334
Si Si7 0.714234 0.890073 0.384584
Si Si8 0.142622 0.266289 0.025946
O O1 0.500000 0.500000 0.500000
O O2 0.687777 0.502849 0.459731
O O3 0.602406 0.741164 0.408049
O O4 0.349266 0.391960 0.205098
O O5 0.594435 0.958910 0.259495
O O6 0.324304 0.688753 0.977292
O O7 0.297661 0.948854 0.042883
O O8 0.500000 0.000000 0.000000
O O9 0.814837 0.597467 0.232226
O O10 0.027167 0.496003 0.305064
O O11 0.908513 0.621088 0.082401
O O12 0.985367 0.707779 0.537726
O O13 0.767086 0.803572 0.320773
O O14 0.095907 0.934746 0.444414
O O15 0.976643 0.799409 0.735310
O O16 0.998555 0.192690 0.031325
O O17 0.876465 0.892886 0.061251
#
# Coordination Sequence:
#
# PCOD8017483 Si02
#       8
#     2   2   2   2   2   2   2   2
#     4  11  22  40  64  90 127 164 214 261 316 380
#     4  11  24  41  64  96 132 168 207 273 324 373
#     4  11  24  39  66  98 127 168 216 264 316 385
#     4  10  23  39  65  90 133 167 216 256 325 388
#     4  10  22  42  64  92 126 176 204 266 321 376
#     4  10  24  42  66  91 132 166 215 260 326 374
#     4  10  22  39  60  95 121 171 209 262 322 369
#     4  11  24  42  67  96 125 173 217 264 315 384
#
# _framework density 20.365331999999999
#
# number of rings (size 3 to 8) (size 9 to 14) (size 15 to 20)
#    0.000    1.500    2.500    1.875    7.000    6.500 
#    0.000    0.000    0.000    3.750    0.000    0.000 
#    0.000    0.000    0.000    0.000    0.000    0.000 
#
# Total GULP energy -198434.301946 kJ/mol
# GULP energy per Si atom -12402.143872 kJ/mol
# Density = 2.031898 g / cm^3
# Si number density = 20.365332 Si / 1000 Ang^3
#
#
#
# Elastic Constant Matrix: (Units=GPa)
#
#
# Indices 1 2 3 4 5 6 
#
# 1 83.8546 37.0749 30.2113 4.2660 11.2404 11.1159
# 2 37.0749 123.9358 25.1658 -8.8493 2.6343 19.9005
# 3 30.2113 25.1658 55.7162 -14.3104 7.0865 3.2327
# 4 4.2660 -8.8493 -14.3104 34.2445 -8.5081 -1.0789
# 5 11.2404 2.6343 7.0865 -8.5081 42.5144 -2.3066
# 6 11.1159 19.9005 3.2327 -1.0789 -2.3066 31.0240
#
#
#
# Elastic Compliance Matrix: (Units=1/GPa)
#
#
# Indices 1 2 3 4 5 6 
#
# 1 0.018700 -0.003424 -0.009961 -0.008762 -0.005050 -0.004146
# 2 -0.003424 0.010492 -0.002094 0.002296 0.000784 -0.005147
# 3 -0.009961 -0.002094 0.027214 0.012362 0.000840 0.002569
# 4 -0.008762 0.002296 0.012362 0.038077 0.007858 0.002287
# 5 -0.005050 0.000784 0.000840 0.007858 0.026428 0.003457
# 6 -0.004146 -0.005147 0.002569 0.002287 0.003457 0.037089
#
#
# Mechanical properties :
#
#
# Convention : Reuss Voigt Hill
#
# Bulk Modulus (GPa) = 39.29500 49.82339 44.55919
# Shear Modulus (GPa) = 25.32394 32.96024 29.14209
#
# Velocity S-wave (km/s) = 3.53013 4.02736 3.78691
# Velocity P-wave (km/s) = 5.99606 6.79294 6.40690
#
# Compressibility (1/GPa) = 0.02544853
#
# Stress axis : x y z
#
# Youngs Moduli (GPa) = 53.47454 95.31237 36.74531
#
# Poissons Ratio (x) = 0.32635 0.36603
# Poissons Ratio (y) = 0.18310 0.07694
# Poissons Ratio (z) = 0.53267 0.19957
#
# Static dielectric constant tensor:
#      x y z
#    x 3.630780 0.091200 0.087590 
#    y 0.091200 3.820420 -0.048970 
#    z 0.087590 -0.048970 3.663070 
# 
# 
# High freq. dielectric constant tensor:
#      x y z
#    x 1.787420 0.007860 0.007200 
#    y 0.007860 1.808610 -0.006690 
#    z 0.007200 -0.006690 1.798770 
# 
# From -- ./inp_files/207022.got.cif
#   From: 2010.06.25/outbox.cif.g09.slc.cpg/sg2_104_cif.got.tgz:207022.got - 2010.06.27 13:26:56.
