data_PCOD8017008
_publ_section_title
;
Structure prediction by ZEFSAII (Michael W. Deem and Ramdas Pophale) SiO2 
 PCOD8017008
Probable space group: P -1
;
_chemical_formula_sum "Si O2"
_cell_formula_units_Z 16
_cell_length_a 5.211436
_cell_length_b 14.809554
_cell_length_c 14.261890
_cell_angle_alpha 118.666763
_cell_angle_beta 108.502495
_cell_angle_gamma 111.325363
_cell_volume 718.584256
_symmetry_space_group_name_H-M "P -1"
_symmetry_group_IT_number 2
_symmetry_cell_setting 'triclinic'
loop_
_space_group_symop_operation_xyz
x,y,z
-x,-y,-z
loop_
_atom_site_type_symbol
_atom_site_label
_atom_site_fract_x
_atom_site_fract_y
_atom_site_fract_z
Si Si1 0.528965 0.344135 0.231020
Si Si2 0.255298 0.212413 0.448234
Si Si3 0.830272 0.645744 0.635019
Si Si4 0.027642 0.596529 0.313503
Si Si5 0.799002 0.027038 0.676826
Si Si6 0.163863 0.260258 0.966418
Si Si7 0.888680 0.422641 0.044419
Si Si8 0.960980 0.170954 0.586456
O O1 0.271594 0.304162 0.266324
O O2 0.838956 0.343017 0.296144
O O3 0.688896 0.488985 0.281805
O O4 0.307457 0.242027 0.069808
O O5 0.057923 0.255292 0.390281
O O6 0.663753 0.325664 0.535544
O O7 0.238218 0.213398 0.559788
O O8 0.111982 0.067741 0.327376
O O9 0.500000 0.500000 0.500000
O O10 0.995032 0.700235 0.311961
O O11 0.085967 0.523796 0.204265
O O12 0.026194 0.114217 0.655827
O O13 0.870768 0.118300 0.818041
O O14 0.402226 0.940574 0.559497
O O15 0.478925 0.343617 0.970745
O O16 0.988882 0.327000 0.005397
O O17 0.000000 0.500000 0.000000
#
# Coordination Sequence:
#
# PCOD8017008 Si02
#       8
#     2   2   2   2   2   2   2   2
#     4  11  24  43  64 101 133 169 219 271 345 393
#     4  11  24  38  68  94 130 169 223 282 326 393
#     4  12  24  41  70  98 131 169 219 283 341 387
#     4  10  22  37  63  99 130 166 213 278 334 393
#     4  10  24  43  63  96 129 185 220 269 328 395
#     4  11  25  43  67  92 139 180 218 270 328 405
#     4  11  24  39  65  99 133 177 219 267 332 401
#     4  10  22  41  67  93 134 169 229 272 329 391
#
# _framework density 22.266003000000001
#
# number of rings (size 3 to 8) (size 9 to 14) (size 15 to 20)
#    0.000    1.250    1.250    4.125   10.500    0.000 
#    0.000    1.250    0.000    0.000    0.000    0.000 
#    0.000    0.000    0.000    0.000    0.000    0.000 
#
# Total GULP energy -198387.347573 kJ/mol
# GULP energy per Si atom -12399.209223 kJ/mol
# Density = 2.221532 g / cm^3
# Si number density = 22.266003 Si / 1000 Ang^3
#
#
#
# Elastic Constant Matrix: (Units=GPa)
#
#
# Indices 1 2 3 4 5 6 
#
# 1 80.5673 9.5932 22.7335 13.5620 -16.2747 -8.0754
# 2 9.5932 100.1127 41.7379 6.7283 -6.7323 -19.9133
# 3 22.7335 41.7379 124.7722 16.3607 -20.1693 -20.8657
# 4 13.5620 6.7283 16.3607 29.1371 -6.9187 -8.0411
# 5 -16.2747 -6.7323 -20.1693 -6.9187 30.1237 -2.3264
# 6 -8.0754 -19.9133 -20.8657 -8.0411 -2.3264 36.2024
#
#
#
# Elastic Compliance Matrix: (Units=1/GPa)
#
#
# Indices 1 2 3 4 5 6 
#
# 1 0.014945 0.000090 -0.000667 -0.004289 0.006855 0.002487
# 2 0.000090 0.012380 -0.003164 0.000612 0.001241 0.005222
# 3 -0.000667 -0.003164 0.011285 -0.002589 0.006237 0.004441
# 4 -0.004289 0.000612 -0.002589 0.041125 0.006104 0.007414
# 5 0.006855 0.001241 0.006237 0.006104 0.043524 0.009959
# 6 0.002487 0.005222 0.004441 0.007414 0.009959 0.035896
#
#
# Mechanical properties :
#
#
# Convention : Reuss Voigt Hill
#
# Bulk Modulus (GPa) = 32.12537 50.39793 41.26165
# Shear Modulus (GPa) = 28.24647 34.51848 31.38247
#
# Velocity S-wave (km/s) = 3.56559 3.94163 3.75832
# Velocity P-wave (km/s) = 5.60451 6.58778 6.11594
#
# Compressibility (1/GPa) = 0.03112805
#
# Stress axis : x y z
#
# Youngs Moduli (GPa) = 66.91048 80.77375 88.61488
#
# Poissons Ratio (x) = -0.00724 0.05908
# Poissons Ratio (y) = -0.00600 0.28039
# Poissons Ratio (z) = 0.04461 0.25558
#
# Static dielectric constant tensor:
#      x y z
#    x 3.980750 0.068700 -0.082360 
#    y 0.068700 4.311300 -0.088840 
#    z -0.082360 -0.088840 4.125810 
# 
# 
# High freq. dielectric constant tensor:
#      x y z
#    x 1.874850 -0.001270 -0.006640 
#    y -0.001270 1.871710 -0.003050 
#    z -0.006640 -0.003050 1.873960 
# 
# From -- ./inp_files/370350.got.cif
#   From: 2010.06.25/outbox.cif.g09.slc.cpg/sg2_186_cif.got.tgz:370350.got - 2010.06.27 13:26:56.
