data_PCOD8017863
_publ_section_title
;
Structure prediction by ZEFSAII (Michael W. Deem and Ramdas Pophale) SiO2 
 PCOD8017863
Probable space group: P -1
;
_chemical_formula_sum "Si O2"
_cell_formula_units_Z 14
_cell_length_a 18.908237
_cell_length_b 24.029418
_cell_length_c 5.318884
_cell_angle_alpha 79.806320
_cell_angle_beta 81.831400
_cell_angle_gamma 14.173636
_cell_volume 578.024362
_symmetry_space_group_name_H-M "P -1"
_symmetry_group_IT_number 2
_symmetry_cell_setting 'triclinic'
loop_
_space_group_symop_operation_xyz
x,y,z
-x,-y,-z
loop_
_atom_site_type_symbol
_atom_site_label
_atom_site_fract_x
_atom_site_fract_y
_atom_site_fract_z
Si Si1 0.010526 0.165770 0.831581
Si Si2 0.814349 0.730928 0.051175
Si Si3 0.978846 0.067092 0.765996
Si Si4 0.700960 0.014779 0.661280
Si Si5 0.916855 0.382781 0.259591
Si Si6 0.518025 0.357719 0.470289
Si Si7 0.040500 0.538628 0.596308
O O1 0.912463 0.175701 0.860869
O O2 0.738730 0.417272 0.744769
O O3 0.230846 0.005088 0.616222
O O4 0.154817 0.064382 0.110349
O O5 0.888269 0.635774 0.334302
O O6 0.845545 0.668485 0.832149
O O7 0.063654 0.589842 0.013790
O O8 0.500000 0.000000 0.000000
O O9 0.706398 0.264422 0.562700
O O10 0.281090 0.837540 0.641935
O O11 0.000000 0.000000 0.000000
O O12 0.362116 0.268132 0.677688
O O13 0.808739 0.868461 0.698484
O O14 0.618442 0.576036 0.287981
O O15 0.955117 0.395487 0.470002
#
# Coordination Sequence:
#
# PCOD8017863 Si02
#       7
#     2   2   2   2   2   2   2
#     4  11  26  41  64  90 134 164 220 266 318 374
#     4  10  22  42  69  98 132 169 204 260 321 379
#     4  11  26  40  66  88 131 168 223 264 328 375
#     4  11  24  41  65  98 123 173 217 261 313 377
#     4   9  24  39  69  89 132 165 218 256 322 378
#     4  10  24  43  60  95 123 175 212 271 321 377
#     4  10  22  39  67  91 135 162 212 258 316 374
#
# _framework density 24.220431000000001
#
# number of rings (size 3 to 8) (size 9 to 14) (size 15 to 20)
#    0.857    0.857    0.000    2.571   14.000    0.571 
#    0.000    1.429    0.000    0.000    0.000    0.000 
#    0.000    0.000    0.000    0.000    0.000    0.000 
#
# Total GULP energy -173496.855131 kJ/mol
# GULP energy per Si atom -12392.632509 kJ/mol
# Density = 2.416530 g / cm^3
# Si number density = 24.220431 Si / 1000 Ang^3
#
#
#
# Elastic Constant Matrix: (Units=GPa)
#
#
# Indices 1 2 3 4 5 6 
#
# 1 70.9843 -5.2464 -0.3075 8.1935 12.2260 5.4242
# 2 -5.2464 131.1355 44.1804 13.4097 18.8520 -8.0729
# 3 -0.3075 44.1804 128.5531 9.0251 12.3304 -7.4063
# 4 8.1935 13.4097 9.0251 35.6426 -0.6689 2.1507
# 5 12.2260 18.8520 12.3304 -0.6689 34.2615 5.5494
# 6 5.4242 -8.0729 -7.4063 2.1507 5.5494 25.4987
#
#
#
# Elastic Compliance Matrix: (Units=1/GPa)
#
#
# Indices 1 2 3 4 5 6 
#
# 1 0.016000 0.001937 0.000301 -0.004561 -0.006838 -0.000830
# 2 0.001937 0.009996 -0.002363 -0.003945 -0.006019 0.003709
# 3 0.000301 -0.002363 0.009097 -0.001683 -0.002522 0.002521
# 4 -0.004561 -0.003945 -0.001683 0.031406 0.005774 -0.004673
# 5 -0.006838 -0.006019 -0.002522 0.005774 0.037554 -0.009844
# 6 -0.000830 0.003709 0.002521 -0.004673 -0.009844 0.043837
#
#
# Mechanical properties :
#
#
# Convention : Reuss Voigt Hill
#
# Bulk Modulus (GPa) = 28.69991 45.32511 37.01251
# Shear Modulus (GPa) = 31.29803 38.55030 34.92416
#
# Velocity S-wave (km/s) = 3.59864 3.99387 3.80139
# Velocity P-wave (km/s) = 5.39835 6.32631 5.88066
#
# Compressibility (1/GPa) = 0.03484332
#
# Stress axis : x y z
#
# Youngs Moduli (GPa) = 62.50074 100.03723 109.92620
#
# Poissons Ratio (x) = -0.19379 -0.03307
# Poissons Ratio (y) = -0.12107 0.25974
# Poissons Ratio (z) = -0.01880 0.23638
#
# Static dielectric constant tensor:
#      x y z
#    x 4.385750 0.084580 0.072990 
#    y 0.084580 4.373870 0.285540 
#    z 0.072990 0.285540 4.469790 
# 
# 
# High freq. dielectric constant tensor:
#      x y z
#    x 1.963310 0.012010 -0.003070 
#    y 0.012010 1.967520 0.016220 
#    z -0.003070 0.016220 1.957690 
# 
# From -- ./inp_files/125334.got.cif
#   From: 2010.06.25/outbox.cif.g09.slc.cpg/sg2_63_cif.got.tgz:125334.got - 2010.06.27 13:26:56.
