data_PCOD8017312
_publ_section_title
;
Structure prediction by ZEFSAII (Michael W. Deem and Ramdas Pophale) SiO2 
 PCOD8017312
Probable space group: P -1
;
_chemical_formula_sum "Si O2"
_cell_formula_units_Z 16
_cell_length_a 26.426668
_cell_length_b 15.891970
_cell_length_c 20.212076
_cell_angle_alpha 25.881094
_cell_angle_beta 163.618127
_cell_angle_gamma 162.210627
_cell_volume 721.955576
_symmetry_space_group_name_H-M "P -1"
_symmetry_group_IT_number 2
_symmetry_cell_setting 'triclinic'
loop_
_space_group_symop_operation_xyz
x,y,z
-x,-y,-z
loop_
_atom_site_type_symbol
_atom_site_label
_atom_site_fract_x
_atom_site_fract_y
_atom_site_fract_z
Si Si1 0.551116 0.270474 0.371537
Si Si2 0.251095 0.436428 0.716978
Si Si3 0.268909 0.746854 0.626129
Si Si4 0.096497 0.473395 0.072048
Si Si5 0.599764 0.710510 0.585057
Si Si6 0.320840 0.373646 0.596075
Si Si7 0.252686 0.982091 0.878734
Si Si8 0.057486 0.972356 0.886032
O O1 0.771674 0.520864 0.419133
O O2 0.639558 0.421120 0.446817
O O3 0.500000 0.000000 0.500000
O O4 0.290279 0.175436 0.086797
O O5 0.255214 0.648045 0.606320
O O6 0.500000 0.500000 0.000000
O O7 0.023197 0.128473 0.682112
O O8 0.000000 0.500000 0.500000
O O9 0.301216 0.998664 0.481701
O O10 0.520401 0.837706 0.909630
O O11 0.325931 0.501582 0.352470
O O12 0.883719 0.178154 0.976187
O O13 0.000000 0.500000 0.000000
O O14 0.202299 0.720688 0.980046
O O15 0.550468 0.565364 0.695317
O O16 0.798652 0.746265 0.764607
O O17 0.352407 0.186618 0.798583
O O18 0.030784 0.161436 0.349884
#
# Coordination Sequence:
#
# PCOD8017312 Si02
#       8
#     2   2   2   2   2   2   2   2
#     4  11  24  39  63  94 131 170 216 264 317 397
#     4  10  22  38  66  92 126 165 219 272 307 376
#     4  11  22  42  67  99 129 165 221 268 331 368
#     4  11  23  40  69  90 122 167 226 269 317 375
#     4  11  24  41  66  96 133 171 209 274 324 397
#     4  11  23  41  64  96 132 173 215 251 334 387
#     4  10  23  40  66  93 124 173 217 266 309 396
#     4  11  24  42  62  98 127 167 217 275 328 371
#
# _framework density 22.162029
#
# number of rings (size 3 to 8) (size 9 to 14) (size 15 to 20)
#    0.000    1.250    2.500    3.375    8.750    0.500 
#    2.250    0.625    0.000    0.000    0.000    0.000 
#    0.000    0.000    0.000    0.000    0.000    0.000 
#
# Total GULP energy -198225.057183 kJ/mol
# GULP energy per Si atom -12389.066074 kJ/mol
# Density = 2.211159 g / cm^3
# Si number density = 22.162029 Si / 1000 Ang^3
#
#
#
# Elastic Constant Matrix: (Units=GPa)
#
#
# Indices 1 2 3 4 5 6 
#
# 1 121.0210 54.2305 28.6060 -0.9701 7.9533 20.9007
# 2 54.2305 130.3922 27.3321 -15.5481 -9.2413 21.4295
# 3 28.6060 27.3321 61.3833 -0.0846 0.7320 10.7269
# 4 -0.9701 -15.5481 -0.0846 41.2184 8.5015 -2.5042
# 5 7.9533 -9.2413 0.7320 8.5015 20.8475 -5.0934
# 6 20.9007 21.4295 10.7269 -2.5042 -5.0934 48.7425
#
#
#
# Elastic Compliance Matrix: (Units=1/GPa)
#
#
# Indices 1 2 3 4 5 6 
#
# 1 0.011942 -0.004312 -0.002980 -0.000080 -0.007141 -0.003319
# 2 -0.004312 0.011003 -0.002642 0.002905 0.005007 -0.001734
# 3 -0.002980 -0.002642 0.019199 -0.000984 -0.000776 -0.001917
# 4 -0.000080 0.002905 -0.000984 0.027369 -0.009970 -0.000662
# 5 -0.007141 0.005007 -0.000776 -0.009970 0.058627 0.006646
# 6 -0.003319 -0.001734 -0.001917 -0.000662 0.006646 0.023784
#
#
# Mechanical properties :
#
#
# Convention : Reuss Voigt Hill
#
# Bulk Modulus (GPa) = 44.89327 59.23710 52.06518
# Shear Modulus (GPa) = 27.89905 35.67021 31.78463
#
# Velocity S-wave (km/s) = 3.55190 4.01623 3.79118
# Velocity P-wave (km/s) = 6.09280 6.94939 6.53514
#
# Compressibility (1/GPa) = 0.02227505
#
# Stress axis : x y z
#
# Youngs Moduli (GPa) = 83.74135 90.88638 52.08529
#
# Poissons Ratio (x) = 0.39191 0.15521
# Poissons Ratio (y) = 0.36110 0.13762
# Poissons Ratio (z) = 0.24954 0.24015
#
# Static dielectric constant tensor:
#      x y z
#    x 3.951800 0.150970 -0.041340 
#    y 0.150970 2.906320 0.721800 
#    z -0.041340 0.721800 3.563480 
# 
# 
# High freq. dielectric constant tensor:
#      x y z
#    x 1.856810 0.007710 -0.004590 
#    y 0.007710 1.898240 -0.008220 
#    z -0.004590 -0.008220 1.851290 
# 
# From -- ./inp_files/579316.got.cif
#   From: 2010.06.25/outbox.cif.g09.slc.cpg/sg2_290_cif.got.tgz:579316.got - 2010.06.27 13:26:56.
