data_PCOD8017577
_publ_section_title
;
Structure prediction by ZEFSAII (Michael W. Deem and Ramdas Pophale) SiO2 
 PCOD8017577
Probable space group: P -1
;
_chemical_formula_sum "Si O2"
_cell_formula_units_Z 16
_cell_length_a 9.424375
_cell_length_b 11.670088
_cell_length_c 11.508795
_cell_angle_alpha 132.312502
_cell_angle_beta 75.670953
_cell_angle_gamma 124.668787
_cell_volume 750.504666
_symmetry_space_group_name_H-M "P -1"
_symmetry_group_IT_number 2
_symmetry_cell_setting 'triclinic'
loop_
_space_group_symop_operation_xyz
x,y,z
-x,-y,-z
loop_
_atom_site_type_symbol
_atom_site_label
_atom_site_fract_x
_atom_site_fract_y
_atom_site_fract_z
Si Si1 0.488174 0.810969 0.891548
Si Si2 0.176595 0.668416 0.441360
Si Si3 0.221309 0.988734 0.499560
Si Si4 0.559011 0.369166 0.751373
Si Si5 0.195513 0.680268 0.702773
Si Si6 0.634618 0.439734 0.045082
Si Si7 0.021662 0.149449 0.758753
Si Si8 0.119452 0.960499 0.028499
O O1 0.357058 0.678855 0.725523
O O2 0.386912 0.714899 0.967347
O O3 0.682556 0.848758 0.870029
O O4 0.500000 0.000000 0.000000
O O5 0.256984 0.553032 0.299642
O O6 0.253233 0.754929 0.611289
O O7 0.966355 0.534854 0.404448
O O8 0.233927 0.831420 0.450237
O O9 0.416547 0.175827 0.583873
O O10 0.097400 0.026944 0.626689
O O11 0.145543 0.916474 0.335731
O O12 0.506860 0.517160 0.852573
O O13 0.579640 0.340616 0.863712
O O14 0.140273 0.805095 0.861998
O O15 0.831938 0.628506 0.134973
O O16 0.966133 0.109616 0.876098
O O17 0.000000 0.000000 0.000000
#
# Coordination Sequence:
#
# PCOD8017577 Si02
#       8
#     2   2   2   2   2   2   2   2
#     4  10  24  41  63  94 133 165 209 270 324 372
#     4  11  22  39  63  88 131 170 215 255 330 390
#     4  10  22  39  62  93 130 165 211 274 317 383
#     4  10  23  37  67  93 122 167 220 265 323 378
#     4  10  24  41  59  91 133 168 212 263 323 385
#     4  10  22  42  66  93 129 161 224 274 313 381
#     4  10  22  41  66  94 127 168 220 267 327 376
#     4  11  24  40  69  94 128 171 220 264 323 389
#
# _framework density 21.318988000000001
#
# number of rings (size 3 to 8) (size 9 to 14) (size 15 to 20)
#    0.000    1.750    0.000    2.625   12.250    2.000 
#    0.000    5.000    0.000    0.000    0.000    0.000 
#    0.000    0.000    0.000    0.000    0.000    0.000 
#
# Total GULP energy -198377.857129 kJ/mol
# GULP energy per Si atom -12398.616071 kJ/mol
# Density = 2.127046 g / cm^3
# Si number density = 21.318988 Si / 1000 Ang^3
#
#
#
# Elastic Constant Matrix: (Units=GPa)
#
#
# Indices 1 2 3 4 5 6 
#
# 1 117.9798 47.6557 49.3762 -12.2465 32.1354 5.2826
# 2 47.6557 124.0146 47.6556 -20.2307 13.6722 -4.8440
# 3 49.3762 47.6556 97.8835 -22.0217 16.5084 -4.3106
# 4 -12.2465 -20.2307 -22.0217 30.6651 1.6623 6.3565
# 5 32.1354 13.6722 16.5084 1.6623 40.0405 -3.0598
# 6 5.2826 -4.8440 -4.3106 6.3565 -3.0598 30.5857
#
#
#
# Elastic Compliance Matrix: (Units=1/GPa)
#
#
# Indices 1 2 3 4 5 6 
#
# 1 0.014259 -0.002702 -0.003919 0.002628 -0.009391 -0.004929
# 2 -0.002702 0.010963 -0.003000 0.003826 -0.000425 0.000942
# 3 -0.003919 -0.003000 0.015910 0.007916 -0.002678 0.000531
# 4 0.002628 0.003826 0.007916 0.044199 -0.009190 -0.008837
# 5 -0.009391 -0.000425 -0.002678 -0.009190 0.034643 0.006553
# 6 -0.004929 0.000942 0.000531 -0.008837 0.006553 0.036263
#
#
# Mechanical properties :
#
#
# Convention : Reuss Voigt Hill
#
# Bulk Modulus (GPa) = 45.68572 69.91700 57.80136
# Shear Modulus (GPa) = 27.35593 33.27096 30.31344
#
# Velocity S-wave (km/s) = 3.58603 3.95476 3.77490
# Velocity P-wave (km/s) = 6.21468 7.32942 6.79495
#
# Compressibility (1/GPa) = 0.02188868
#
# Stress axis : x y z
#
# Youngs Moduli (GPa) = 70.13033 91.21932 62.85384
#
# Poissons Ratio (x) = 0.24645 0.24635
# Poissons Ratio (y) = 0.18947 0.18859
# Poissons Ratio (z) = 0.27487 0.27369
#
# Static dielectric constant tensor:
#      x y z
#    x 4.561670 0.279330 0.609880 
#    y 0.279330 3.758380 0.067730 
#    z 0.609880 0.067730 4.103060 
# 
# 
# High freq. dielectric constant tensor:
#      x y z
#    x 1.845110 0.004850 0.018470 
#    y 0.004850 1.834480 -0.003790 
#    z 0.018470 -0.003790 1.836890 
# 
# From -- ./inp_files/391350.got.cif
#   From: 2010.06.25/outbox.cif.g09.slc.cpg/sg2_196_cif.got.tgz:391350.got - 2010.06.27 13:26:56.
