data_PCOD8017093
_publ_section_title
;
Structure prediction by ZEFSAII (Michael W. Deem and Ramdas Pophale) SiO2 
 PCOD8017093
Probable space group: P -1
;
_chemical_formula_sum "Si O2"
_cell_formula_units_Z 16
_cell_length_a 9.021503
_cell_length_b 12.383627
_cell_length_c 12.222313
_cell_angle_alpha 70.535074
_cell_angle_beta 36.392220
_cell_angle_gamma 74.545960
_cell_volume 763.835684
_symmetry_space_group_name_H-M "P -1"
_symmetry_group_IT_number 2
_symmetry_cell_setting 'triclinic'
loop_
_space_group_symop_operation_xyz
x,y,z
-x,-y,-z
loop_
_atom_site_type_symbol
_atom_site_label
_atom_site_fract_x
_atom_site_fract_y
_atom_site_fract_z
Si Si1 0.596017 0.843595 0.521394
Si Si2 0.423715 0.192958 0.792131
Si Si3 0.281684 0.087657 0.127616
Si Si4 0.270856 0.630522 0.322689
Si Si5 0.972517 0.874206 0.110108
Si Si6 0.308528 0.377754 0.330134
Si Si7 0.426274 0.743958 0.968854
Si Si8 0.719545 0.049981 0.505413
O O1 0.854569 0.885238 0.296844
O O2 0.608081 0.713060 0.596900
O O3 0.361810 0.860368 0.572595
O O4 0.579565 0.928693 0.607225
O O5 0.576727 0.308093 0.690911
O O6 0.217401 0.209336 0.814976
O O7 0.622361 0.095981 0.665546
O O8 0.258423 0.158975 0.006151
O O9 0.355071 0.168232 0.158012
O O10 0.017304 0.032293 0.335709
O O11 0.500000 0.000000 0.000000
O O12 0.376276 0.502217 0.294958
O O13 0.981453 0.631058 0.525917
O O14 0.294618 0.695341 0.171444
O O15 0.234575 0.811151 0.982462
O O16 0.000000 0.000000 0.000000
O O17 0.459244 0.359067 0.134704
#
# Coordination Sequence:
#
# PCOD8017093 Si02
#       8
#     2   2   2   2   2   2   2   2
#     4  10  22  38  61  94 123 163 202 247 304 372
#     4  10  23  39  62  87 123 161 197 253 305 354
#     4  11  23  36  57  92 125 158 194 250 303 365
#     4  10  23  46  61  90 122 155 218 261 296 353
#     4  11  22  40  62  94 131 163 195 247 310 377
#     4  11  23  40  69  85 120 168 206 258 303 352
#     4  11  23  39  65  90 120 165 208 244 312 366
#     4  10  22  38  58  90 130 153 200 245 305 379
#
# _framework density 20.946912999999999
#
# number of rings (size 3 to 8) (size 9 to 14) (size 15 to 20)
#    0.000    1.500    1.250    3.375   10.500    0.500 
#    0.000    3.125    2.750    0.000    0.000    0.000 
#    0.000    0.000    0.000    0.000    0.000    0.000 
#
# Total GULP energy -198391.607296 kJ/mol
# GULP energy per Si atom -12399.475456 kJ/mol
# Density = 2.089924 g / cm^3
# Si number density = 20.946913 Si / 1000 Ang^3
#
#
#
# Elastic Constant Matrix: (Units=GPa)
#
#
# Indices 1 2 3 4 5 6 
#
# 1 97.3267 49.9474 28.3725 6.7078 -10.4971 9.3329
# 2 49.9474 128.7979 20.1726 8.0918 0.6031 7.3507
# 3 28.3725 20.1726 80.9605 19.3691 -9.0510 9.9321
# 4 6.7078 8.0918 19.3691 34.0713 -0.1462 1.6403
# 5 -10.4971 0.6031 -9.0510 -0.1462 28.3930 4.1192
# 6 9.3329 7.3507 9.9321 1.6403 4.1192 36.5626
#
#
#
# Elastic Compliance Matrix: (Units=1/GPa)
#
#
# Indices 1 2 3 4 5 6 
#
# 1 0.014485 -0.005040 -0.003031 0.000206 0.004848 -0.002416
# 2 -0.005040 0.009912 -0.000700 -0.000963 -0.002271 -0.000217
# 3 -0.003031 -0.000700 0.016598 -0.008473 0.004685 -0.003742
# 4 0.000206 -0.000963 -0.008473 0.034286 -0.002602 0.001198
# 5 0.004848 -0.002271 0.004685 -0.002602 0.039466 -0.006383
# 6 -0.002416 -0.000217 -0.003742 0.001198 -0.006383 0.029693
#
#
# Mechanical properties :
#
#
# Convention : Reuss Voigt Hill
#
# Bulk Modulus (GPa) = 42.64067 56.00779 49.32423
# Shear Modulus (GPa) = 29.44611 33.71155 31.57883
#
# Velocity S-wave (km/s) = 3.75340 4.01606 3.88695
# Velocity P-wave (km/s) = 6.25977 6.94989 6.61384
#
# Compressibility (1/GPa) = 0.02345179
#
# Stress axis : x y z
#
# Youngs Moduli (GPa) = 69.03500 100.88873 60.24733
#
# Poissons Ratio (x) = 0.50851 0.18263
# Poissons Ratio (y) = 0.34796 0.04218
# Poissons Ratio (z) = 0.20927 0.07064
#
# Static dielectric constant tensor:
#      x y z
#    x 3.816390 0.100390 0.075610 
#    y 0.100390 3.721580 0.138710 
#    z 0.075610 0.138710 3.905320 
# 
# 
# High freq. dielectric constant tensor:
#      x y z
#    x 1.820620 0.006850 0.002890 
#    y 0.006850 1.801790 0.012420 
#    z 0.002890 0.012420 1.833100 
# 
# From -- ./inp_files/258342.got.cif
#   From: 2010.06.25/outbox.cif.g09.slc.cpg/sg2_130_cif.got.tgz:258342.got - 2010.06.27 13:26:56.
