data_PCOD8017295
_publ_section_title
;
Structure prediction by ZEFSAII (Michael W. Deem and Ramdas Pophale) SiO2 
 PCOD8017295
Probable space group: P -1
;
_chemical_formula_sum "Si O2"
_cell_formula_units_Z 16
_cell_length_a 8.896714
_cell_length_b 12.662098
_cell_length_c 18.379419
_cell_angle_alpha 40.625226
_cell_angle_beta 49.432708
_cell_angle_gamma 81.246554
_cell_volume 740.964996
_symmetry_space_group_name_H-M "P -1"
_symmetry_group_IT_number 2
_symmetry_cell_setting 'triclinic'
loop_
_space_group_symop_operation_xyz
x,y,z
-x,-y,-z
loop_
_atom_site_type_symbol
_atom_site_label
_atom_site_fract_x
_atom_site_fract_y
_atom_site_fract_z
Si Si1 0.645152 0.437026 0.351155
Si Si2 0.659032 0.450930 0.934372
Si Si3 0.217340 0.828208 0.499588
Si Si4 0.340103 0.694402 0.845673
Si Si5 0.870171 0.661387 0.008032
Si Si6 0.051890 0.859190 0.095208
Si Si7 0.987850 0.887491 0.268395
Si Si8 0.388414 0.994915 0.199938
O O1 0.650077 0.247146 0.459676
O O2 0.794043 0.583258 0.155649
O O3 0.332694 0.318476 0.508215
O O4 0.808996 0.602176 0.281931
O O5 0.893542 0.656774 0.702147
O O6 0.500000 0.500000 0.000000
O O7 0.790209 0.418536 0.975041
O O8 0.462578 0.226225 0.066104
O O9 0.272049 0.846580 0.386920
O O10 0.351513 0.065878 0.367206
O O11 0.359633 0.546600 0.864598
O O12 0.147302 0.728554 0.858602
O O13 0.910398 0.873380 0.871969
O O14 0.050361 0.875312 0.173182
O O15 0.346828 0.957349 0.930059
O O16 0.000000 0.000000 0.000000
O O17 0.155256 0.858592 0.282565
#
# Coordination Sequence:
#
# PCOD8017295 Si02
#       8
#     2   2   2   2   2   2   2   2
#     4  12  23  45  72 102 130 183 232 277 335 413
#     4  11  23  42  68  94 140 185 223 271 345 400
#     4  11  22  44  71  96 139 180 231 271 335 416
#     4  10  22  38  65  99 132 181 227 276 330 403
#     4  11  22  40  65  99 139 173 227 281 336 390
#     4  12  24  49  75  96 134 185 228 278 343 409
#     4  12  26  43  70 104 139 171 230 289 339 392
#     4  11  26  45  68 105 141 175 224 286 341 397
#
# _framework density 21.593463
#
# number of rings (size 3 to 8) (size 9 to 14) (size 15 to 20)
#    0.000    0.750    5.000    3.000    0.000    6.500 
#    0.000    1.250    0.000    0.000    0.000    0.000 
#    0.000    0.000    0.000    0.000    0.000    0.000 
#
# Total GULP energy -198408.320681 kJ/mol
# GULP energy per Si atom -12400.520043 kJ/mol
# Density = 2.154432 g / cm^3
# Si number density = 21.593463 Si / 1000 Ang^3
#
#
#
# Elastic Constant Matrix: (Units=GPa)
#
#
# Indices 1 2 3 4 5 6 
#
# 1 103.9399 24.2156 40.4859 6.2392 -24.4220 4.6024
# 2 24.2156 95.9198 28.2105 2.2125 -16.7709 1.6532
# 3 40.4859 28.2105 107.1486 7.3812 -13.3976 -10.4843
# 4 6.2392 2.2125 7.3812 31.0135 -3.8484 -7.7389
# 5 -24.4220 -16.7709 -13.3976 -3.8484 29.4651 4.2085
# 6 4.6024 1.6532 -10.4843 -7.7389 4.2085 36.3304
#
#
#
# Elastic Compliance Matrix: (Units=1/GPa)
#
#
# Indices 1 2 3 4 5 6 
#
# 1 0.013993 -0.000444 -0.004265 -0.001666 0.009828 -0.004476
# 2 -0.000444 0.012326 -0.002546 0.000059 0.005768 -0.001895
# 3 -0.004265 -0.002546 0.012038 -0.000859 -0.000189 0.003969
# 4 -0.001666 0.000059 -0.000859 0.034788 0.001783 0.007164
# 5 0.009828 0.005768 -0.000189 0.001783 0.046452 -0.006563
# 6 -0.004476 -0.001895 0.003969 0.007164 -0.006563 0.031610
#
#
# Mechanical properties :
#
#
# Convention : Reuss Voigt Hill
#
# Bulk Modulus (GPa) = 41.93202 54.75913 48.34558
# Shear Modulus (GPa) = 28.79086 33.63489 31.21288
#
# Velocity S-wave (km/s) = 3.65542 3.95098 3.80607
# Velocity P-wave (km/s) = 6.10550 6.79911 6.46162
#
# Compressibility (1/GPa) = 0.02384812
#
# Stress axis : x y z
#
# Youngs Moduli (GPa) = 71.46445 81.12883 83.06815
#
# Poissons Ratio (x) = 0.03606 0.35425
# Poissons Ratio (y) = 0.03177 0.21145
# Poissons Ratio (z) = 0.30477 0.20651
#
# Static dielectric constant tensor:
#      x y z
#    x 3.830030 0.112970 0.154070 
#    y 0.112970 3.984650 -0.105610 
#    z 0.154070 -0.105610 3.947940 
# 
# 
# High freq. dielectric constant tensor:
#      x y z
#    x 1.855380 0.004470 -0.000770 
#    y 0.004470 1.852360 -0.003430 
#    z -0.000770 -0.003430 1.849000 
# 
# From -- ./inp_files/278912.got.cif
#   From: 2010.06.25/outbox.cif.g09.slc.cpg/sg2_140_cif.got.tgz:278912.got - 2010.06.27 13:26:56.
