data_PCOD8017532
_publ_section_title
;
Structure prediction by ZEFSAII (Michael W. Deem and Ramdas Pophale) SiO2 
 PCOD8017532
Probable space group: P -1
;
_chemical_formula_sum "Si O2"
_cell_formula_units_Z 12
_cell_length_a 13.004442
_cell_length_b 13.101836
_cell_length_c 8.868859
_cell_angle_alpha 78.424669
_cell_angle_beta 127.722833
_cell_angle_gamma 144.782018
_cell_volume 520.293362
_symmetry_space_group_name_H-M "P -1"
_symmetry_group_IT_number 2
_symmetry_cell_setting 'triclinic'
loop_
_space_group_symop_operation_xyz
x,y,z
-x,-y,-z
loop_
_atom_site_type_symbol
_atom_site_label
_atom_site_fract_x
_atom_site_fract_y
_atom_site_fract_z
Si Si1 0.825784 0.724133 0.942680
Si Si2 0.730481 0.864777 0.987814
Si Si3 0.784184 0.323945 0.992985
Si Si4 0.431940 0.256390 0.781475
Si Si5 0.888191 0.516745 0.488790
Si Si6 0.171908 0.901449 0.468795
O O1 0.083094 0.852185 0.230803
O O2 0.706356 0.737852 0.919703
O O3 0.549488 0.448409 0.757344
O O4 0.969497 0.859609 0.871315
O O5 0.460145 0.742179 0.723616
O O6 0.720220 0.839070 0.165244
O O7 0.709541 0.376004 0.004616
O O8 0.482745 0.064346 0.724124
O O9 0.000000 0.500000 0.000000
O O10 0.936273 0.351495 0.234173
O O11 0.190005 0.030953 0.520145
O O12 0.000000 0.500000 0.500000
O O13 0.925912 0.654773 0.399471
#
# Coordination Sequence:
#
# PCOD8017532 Si02
#       6
#     2   2   2   2   2   2
#     4  11  23  46  65  96 130 166 223 261 323 375
#     4  11  24  42  69  95 129 173 211 270 317 386
#     4  10  22  39  61  95 129 165 216 258 313 384
#     4  10  23  43  64  97 124 172 210 269 319 371
#     4  12  21  41  66  94 130 170 214 260 327 380
#     4  10  23  41  66  93 127 171 212 266 317 381
#
# _framework density 23.063914
#
# number of rings (size 3 to 8) (size 9 to 14) (size 15 to 20)
#    1.000    0.333    3.333    2.000    0.000    3.333 
#    0.000    5.000    0.000    0.000    0.000    0.000 
#    0.000    0.000    0.000    0.000    0.000    0.000 
#
# Total GULP energy -148740.953820 kJ/mol
# GULP energy per Si atom -12395.079485 kJ/mol
# Density = 2.301142 g / cm^3
# Si number density = 23.063914 Si / 1000 Ang^3
#
#
#
# Elastic Constant Matrix: (Units=GPa)
#
#
# Indices 1 2 3 4 5 6 
#
# 1 72.2897 57.9135 -13.0413 14.4218 -1.7877 5.9295
# 2 57.9135 168.7350 -2.9933 5.1451 -15.8272 0.2888
# 3 -13.0413 -2.9933 40.5050 5.0476 -4.1682 -1.8911
# 4 14.4218 5.1451 5.0476 22.5194 -5.4921 0.3852
# 5 -1.7877 -15.8272 -4.1682 -5.4921 23.9480 3.6109
# 6 5.9295 0.2888 -1.8911 0.3852 3.6109 41.6963
#
#
#
# Elastic Compliance Matrix: (Units=1/GPa)
#
#
# Indices 1 2 3 4 5 6 
#
# 1 0.026388 -0.008898 0.009385 -0.018418 -0.006114 -0.002566
# 2 -0.008898 0.009366 -0.002193 0.005590 0.006351 0.000499
# 3 0.009385 -0.002193 0.029168 -0.011641 0.001664 -0.000033
# 4 -0.018418 0.005590 -0.011641 0.061003 0.014245 0.000255
# 5 -0.006114 0.006351 0.001664 0.014245 0.049586 -0.003525
# 6 -0.002566 0.000499 -0.000033 0.000255 -0.003525 0.024646
#
#
# Mechanical properties :
#
#
# Convention : Reuss Voigt Hill
#
# Bulk Modulus (GPa) = 16.25730 40.58749 28.42239
# Shear Modulus (GPa) = 22.31418 33.60946 27.96182
#
# Velocity S-wave (km/s) = 3.11383 3.82151 3.48568
# Velocity P-wave (km/s) = 4.47124 6.09163 5.34322
#
# Compressibility (1/GPa) = 0.06151083
#
# Stress axis : x y z
#
# Youngs Moduli (GPa) = 37.89545 106.76946 34.28388
#
# Poissons Ratio (x) = 0.95005 -0.32175
# Poissons Ratio (y) = 0.33720 0.07517
# Poissons Ratio (z) = -0.35564 0.23410
#
# Static dielectric constant tensor:
#      x y z
#    x 3.934860 -0.045590 0.067050 
#    y -0.045590 4.219470 0.041390 
#    z 0.067050 0.041390 4.338890 
# 
# 
# High freq. dielectric constant tensor:
#      x y z
#    x 1.897480 0.005150 0.007860 
#    y 0.005150 1.912540 0.001950 
#    z 0.007860 0.001950 1.910810 
# 
# From -- ./inp_files/309632.got.cif
#   From: 2010.06.25/outbox.cif.g09.slc.cpg/sg2_155_cif.got.tgz:309632.got - 2010.06.27 13:26:56.
