data_PCOD8017278
_publ_section_title
;
Structure prediction by ZEFSAII (Michael W. Deem and Ramdas Pophale) SiO2 
 PCOD8017278
Probable space group: P -1
;
_chemical_formula_sum "Si O2"
_cell_formula_units_Z 14
_cell_length_a 11.334458
_cell_length_b 17.021150
_cell_length_c 8.955876
_cell_angle_alpha 128.220830
_cell_angle_beta 43.475302
_cell_angle_gamma 145.419353
_cell_volume 673.730234
_symmetry_space_group_name_H-M "P -1"
_symmetry_group_IT_number 2
_symmetry_cell_setting 'triclinic'
loop_
_space_group_symop_operation_xyz
x,y,z
-x,-y,-z
loop_
_atom_site_type_symbol
_atom_site_label
_atom_site_fract_x
_atom_site_fract_y
_atom_site_fract_z
Si Si1 0.964865 0.257978 0.581381
Si Si2 0.032246 0.966410 0.271412
Si Si3 0.335641 0.499321 0.332681
Si Si4 0.635100 0.439585 0.943258
Si Si5 0.832363 0.001124 0.255391
Si Si6 0.494646 0.174930 0.897327
Si Si7 0.174762 0.310599 0.770686
O O1 0.708559 0.196085 0.793890
O O2 0.117445 0.291819 0.626275
O O3 0.098190 0.399738 0.533726
O O4 0.940031 0.152285 0.372701
O O5 0.008838 0.836974 0.149510
O O6 0.811761 0.927110 0.337445
O O7 0.000000 0.000000 0.500000
O O8 0.287043 0.097363 0.120040
O O9 0.289540 0.549061 0.285938
O O10 0.558197 0.627563 0.380135
O O11 0.392753 0.407683 0.121226
O O12 0.587189 0.321707 0.942824
O O13 0.839087 0.585698 0.016223
O O14 0.588203 0.913226 0.283934
O O15 0.000000 0.000000 0.000000
#
# Coordination Sequence:
#
# PCOD8017278 Si02
#       7
#     2   2   2   2   2   2   2
#     4  12  23  39  62  99 131 162 205 271 322 366
#     4  11  22  41  67  92 120 166 219 257 306 373
#     4   9  20  39  67  88 121 166 221 247 309 371
#     4   9  21  41  65  90 120 168 216 252 309 379
#     4  10  22  40  65  86 122 167 215 256 304 377
#     4  11  25  40  63  94 133 165 205 261 326 374
#     4  10  22  38  65  94 123 165 211 265 302 378
#
# _framework density 20.779831000000001
#
# number of rings (size 3 to 8) (size 9 to 14) (size 15 to 20)
#    0.857    0.857    1.429    3.429    4.000    1.714 
#    0.000    0.000    0.000    0.000    0.000    0.000 
#    0.000    0.000    0.000    0.000    0.000    0.000 
#
# Total GULP energy -173462.341317 kJ/mol
# GULP energy per Si atom -12390.167237 kJ/mol
# Density = 2.073254 g / cm^3
# Si number density = 20.779831 Si / 1000 Ang^3
#
#
#
# Elastic Constant Matrix: (Units=GPa)
#
#
# Indices 1 2 3 4 5 6 
#
# 1 83.4385 67.0746 53.8114 -1.4997 25.9005 0.5987
# 2 67.0746 143.9857 47.8701 3.5495 15.7774 -14.1060
# 3 53.8114 47.8701 74.8385 -6.7429 13.5818 2.3271
# 4 -1.4997 3.5495 -6.7429 30.7054 0.5016 8.5856
# 5 25.9005 15.7774 13.5818 0.5016 31.3747 -0.7464
# 6 0.5987 -14.1060 2.3271 8.5856 -0.7464 38.6665
#
#
#
# Elastic Compliance Matrix: (Units=1/GPa)
#
#
# Indices 1 2 3 4 5 6 
#
# 1 0.035693 -0.009714 -0.016065 0.000638 -0.017722 -0.003614
# 2 -0.009714 0.012520 -0.002081 -0.004046 0.002827 0.005796
# 3 -0.016065 -0.002081 0.026418 0.006169 0.002692 -0.003418
# 4 0.000638 -0.004046 0.006169 0.037300 -0.002002 -0.010178
# 5 -0.017722 0.002827 0.002692 -0.002002 0.044006 0.002438
# 6 -0.003614 0.005796 -0.003418 -0.010178 0.002438 0.030545
#
#
# Mechanical properties :
#
#
# Convention : Reuss Voigt Hill
#
# Bulk Modulus (GPa) = 52.88019 71.08611 61.98315
# Shear Modulus (GPa) = 20.12018 29.04978 24.58498
#
# Velocity S-wave (km/s) = 3.11506 3.74301 3.44338
# Velocity P-wave (km/s) = 6.20010 7.27761 6.76036
#
# Compressibility (1/GPa) = 0.01891067
#
# Stress axis : x y z
#
# Youngs Moduli (GPa) = 28.01660 79.87060 37.85288
#
# Poissons Ratio (x) = 0.77588 0.60810
# Poissons Ratio (y) = 0.27216 0.07879
# Poissons Ratio (z) = 0.45008 0.16625
#
# Static dielectric constant tensor:
#      x y z
#    x 3.742670 0.194900 0.168530 
#    y 0.194900 3.896740 0.073310 
#    z 0.168530 0.073310 3.334520 
# 
# 
# High freq. dielectric constant tensor:
#      x y z
#    x 1.816600 -0.003000 0.024530 
#    y -0.003000 1.817320 0.005530 
#    z 0.024530 0.005530 1.777950 
# 
# From -- ./inp_files/279765.got.cif
#   From: 2010.06.25/outbox.cif.g09.slc.cpg/sg2_140_cif.got.tgz:279765.got - 2010.06.27 13:26:56.
