data_PCOD8017371
_publ_section_title
;
Structure prediction by ZEFSAII (Michael W. Deem and Ramdas Pophale) SiO2 
 PCOD8017371
Probable space group: P -1
;
_chemical_formula_sum "Si O2"
_cell_formula_units_Z 16
_cell_length_a 5.561389
_cell_length_b 13.680586
_cell_length_c 9.943361
_cell_angle_alpha 109.158590
_cell_angle_beta 106.094969
_cell_angle_gamma 101.045433
_cell_volume 652.484064
_symmetry_space_group_name_H-M "P -1"
_symmetry_group_IT_number 2
_symmetry_cell_setting 'triclinic'
loop_
_space_group_symop_operation_xyz
x,y,z
-x,-y,-z
loop_
_atom_site_type_symbol
_atom_site_label
_atom_site_fract_x
_atom_site_fract_y
_atom_site_fract_z
Si Si1 0.114508 0.920150 0.648311
Si Si2 0.874286 0.512926 0.125627
Si Si3 0.566286 0.131726 0.855910
Si Si4 0.784061 0.066892 0.623199
Si Si5 0.432366 0.333427 0.858891
Si Si6 0.483716 0.360580 0.307081
Si Si7 0.388679 0.575231 0.353110
Si Si8 0.881449 0.243671 0.201116
O O1 0.064616 0.879780 0.466087
O O2 0.065989 0.813653 0.681747
O O3 0.401476 0.004636 0.765227
O O4 0.907239 0.982902 0.677973
O O5 0.828225 0.630849 0.173603
O O6 0.073514 0.510073 0.276670
O O7 0.608968 0.409122 0.040310
O O8 0.000000 0.500000 0.000000
O O9 0.771721 0.156229 0.773093
O O10 0.378327 0.208726 0.841220
O O11 0.727710 0.154450 0.028763
O O12 0.500000 0.000000 0.500000
O O13 0.559821 0.349498 0.737034
O O14 0.551617 0.487973 0.332959
O O15 0.534190 0.351024 0.469645
O O16 0.687087 0.314553 0.236847
O O17 0.168999 0.304654 0.208624
#
# Coordination Sequence:
#
# PCOD8017371 Si02
#       8
#     2   2   2   2   2   2   2   2
#     4  10  24  46  72 102 141 187 235 298 349 434
#     4   9  20  38  63  96 137 179 223 293 350 416
#     4  11  25  42  71 105 141 189 234 296 357 428
#     4   9  22  44  70  98 138 177 239 290 357 412
#     4  10  22  38  69 101 140 179 238 291 360 417
#     4  11  29  46  71 104 142 192 242 289 359 425
#     4  10  24  44  69  97 142 187 238 296 351 426
#     4  12  29  47  74 105 147 189 241 294 356 427
#
# _framework density 24.521673
#
# number of rings (size 3 to 8) (size 9 to 14) (size 15 to 20)
#    0.000    1.750    0.000    1.125   15.750    5.500 
#    0.000    0.000    0.000    0.000    0.000    0.000 
#    0.000    0.000    0.000    0.000    0.000    0.000 
#
# Total GULP energy -198293.285830 kJ/mol
# GULP energy per Si atom -12393.330364 kJ/mol
# Density = 2.446586 g / cm^3
# Si number density = 24.521673 Si / 1000 Ang^3
#
#
#
# Elastic Constant Matrix: (Units=GPa)
#
#
# Indices 1 2 3 4 5 6 
#
# 1 107.1653 11.5262 16.7109 3.1781 2.7362 -28.3770
# 2 11.5262 76.0616 -16.0006 -15.9185 -5.6381 -8.8872
# 3 16.7109 -16.0006 102.4256 -7.7411 -1.7671 -11.7651
# 4 3.1781 -15.9185 -7.7411 31.9149 -6.5213 2.6112
# 5 2.7362 -5.6381 -1.7671 -6.5213 35.0018 3.4185
# 6 -28.3770 -8.8872 -11.7651 2.6112 3.4185 34.6577
#
#
#
# Elastic Compliance Matrix: (Units=1/GPa)
#
#
# Indices 1 2 3 4 5 6 
#
# 1 0.012645 -0.002235 -0.001655 -0.004232 -0.003183 0.009851
# 2 -0.002235 0.017304 0.004277 0.010664 0.004894 0.002773
# 3 -0.001655 0.004277 0.011484 0.005260 0.002081 0.003038
# 4 -0.004232 0.010664 0.005260 0.040678 0.010187 -0.003014
# 5 -0.003183 0.004894 0.002081 0.010187 0.032057 -0.004574
# 6 0.009851 0.002773 0.003038 -0.003014 -0.004574 0.039340
#
#
# Mechanical properties :
#
#
# Convention : Reuss Voigt Hill
#
# Bulk Modulus (GPa) = 23.69336 34.45840 29.07588
# Shear Modulus (GPa) = 29.97520 38.54259 34.25889
#
# Velocity S-wave (km/s) = 3.50007 3.96886 3.74182
# Velocity P-wave (km/s) = 5.10070 5.92328 5.52732
#
# Compressibility (1/GPa) = 0.04220592
#
# Stress axis : x y z
#
# Youngs Moduli (GPa) = 79.08080 57.78948 87.07924
#
# Poissons Ratio (x) = 0.12916 0.14415
# Poissons Ratio (y) = 0.17675 -0.37242
# Poissons Ratio (z) = 0.13091 -0.24715
#
# Static dielectric constant tensor:
#      x y z
#    x 5.084210 0.017380 0.043620 
#    y 0.017380 4.093840 -0.089710 
#    z 0.043620 -0.089710 4.903090 
# 
# 
# High freq. dielectric constant tensor:
#      x y z
#    x 1.979650 -0.016380 0.000570 
#    y -0.016380 1.953430 -0.010530 
#    z 0.000570 -0.010530 1.987110 
# 
# From -- ./inp_files/367879.got.cif
#   From: 2010.06.25/outbox.cif.g09.slc.cpg/sg2_184_cif.got.tgz:367879.got - 2010.06.27 13:26:56.
