data_PCOD8017051
_publ_section_title
;
Structure prediction by ZEFSAII (Michael W. Deem and Ramdas Pophale) SiO2 
 PCOD8017051
Probable space group: P -1
;
_chemical_formula_sum "Si O2"
_cell_formula_units_Z 12
_cell_length_a 9.213495
_cell_length_b 13.601906
_cell_length_c 16.169070
_cell_angle_alpha 163.270797
_cell_angle_beta 114.338336
_cell_angle_gamma 66.922047
_cell_volume 531.410008
_symmetry_space_group_name_H-M "P -1"
_symmetry_group_IT_number 2
_symmetry_cell_setting 'triclinic'
loop_
_space_group_symop_operation_xyz
x,y,z
-x,-y,-z
loop_
_atom_site_type_symbol
_atom_site_label
_atom_site_fract_x
_atom_site_fract_y
_atom_site_fract_z
Si Si1 0.433064 0.455164 0.822778
Si Si2 0.990456 0.169432 0.884378
Si Si3 0.306915 0.170702 0.396386
Si Si4 0.188832 0.747472 0.471980
Si Si5 0.503396 0.400670 0.326658
Si Si6 0.256149 0.363507 0.873725
O O1 0.398902 0.227521 0.550702
O O2 0.336655 0.298556 0.751306
O O3 0.621018 0.463440 0.892964
O O4 0.378482 0.839058 0.101856
O O5 0.880965 0.891330 0.682957
O O6 0.887064 0.367189 0.950460
O O7 0.137371 0.971122 0.718887
O O8 0.057894 0.450169 0.189839
O O9 0.335738 0.477382 0.585198
O O10 0.358459 0.576357 0.386776
O O11 0.194868 0.995406 0.593869
O O12 0.500000 0.500000 0.500000
O O13 0.500000 0.000000 0.000000
#
# Coordination Sequence:
#
# PCOD8017051 Si02
#       6
#     2   2   2   2   2   2
#     4  10  22  37  67 102 136 179 222 263 315 398
#     4  11  25  41  66 103 144 177 205 262 344 412
#     4  11  23  46  67  97 136 175 223 276 327 394
#     4  12  25  44  66 101 140 173 222 275 328 390
#     4  12  27  49  74  96 121 174 238 289 331 380
#     4  10  22  39  66 104 144 180 215 256 327 407
#
# _framework density 22.581433000000001
#
# number of rings (size 3 to 8) (size 9 to 14) (size 15 to 20)
#    0.000    1.000    1.667    5.000    2.333   10.000 
#    0.000    5.000    0.000    0.000    0.000    0.000 
#    0.000    0.000    0.000    0.000    0.000    0.000 
#
# Total GULP energy -148837.408440 kJ/mol
# GULP energy per Si atom -12403.117370 kJ/mol
# Density = 2.253004 g / cm^3
# Si number density = 22.581433 Si / 1000 Ang^3
#
#
#
# Elastic Constant Matrix: (Units=GPa)
#
#
# Indices 1 2 3 4 5 6 
#
# 1 97.2654 34.7523 49.7241 18.4209 18.4977 15.3162
# 2 34.7523 67.1565 36.6748 7.3104 20.6186 28.3721
# 3 49.7241 36.6748 124.7184 12.8237 16.0059 18.0072
# 4 18.4209 7.3104 12.8237 47.2181 0.6784 6.1998
# 5 18.4977 20.6186 16.0059 0.6784 44.2266 12.6349
# 6 15.3162 28.3721 18.0072 6.1998 12.6349 35.6126
#
#
#
# Elastic Compliance Matrix: (Units=1/GPa)
#
#
# Indices 1 2 3 4 5 6 
#
# 1 0.015225 -0.004780 -0.004009 -0.004208 -0.002926 0.001058
# 2 -0.004780 0.027627 -0.003250 0.000732 -0.004950 -0.016682
# 3 -0.004009 -0.003250 0.010835 -0.000755 -0.000470 -0.000867
# 4 -0.004208 0.000732 -0.000755 0.023306 0.002264 -0.003252
# 5 -0.002926 -0.004950 -0.000470 0.002264 0.027638 -0.004760
# 6 0.001058 -0.016682 -0.000867 -0.003252 -0.004760 0.043609
#
#
# Mechanical properties :
#
#
# Convention : Reuss Voigt Hill
#
# Bulk Modulus (GPa) = 33.77243 59.04917 46.41080
# Shear Modulus (GPa) = 27.44435 36.61074 32.02754
#
# Velocity S-wave (km/s) = 3.48997 4.03088 3.77014
# Velocity P-wave (km/s) = 5.58822 6.91883 6.28881
#
# Compressibility (1/GPa) = 0.02960995
#
# Stress axis : x y z
#
# Youngs Moduli (GPa) = 65.67983 36.19705 92.29137
#
# Poissons Ratio (x) = 0.17302 0.37001
# Poissons Ratio (y) = 0.31394 0.29991
# Poissons Ratio (z) = 0.26332 0.11763
#
# Static dielectric constant tensor:
#      x y z
#    x 4.217280 0.013640 0.247930 
#    y 0.013640 3.848590 0.104200 
#    z 0.247930 0.104200 4.189540 
# 
# 
# High freq. dielectric constant tensor:
#      x y z
#    x 1.897530 0.008420 0.009320 
#    y 0.008420 1.862260 -0.001030 
#    z 0.009320 -0.001030 1.907690 
# 
# From -- ./inp_files/41434.got.cif
#   From: 2010.06.25/outbox.cif.g09.slc.cpg/sg2_21_cif.got.tgz:41434.got - 2010.06.27 13:26:56.
