data_PCOD8017966
_publ_section_title
;
Structure prediction by ZEFSAII (Michael W. Deem and Ramdas Pophale) SiO2 
 PCOD8017966
Probable space group: P -1
;
_chemical_formula_sum "Si O2"
_cell_formula_units_Z 14
_cell_length_a 8.420178
_cell_length_b 11.372460
_cell_length_c 11.801100
_cell_angle_alpha 103.430133
_cell_angle_beta 34.604870
_cell_angle_gamma 100.944658
_cell_volume 624.219926
_symmetry_space_group_name_H-M "P -1"
_symmetry_group_IT_number 2
_symmetry_cell_setting 'triclinic'
loop_
_space_group_symop_operation_xyz
x,y,z
-x,-y,-z
loop_
_atom_site_type_symbol
_atom_site_label
_atom_site_fract_x
_atom_site_fract_y
_atom_site_fract_z
Si Si1 0.358467 0.098185 0.793055
Si Si2 0.851419 0.054848 0.924785
Si Si3 0.822885 0.616226 0.595849
Si Si4 0.069488 0.840523 0.631749
Si Si5 0.180464 0.455305 0.663720
Si Si6 0.220152 0.681906 0.975088
Si Si7 0.016073 0.707424 0.853193
O O1 0.673143 0.104509 0.572260
O O2 0.165398 0.073573 0.792233
O O3 0.274806 0.226635 0.929836
O O4 0.339910 0.987762 0.867547
O O5 0.854346 0.952554 0.802255
O O6 0.743392 0.182264 0.965773
O O7 0.932451 0.738244 0.613315
O O8 0.846128 0.628807 0.449262
O O9 0.496985 0.602665 0.821944
O O10 0.000000 0.500000 0.500000
O O11 0.165623 0.787645 0.685936
O O12 0.500000 0.500000 0.500000
O O13 0.978359 0.572878 0.794649
O O14 0.060813 0.381018 0.825193
O O15 0.205439 0.695958 0.851148
#
# Coordination Sequence:
#
# PCOD8017966 Si02
#       7
#     2   2   2   2   2   2   2
#     4   9  20  38  69 101 132 171 217 274 323 392
#     4   9  21  41  65 100 128 176 221 267 332 384
#     4  12  28  44  64 100 135 178 224 267 340 397
#     4  11  23  42  70  99 139 172 215 274 328 399
#     4  12  26  44  70  98 129 178 227 275 332 393
#     4  11  26  44  69  98 136 171 226 280 320 398
#     4  10  22  39  70  98 128 170 221 271 329 378
#
# _framework density 22.427993000000001
#
# number of rings (size 3 to 8) (size 9 to 14) (size 15 to 20)
#    0.000    1.429    2.857    1.714    6.000    4.571 
#    0.000    1.429    0.000    0.000    0.000    0.000 
#    0.000    0.000    0.000    0.000    0.000    0.000 
#
# Total GULP energy -173534.306246 kJ/mol
# GULP energy per Si atom -12395.307589 kJ/mol
# Density = 2.237695 g / cm^3
# Si number density = 22.427993 Si / 1000 Ang^3
#
#
#
# Elastic Constant Matrix: (Units=GPa)
#
#
# Indices 1 2 3 4 5 6 
#
# 1 73.2566 30.7380 53.5441 -0.6412 5.3663 12.1247
# 2 30.7380 142.6628 63.3208 16.8016 4.8372 2.0812
# 3 53.5441 63.3208 120.5637 -9.1669 0.9837 3.3014
# 4 -0.6412 16.8016 -9.1669 40.7115 8.0263 3.3991
# 5 5.3663 4.8372 0.9837 8.0263 16.9691 13.9225
# 6 12.1247 2.0812 3.3014 3.3991 13.9225 37.4399
#
#
#
# Elastic Compliance Matrix: (Units=1/GPa)
#
#
# Indices 1 2 3 4 5 6 
#
# 1 0.021623 -0.000264 -0.009374 -0.000968 -0.001121 -0.005657
# 2 -0.000264 0.010246 -0.005696 -0.005477 -0.000488 0.000697
# 3 -0.009374 -0.005696 0.015842 0.005699 -0.000296 0.001548
# 4 -0.000968 -0.005477 0.005699 0.030916 -0.015654 0.003130
# 5 -0.001121 -0.000488 -0.000296 -0.015654 0.094026 -0.033127
# 6 -0.005657 0.000697 0.001548 0.003130 -0.033127 0.040401
#
#
# Mechanical properties :
#
#
# Convention : Reuss Voigt Hill
#
# Bulk Modulus (GPa) = 58.67116 70.18766 64.42941
# Shear Modulus (GPa) = 20.04801 31.61612 25.83207
#
# Velocity S-wave (km/s) = 2.99303 3.75863 3.39747
# Velocity P-wave (km/s) = 6.17745 7.08513 6.64680
#
# Compressibility (1/GPa) = 0.01704415
#
# Stress axis : x y z
#
# Youngs Moduli (GPa) = 46.24770 97.60163 63.12231
#
# Poissons Ratio (x) = 0.02573 0.59171
# Poissons Ratio (y) = 0.01219 0.35952
# Poissons Ratio (z) = 0.43353 0.55590
#
# Static dielectric constant tensor:
#      x y z
#    x 3.820740 0.116900 0.284200 
#    y 0.116900 4.427740 0.398560 
#    z 0.284200 0.398560 4.117590 
# 
# 
# High freq. dielectric constant tensor:
#      x y z
#    x 1.854610 0.004860 0.018550 
#    y 0.004860 1.897690 0.017960 
#    z 0.018550 0.017960 1.885320 
# 
# From -- ./inp_files/123690.got.cif
#   From: 2010.06.25/outbox.cif.g09.slc.cpg/sg2_62_cif.got.tgz:123690.got - 2010.06.27 13:26:56.
