data_PCOD8017915
_publ_section_title
;
Structure prediction by ZEFSAII (Michael W. Deem and Ramdas Pophale) SiO2 
 PCOD8017915
Probable space group: P -1
;
_chemical_formula_sum "Si O2"
_cell_formula_units_Z 16
_cell_length_a 11.560253
_cell_length_b 14.229922
_cell_length_c 9.157670
_cell_angle_alpha 58.630484
_cell_angle_beta 76.223793
_cell_angle_gamma 123.423621
_cell_volume 726.145975
_symmetry_space_group_name_H-M "P -1"
_symmetry_group_IT_number 2
_symmetry_cell_setting 'triclinic'
loop_
_space_group_symop_operation_xyz
x,y,z
-x,-y,-z
loop_
_atom_site_type_symbol
_atom_site_label
_atom_site_fract_x
_atom_site_fract_y
_atom_site_fract_z
Si Si1 0.222322 0.550736 0.804922
Si Si2 0.162567 0.476425 0.216294
Si Si3 0.560563 0.514802 0.807602
Si Si4 0.352372 0.209593 0.599216
Si Si5 0.702682 0.697149 0.206188
Si Si6 0.288131 0.784955 0.092986
Si Si7 0.723529 0.190909 0.592284
Si Si8 0.934550 0.193905 0.007031
O O1 0.402525 0.620506 0.612306
O O2 0.227529 0.680530 0.648353
O O3 0.249449 0.564669 0.958073
O O4 0.009944 0.330182 0.004458
O O5 0.295644 0.482931 0.246526
O O6 0.175741 0.597595 0.207385
O O7 0.922120 0.260443 0.467123
O O8 0.694512 0.716784 0.541084
O O9 0.350503 0.330678 0.927739
O O10 0.500000 0.500000 0.000000
O O11 0.264122 0.161885 0.830343
O O12 0.249846 0.024563 0.707597
O O13 0.500000 0.500000 0.500000
O O14 0.887445 0.754098 0.140455
O O15 0.306449 0.775589 0.267220
O O16 0.151481 0.792488 0.106541
O O17 0.513091 0.967674 0.802546
#
# Coordination Sequence:
#
# PCOD8017915 Si02
#       8
#     2   2   2   2   2   2   2   2
#     4  12  24  45  68  99 139 177 224 276 335 403
#     4  12  26  44  71  96 138 182 219 274 344 397
#     4  11  23  46  67  98 138 176 218 274 337 391
#     4  11  24  43  69  98 133 178 222 277 326 403
#     4  10  22  39  68  95 130 174 220 270 323 400
#     4  11  27  43  71 103 131 175 226 286 331 394
#     4  11  26  45  67 103 136 172 229 278 332 404
#     4  12  23  43  72  97 134 177 224 272 343 385
#
# _framework density 22.034137999999999
#
# number of rings (size 3 to 8) (size 9 to 14) (size 15 to 20)
#    0.000    0.750    6.250    1.125    5.250    1.500 
#    2.250    1.250    0.000    0.000    0.000    0.000 
#    0.000    0.000    0.000    0.000    0.000    0.000 
#
# Total GULP energy -198351.284107 kJ/mol
# GULP energy per Si atom -12396.955257 kJ/mol
# Density = 2.198399 g / cm^3
# Si number density = 22.034138 Si / 1000 Ang^3
#
#
#
# Elastic Constant Matrix: (Units=GPa)
#
#
# Indices 1 2 3 4 5 6 
#
# 1 140.6157 18.4731 27.0067 -8.3363 -11.7756 5.4879
# 2 18.4731 65.8337 25.0912 -1.0303 4.1190 8.5960
# 3 27.0067 25.0912 54.2572 -8.6996 -2.1659 4.8752
# 4 -8.3363 -1.0303 -8.6996 39.2520 0.2142 -0.4839
# 5 -11.7756 4.1190 -2.1659 0.2142 44.1411 -2.2015
# 6 5.4879 8.5960 4.8752 -0.4839 -2.2015 29.4602
#
#
#
# Elastic Compliance Matrix: (Units=1/GPa)
#
#
# Indices 1 2 3 4 5 6 
#
# 1 0.008132 -0.001090 -0.003263 0.000958 0.002082 -0.000485
# 2 -0.001090 0.019409 -0.008416 -0.001625 -0.002721 -0.004298
# 3 -0.003263 -0.008416 0.024801 0.004566 0.001065 -0.000886
# 4 0.000958 -0.001625 0.004566 0.026647 0.000503 0.000015
# 5 0.002082 -0.002721 0.001065 0.000503 0.023614 0.002003
# 6 -0.000485 -0.004298 -0.000886 0.000015 0.002003 0.035585
#
#
# Mechanical properties :
#
#
# Convention : Reuss Voigt Hill
#
# Bulk Modulus (GPa) = 37.30890 44.64986 40.97938
# Shear Modulus (GPa) = 28.95846 35.24638 32.10242
#
# Velocity S-wave (km/s) = 3.62920 4.00387 3.82113
# Velocity P-wave (km/s) = 5.87627 6.45621 6.17305
#
# Compressibility (1/GPa) = 0.02680325
#
# Stress axis : x y z
#
# Youngs Moduli (GPa) = 122.97728 51.52161 40.32024
#
# Poissons Ratio (x) = 0.05616 0.13157
# Poissons Ratio (y) = 0.13404 0.33935
# Poissons Ratio (z) = 0.40130 0.43363
#
# Static dielectric constant tensor:
#      x y z
#    x 4.265550 0.250810 -0.113540 
#    y 0.250810 5.137090 -0.005440 
#    z -0.113540 -0.005440 3.928590 
# 
# 
# High freq. dielectric constant tensor:
#      x y z
#    x 1.878200 0.004920 -0.010560 
#    y 0.004920 1.866850 -0.003150 
#    z -0.010560 -0.003150 1.853310 
# 
# From -- ./inp_files/272143.got.cif
#   From: 2010.06.25/outbox.cif.g09.slc.cpg/sg2_137_cif.got.tgz:272143.got - 2010.06.27 13:26:56.
