data_PCOD8018806
_publ_section_title
;
Structure prediction by ZEFSAII (Michael W. Deem and Ramdas Pophale) SiO2 
 PCOD8018806
Probable space group: P -1
;
_chemical_formula_sum "Si O2"
_cell_formula_units_Z 16
_cell_length_a 10.144807
_cell_length_b 5.041276
_cell_length_c 24.606684
_cell_angle_alpha 80.222451
_cell_angle_beta 41.735286
_cell_angle_gamma 103.260623
_cell_volume 693.350149
_symmetry_space_group_name_H-M "P -1"
_symmetry_group_IT_number 2
_symmetry_cell_setting 'triclinic'
loop_
_space_group_symop_operation_xyz
x,y,z
-x,-y,-z
loop_
_atom_site_type_symbol
_atom_site_label
_atom_site_fract_x
_atom_site_fract_y
_atom_site_fract_z
Si Si1 0.394111 0.837806 0.980971
Si Si2 0.131969 0.689989 0.819708
Si Si3 0.354701 0.376410 0.699419
Si Si4 0.376124 0.634801 0.567516
Si Si5 0.194292 0.229870 0.389870
Si Si6 0.881170 0.479041 0.696845
Si Si7 0.535505 0.490416 0.870628
Si Si8 0.494500 0.137845 0.221037
O O1 0.452764 0.282884 0.091719
O O2 0.142691 0.511957 0.076733
O O3 0.500000 0.000000 0.000000
O O4 0.381350 0.110132 0.943221
O O5 0.199173 0.454100 0.782113
O O6 0.272944 0.834917 0.828125
O O7 0.203397 0.993763 0.748106
O O8 0.415264 0.586291 0.619465
O O9 0.596658 0.464884 0.652173
O O10 0.500000 0.500000 0.500000
O O11 0.098921 0.449323 0.645860
O O12 0.500000 0.000000 0.500000
O O13 0.062387 0.314714 0.382638
O O14 0.313350 0.064272 0.328865
O O15 0.000000 0.000000 0.500000
O O16 0.808686 0.610722 0.766725
O O17 0.642076 0.137538 0.771853
O O18 0.423747 0.535339 0.848399
#
# Coordination Sequence:
#
# PCOD8018806 Si02
#       8
#     2   2   2   2   2   2   2   2
#     4  12  27  46  72 105 142 187 249 291 355 444
#     4  11  25  46  70 104 141 185 236 298 356 426
#     4  11  24  46  69 100 146 187 230 298 363 412
#     4  12  29  46  69 104 142 188 243 288 356 427
#     4  10  22  40  72 104 140 186 242 293 347 426
#     4  11  24  46  74 101 148 187 235 295 358 431
#     4  11  25  46  73 104 139 188 235 299 363 416
#     4  10  23  44  71 103 141 186 238 289 373 415
#
# _framework density 23.076364000000002
#
# number of rings (size 3 to 8) (size 9 to 14) (size 15 to 20)
#    0.000    1.000    2.500    2.625    7.000    3.500 
#    0.000    0.000    0.000    0.000    0.000    0.000 
#    0.000    0.000    0.000    0.000    0.000    0.000 
#
# Total GULP energy -198352.156576 kJ/mol
# GULP energy per Si atom -12397.009786 kJ/mol
# Density = 2.302384 g / cm^3
# Si number density = 23.076364 Si / 1000 Ang^3
#
#
#
# Elastic Constant Matrix: (Units=GPa)
#
#
# Indices 1 2 3 4 5 6 
#
# 1 97.6831 40.1880 52.0430 18.8305 -10.5708 4.3055
# 2 40.1880 132.0078 62.3664 -1.4933 -3.8196 -3.9560
# 3 52.0430 62.3664 147.6339 0.1843 7.7021 1.8249
# 4 18.8305 -1.4933 0.1843 47.7184 -5.4350 4.4429
# 5 -10.5708 -3.8196 7.7021 -5.4350 34.1306 -3.4688
# 6 4.3055 -3.9560 1.8249 4.4429 -3.4688 31.9206
#
#
#
# Elastic Compliance Matrix: (Units=1/GPa)
#
#
# Indices 1 2 3 4 5 6 
#
# 1 0.015260 -0.002445 -0.004565 -0.005487 0.004523 -0.000845
# 2 -0.002445 0.010088 -0.003504 0.001306 0.001550 0.001767
# 3 -0.004565 -0.003504 0.010081 0.001294 -0.003977 -0.001007
# 4 -0.005487 0.001306 0.001294 0.023559 0.001676 -0.002269
# 5 0.004523 0.001550 -0.003977 0.001676 0.032352 0.003092
# 6 -0.000845 0.001767 -0.001007 -0.002269 0.003092 0.032370
#
#
# Mechanical properties :
#
#
# Convention : Reuss Voigt Hill
#
# Bulk Modulus (GPa) = 69.44238 76.27997 72.86118
# Shear Modulus (GPa) = 33.43621 37.60242 35.51931
#
# Velocity S-wave (km/s) = 3.81062 4.04106 3.92753
# Velocity P-wave (km/s) = 7.03696 7.40950 7.22564
#
# Compressibility (1/GPa) = 0.01440043
#
# Stress axis : x y z
#
# Youngs Moduli (GPa) = 65.53193 99.13080 99.19537
#
# Poissons Ratio (x) = 0.24242 0.45281
# Poissons Ratio (y) = 0.16026 0.34755
# Poissons Ratio (z) = 0.29914 0.34732
#
# Static dielectric constant tensor:
#      x y z
#    x 3.869600 -0.338710 0.182500 
#    y -0.338710 4.297140 0.054210 
#    z 0.182500 0.054210 4.267230 
# 
# 
# High freq. dielectric constant tensor:
#      x y z
#    x 1.904680 -0.010330 0.017460 
#    y -0.010330 1.920500 -0.000190 
#    z 0.017460 -0.000190 1.917600 
# 
# From -- ./inp_files/459307.got.cif
#   From: 2010.06.25/outbox.cif.g09.slc.cpg/sg2_230_cif.got.tgz:459307.got - 2010.06.27 13:26:56.
