data_PCOD8018118
_publ_section_title
;
Structure prediction by ZEFSAII (Michael W. Deem and Ramdas Pophale) SiO2 
 PCOD8018118
Probable space group: P -1
;
_chemical_formula_sum "Si O2"
_cell_formula_units_Z 10
_cell_length_a 15.976483
_cell_length_b 9.479905
_cell_length_c 12.293375
_cell_angle_alpha 148.319704
_cell_angle_beta 152.344849
_cell_angle_gamma 38.204031
_cell_volume 449.921052
_symmetry_space_group_name_H-M "P -1"
_symmetry_group_IT_number 2
_symmetry_cell_setting 'triclinic'
loop_
_space_group_symop_operation_xyz
x,y,z
-x,-y,-z
loop_
_atom_site_type_symbol
_atom_site_label
_atom_site_fract_x
_atom_site_fract_y
_atom_site_fract_z
Si Si1 0.691503 0.452669 0.787015
Si Si2 0.710164 0.412572 0.308994
Si Si3 0.113292 0.249567 0.631744
Si Si4 0.625126 0.846276 0.321587
Si Si5 0.302207 0.676056 0.523106
O O1 0.518323 0.682249 0.756575
O O2 0.767805 0.465198 0.759196
O O3 0.623689 0.164513 0.545586
O O4 0.849768 0.501201 0.084484
O O5 0.647150 0.698868 0.366520
O O6 0.731375 0.477317 0.504205
O O7 0.897845 0.265141 0.378313
O O8 0.561563 0.208211 0.986705
O O9 0.204396 0.274447 0.635809
O O10 0.196437 0.976257 0.609109
#
# Coordination Sequence:
#
# PCOD8018118 Si02
#       5
#     2   2   2   2   2
#     4  10  22  40  66  87 124 163 198 249 307 352
#     4  11  23  42  64  89 126 159 202 250 303 356
#     4  11  22  43  64  90 122 161 200 254 300 357
#     4  10  24  44  60  90 125 163 198 249 303 361
#     4  10  22  40  62  93 122 159 200 252 303 357
#
# _framework density 22.226120999999999
#
# number of rings (size 3 to 8) (size 9 to 14) (size 15 to 20)
#    0.000    1.600    2.000    1.800    5.600    2.400 
#    7.200    0.000    0.000    0.000    0.000    0.000 
#    0.000    0.000    0.000    0.000    0.000    0.000 
#
# Total GULP energy -124003.750989 kJ/mol
# GULP energy per Si atom -12400.375099 kJ/mol
# Density = 2.217553 g / cm^3
# Si number density = 22.226121 Si / 1000 Ang^3
#
#
#
# Elastic Constant Matrix: (Units=GPa)
#
#
# Indices 1 2 3 4 5 6 
#
# 1 108.5979 31.9628 32.6477 -1.1025 7.5410 9.1549
# 2 31.9628 94.7959 31.0112 -0.7866 6.3404 -1.3706
# 3 32.6477 31.0112 51.6791 2.3962 4.9756 -13.4553
# 4 -1.1025 -0.7866 2.3962 15.2062 -11.7838 7.9356
# 5 7.5410 6.3404 4.9756 -11.7838 24.9999 -10.9770
# 6 9.1549 -1.3706 -13.4553 7.9356 -10.9770 47.2914
#
#
#
# Elastic Compliance Matrix: (Units=1/GPa)
#
#
# Indices 1 2 3 4 5 6 
#
# 1 0.013088 -0.001332 -0.008983 0.003220 -0.003110 -0.006390
# 2 -0.001332 0.013666 -0.007867 0.001733 -0.001675 -0.002264
# 3 -0.008983 -0.007867 0.034319 -0.016525 -0.004172 0.013080
# 4 0.003220 0.001733 -0.016525 0.114178 0.050071 -0.012812
# 5 -0.003110 -0.001675 -0.004172 0.050071 0.068844 0.006944
# 6 -0.006390 -0.002264 0.013080 -0.012812 0.006944 0.029800
#
#
# Mechanical properties :
#
#
# Convention : Reuss Voigt Hill
#
# Bulk Modulus (GPa) = 40.47135 49.59071 45.03103
# Shear Modulus (GPa) = 15.69881 28.12956 21.91418
#
# Velocity S-wave (km/s) = 2.66056 3.56140 3.14341
# Velocity P-wave (km/s) = 5.26180 6.26672 5.78612
#
# Compressibility (1/GPa) = 0.02470884
#
# Stress axis : x y z
#
# Youngs Moduli (GPa) = 76.40504 73.17673 29.13818
#
# Poissons Ratio (x) = 0.09748 0.26173
# Poissons Ratio (y) = 0.10178 0.22924
# Poissons Ratio (z) = 0.68631 0.57571
#
# Static dielectric constant tensor:
#      x y z
#    x 4.135550 0.061700 -0.083070 
#    y 0.061700 3.878800 -0.145360 
#    z -0.083070 -0.145360 3.777330 
# 
# 
# High freq. dielectric constant tensor:
#      x y z
#    x 1.886170 0.003480 -0.004780 
#    y 0.003480 1.873670 -0.010420 
#    z -0.004780 -0.010420 1.853180 
# 
# From -- ./inp_files/15113.got.cif
#   From: 2010.06.25/outbox.cif.g09.slc.cpg/sg2_8_cif.got.tgz:15113.got - 2010.06.27 13:26:56.
