data_PCOD8018021
_publ_section_title
;
Structure prediction by ZEFSAII (Michael W. Deem and Ramdas Pophale) SiO2 
 PCOD8018021
Probable space group: P -1
;
_chemical_formula_sum "Si O2"
_cell_formula_units_Z 14
_cell_length_a 17.355818
_cell_length_b 6.073741
_cell_length_c 17.868000
_cell_angle_alpha 71.744040
_cell_angle_beta 20.028111
_cell_angle_gamma 69.757630
_cell_volume 604.830116
_symmetry_space_group_name_H-M "P -1"
_symmetry_group_IT_number 2
_symmetry_cell_setting 'triclinic'
loop_
_space_group_symop_operation_xyz
x,y,z
-x,-y,-z
loop_
_atom_site_type_symbol
_atom_site_label
_atom_site_fract_x
_atom_site_fract_y
_atom_site_fract_z
Si Si1 0.083042 0.045040 0.088102
Si Si2 0.167436 0.706399 0.570848
Si Si3 0.382963 0.840443 0.219175
Si Si4 0.585397 0.596809 0.295958
Si Si5 0.207122 0.588369 0.099121
Si Si6 0.671914 0.164041 0.353949
Si Si7 0.649035 0.252971 0.903615
O O1 0.944794 0.115150 0.282909
O O2 0.915126 0.021723 0.173581
O O3 0.236276 0.791820 0.990176
O O4 0.235053 0.240495 0.909332
O O5 0.194719 0.852942 0.454563
O O6 0.415445 0.575690 0.384449
O O7 0.018005 0.509212 0.708600
O O8 0.253966 0.839989 0.256290
O O9 0.570965 0.608507 0.083159
O O10 0.501231 0.069729 0.093458
O O11 0.715618 0.339264 0.227812
O O12 0.435276 0.694565 0.492418
O O13 0.164904 0.705872 0.208196
O O14 0.500000 0.000000 0.500000
O O15 0.500000 0.500000 0.000000
#
# Coordination Sequence:
#
# PCOD8018021 Si02
#       7
#     2   2   2   2   2   2   2
#     4  11  24  40  62  91 124 161 200 247 305 361
#     4  11  23  38  61  90 122 160 203 248 299 358
#     4  10  22  42  63  87 124 161 200 252 303 357
#     4  10  22  40  60  88 124 158 200 250 299 357
#     4  11  22  38  61  91 122 159 205 249 302 359
#     4  10  22  40  63  90 119 157 203 249 300 356
#     4   9  20  40  64  88 119 161 203 249 303 356
#
# _framework density 23.146995
#
# number of rings (size 3 to 8) (size 9 to 14) (size 15 to 20)
#    0.000    1.714    0.000    3.857    0.000    8.000 
#    0.000   10.000    0.000    0.000    0.000    0.000 
#    0.000    0.000    0.000    0.000    0.000    0.000 
#
# Total GULP energy -173556.862391 kJ/mol
# GULP energy per Si atom -12396.918742 kJ/mol
# Density = 2.309431 g / cm^3
# Si number density = 23.146995 Si / 1000 Ang^3
#
#
#
# Elastic Constant Matrix: (Units=GPa)
#
#
# Indices 1 2 3 4 5 6 
#
# 1 109.2769 31.7294 13.6524 -20.8384 -20.6081 -2.8373
# 2 31.7294 129.6576 19.6124 -32.0258 -7.0557 -26.1454
# 3 13.6524 19.6124 62.5882 -27.1121 3.0996 -10.4451
# 4 -20.8384 -32.0258 -27.1121 34.2709 -2.7131 -1.2352
# 5 -20.6081 -7.0557 3.0996 -2.7131 45.9067 -10.7289
# 6 -2.8373 -26.1454 -10.4451 -1.2352 -10.7289 43.8769
#
#
#
# Elastic Compliance Matrix: (Units=1/GPa)
#
#
# Indices 1 2 3 4 5 6 
#
# 1 0.012011 0.000078 0.001533 0.009218 0.006558 0.003051
# 2 0.000078 0.013946 0.004971 0.017862 0.005553 0.011359
# 3 0.001533 0.004971 0.028220 0.028630 0.003938 0.011548
# 4 0.009218 0.017862 0.028630 0.076176 0.015032 0.023875
# 5 0.006558 0.005553 0.003938 0.015032 0.029054 0.012198
# 6 0.003051 0.011359 0.011548 0.023875 0.012198 0.036161
#
#
# Mechanical properties :
#
#
# Convention : Reuss Voigt Hill
#
# Bulk Modulus (GPa) = 14.84994 47.94567 31.39780
# Shear Modulus (GPa) = 24.40802 40.57947 32.49375
#
# Velocity S-wave (km/s) = 3.25080 4.19157 3.75080
# Velocity P-wave (km/s) = 4.52986 6.64712 5.68788
#
# Compressibility (1/GPa) = 0.06734036
#
# Stress axis : x y z
#
# Youngs Moduli (GPa) = 83.25908 71.70337 35.43640
#
# Poissons Ratio (x) = -0.00558 -0.05433
# Poissons Ratio (y) = -0.00648 -0.17615
# Poissons Ratio (z) = -0.12765 -0.35643
#
# Static dielectric constant tensor:
#      x y z
#    x 5.219480 -0.120330 0.065050 
#    y -0.120330 4.227610 -0.093460 
#    z 0.065050 -0.093460 3.791670 
# 
# 
# High freq. dielectric constant tensor:
#      x y z
#    x 1.948090 -0.007530 0.003690 
#    y -0.007530 1.920750 -0.013190 
#    z 0.003690 -0.013190 1.885610 
# 
# From -- ./inp_files/6702.got.cif
#   From: 2010.06.25/outbox.cif.g09.slc.cpg/sg2_4_cif.got.tgz:6702.got - 2010.06.27 13:26:56.
