data_PCOD8018337
_publ_section_title
;
Structure prediction by ZEFSAII (Michael W. Deem and Ramdas Pophale) SiO2 
 PCOD8018337
Probable space group: P -1
;
_chemical_formula_sum "Si O2"
_cell_formula_units_Z 16
_cell_length_a 13.946742
_cell_length_b 10.708621
_cell_length_c 13.718481
_cell_angle_alpha 121.632889
_cell_angle_beta 43.350149
_cell_angle_gamma 149.390208
_cell_volume 685.370356
_symmetry_space_group_name_H-M "P -1"
_symmetry_group_IT_number 2
_symmetry_cell_setting 'triclinic'
loop_
_space_group_symop_operation_xyz
x,y,z
-x,-y,-z
loop_
_atom_site_type_symbol
_atom_site_label
_atom_site_fract_x
_atom_site_fract_y
_atom_site_fract_z
Si Si1 0.144530 0.121547 0.557688
Si Si2 0.088156 0.377728 0.445160
Si Si3 0.884119 0.291062 0.360122
Si Si4 0.941945 0.216827 0.985272
Si Si5 0.368614 0.150316 0.762513
Si Si6 0.220567 0.620520 0.086028
Si Si7 0.749900 0.034596 0.846228
Si Si8 0.628358 0.614540 0.306243
O O1 0.342129 0.324408 0.409333
O O2 0.289212 0.223928 0.592990
O O3 0.939910 0.073132 0.690788
O O4 0.009153 0.851979 0.522548
O O5 0.120969 0.535916 0.564665
O O6 0.360369 0.595368 0.290827
O O7 0.903742 0.253040 0.441351
O O8 0.127848 0.462510 0.188779
O O9 0.661047 0.022754 0.354751
O O10 0.015317 0.428122 0.074095
O O11 0.804491 0.994221 0.074009
O O12 0.774724 0.103740 0.969603
O O13 0.198028 0.374898 0.822678
O O14 0.313854 0.241019 0.772008
O O15 0.239788 0.811761 0.165828
O O16 0.466911 0.742737 0.926059
#
# Coordination Sequence:
#
# PCOD8018337 Si02
#       8
#     2   2   2   2   2   2   2   2
#     4  10  23  42  65  94 130 169 207 266 312 378
#     4  11  23  41  66  94 127 170 210 259 319 373
#     4  10  23  43  61  95 130 164 213 264 311 373
#     4  10  22  41  63  93 124 169 207 261 316 369
#     4  11  22  40  66  93 128 165 214 258 312 380
#     4  10  22  40  65  90 126 168 211 262 308 382
#     4  10  22  41  62  95 128 164 212 258 317 369
#     4  10  22  42  63  96 131 165 211 258 320 372
#
# _framework density 23.345043
#
# number of rings (size 3 to 8) (size 9 to 14) (size 15 to 20)
#    0.000    1.750    1.250    1.875    3.500    2.500 
#    0.000    4.375    0.000    0.000    0.000    0.000 
#    0.000    0.000    0.000    0.000    0.000    0.000 
#
# Total GULP energy -198239.871329 kJ/mol
# GULP energy per Si atom -12389.991958 kJ/mol
# Density = 2.329191 g / cm^3
# Si number density = 23.345043 Si / 1000 Ang^3
#
#
#
# Elastic Constant Matrix: (Units=GPa)
#
#
# Indices 1 2 3 4 5 6 
#
# 1 60.7724 15.4219 11.8331 -6.0979 0.0375 3.1800
# 2 15.4219 113.4522 23.1205 -18.4645 -3.8966 -7.1321
# 3 11.8331 23.1205 78.5013 -25.7572 -1.7142 -15.1064
# 4 -6.0979 -18.4645 -25.7572 31.3064 -1.7823 2.0109
# 5 0.0375 -3.8966 -1.7142 -1.7823 34.8134 5.0417
# 6 3.1800 -7.1321 -15.1064 2.0109 5.0417 36.6473
#
#
#
# Elastic Compliance Matrix: (Units=1/GPa)
#
#
# Indices 1 2 3 4 5 6 
#
# 1 0.017650 -0.002010 -0.002519 0.000377 0.000085 -0.002993
# 2 -0.002010 0.010179 -0.000775 0.004950 0.001153 0.001406
# 3 -0.002519 -0.000775 0.019591 0.014738 0.000585 0.007254
# 4 0.000377 0.004950 0.014738 0.046980 0.003105 0.004001
# 5 0.000085 0.001153 0.000585 0.003105 0.029589 -0.003783
# 6 -0.002993 0.001406 0.007254 0.004001 -0.003783 0.031112
#
#
# Mechanical properties :
#
#
# Convention : Reuss Voigt Hill
#
# Bulk Modulus (GPa) = 27.16530 39.27521 33.22026
# Shear Modulus (GPa) = 28.09310 34.04346 31.06828
#
# Velocity S-wave (km/s) = 3.47275 3.82288 3.65201
# Velocity P-wave (km/s) = 5.26704 6.02878 5.66074
#
# Compressibility (1/GPa) = 0.03681167
#
# Stress axis : x y z
#
# Youngs Moduli (GPa) = 56.65805 98.24155 51.04356
#
# Poissons Ratio (x) = 0.19744 0.12858
# Poissons Ratio (y) = 0.11387 0.03958
# Poissons Ratio (z) = 0.14272 0.07617
#
# Static dielectric constant tensor:
#      x y z
#    x 3.956820 0.166760 0.150800 
#    y 0.166760 4.376920 -0.107390 
#    z 0.150800 -0.107390 4.056310 
# 
# 
# High freq. dielectric constant tensor:
#      x y z
#    x 1.915000 0.010240 0.012250 
#    y 0.010240 1.934410 -0.010020 
#    z 0.012250 -0.010020 1.917680 
# 
# From -- ./inp_files/532599.got.cif
#   From: 2010.06.25/outbox.cif.g09.slc.cpg/sg2_267_cif.got.tgz:532599.got - 2010.06.27 13:26:56.
