data_PCOD8018512
_publ_section_title
;
Structure prediction by ZEFSAII (Michael W. Deem and Ramdas Pophale) SiO2 
 PCOD8018512
Probable space group: P -1
;
_chemical_formula_sum "Si O2"
_cell_formula_units_Z 16
_cell_length_a 11.043431
_cell_length_b 13.703367
_cell_length_c 5.304527
_cell_angle_alpha 102.710107
_cell_angle_beta 93.937830
_cell_angle_gamma 120.631884
_cell_volume 657.990826
_symmetry_space_group_name_H-M "P -1"
_symmetry_group_IT_number 2
_symmetry_cell_setting 'triclinic'
loop_
_space_group_symop_operation_xyz
x,y,z
-x,-y,-z
loop_
_atom_site_type_symbol
_atom_site_label
_atom_site_fract_x
_atom_site_fract_y
_atom_site_fract_z
Si Si1 0.474940 0.371345 0.160719
Si Si2 0.713802 0.563838 0.572000
Si Si3 0.948744 0.421794 0.699398
Si Si4 0.748253 0.116711 0.970718
Si Si5 0.941460 0.697148 0.046131
Si Si6 0.744140 0.747609 0.316470
Si Si7 0.339349 0.812522 0.496495
Si Si8 0.642024 0.863637 0.676777
O O1 0.646934 0.450946 0.301104
O O2 0.414586 0.452851 0.280331
O O3 0.398568 0.242356 0.199798
O O4 0.425258 0.341749 0.845089
O O5 0.780831 0.687254 0.507276
O O6 0.841715 0.580420 0.784192
O O7 0.776546 0.329268 0.612865
O O8 0.000000 0.500000 0.500000
O O9 0.022936 0.344492 0.708069
O O10 0.000000 0.500000 0.000000
O O11 0.674492 0.120309 0.704555
O O12 0.916578 0.217018 0.046079
O O13 0.724486 0.987114 0.909566
O O14 0.675804 0.134748 0.213220
O O15 0.858159 0.766185 0.124585
O O16 0.752968 0.865944 0.484856
O O17 0.497453 0.837723 0.508291
#
# Coordination Sequence:
#
# PCOD8018512 Si02
#       8
#     2   2   2   2   2   2   2   2
#     4   9  20  38  61  98 135 176 226 278 345 410
#     4   9  19  39  62  96 137 181 217 275 353 414
#     4  11  25  45  71 106 140 181 230 280 338 416
#     4  11  26  47  72  97 138 186 235 286 342 403
#     4  10  24  42  70  98 142 181 223 283 356 412
#     4  10  22  40  67 102 138 181 223 286 355 412
#     4  11  26  47  71 101 136 187 231 285 348 398
#     4  11  25  42  69  99 135 177 242 285 335 411
#
# _framework density 24.31645
#
# number of rings (size 3 to 8) (size 9 to 14) (size 15 to 20)
#    0.000    1.750    0.000    2.625   10.500    1.500 
#    0.000    5.625    0.000    0.000    0.000    0.000 
#    0.000    0.000    0.000    0.000    0.000    0.000 
#
# Total GULP energy -198224.957681 kJ/mol
# GULP energy per Si atom -12389.059855 kJ/mol
# Density = 2.426110 g / cm^3
# Si number density = 24.316450 Si / 1000 Ang^3
#
#
#
# Elastic Constant Matrix: (Units=GPa)
#
#
# Indices 1 2 3 4 5 6 
#
# 1 90.3738 16.2243 25.7233 -1.8571 -2.4225 -0.7015
# 2 16.2243 84.1932 23.4167 3.8968 6.7048 -7.5538
# 3 25.7233 23.4167 111.3550 -9.0662 3.5416 -4.1987
# 4 -1.8571 3.8968 -9.0662 35.7901 -1.6799 -0.7792
# 5 -2.4225 6.7048 3.5416 -1.6799 46.6608 9.3281
# 6 -0.7015 -7.5538 -4.1987 -0.7792 9.3281 14.6732
#
#
#
# Elastic Compliance Matrix: (Units=1/GPa)
#
#
# Indices 1 2 3 4 5 6 
#
# 1 0.012161 -0.001970 -0.002504 0.000237 0.001535 -0.002113
# 2 -0.001970 0.014070 -0.002229 -0.002185 -0.003794 0.008808
# 3 -0.002504 -0.002229 0.010376 0.002749 -0.000994 0.002480
# 4 0.000237 -0.002185 0.002749 0.028948 0.001052 0.000542
# 5 0.001535 -0.003794 -0.000994 0.001052 0.025880 -0.018561
# 6 -0.002113 0.008808 0.002480 0.000542 -0.018561 0.085122
#
#
# Mechanical properties :
#
#
# Convention : Reuss Voigt Hill
#
# Bulk Modulus (GPa) = 43.09955 46.29452 44.69704
# Shear Modulus (GPa) = 25.29097 34.12866 29.70982
#
# Velocity S-wave (km/s) = 3.22852 3.75042 3.49922
# Velocity P-wave (km/s) = 5.62679 6.15093 5.89469
#
# Compressibility (1/GPa) = 0.02320210
#
# Stress axis : x y z
#
# Youngs Moduli (GPa) = 82.22878 71.07076 96.37253
#
# Poissons Ratio (x) = 0.13999 0.24134
# Poissons Ratio (y) = 0.16197 0.21481
# Poissons Ratio (z) = 0.20592 0.15841
#
# Static dielectric constant tensor:
#      x y z
#    x 4.553590 -0.145380 0.025730 
#    y -0.145380 4.281740 0.203010 
#    z 0.025730 0.203010 4.377950 
# 
# 
# High freq. dielectric constant tensor:
#      x y z
#    x 1.964690 -0.007770 0.012210 
#    y -0.007770 1.943620 0.000850 
#    z 0.012210 0.000850 1.981110 
# 
# From -- ./inp_files/78166.got.cif
#   From: 2010.06.25/outbox.cif.g09.slc.cpg/sg2_40_cif.got.tgz:78166.got - 2010.06.27 13:26:56.
