data_PCOD8018859
_publ_section_title
;
Structure prediction by ZEFSAII (Michael W. Deem and Ramdas Pophale) SiO2 
 PCOD8018859
Probable space group: P -1
;
_chemical_formula_sum "Si O2"
_cell_formula_units_Z 16
_cell_length_a 9.375164
_cell_length_b 15.000233
_cell_length_c 19.613606
_cell_angle_alpha 159.595712
_cell_angle_beta 131.921956
_cell_angle_gamma 49.365529
_cell_volume 712.176990
_symmetry_space_group_name_H-M "P -1"
_symmetry_group_IT_number 2
_symmetry_cell_setting 'triclinic'
loop_
_space_group_symop_operation_xyz
x,y,z
-x,-y,-z
loop_
_atom_site_type_symbol
_atom_site_label
_atom_site_fract_x
_atom_site_fract_y
_atom_site_fract_z
Si Si1 0.759941 0.174190 0.311800
Si Si2 0.386111 0.362779 0.100724
Si Si3 0.421204 0.434992 0.564407
Si Si4 0.193526 0.860968 0.552219
Si Si5 0.151665 0.129087 0.334612
Si Si6 0.995061 0.641296 0.202818
Si Si7 0.707838 0.420153 0.037804
Si Si8 0.627436 0.733389 0.364455
O O1 0.612313 0.402325 0.398908
O O2 0.851487 0.257464 0.472580
O O3 0.922592 0.112649 0.260496
O O4 0.637355 0.939792 0.127618
O O5 0.480464 0.391923 0.225351
O O6 0.177055 0.512221 0.128613
O O7 0.513243 0.490633 0.176291
O O8 0.577369 0.190423 0.426321
O O9 0.214206 0.354750 0.466863
O O10 0.063414 0.753873 0.376292
O O11 0.129361 0.165123 0.748776
O O12 0.230461 0.185149 0.474357
O O13 0.254304 0.881260 0.149752
O O14 0.853839 0.434946 0.032090
O O15 0.744267 0.617655 0.252598
O O16 0.500000 0.500000 0.000000
O O17 0.500000 0.000000 0.500000
#
# Coordination Sequence:
#
# PCOD8018859 Si02
#       8
#     2   2   2   2   2   2   2   2
#     4  12  23  41  67  93 126 169 224 261 311 386
#     4  10  24  41  65  93 127 167 211 266 323 378
#     4  10  23  45  63  89 129 175 212 264 322 373
#     4  10  23  37  66  92 125 166 211 266 326 378
#     4  11  24  42  64  95 128 172 215 264 325 376
#     4  10  22  41  60  95 131 158 208 271 325 382
#     4  12  23  38  64  93 132 171 211 258 326 394
#     4  11  25  41  63  95 136 170 207 264 327 391
#
# _framework density 22.466327
#
# number of rings (size 3 to 8) (size 9 to 14) (size 15 to 20)
#    0.000    1.250    2.500    2.625   10.500    0.500 
#    0.000    0.000    0.000    3.000    0.000    0.000 
#    0.000    0.000    0.000    0.000    0.000    0.000 
#
# Total GULP energy -198249.377905 kJ/mol
# GULP energy per Si atom -12390.586119 kJ/mol
# Density = 2.241519 g / cm^3
# Si number density = 22.466327 Si / 1000 Ang^3
#
#
#
# Elastic Constant Matrix: (Units=GPa)
#
#
# Indices 1 2 3 4 5 6 
#
# 1 76.7333 17.1312 -0.7846 -0.3651 9.5638 -4.5391
# 2 17.1312 111.7095 18.1846 21.7657 3.5506 11.3744
# 3 -0.7846 18.1846 61.7539 4.4776 -0.1169 -1.2846
# 4 -0.3651 21.7657 4.4776 20.8270 7.1958 3.6447
# 5 9.5638 3.5506 -0.1169 7.1958 42.9940 -4.4438
# 6 -4.5391 11.3744 -1.2846 3.6447 -4.4438 29.9984
#
#
#
# Elastic Compliance Matrix: (Units=1/GPa)
#
#
# Indices 1 2 3 4 5 6 
#
# 1 0.014370 -0.003324 0.000896 0.004272 -0.003381 0.002453
# 2 -0.003324 0.012722 -0.002953 -0.012550 0.001397 -0.003722
# 3 0.000896 -0.002953 0.017205 -0.001161 0.000514 0.002209
# 4 0.004272 -0.012550 -0.001161 0.066176 -0.011446 -0.004380
# 5 -0.003381 0.001397 0.000514 -0.011446 0.026253 0.004260
# 6 0.002453 -0.003722 0.002209 -0.004380 0.004260 0.036375
#
#
# Mechanical properties :
#
#
# Convention : Reuss Voigt Hill
#
# Bulk Modulus (GPa) = 29.81931 35.47321 32.64626
# Shear Modulus (GPa) = 25.63522 33.14157 29.38840
#
# Velocity S-wave (km/s) = 3.38161 3.84496 3.62070
# Velocity P-wave (km/s) = 5.34310 5.96115 5.66057
#
# Compressibility (1/GPa) = 0.03353532
#
# Stress axis : x y z
#
# Youngs Moduli (GPa) = 69.58752 78.60248 58.12099
#
# Poissons Ratio (x) = 0.26131 -0.05210
# Poissons Ratio (y) = 0.23134 0.17165
# Poissons Ratio (z) = -0.06238 0.23214
#
# Static dielectric constant tensor:
#      x y z
#    x 4.109930 0.154060 -0.174130 
#    y 0.154060 4.021690 0.039930 
#    z -0.174130 0.039930 3.740350 
# 
# 
# High freq. dielectric constant tensor:
#      x y z
#    x 1.891240 0.002930 0.004030 
#    y 0.002930 1.883130 -0.001540 
#    z 0.004030 -0.001540 1.879540 
# 
# From -- ./inp_files/307183.got.cif
#   From: 2010.06.25/outbox.cif.g09.slc.cpg/sg2_154_cif.got.tgz:307183.got - 2010.06.27 13:26:56.
