data_PCOD8018011
_publ_section_title
;
Structure prediction by ZEFSAII (Michael W. Deem and Ramdas Pophale) SiO2 
 PCOD8018011
Probable space group: P -1
;
_chemical_formula_sum "Si O2"
_cell_formula_units_Z 16
_cell_length_a 15.015605
_cell_length_b 12.110517
_cell_length_c 22.408221
_cell_angle_alpha 28.270177
_cell_angle_beta 141.706754
_cell_angle_gamma 150.789021
_cell_volume 939.584687
_symmetry_space_group_name_H-M "P -1"
_symmetry_group_IT_number 2
_symmetry_cell_setting 'triclinic'
loop_
_space_group_symop_operation_xyz
x,y,z
-x,-y,-z
loop_
_atom_site_type_symbol
_atom_site_label
_atom_site_fract_x
_atom_site_fract_y
_atom_site_fract_z
Si Si1 0.657084 0.172172 0.550048
Si Si2 0.866134 0.856754 0.315443
Si Si3 0.780371 0.051852 0.376807
Si Si4 0.488767 0.209373 0.852577
Si Si5 0.624574 0.915821 0.478491
Si Si6 0.444087 0.688105 0.292148
Si Si7 0.925297 0.732403 0.655488
Si Si8 0.207236 0.102627 0.308720
O O1 0.789639 0.522379 0.443735
O O2 0.549966 0.093144 0.594736
O O3 0.500000 0.000000 0.500000
O O4 0.779038 0.057834 0.664925
O O5 0.706138 0.865340 0.205850
O O6 0.955552 0.032370 0.340911
O O7 0.006284 0.002693 0.263547
O O8 0.948562 0.308465 0.300916
O O9 0.752027 0.144993 0.382539
O O10 0.590916 0.912564 0.310735
O O11 0.824889 0.823865 0.517886
O O12 0.508555 0.146833 0.824527
O O13 0.650869 0.548051 0.793558
O O14 0.500000 0.000000 0.000000
O O15 0.548269 0.584655 0.578621
O O16 0.751019 0.014313 0.555727
O O17 0.242323 0.581158 0.255016
#
# Coordination Sequence:
#
# PCOD8018011 Si02
#       8
#     2   2   2   2   2   2   2   2
#     4  10  18  31  51  70 102 139 161 202 255 303
#     4  12  18  33  52  70 104 136 161 209 249 295
#     4  10  17  27  45  70 102 136 157 192 247 309
#     4  11  22  35  51  71 101 137 174 210 245 286
#     4   9  15  28  45  70 102 125 158 194 242 304
#     4  10  17  32  45  66 106 134 163 199 243 295
#     4  10  18  26  46  73 100 132 161 192 250 311
#     4  10  20  35  47  75 102 131 170 201 249 305
#
# _framework density 17.0288
#
# number of rings (size 3 to 8) (size 9 to 14) (size 15 to 20)
#    0.000    1.750    8.750    1.875    0.000    1.500 
#    0.000    0.000    0.000    0.000    0.000    0.875 
#    0.000    3.000    0.000    0.000    0.000    0.000 
#
# Total GULP energy -198209.166091 kJ/mol
# GULP energy per Si atom -12388.072881 kJ/mol
# Density = 1.699004 g / cm^3
# Si number density = 17.028800 Si / 1000 Ang^3
#
#
#
# Elastic Constant Matrix: (Units=GPa)
#
#
# Indices 1 2 3 4 5 6 
#
# 1 168.8124 43.1256 45.6390 -6.2306 -14.0867 33.8773
# 2 43.1256 79.3723 33.6877 -0.7751 -2.1388 26.1268
# 3 45.6390 33.6877 60.8269 -0.0653 -3.1917 8.6015
# 4 -6.2306 -0.7751 -0.0653 5.9553 0.3103 -1.1364
# 5 -14.0867 -2.1388 -3.1917 0.3103 11.0986 -0.3883
# 6 33.8773 26.1268 8.6015 -1.1364 -0.3883 30.5592
#
#
#
# Elastic Compliance Matrix: (Units=1/GPa)
#
#
# Indices 1 2 3 4 5 6 
#
# 1 0.010837 0.000597 -0.006404 0.008795 0.011424 -0.010250
# 2 0.000597 0.022184 -0.010294 0.000134 0.001485 -0.016707
# 3 -0.006404 -0.010294 0.025627 -0.006031 -0.002278 0.008433
# 4 0.008795 0.000134 -0.006031 0.176542 0.004464 -0.001545
# 5 0.011424 0.001485 -0.002278 0.004464 0.103695 -0.011809
# 6 -0.010250 -0.016707 0.008433 -0.001545 -0.011809 0.055789
#
#
# Mechanical properties :
#
#
# Convention : Reuss Voigt Hill
#
# Bulk Modulus (GPa) = 37.80963 61.54626 49.67795
# Shear Modulus (GPa) = 11.47601 21.95991 16.71796
#
# Velocity S-wave (km/s) = 2.59881 3.59496 3.13668
# Velocity P-wave (km/s) = 5.59076 7.31113 6.50804
#
# Compressibility (1/GPa) = 0.02644829
#
# Stress axis : x y z
#
# Youngs Moduli (GPa) = 92.27399 45.07730 39.02068
#
# Poissons Ratio (x) = -0.02693 0.24988
# Poissons Ratio (y) = -0.05513 0.40167
# Poissons Ratio (z) = 0.59091 0.46402
#
# Static dielectric constant tensor:
#      x y z
#    x 4.227740 0.251250 -0.152110 
#    y 0.251250 3.196350 0.042750 
#    z -0.152110 0.042750 2.625430 
# 
# 
# High freq. dielectric constant tensor:
#      x y z
#    x 1.682450 0.025270 -0.019030 
#    y 0.025270 1.653220 0.010210 
#    z -0.019030 0.010210 1.575190 
# 
# From -- ./inp_files/422745.got.cif
#   From: 2010.06.25/outbox.cif.g09.slc.cpg/sg2_212_cif.got.tgz:422745.got - 2010.06.27 13:26:56.
