data_PCOD8018888
_publ_section_title
;
Structure prediction by ZEFSAII (Michael W. Deem and Ramdas Pophale) SiO2 
 PCOD8018888
Probable space group: P -1
;
_chemical_formula_sum "Si O2"
_cell_formula_units_Z 16
_cell_length_a 11.093682
_cell_length_b 8.872452
_cell_length_c 16.298030
_cell_angle_alpha 51.615271
_cell_angle_beta 143.107418
_cell_angle_gamma 113.662410
_cell_volume 739.242735
_symmetry_space_group_name_H-M "P -1"
_symmetry_group_IT_number 2
_symmetry_cell_setting 'triclinic'
loop_
_space_group_symop_operation_xyz
x,y,z
-x,-y,-z
loop_
_atom_site_type_symbol
_atom_site_label
_atom_site_fract_x
_atom_site_fract_y
_atom_site_fract_z
Si Si1 0.169447 0.422495 0.685761
Si Si2 0.301456 0.658089 0.818156
Si Si3 0.051286 0.199272 0.304647
Si Si4 0.087883 0.030669 0.838234
Si Si5 0.684597 0.020033 0.702215
Si Si6 0.373742 0.313711 0.334206
Si Si7 0.609727 0.948278 0.328525
Si Si8 0.518976 0.288448 0.797480
O O1 0.191796 0.603598 0.694722
O O2 0.108314 0.255134 0.765824
O O3 0.385755 0.337049 0.789885
O O4 0.000000 0.500000 0.500000
O O5 0.148611 0.668810 0.808466
O O6 0.370635 0.863572 0.776995
O O7 0.500000 0.500000 0.000000
O O8 0.163936 0.338179 0.263966
O O9 0.202865 0.091955 0.492913
O O10 0.993130 0.031484 0.272039
O O11 0.926141 0.015572 0.828004
O O12 0.302406 0.896570 0.024416
O O13 0.627127 0.827508 0.695930
O O14 0.567825 0.219945 0.527288
O O15 0.610159 0.019616 0.755773
O O16 0.386041 0.527128 0.237916
O O17 0.621191 0.766387 0.334022
#
# Coordination Sequence:
#
# PCOD8018888 Si02
#       8
#     2   2   2   2   2   2   2   2
#     4  12  24  40  63  86 116 158 202 240 286 351
#     4  12  24  39  61  88 119 152 195 246 294 343
#     4  10  22  41  62  83 116 157 196 236 287 352
#     4  11  23  40  61  88 121 153 192 245 296 346
#     4   9  20  39  62  86 117 155 198 237 284 351
#     4   9  20  39  62  87 116 157 197 236 287 351
#     4  11  23  40  61  86 119 156 195 240 288 349
#     4  12  24  38  60  90 123 152 191 245 299 343
#
# _framework density 21.643771999999998
#
# number of rings (size 3 to 8) (size 9 to 14) (size 15 to 20)
#    0.000    1.250    0.000    6.750    0.000    6.500 
#    0.000    0.000    0.000    0.000    0.000    0.000 
#    0.000    0.000    0.000    0.000    0.000    0.000 
#
# Total GULP energy -198494.396413 kJ/mol
# GULP energy per Si atom -12405.899776 kJ/mol
# Density = 2.159451 g / cm^3
# Si number density = 21.643772 Si / 1000 Ang^3
#
#
#
# Elastic Constant Matrix: (Units=GPa)
#
#
# Indices 1 2 3 4 5 6 
#
# 1 111.2846 34.5232 4.2858 3.8750 26.8577 -3.9186
# 2 34.5232 97.3553 7.3813 -7.7446 -6.7903 12.2648
# 3 4.2858 7.3813 69.8545 -5.8454 10.7176 13.4534
# 4 3.8750 -7.7446 -5.8454 28.2532 -1.3256 -2.0993
# 5 26.8577 -6.7903 10.7176 -1.3256 38.4270 -0.8645
# 6 -3.9186 12.2648 13.4534 -2.0993 -0.8645 27.6198
#
#
#
# Elastic Compliance Matrix: (Units=1/GPa)
#
#
# Indices 1 2 3 4 5 6 
#
# 1 0.013958 -0.006571 0.000437 -0.003844 -0.011081 0.004047
# 2 -0.006571 0.014331 -0.000614 0.004568 0.007309 -0.006421
# 3 0.000437 -0.000614 0.016871 0.002434 -0.005212 -0.007861
# 4 -0.003844 0.004568 0.002434 0.037813 0.004103 -0.000757
# 5 -0.011081 0.007309 -0.005212 0.004103 0.036636 -0.000821
# 6 0.004047 -0.006421 -0.007861 -0.000757 -0.000821 0.043377
#
#
# Mechanical properties :
#
#
# Convention : Reuss Voigt Hill
#
# Bulk Modulus (GPa) = 31.58181 41.20834 36.39507
# Shear Modulus (GPa) = 26.73261 34.34694 30.53978
#
# Velocity S-wave (km/s) = 3.51824 3.98794 3.76043
# Velocity P-wave (km/s) = 5.57919 6.34709 5.97549
#
# Compressibility (1/GPa) = 0.03166380
#
# Stress axis : x y z
#
# Youngs Moduli (GPa) = 71.64205 69.78079 59.27375
#
# Poissons Ratio (x) = 0.45855 -0.02590
# Poissons Ratio (y) = 0.47078 0.03637
# Poissons Ratio (z) = -0.03131 0.04282
#
# Static dielectric constant tensor:
#      x y z
#    x 4.205280 -0.063120 0.180650 
#    y -0.063120 3.942570 0.120440 
#    z 0.180650 0.120440 3.759130 
# 
# 
# High freq. dielectric constant tensor:
#      x y z
#    x 1.865720 0.002520 0.009880 
#    y 0.002520 1.852020 0.004440 
#    z 0.009880 0.004440 1.844040 
# 
# From -- ./inp_files/174958.got.cif
#   From: 2010.06.25/outbox.cif.g09.slc.cpg/sg2_88_cif.got.tgz:174958.got - 2010.06.27 13:26:56.
