data_PCOD8018568
_publ_section_title
;
Structure prediction by ZEFSAII (Michael W. Deem and Ramdas Pophale) SiO2 
 PCOD8018568
Probable space group: P -1
;
_chemical_formula_sum "Si O2"
_cell_formula_units_Z 16
_cell_length_a 26.146739
_cell_length_b 11.995360
_cell_length_c 25.302358
_cell_angle_alpha 150.048078
_cell_angle_beta 10.784028
_cell_angle_gamma 149.398983
_cell_volume 737.429487
_symmetry_space_group_name_H-M "P -1"
_symmetry_group_IT_number 2
_symmetry_cell_setting 'triclinic'
loop_
_space_group_symop_operation_xyz
x,y,z
-x,-y,-z
loop_
_atom_site_type_symbol
_atom_site_label
_atom_site_fract_x
_atom_site_fract_y
_atom_site_fract_z
Si Si1 0.542055 0.635802 0.566159
Si Si2 0.937367 0.089618 0.814891
Si Si3 0.067191 0.261759 0.045470
Si Si4 0.255067 0.410140 0.175413
Si Si5 0.591386 0.476862 0.560152
Si Si6 0.004513 0.391120 0.659703
Si Si7 0.768074 0.127870 0.887454
Si Si8 0.533212 0.331230 0.035079
O O1 0.500000 0.500000 0.500000
O O2 0.616594 0.466403 0.467050
O O3 0.774184 0.850054 0.422333
O O4 0.246693 0.715509 0.905622
O O5 0.963956 0.094446 0.725786
O O6 0.795432 0.857091 0.885739
O O7 0.885596 0.426834 0.264408
O O8 0.058338 0.358848 0.154206
O O9 0.375689 0.278563 0.717924
O O10 0.000000 0.000000 0.000000
O O11 0.000000 0.500000 0.500000
O O12 0.500000 0.500000 0.000000
O O13 0.328970 0.492551 0.075149
O O14 0.473385 0.709925 0.792608
O O15 0.306995 0.426911 0.341980
O O16 0.976232 0.215441 0.665246
O O17 0.786488 0.281258 0.793860
O O18 0.603689 0.889024 0.944704
#
# Coordination Sequence:
#
# PCOD8018568 Si02
#       8
#     2   2   2   2   2   2   2   2
#     4  11  23  43  67 101 131 162 225 289 338 373
#     4  11  24  42  71  95 130 182 225 270 330 401
#     4  11  23  45  67  90 129 177 221 263 326 407
#     4  12  25  46  67  95 136 184 231 256 323 413
#     4  10  22  40  67  96 123 169 224 267 323 405
#     4  11  24  41  62 101 133 165 220 276 336 384
#     4  10  22  41  70  97 135 175 219 273 335 401
#     4  12  25  41  65  99 139 171 213 277 331 391
#
# _framework density 21.696988999999999
#
# number of rings (size 3 to 8) (size 9 to 14) (size 15 to 20)
#    0.000    1.000    1.250    6.750    1.750    3.000 
#    6.750    0.000    0.000    0.000    0.000    0.000 
#    0.000    0.000    0.000    0.000    0.000    0.000 
#
# Total GULP energy -198290.820620 kJ/mol
# GULP energy per Si atom -12393.176289 kJ/mol
# Density = 2.164761 g / cm^3
# Si number density = 21.696989 Si / 1000 Ang^3
#
#
#
# Elastic Constant Matrix: (Units=GPa)
#
#
# Indices 1 2 3 4 5 6 
#
# 1 150.6476 51.3457 40.1843 -15.0523 7.9568 -1.7289
# 2 51.3457 108.7972 -0.2598 -9.4559 12.9643 -1.4358
# 3 40.1843 -0.2598 87.3039 -16.4473 5.2136 -9.4982
# 4 -15.0523 -9.4559 -16.4473 28.7343 -5.8801 -0.3168
# 5 7.9568 12.9643 5.2136 -5.8801 33.1943 -14.1962
# 6 -1.7289 -1.4358 -9.4982 -0.3168 -14.1962 34.1990
#
#
#
# Elastic Compliance Matrix: (Units=1/GPa)
#
#
# Indices 1 2 3 4 5 6 
#
# 1 0.009332 -0.004326 -0.004208 0.001027 -0.000093 -0.000907
# 2 -0.004326 0.011896 0.002641 0.002368 -0.003844 -0.000559
# 3 -0.004208 0.002641 0.015285 0.007647 0.000891 0.004584
# 4 0.001027 0.002368 0.007647 0.042109 0.007571 0.005808
# 5 -0.000093 -0.003844 0.000891 0.007571 0.040020 0.016764
# 6 -0.000907 -0.000559 0.004584 0.005808 0.016764 0.037457
#
#
# Mechanical properties :
#
#
# Convention : Reuss Voigt Hill
#
# Bulk Modulus (GPa) = 40.44037 58.80990 49.62514
# Shear Modulus (GPa) = 28.38874 36.25741 32.32308
#
# Velocity S-wave (km/s) = 3.62113 4.09232 3.86391
# Velocity P-wave (km/s) = 6.01354 7.03515 6.54431
#
# Compressibility (1/GPa) = 0.02472776
#
# Stress axis : x y z
#
# Youngs Moduli (GPa) = 107.15906 84.06445 65.42368
#
# Poissons Ratio (x) = 0.36365 0.27529
# Poissons Ratio (y) = 0.46355 -0.17280
# Poissons Ratio (z) = 0.45090 -0.22203
#
# Static dielectric constant tensor:
#      x y z
#    x 5.065360 0.276330 -0.173850 
#    y 0.276330 4.002390 -0.205380 
#    z -0.173850 -0.205380 4.086340 
# 
# 
# High freq. dielectric constant tensor:
#      x y z
#    x 1.855300 0.005420 -0.000110 
#    y 0.005420 1.849730 -0.018550 
#    z -0.000110 -0.018550 1.866690 
# 
# From -- ./inp_files/621259.got.cif
#   From: 2010.06.25/outbox.cif.g09.slc.cpg/sg2_311_cif.got.tgz:621259.got - 2010.06.27 13:26:56.
