data_PCOD8018445
_publ_section_title
;
Structure prediction by ZEFSAII (Michael W. Deem and Ramdas Pophale) SiO2 
 PCOD8018445
Probable space group: P -1
;
_chemical_formula_sum "Si O2"
_cell_formula_units_Z 16
_cell_length_a 9.823893
_cell_length_b 14.109285
_cell_length_c 14.947859
_cell_angle_alpha 31.767812
_cell_angle_beta 67.548024
_cell_angle_gamma 90.187499
_cell_volume 744.698668
_symmetry_space_group_name_H-M "P -1"
_symmetry_group_IT_number 2
_symmetry_cell_setting 'triclinic'
loop_
_space_group_symop_operation_xyz
x,y,z
-x,-y,-z
loop_
_atom_site_type_symbol
_atom_site_label
_atom_site_fract_x
_atom_site_fract_y
_atom_site_fract_z
Si Si1 0.926221 0.169688 0.252860
Si Si2 0.349462 0.955199 0.951152
Si Si3 0.317816 0.315566 0.960782
Si Si4 0.948528 0.535130 0.300855
Si Si5 0.289198 0.955285 0.158505
Si Si6 0.927329 0.518149 0.863680
Si Si7 0.399591 0.526212 0.583166
Si Si8 0.641798 0.588011 0.811155
O O1 0.948685 0.256120 0.279692
O O2 0.782221 0.877694 0.523931
O O3 0.839952 0.266034 0.138122
O O4 0.147136 0.303955 0.052425
O O5 0.475881 0.888475 0.007823
O O6 0.493478 0.193023 0.663379
O O7 0.267338 0.996195 0.026740
O O8 0.177301 0.750262 0.093466
O O9 0.426419 0.465025 0.722601
O O10 0.500188 0.437794 0.883469
O O11 0.212576 0.041340 0.179146
O O12 0.849039 0.331880 0.565122
O O13 0.835239 0.633969 0.249004
O O14 0.925756 0.426724 0.295680
O O15 0.760027 0.502458 0.871127
O O16 0.500000 0.500000 0.500000
O O17 0.500000 0.500000 0.000000
#
# Coordination Sequence:
#
# PCOD8018445 Si02
#       8
#     2   2   2   2   2   2   2   2
#     4  11  26  48  70 101 144 178 233 282 346 416
#     4  10  22  42  63  97 131 175 227 279 337 412
#     4  12  24  46  69  99 137 184 224 283 348 407
#     4  11  23  41  68  95 130 183 224 274 349 406
#     4  10  22  40  66  93 136 173 222 282 340 404
#     4  11  24  48  70 101 141 183 225 288 344 407
#     4  11  24  44  65  95 138 176 228 288 337 398
#     4  12  27  45  73 106 138 183 233 282 346 415
#
# _framework density 21.485202000000001
#
# number of rings (size 3 to 8) (size 9 to 14) (size 15 to 20)
#    0.000    1.000    3.750    2.250    3.500    1.000 
#    4.500    0.000    0.000    0.000    0.000    0.000 
#    0.000    0.000    0.000    0.000    0.000    0.000 
#
# Total GULP energy -198346.300149 kJ/mol
# GULP energy per Si atom -12396.643759 kJ/mol
# Density = 2.143630 g / cm^3
# Si number density = 21.485202 Si / 1000 Ang^3
#
#
#
# Elastic Constant Matrix: (Units=GPa)
#
#
# Indices 1 2 3 4 5 6 
#
# 1 115.1914 35.6053 42.9474 -1.5779 14.3570 -1.4595
# 2 35.6053 116.7080 22.5658 14.3674 -0.8867 -0.0023
# 3 42.9474 22.5658 89.3422 5.4601 7.2932 8.4550
# 4 -1.5779 14.3674 5.4601 36.1768 -1.3786 0.8285
# 5 14.3570 -0.8867 7.2932 -1.3786 31.0223 5.6614
# 6 -1.4595 -0.0023 8.4550 0.8285 5.6614 36.6693
#
#
#
# Elastic Compliance Matrix: (Units=1/GPa)
#
#
# Indices 1 2 3 4 5 6 
#
# 1 0.012173 -0.003054 -0.005044 0.002266 -0.004863 0.002347
# 2 -0.003054 0.010195 -0.001003 -0.003961 0.001778 -0.000075
# 3 -0.005044 -0.001003 0.014353 -0.001931 -0.000537 -0.003384
# 4 0.002266 -0.003961 -0.001931 0.029636 0.000652 -0.000235
# 5 -0.004863 0.001778 -0.000537 0.000652 0.035713 -0.005598
# 6 0.002347 -0.000075 -0.003384 -0.000235 -0.005598 0.029014
#
#
# Mechanical properties :
#
#
# Convention : Reuss Voigt Hill
#
# Bulk Modulus (GPa) = 53.99842 58.16428 56.08135
# Shear Modulus (GPa) = 32.16308 35.44856 33.80582
#
# Velocity S-wave (km/s) = 3.87329 4.06631 3.97097
# Velocity P-wave (km/s) = 6.72239 7.01264 6.86905
#
# Compressibility (1/GPa) = 0.01851906
#
# Stress axis : x y z
#
# Youngs Moduli (GPa) = 82.15223 98.08474 69.67291
#
# Poissons Ratio (x) = 0.29958 0.35140
# Poissons Ratio (y) = 0.25091 0.06987
# Poissons Ratio (z) = 0.41434 0.09837
#
# Static dielectric constant tensor:
#      x y z
#    x 3.910260 -0.212980 0.225080 
#    y -0.212980 4.038690 0.120690 
#    z 0.225080 0.120690 3.866270 
# 
# 
# High freq. dielectric constant tensor:
#      x y z
#    x 1.846750 -0.004660 0.014030 
#    y -0.004660 1.854170 0.014510 
#    z 0.014030 0.014510 1.840220 
# 
# From -- ./inp_files/37869.got.cif
#   From: 2010.06.25/outbox.cif.g09.slc.cpg/sg2_19_cif.got.tgz:37869.got - 2010.06.27 13:26:56.
