data_PCOD8018601
_publ_section_title
;
Structure prediction by ZEFSAII (Michael W. Deem and Ramdas Pophale) SiO2 
 PCOD8018601
Probable space group: P -1
;
_chemical_formula_sum "Si O2"
_cell_formula_units_Z 16
_cell_length_a 17.765044
_cell_length_b 14.715331
_cell_length_c 5.538937
_cell_angle_alpha 94.733788
_cell_angle_beta 82.067833
_cell_angle_gamma 31.548928
_cell_volume 692.159738
_symmetry_space_group_name_H-M "P -1"
_symmetry_group_IT_number 2
_symmetry_cell_setting 'triclinic'
loop_
_space_group_symop_operation_xyz
x,y,z
-x,-y,-z
loop_
_atom_site_type_symbol
_atom_site_label
_atom_site_fract_x
_atom_site_fract_y
_atom_site_fract_z
Si Si1 0.041691 0.384072 0.756825
Si Si2 0.481178 0.726931 0.147928
Si Si3 0.259598 0.258296 0.308909
Si Si4 0.759143 0.983905 0.306032
Si Si5 0.751633 0.138866 0.967394
Si Si6 0.468761 0.900667 0.862882
Si Si7 0.955111 0.148165 0.491533
Si Si8 0.218550 0.678125 0.908700
O O1 0.204957 0.246668 0.537110
O O2 0.080227 0.243462 0.809567
O O3 0.896427 0.527158 0.670513
O O4 0.000000 0.500000 0.000000
O O5 0.428081 0.702880 0.976937
O O6 0.613806 0.548359 0.226121
O O7 0.310855 0.919801 0.383638
O O8 0.533655 0.768873 0.022750
O O9 0.378979 0.209900 0.346721
O O10 0.346238 0.108053 0.034934
O O11 0.616508 0.076990 0.273709
O O12 0.804476 0.028505 0.157642
O O13 0.759240 0.237477 0.046297
O O14 0.878138 0.978422 0.664982
O O15 0.857471 0.259310 0.306454
O O16 0.867997 0.275168 0.802944
O O17 0.000000 0.000000 0.500000
#
# Coordination Sequence:
#
# PCOD8018601 Si02
#       8
#     2   2   2   2   2   2   2   2
#     4  11  22  41  63  94 119 167 213 268 326 407
#     4  11  25  42  64  95 138 171 224 279 329 400
#     4  10  22  40  68  87 129 162 219 266 339 398
#     4  11  24  40  65  92 135 165 225 270 336 391
#     4  10  24  42  68  94 133 178 218 273 340 395
#     4  10  22  43  60  95 125 173 209 277 329 400
#     4  10  23  45  69  96 134 175 232 280 334 396
#     4  11  25  44  71 101 135 183 231 276 334 407
#
# _framework density 23.116050999999999
#
# number of rings (size 3 to 8) (size 9 to 14) (size 15 to 20)
#    0.000    1.500    2.500    1.875    8.750    3.000 
#    2.250    0.000    0.000    0.000    0.000    0.000 
#    0.000    0.000    0.000    0.000    0.000    0.000 
#
# Total GULP energy -198229.519608 kJ/mol
# GULP energy per Si atom -12389.344976 kJ/mol
# Density = 2.306344 g / cm^3
# Si number density = 23.116051 Si / 1000 Ang^3
#
#
#
# Elastic Constant Matrix: (Units=GPa)
#
#
# Indices 1 2 3 4 5 6 
#
# 1 82.6706 27.5325 8.1570 2.1164 -20.1630 -5.7922
# 2 27.5325 143.8581 22.0794 -6.9577 -6.0330 10.5337
# 3 8.1570 22.0794 77.2877 -4.1390 -9.4244 -2.6073
# 4 2.1164 -6.9577 -4.1390 36.6546 -0.3339 -0.8038
# 5 -20.1630 -6.0330 -9.4244 -0.3339 30.4555 -0.4205
# 6 -5.7922 10.5337 -2.6073 -0.8038 -0.4205 34.1445
#
#
#
# Elastic Compliance Matrix: (Units=1/GPa)
#
#
# Indices 1 2 3 4 5 6 
#
# 1 0.015796 -0.003009 0.000477 -0.001256 0.010047 0.003739
# 2 -0.003009 0.008113 -0.002164 0.001390 -0.001083 -0.003159
# 3 0.000477 -0.002164 0.014163 0.001242 0.004310 0.001912
# 4 -0.001256 0.001390 0.001242 0.027762 0.000134 0.000108
# 5 0.010047 -0.001083 0.004310 0.000134 0.040646 0.002871
# 6 0.003739 -0.003159 0.001912 0.000108 0.002871 0.031080
#
#
# Mechanical properties :
#
#
# Convention : Reuss Voigt Hill
#
# Bulk Modulus (GPa) = 34.87051 46.59490 40.73271
# Shear Modulus (GPa) = 31.94620 36.65410 34.30015
#
# Velocity S-wave (km/s) = 3.72155 3.98635 3.85622
# Velocity P-wave (km/s) = 5.79520 6.43340 6.12262
#
# Compressibility (1/GPa) = 0.02867753
#
# Stress axis : x y z
#
# Youngs Moduli (GPa) = 63.30763 123.26599 70.60559
#
# Poissons Ratio (x) = 0.37096 -0.03365
# Poissons Ratio (y) = 0.19052 0.15280
# Poissons Ratio (z) = -0.03017 0.26677
#
# Static dielectric constant tensor:
#      x y z
#    x 4.167320 -0.110440 -0.388150 
#    y -0.110440 4.222810 -0.068180 
#    z -0.388150 -0.068180 4.429870 
# 
# 
# High freq. dielectric constant tensor:
#      x y z
#    x 1.915910 -0.003170 -0.011760 
#    y -0.003170 1.920640 -0.004880 
#    z -0.011760 -0.004880 1.905070 
# 
# From -- ./inp_files/44582.got.cif
#   From: 2010.06.25/outbox.cif.g09.slc.cpg/sg2_23_cif.got.tgz:44582.got - 2010.06.27 13:26:56.
