data_PCOD8018404
_publ_section_title
;
Structure prediction by ZEFSAII (Michael W. Deem and Ramdas Pophale) SiO2 
 PCOD8018404
Probable space group: P -1
;
_chemical_formula_sum "Si O2"
_cell_formula_units_Z 16
_cell_length_a 8.924507
_cell_length_b 13.847232
_cell_length_c 5.186944
_cell_angle_alpha 72.658750
_cell_angle_beta 99.797652
_cell_angle_gamma 83.407044
_cell_volume 593.530957
_symmetry_space_group_name_H-M "P -1"
_symmetry_group_IT_number 2
_symmetry_cell_setting 'triclinic'
loop_
_space_group_symop_operation_xyz
x,y,z
-x,-y,-z
loop_
_atom_site_type_symbol
_atom_site_label
_atom_site_fract_x
_atom_site_fract_y
_atom_site_fract_z
Si Si1 0.178911 0.521209 0.795595
Si Si2 0.454002 0.584494 0.633490
Si Si3 0.224835 0.116427 0.315746
Si Si4 0.931930 0.252240 0.305393
Si Si5 0.217694 0.398338 0.379728
Si Si6 0.331590 0.768182 0.139457
Si Si7 0.870975 0.071511 0.750432
Si Si8 0.662164 0.809085 0.224642
O O1 0.359108 0.540345 0.877109
O O2 0.057984 0.630968 0.686747
O O3 0.823548 0.519606 0.466204
O O4 0.125681 0.447344 0.058032
O O5 0.500000 0.500000 0.500000
O O6 0.612415 0.625339 0.693696
O O7 0.323006 0.678392 0.416489
O O8 0.350857 0.122807 0.572292
O O9 0.076767 0.209503 0.198320
O O10 0.183016 0.001859 0.426365
O O11 0.295708 0.122656 0.049738
O O12 0.946282 0.166971 0.600126
O O13 0.766203 0.254970 0.117893
O O14 0.200110 0.287490 0.580955
O O15 0.270996 0.880914 0.146383
O O16 0.510969 0.765284 0.123661
O O17 0.000000 0.000000 0.000000
#
# Coordination Sequence:
#
# PCOD8018404 Si02
#       8
#     2   2   2   2   2   2   2   2
#     4  11  21  38  69 107 138 188 242 299 359 435
#     4   9  18  36  62 103 143 179 225 294 361 420
#     4  12  28  49  74 101 149 204 241 303 372 433
#     4  12  26  45  77 108 145 187 256 306 367 435
#     4  10  22  40  66 100 150 190 231 294 369 433
#     4  11  25  45  75 109 148 188 248 308 360 438
#     4  12  26  48  77 109 146 188 253 314 371 420
#     4  11  28  50  71 108 153 196 243 295 371 446
#
# _framework density 26.957315000000001
#
# number of rings (size 3 to 8) (size 9 to 14) (size 15 to 20)
#    0.000    1.000    2.500    3.750    3.500    3.000 
#    0.000    3.750    0.000    0.000    0.000    0.000 
#    0.000    0.000    0.000    0.000    0.000    0.000 
#
# Total GULP energy -198257.813208 kJ/mol
# GULP energy per Si atom -12391.113326 kJ/mol
# Density = 2.689596 g / cm^3
# Si number density = 26.957315 Si / 1000 Ang^3
#
#
#
# Elastic Constant Matrix: (Units=GPa)
#
#
# Indices 1 2 3 4 5 6 
#
# 1 51.0397 5.4091 30.1879 -11.2452 -2.2389 -0.9471
# 2 5.4091 152.6218 37.0634 -6.4787 -16.7943 -9.6944
# 3 30.1879 37.0634 146.7526 1.4108 -20.2931 3.9886
# 4 -11.2452 -6.4787 1.4108 44.2779 1.3628 -0.4995
# 5 -2.2389 -16.7943 -20.2931 1.3628 31.9377 -12.1805
# 6 -0.9471 -9.6944 3.9886 -0.4995 -12.1805 39.8754
#
#
#
# Elastic Compliance Matrix: (Units=1/GPa)
#
#
# Indices 1 2 3 4 5 6 
#
# 1 0.024088 0.000644 -0.005386 0.006434 -0.001308 0.000948
# 2 0.000644 0.007650 -0.001574 0.001239 0.004297 0.003361
# 3 -0.005386 -0.001574 0.008972 -0.002025 0.004567 -0.000038
# 4 0.006434 0.001239 -0.002025 0.024502 -0.000976 0.000665
# 5 -0.001308 0.004297 0.004567 -0.000976 0.041460 0.013209
# 6 0.000948 0.003361 -0.000038 0.000665 0.013209 0.029965
#
#
# Mechanical properties :
#
#
# Convention : Reuss Voigt Hill
#
# Bulk Modulus (GPa) = 35.61522 55.08164 45.34843
# Shear Modulus (GPa) = 31.52025 41.73514 36.62769
#
# Velocity S-wave (km/s) = 3.42316 3.93898 3.69009
# Velocity P-wave (km/s) = 5.37256 6.41597 5.91731
#
# Compressibility (1/GPa) = 0.02807788
#
# Stress axis : x y z
#
# Youngs Moduli (GPa) = 41.51462 130.71274 111.46213
#
# Poissons Ratio (x) = -0.08414 0.60035
# Poissons Ratio (y) = -0.02672 0.17540
# Poissons Ratio (z) = 0.22360 0.20569
#
# Static dielectric constant tensor:
#      x y z
#    x 6.251510 0.366040 0.000020 
#    y 0.366040 5.770400 -0.379650 
#    z 0.000020 -0.379650 4.681260 
# 
# 
# High freq. dielectric constant tensor:
#      x y z
#    x 2.103060 -0.001900 0.001060 
#    y -0.001900 2.090290 -0.015430 
#    z 0.001060 -0.015430 2.077930 
# 
# From -- ./inp_files/37533.got.cif
#   From: 2010.06.25/outbox.cif.g09.slc.cpg/sg2_19_cif.got.tgz:37533.got - 2010.06.27 13:26:56.
