data_PCOD8018049
_publ_section_title
;
Structure prediction by ZEFSAII (Michael W. Deem and Ramdas Pophale) SiO2 
 PCOD8018049
Probable space group: P -1
;
_chemical_formula_sum "Si O2"
_cell_formula_units_Z 16
_cell_length_a 9.115183
_cell_length_b 11.462364
_cell_length_c 14.306648
_cell_angle_alpha 69.533426
_cell_angle_beta 84.417878
_cell_angle_gamma 36.986629
_cell_volume 797.390679
_symmetry_space_group_name_H-M "P -1"
_symmetry_group_IT_number 2
_symmetry_cell_setting 'triclinic'
loop_
_space_group_symop_operation_xyz
x,y,z
-x,-y,-z
loop_
_atom_site_type_symbol
_atom_site_label
_atom_site_fract_x
_atom_site_fract_y
_atom_site_fract_z
Si Si1 0.312746 0.129426 0.342946
Si Si2 0.858169 0.571006 0.888730
Si Si3 0.999708 0.889190 0.648248
Si Si4 0.764036 0.893879 0.010943
Si Si5 0.134087 0.731123 0.887044
Si Si6 0.782333 0.302770 0.498844
Si Si7 0.421831 0.750820 0.960838
Si Si8 0.865840 0.714464 0.486051
O O1 0.165334 0.295837 0.217493
O O2 0.247031 0.028482 0.373322
O O3 0.215816 0.256878 0.410062
O O4 0.621854 0.922814 0.378568
O O5 0.564028 0.728168 0.875560
O O6 0.019839 0.348066 0.890638
O O7 0.000000 0.500000 0.000000
O O8 0.107333 0.807001 0.767107
O O9 0.218996 0.694846 0.614956
O O10 0.928330 0.080234 0.585691
O O11 0.738382 0.039990 0.027044
O O12 0.867049 0.859655 0.909963
O O13 0.500000 0.000000 0.000000
O O14 0.226436 0.779872 0.933150
O O15 0.344671 0.476091 0.933846
O O16 0.500000 0.500000 0.500000
O O17 0.930343 0.317040 0.527504
O O18 0.000000 0.500000 0.500000
#
# Coordination Sequence:
#
# PCOD8018049 Si02
#       8
#     2   2   2   2   2   2   2   2
#     4  10  22  40  65  89 125 167 212 260 317 378
#     4  11  22  40  62  94 128 169 212 264 321 376
#     4  10  22  40  64  86 122 165 208 253 312 372
#     4  11  22  38  63  91 129 164 212 264 308 380
#     4  10  23  41  62  89 125 171 208 257 315 377
#     4  10  22  42  63  93 125 156 206 260 318 379
#     4  10  22  40  61  89 129 164 210 259 313 370
#     4  10  22  42  65  94 125 161 209 266 321 378
#
# _framework density 20.065448
#
# number of rings (size 3 to 8) (size 9 to 14) (size 15 to 20)
#    0.000    1.750    1.250    2.625    1.750    3.000 
#    2.250    0.000    0.000    0.000    0.000    0.000 
#    0.000    0.000    0.000    0.000    0.000    0.000 
#
# Total GULP energy -198315.600250 kJ/mol
# GULP energy per Si atom -12394.725016 kJ/mol
# Density = 2.001978 g / cm^3
# Si number density = 20.065448 Si / 1000 Ang^3
#
#
#
# Elastic Constant Matrix: (Units=GPa)
#
#
# Indices 1 2 3 4 5 6 
#
# 1 111.0416 66.5351 38.1852 -1.9609 -13.2454 -2.2296
# 2 66.5351 147.6689 47.8012 -6.4172 1.6097 6.3896
# 3 38.1852 47.8012 112.7255 4.0751 -3.0131 -1.2995
# 4 -1.9609 -6.4172 4.0751 16.0937 -0.9624 -8.3843
# 5 -13.2454 1.6097 -3.0131 -0.9624 26.4475 -1.8201
# 6 -2.2296 6.3896 -1.2995 -8.3843 -1.8201 47.2258
#
#
#
# Elastic Compliance Matrix: (Units=1/GPa)
#
#
# Indices 1 2 3 4 5 6 
#
# 1 0.014160 -0.005777 -0.002179 0.001418 0.007379 0.001926
# 2 -0.005777 0.010499 -0.002730 0.003248 -0.003817 -0.001339
# 3 -0.002179 -0.002730 0.010921 -0.004200 0.000154 -0.000173
# 4 0.001418 0.003248 -0.004200 0.071284 0.003475 0.012301
# 5 0.007379 -0.003817 0.000154 0.003475 0.042097 0.003108
# 6 0.001926 -0.001339 -0.000173 0.012301 0.003108 0.023746
#
#
# Mechanical properties :
#
#
# Convention : Reuss Voigt Hill
#
# Bulk Modulus (GPa) = 70.38059 75.16435 72.77247
# Shear Modulus (GPa) = 25.14889 32.54771 28.84830
#
# Velocity S-wave (km/s) = 3.54410 4.03187 3.79583
# Velocity P-wave (km/s) = 7.20411 7.69516 7.45368
#
# Compressibility (1/GPa) = 0.01420846
#
# Stress axis : x y z
#
# Youngs Moduli (GPa) = 70.61919 95.24380 91.56779
#
# Poissons Ratio (x) = 0.55024 0.19951
# Poissons Ratio (y) = 0.40798 0.25000
# Poissons Ratio (z) = 0.15387 0.26003
#
# Static dielectric constant tensor:
#      x y z
#    x 3.819780 -0.047200 -0.171070 
#    y -0.047200 3.696970 0.082160 
#    z -0.171070 0.082160 3.569510 
# 
# 
# High freq. dielectric constant tensor:
#      x y z
#    x 1.803830 0.004850 -0.016160 
#    y 0.004850 1.790120 0.000770 
#    z -0.016160 0.000770 1.763090 
# 
# From -- ./inp_files/500165.got.cif
#   From: 2010.06.25/outbox.cif.g09.slc.cpg/sg2_251_cif.got.tgz:500165.got - 2010.06.27 13:26:56.
