data_PCOD8018274
_publ_section_title
;
Structure prediction by ZEFSAII (Michael W. Deem and Ramdas Pophale) SiO2 
 PCOD8018274
Probable space group: P -1
;
_chemical_formula_sum "Si O2"
_cell_formula_units_Z 16
_cell_length_a 7.643321
_cell_length_b 10.219925
_cell_length_c 16.367132
_cell_angle_alpha 61.748372
_cell_angle_beta 64.442833
_cell_angle_gamma 112.169868
_cell_volume 692.422242
_symmetry_space_group_name_H-M "P -1"
_symmetry_group_IT_number 2
_symmetry_cell_setting 'triclinic'
loop_
_space_group_symop_operation_xyz
x,y,z
-x,-y,-z
loop_
_atom_site_type_symbol
_atom_site_label
_atom_site_fract_x
_atom_site_fract_y
_atom_site_fract_z
Si Si1 0.603413 0.188438 0.365876
Si Si2 0.686566 0.956865 0.959014
Si Si3 0.719627 0.776340 0.295840
Si Si4 0.199145 0.069486 0.365301
Si Si5 0.092465 0.886697 0.958888
Si Si6 0.350060 0.303230 0.485957
Si Si7 0.593592 0.501163 0.070566
Si Si8 0.190624 0.597222 0.058982
O O1 0.509838 0.290380 0.393322
O O2 0.938827 0.379869 0.225967
O O3 0.500000 0.000000 0.500000
O O4 0.445372 0.093577 0.337638
O O5 0.467417 0.721685 0.025974
O O6 0.966787 0.128415 0.794449
O O7 0.500000 0.000000 0.000000
O O8 0.840564 0.989098 0.004434
O O9 0.490640 0.540227 0.370738
O O10 0.605191 0.740604 0.420441
O O11 0.707725 0.925264 0.205182
O O12 0.991440 0.872166 0.401783
O O13 0.323318 0.291624 0.237280
O O14 0.000000 0.000000 0.500000
O O15 0.162037 0.755573 0.002262
O O16 0.776285 0.714556 0.030223
O O17 0.500000 0.500000 0.000000
O O18 0.785331 0.465125 0.016727
#
# Coordination Sequence:
#
# PCOD8018274 Si02
#       8
#     2   2   2   2   2   2   2   2
#     4  11  25  42  68  95 137 180 224 284 348 406
#     4  10  22  40  64  94 133 173 222 279 340 402
#     4  11  23  41  69  94 132 182 221 284 337 418
#     4  10  23  41  65  93 133 177 224 277 331 412
#     4  11  23  40  66  98 133 171 226 283 344 401
#     4  10  23  44  63  95 137 175 229 271 343 413
#     4  12  25  41  70 102 137 178 233 289 348 404
#     4  11  24  43  66  99 138 174 226 295 340 405
#
# _framework density 23.107286999999999
#
# number of rings (size 3 to 8) (size 9 to 14) (size 15 to 20)
#    0.000    1.250    1.250    4.500    7.000    1.000 
#    0.000    0.000    0.000    9.000    0.000    0.000 
#    0.000    0.000    0.000    0.000    0.000    0.000 
#
# Total GULP energy -198210.731155 kJ/mol
# GULP energy per Si atom -12388.170697 kJ/mol
# Density = 2.305469 g / cm^3
# Si number density = 23.107287 Si / 1000 Ang^3
#
#
#
# Elastic Constant Matrix: (Units=GPa)
#
#
# Indices 1 2 3 4 5 6 
#
# 1 76.7334 22.3841 28.7679 -8.7221 12.2233 33.7013
# 2 22.3841 133.9316 49.2729 -24.6151 -9.4795 30.7780
# 3 28.7679 49.2729 171.5373 -28.9711 15.3383 9.6063
# 4 -8.7221 -24.6151 -28.9711 43.0062 -5.7010 -12.3828
# 5 12.2233 -9.4795 15.3383 -5.7010 37.0807 -2.4557
# 6 33.7013 30.7780 9.6063 -12.3828 -2.4557 27.6678
#
#
#
# Elastic Compliance Matrix: (Units=1/GPa)
#
#
# Indices 1 2 3 4 5 6 
#
# 1 0.042653 0.006382 -0.006050 -0.012292 -0.016046 -0.063878
# 2 0.006382 0.012519 -0.003584 0.000416 0.001309 -0.020153
# 3 -0.006050 -0.003584 0.008231 0.005265 -0.000803 0.010784
# 4 -0.012292 0.000416 0.005265 0.034021 0.009113 0.028717
# 5 -0.016046 0.001309 -0.000803 0.009113 0.036024 0.025644
# 6 -0.063878 -0.020153 0.010784 0.028717 0.025644 0.147753
#
#
# Mechanical properties :
#
#
# Convention : Reuss Voigt Hill
#
# Bulk Modulus (GPa) = 17.57567 64.78354 41.17961
# Shear Modulus (GPa) = 16.30407 40.33612 28.32010
#
# Velocity S-wave (km/s) = 2.65916 4.18257 3.50464
# Velocity P-wave (km/s) = 4.12926 7.17092 5.85119
#
# Compressibility (1/GPa) = 0.05689684
#
# Stress axis : x y z
#
# Youngs Moduli (GPa) = 23.44508 79.87971 121.49252
#
# Poissons Ratio (x) = -0.50978 0.73506
# Poissons Ratio (y) = -0.14962 0.43548
# Poissons Ratio (z) = 0.14185 0.28632
#
# Static dielectric constant tensor:
#      x y z
#    x 4.401890 0.837320 0.034320 
#    y 0.837320 5.452440 -0.181960 
#    z 0.034320 -0.181960 3.961950 
# 
# 
# High freq. dielectric constant tensor:
#      x y z
#    x 1.915310 0.016440 0.004410 
#    y 0.016440 1.936830 -0.001900 
#    z 0.004410 -0.001900 1.914770 
# 
# From -- ./inp_files/500156.got.cif
#   From: 2010.06.25/outbox.cif.g09.slc.cpg/sg2_251_cif.got.tgz:500156.got - 2010.06.27 13:26:56.
