data_PCOD8018356
_publ_section_title
;
Structure prediction by ZEFSAII (Michael W. Deem and Ramdas Pophale) SiO2 
 PCOD8018356
Probable space group: P -1
;
_chemical_formula_sum "Si O2"
_cell_formula_units_Z 14
_cell_length_a 11.076179
_cell_length_b 12.160771
_cell_length_c 6.080968
_cell_angle_alpha 51.204977
_cell_angle_beta 82.584673
_cell_angle_gamma 68.066763
_cell_volume 585.900345
_symmetry_space_group_name_H-M "P -1"
_symmetry_group_IT_number 2
_symmetry_cell_setting 'triclinic'
loop_
_space_group_symop_operation_xyz
x,y,z
-x,-y,-z
loop_
_atom_site_type_symbol
_atom_site_label
_atom_site_fract_x
_atom_site_fract_y
_atom_site_fract_z
Si Si1 0.906472 0.435012 0.730510
Si Si2 0.369085 0.724462 0.922481
Si Si3 0.633266 0.533535 0.453702
Si Si4 0.495795 0.818127 0.390521
Si Si5 0.012115 0.159423 0.784311
Si Si6 0.194948 0.624847 0.772925
Si Si7 0.310684 0.017397 0.856222
O O1 0.763915 0.520082 0.561997
O O2 0.000000 0.500000 0.500000
O O3 0.963704 0.252816 0.903255
O O4 0.886708 0.461279 0.966573
O O5 0.479487 0.720683 0.723898
O O6 0.247871 0.707214 0.845422
O O7 0.315112 0.886889 0.848344
O O8 0.428449 0.584631 0.267362
O O9 0.542999 0.710148 0.298242
O O10 0.677668 0.489126 0.246014
O O11 0.595338 0.895927 0.348596
O O12 0.357463 0.946681 0.178601
O O13 0.162453 0.140346 0.734939
O O14 0.911402 0.252989 0.504653
O O15 0.000000 0.000000 0.000000
#
# Coordination Sequence:
#
# PCOD8018356 Si02
#       7
#     2   2   2   2   2   2   2
#     4  10  22  41  64  94 127 164 211 262 319 379
#     4  11  22  41  65  93 126 166 215 263 314 376
#     4  10  22  40  65  94 124 165 216 261 314 377
#     4  11  24  43  63  91 131 170 211 264 315 370
#     4  11  22  40  64  95 130 167 212 258 314 384
#     4  10  23  41  68  97 128 164 209 269 320 370
#     4  11  25  41  62  94 130 169 213 257 316 383
#
# _framework density 23.894846999999999
#
# number of rings (size 3 to 8) (size 9 to 14) (size 15 to 20)
#    0.000    1.429    0.000    6.000    0.000   10.286 
#    0.000    4.286    0.000    0.000    0.000    0.000 
#    0.000    0.000    0.000    0.000    0.000    0.000 
#
# Total GULP energy -173505.397950 kJ/mol
# GULP energy per Si atom -12393.242711 kJ/mol
# Density = 2.384046 g / cm^3
# Si number density = 23.894847 Si / 1000 Ang^3
#
#
#
# Elastic Constant Matrix: (Units=GPa)
#
#
# Indices 1 2 3 4 5 6 
#
# 1 76.9868 27.0675 31.2103 3.8818 -14.1965 -6.1351
# 2 27.0675 84.1019 50.4400 14.5038 0.5351 -6.0310
# 3 31.2103 50.4400 132.5122 18.7696 -36.3708 -12.4460
# 4 3.8818 14.5038 18.7696 36.4815 -9.5009 -4.1356
# 5 -14.1965 0.5351 -36.3708 -9.5009 41.5899 -2.0069
# 6 -6.1351 -6.0310 -12.4460 -4.1356 -2.0069 35.8357
#
#
#
# Elastic Compliance Matrix: (Units=1/GPa)
#
#
# Indices 1 2 3 4 5 6 
#
# 1 0.016141 -0.005335 -0.000223 0.002363 0.006039 0.002399
# 2 -0.005335 0.019746 -0.008636 -0.005939 -0.011076 -0.001895
# 3 -0.000223 -0.008636 0.014992 -0.000293 0.013292 0.004426
# 4 0.002363 -0.005939 -0.000293 0.032187 0.008148 0.003474
# 5 0.006039 -0.011076 0.013292 0.008148 0.040070 0.006971
# 6 0.002399 -0.001895 0.004426 0.003474 0.006971 0.030325
#
#
# Mechanical properties :
#
#
# Convention : Reuss Voigt Hill
#
# Bulk Modulus (GPa) = 44.46409 56.78184 50.62297
# Shear Modulus (GPa) = 26.40667 35.10696 30.75682
#
# Velocity S-wave (km/s) = 3.32794 3.83721 3.59161
# Velocity P-wave (km/s) = 5.78062 6.59144 6.19930
#
# Compressibility (1/GPa) = 0.02249006
#
# Stress axis : x y z
#
# Youngs Moduli (GPa) = 61.95427 50.64366 66.70318
#
# Poissons Ratio (x) = 0.27019 0.01485
# Poissons Ratio (y) = 0.33054 0.57608
# Poissons Ratio (z) = 0.01379 0.43738
#
# Static dielectric constant tensor:
#      x y z
#    x 5.002960 -0.222370 -0.632640 
#    y -0.222370 5.099430 0.470510 
#    z -0.632640 0.470510 5.441030 
# 
# 
# High freq. dielectric constant tensor:
#      x y z
#    x 1.975400 0.001490 0.000800 
#    y 0.001490 1.951040 0.003230 
#    z 0.000800 0.003230 1.943810 
# 
# From -- ./inp_files/67452.got.cif
#   From: 2010.06.25/outbox.cif.g09.slc.cpg/sg2_34_cif.got.tgz:67452.got - 2010.06.27 13:26:56.
