data_PCOD8018865
_publ_section_title
;
Structure prediction by ZEFSAII (Michael W. Deem and Ramdas Pophale) SiO2 
 PCOD8018865
Probable space group: P -1
;
_chemical_formula_sum "Si O2"
_cell_formula_units_Z 16
_cell_length_a 9.371724
_cell_length_b 11.919366
_cell_length_c 16.143747
_cell_angle_alpha 126.718629
_cell_angle_beta 123.220054
_cell_angle_gamma 35.865802
_cell_volume 839.178162
_symmetry_space_group_name_H-M "P -1"
_symmetry_group_IT_number 2
_symmetry_cell_setting 'triclinic'
loop_
_space_group_symop_operation_xyz
x,y,z
-x,-y,-z
loop_
_atom_site_type_symbol
_atom_site_label
_atom_site_fract_x
_atom_site_fract_y
_atom_site_fract_z
Si Si1 0.674323 0.279217 0.360254
Si Si2 0.324480 0.554575 0.116009
Si Si3 0.813048 0.592517 0.287673
Si Si4 0.818183 0.304874 0.247266
Si Si5 0.315141 0.852047 0.177975
Si Si6 0.923077 0.842028 0.247071
Si Si7 0.868185 0.341605 0.594647
Si Si8 0.287578 0.327811 0.889910
O O1 0.724983 0.355951 0.334801
O O2 0.821858 0.246912 0.472444
O O3 0.385757 0.439713 0.358689
O O4 0.767102 0.070108 0.273069
O O5 0.608147 0.367803 0.148707
O O6 0.297191 0.694280 0.102214
O O7 0.174926 0.686258 0.207923
O O8 0.224168 0.470312 0.007322
O O9 0.894703 0.416139 0.293890
O O10 0.513785 0.785257 0.282556
O O11 0.874936 0.534894 0.183102
O O12 0.961893 0.640408 0.386958
O O13 0.054112 0.069611 0.209123
O O14 0.422296 0.832458 0.113230
O O15 0.764122 0.799521 0.154319
O O16 0.983375 0.813646 0.350841
#
# Coordination Sequence:
#
# PCOD8018865 Si02
#       8
#     2   2   2   2   2   2   2   2
#     4  11  23  38  61  87 109 149 190 234 284 341
#     4  11  20  38  58  84 118 152 186 230 279 330
#     4   8  21  38  58  81 115 147 184 236 277 328
#     4  11  21  36  59  84 117 147 187 235 280 328
#     4   9  20  37  55  83 115 150 189 224 277 333
#     4  11  21  40  60  82 118 147 188 236 281 329
#     4  10  22  41  61  83 111 147 192 233 288 332
#     4   9  21  38  58  84 115 153 188 227 276 336
#
# _framework density 19.066274
#
# number of rings (size 3 to 8) (size 9 to 14) (size 15 to 20)
#    0.750    1.250    2.500    1.125    1.750    1.000 
#    0.000    1.250    0.000    0.000    0.000    0.000 
#    0.000    0.000    0.000    0.000    0.000    0.000 
#
# Total GULP energy -198334.433142 kJ/mol
# GULP energy per Si atom -12395.902071 kJ/mol
# Density = 1.902288 g / cm^3
# Si number density = 19.066274 Si / 1000 Ang^3
#
#
#
# Elastic Constant Matrix: (Units=GPa)
#
#
# Indices 1 2 3 4 5 6 
#
# 1 92.3484 29.9217 33.6450 9.1347 16.6612 7.5307
# 2 29.9217 88.5582 28.5544 13.1047 6.5139 -1.9217
# 3 33.6450 28.5544 56.7971 11.0933 10.8906 -1.2932
# 4 9.1347 13.1047 11.0933 19.7233 1.4363 -3.6138
# 5 16.6612 6.5139 10.8906 1.4363 25.7544 1.0076
# 6 7.5307 -1.9217 -1.2932 -3.6138 1.0076 25.6114
#
#
#
# Elastic Compliance Matrix: (Units=1/GPa)
#
#
# Indices 1 2 3 4 5 6 
#
# 1 0.015878 -0.002528 -0.006513 -0.002503 -0.006532 -0.005283
# 2 -0.002528 0.014507 -0.004713 -0.005692 0.000247 0.000781
# 3 -0.006513 -0.004713 0.026480 -0.007986 -0.005424 0.001985
# 4 -0.002503 -0.005692 -0.007986 0.061492 0.002675 0.008477
# 5 -0.006532 0.000247 -0.005424 0.002675 0.045125 0.000267
# 6 -0.005283 0.000781 0.001985 0.008477 0.000267 0.041943
#
#
# Mechanical properties :
#
#
# Convention : Reuss Voigt Hill
#
# Bulk Modulus (GPa) = 34.06712 46.88288 40.47500
# Shear Modulus (GPa) = 20.59987 23.92334 22.26160
#
# Velocity S-wave (km/s) = 3.29056 3.54608 3.42071
# Velocity P-wave (km/s) = 5.68714 6.43499 6.07259
#
# Compressibility (1/GPa) = 0.02935382
#
# Stress axis : x y z
#
# Youngs Moduli (GPa) = 62.98194 68.93149 37.76505
#
# Poissons Ratio (x) = 0.17429 0.24598
# Poissons Ratio (y) = 0.15924 0.17800
# Poissons Ratio (z) = 0.41023 0.32490
#
# Static dielectric constant tensor:
#      x y z
#    x 3.664430 0.016320 0.042090 
#    y 0.016320 3.285690 -0.077220 
#    z 0.042090 -0.077220 3.186540 
# 
# 
# High freq. dielectric constant tensor:
#      x y z
#    x 1.757860 0.000240 0.006430 
#    y 0.000240 1.727190 -0.003050 
#    z 0.006430 -0.003050 1.718360 
# 
# From -- ./inp_files/410834.got.cif
#   From: 2010.06.25/outbox.cif.g09.slc.cpg/sg2_206_cif.got.tgz:410834.got - 2010.06.27 13:26:56.
