data_PCOD8018726
_publ_section_title
;
Structure prediction by ZEFSAII (Michael W. Deem and Ramdas Pophale) SiO2 
 PCOD8018726
Probable space group: P -1
;
_chemical_formula_sum "Si O2"
_cell_formula_units_Z 16
_cell_length_a 5.467662
_cell_length_b 23.002366
_cell_length_c 20.076466
_cell_angle_alpha 161.913796
_cell_angle_beta 107.393785
_cell_angle_gamma 70.948569
_cell_volume 740.389286
_symmetry_space_group_name_H-M "P -1"
_symmetry_group_IT_number 2
_symmetry_cell_setting 'triclinic'
loop_
_space_group_symop_operation_xyz
x,y,z
-x,-y,-z
loop_
_atom_site_type_symbol
_atom_site_label
_atom_site_fract_x
_atom_site_fract_y
_atom_site_fract_z
Si Si1 0.008118 0.870418 0.624543
Si Si2 0.522696 0.724224 0.563513
Si Si3 0.648309 0.118651 0.955211
Si Si4 0.472590 0.617356 0.058949
Si Si5 0.293164 0.520554 0.565082
Si Si6 0.094404 0.175234 0.733724
Si Si7 0.740665 0.529256 0.239361
Si Si8 0.821709 0.828985 0.118710
O O1 0.824783 0.720877 0.424152
O O2 0.215051 0.747639 0.555630
O O3 0.884428 0.055381 0.856311
O O4 0.113544 0.962059 0.667433
O O5 0.607391 0.645957 0.557063
O O6 0.640524 0.573347 0.353552
O O7 0.600762 0.932379 0.788650
O O8 0.412011 0.213591 0.993444
O O9 0.718164 0.271422 0.179105
O O10 0.712498 0.739200 0.209003
O O11 0.174973 0.709605 0.138937
O O12 0.500000 0.500000 0.000000
O O13 0.490609 0.504296 0.866872
O O14 0.500000 0.500000 0.500000
O O15 0.000000 0.500000 0.500000
O O16 0.261899 0.138005 0.774775
O O17 0.000000 0.000000 0.500000
O O18 0.955665 0.346975 0.064277
#
# Coordination Sequence:
#
# PCOD8018726 Si02
#       8
#     2   2   2   2   2   2   2   2
#     4  10  22  40  70 101 130 182 222 302 333 412
#     4  10  24  44  70 100 137 175 234 283 340 420
#     4  10  24  44  70 100 137 175 234 283 340 420
#     4  11  26  44  68 100 141 187 232 289 353 414
#     4  12  30  46  72 101 138 186 222 286 353 408
#     4  11  26  44  68 100 141 187 232 289 353 414
#     4  10  23  40  71  99 135 180 236 286 348 404
#     4  10  23  40  71  99 135 180 236 286 348 404
#
# _framework density 21.610256
#
# number of rings (size 3 to 8) (size 9 to 14) (size 15 to 20)
#    0.000    1.500    0.000    2.250   19.250    4.000 
#    0.000    0.000    0.000    0.000    0.000    0.000 
#    0.000    0.000    0.000    0.000    0.000    0.000 
#
# Total GULP energy -198265.370055 kJ/mol
# GULP energy per Si atom -12391.585628 kJ/mol
# Density = 2.156107 g / cm^3
# Si number density = 21.610256 Si / 1000 Ang^3
#
#
#
# Elastic Constant Matrix: (Units=GPa)
#
#
# Indices 1 2 3 4 5 6 
#
# 1 129.9728 57.0331 41.1806 -2.1559 13.6338 -0.4733
# 2 57.0331 150.3707 78.3158 -7.6292 2.9647 8.7687
# 3 41.1806 78.3158 120.1771 -8.7322 14.2130 -14.7386
# 4 -2.1559 -7.6292 -8.7322 27.0567 -7.9767 5.9807
# 5 13.6338 2.9647 14.2130 -7.9767 25.5312 14.9132
# 6 -0.4733 8.7687 -14.7386 5.9807 14.9132 23.0927
#
#
#
# Elastic Compliance Matrix: (Units=1/GPa)
#
#
# Indices 1 2 3 4 5 6 
#
# 1 0.002052 0.017070 -0.025677 0.030771 0.062331 -0.071050
# 2 0.017070 -0.041743 0.058178 -0.082768 -0.170506 0.184880
# 3 -0.025677 0.058178 -0.065449 0.104352 0.207761 -0.225586
# 4 0.030771 -0.082768 0.104352 -0.094260 -0.266949 0.295467
# 5 0.062331 -0.170506 0.207761 -0.266949 -0.529530 0.609727
# 6 -0.071050 0.184880 -0.225586 0.295467 0.609727 -0.642614
#
#
# Mechanical properties :
#
#
# Convention : Reuss Voigt Hill
#
# Bulk Modulus (GPa) = -166.77636 83.73105 -41.52265
# Shear Modulus (GPa) = -3.39516 30.06887 13.33686
#
# Velocity S-wave (km/s) = -1.25479 3.73422 2.48695
# Velocity P-wave (km/s) = 8.91300 7.57777 3.31805
#
# Compressibility (1/GPa) = -0.00599605
#
# Stress axis : x y z
#
# Youngs Moduli (GPa) = 487.28265 -23.95608 -15.27916
#
# Poissons Ratio (x) = 0.40893 -0.39232
# Poissons Ratio (y) = -8.31787 0.88892
# Poissons Ratio (z) = 12.51176 1.39373
#
# Static dielectric constant tensor:
#      x y z
#    x 4.895330 0.294790 0.405160 
#    y 0.294790 4.267580 -0.077820 
#    z 0.405160 -0.077820 4.130220 
# 
# 
# High freq. dielectric constant tensor:
#      x y z
#    x 1.857420 0.001050 0.004490 
#    y 0.001050 1.854110 0.005650 
#    z 0.004490 0.005650 1.856240 
# 
# From -- ./inp_files/112481.got.cif
#   From: 2010.06.25/outbox.cif.g09.slc.cpg/sg2_57_cif.got.tgz:112481.got - 2010.06.27 13:26:56.
