data_PCOD8018437
_publ_section_title
;
Structure prediction by ZEFSAII (Michael W. Deem and Ramdas Pophale) SiO2 
 PCOD8018437
Probable space group: P -1
;
_chemical_formula_sum "Si O2"
_cell_formula_units_Z 14
_cell_length_a 15.717119
_cell_length_b 8.671779
_cell_length_c 6.842412
_cell_angle_alpha 73.929040
_cell_angle_beta 51.536738
_cell_angle_gamma 61.246916
_cell_volume 639.847598
_symmetry_space_group_name_H-M "P -1"
_symmetry_group_IT_number 2
_symmetry_cell_setting 'triclinic'
loop_
_space_group_symop_operation_xyz
x,y,z
-x,-y,-z
loop_
_atom_site_type_symbol
_atom_site_label
_atom_site_fract_x
_atom_site_fract_y
_atom_site_fract_z
Si Si1 0.543246 0.776459 0.229782
Si Si2 0.046496 0.651943 0.892909
Si Si3 0.901335 0.457329 0.540049
Si Si4 0.343321 0.963420 0.147308
Si Si5 0.178626 0.174111 0.630203
Si Si6 0.251913 0.596634 0.895663
Si Si7 0.338155 0.885372 0.758039
O O1 0.446648 0.819643 0.178749
O O2 0.624767 0.571066 0.195682
O O3 0.475281 0.827084 0.517352
O O4 0.622810 0.883230 0.039622
O O5 0.046872 0.697129 0.645415
O O6 0.179813 0.586915 0.809139
O O7 0.000000 0.500000 0.000000
O O8 0.953115 0.803299 0.114382
O O9 0.815610 0.639810 0.492387
O O10 0.000000 0.500000 0.500000
O O11 0.830249 0.385643 0.807763
O O12 0.221985 0.050422 0.418297
O O13 0.324451 0.866765 0.016390
O O14 0.268089 0.085757 0.712641
O O15 0.281159 0.765880 0.775283
#
# Coordination Sequence:
#
# PCOD8018437 Si02
#       7
#     2   2   2   2   2   2   2
#     4  10  23  42  65  93 130 170 224 257 309 394
#     4  10  23  40  67  96 126 167 213 265 313 384
#     4  11  22  40  65  97 121 169 220 255 310 385
#     4  10  22  42  67  95 128 172 216 263 317 375
#     4  10  22  40  66  92 131 165 212 262 312 393
#     4  12  24  42  67  97 131 169 214 266 323 373
#     4  11  26  40  65  99 133 168 208 271 329 366
#
# _framework density 21.880209000000001
#
# number of rings (size 3 to 8) (size 9 to 14) (size 15 to 20)
#    0.000    1.429    4.286    0.857    6.000    4.571 
#    0.000    1.429    0.000    0.000    0.000    0.000 
#    0.000    0.000    0.000    0.000    0.000    0.000 
#
# Total GULP energy -173506.876936 kJ/mol
# GULP energy per Si atom -12393.348353 kJ/mol
# Density = 2.183041 g / cm^3
# Si number density = 21.880209 Si / 1000 Ang^3
#
#
#
# Elastic Constant Matrix: (Units=GPa)
#
#
# Indices 1 2 3 4 5 6 
#
# 1 99.2699 41.7706 49.8703 15.0387 13.2253 -4.0917
# 2 41.7706 58.7044 29.8523 5.4269 -5.8557 -5.1345
# 3 49.8703 29.8523 164.5303 24.2650 13.9028 -15.0527
# 4 15.0387 5.4269 24.2650 26.8596 0.7308 -3.2626
# 5 13.2253 -5.8557 13.9028 0.7308 35.9141 4.7437
# 6 -4.0917 -5.1345 -15.0527 -3.2626 4.7437 23.2327
#
#
#
# Elastic Compliance Matrix: (Units=1/GPa)
#
#
# Indices 1 2 3 4 5 6 
#
# 1 0.017982 -0.012156 -0.001707 -0.005838 -0.007845 0.000157
# 2 -0.012156 0.027747 -0.002610 0.003383 0.009841 0.000766
# 3 -0.001707 -0.002610 0.008638 -0.005654 -0.003642 0.004669
# 4 -0.005838 0.003383 -0.005654 0.045017 0.003761 0.001610
# 5 -0.007845 0.009841 -0.003642 0.003761 0.034746 -0.008133
# 6 0.000157 0.000766 0.004669 0.001610 -0.008133 0.048151
#
#
# Mechanical properties :
#
#
# Convention : Reuss Voigt Hill
#
# Bulk Modulus (GPa) = 46.68414 62.83232 54.75823
# Shear Modulus (GPa) = 22.48533 30.60203 26.54368
#
# Velocity S-wave (km/s) = 3.20919 3.74387 3.48679
# Velocity P-wave (km/s) = 5.92574 6.88967 6.42581
#
# Compressibility (1/GPa) = 0.02142055
#
# Stress axis : x y z
#
# Youngs Moduli (GPa) = 55.61111 36.03939 115.77286
#
# Poissons Ratio (x) = 0.43810 0.19758
# Poissons Ratio (y) = 0.67602 0.30221
# Poissons Ratio (z) = 0.09491 0.09407
#
# Static dielectric constant tensor:
#      x y z
#    x 3.882450 -0.190190 0.050300 
#    y -0.190190 3.755720 0.225100 
#    z 0.050300 0.225100 4.996990 
# 
# 
# High freq. dielectric constant tensor:
#      x y z
#    x 1.844140 -0.019370 0.003640 
#    y -0.019370 1.833330 0.002090 
#    z 0.003640 0.002090 1.887640 
# 
# From -- ./inp_files/90256.got.cif
#   From: 2010.06.25/outbox.cif.g09.slc.cpg/sg2_46_cif.got.tgz:90256.got - 2010.06.27 13:26:56.
