data_PCOD8018769
_publ_section_title
;
Structure prediction by ZEFSAII (Michael W. Deem and Ramdas Pophale) SiO2 
 PCOD8018769
Probable space group: P -1
;
_chemical_formula_sum "Si O2"
_cell_formula_units_Z 16
_cell_length_a 14.924570
_cell_length_b 9.596213
_cell_length_c 11.540210
_cell_angle_alpha 129.759752
_cell_angle_beta 105.337632
_cell_angle_gamma 114.610421
_cell_volume 751.349741
_symmetry_space_group_name_H-M "P -1"
_symmetry_group_IT_number 2
_symmetry_cell_setting 'triclinic'
loop_
_space_group_symop_operation_xyz
x,y,z
-x,-y,-z
loop_
_atom_site_type_symbol
_atom_site_label
_atom_site_fract_x
_atom_site_fract_y
_atom_site_fract_z
Si Si1 0.377640 0.196699 0.365073
Si Si2 0.080319 0.839435 0.952234
Si Si3 0.868415 0.759864 0.970503
Si Si4 0.453021 0.238858 0.900188
Si Si5 0.863845 0.182949 0.478798
Si Si6 0.550541 0.113984 0.449892
Si Si7 0.286311 0.266924 0.598638
Si Si8 0.992523 0.940570 0.599852
O O1 0.500000 0.500000 0.500000
O O2 0.442036 0.094501 0.344362
O O3 0.342566 0.225392 0.493636
O O4 0.223733 0.950943 0.108724
O O5 0.020728 0.892210 0.053610
O O6 0.946043 0.493481 0.702113
O O7 0.123930 0.017181 0.945945
O O8 0.723502 0.446855 0.694345
O O9 0.874097 0.765064 0.116913
O O10 0.277260 0.985102 0.743570
O O11 0.467639 0.097085 0.740281
O O12 0.500000 0.500000 0.000000
O O13 0.568007 0.392125 0.127747
O O14 0.982752 0.237746 0.481250
O O15 0.794507 0.983174 0.465072
O O16 0.500000 0.000000 0.500000
O O17 0.168652 0.240762 0.501728
O O18 0.000000 0.000000 0.500000
#
# Coordination Sequence:
#
# PCOD8018769 Si02
#       8
#     2   2   2   2   2   2   2   2
#     4  12  26  46  70 102 146 184 236 292 363 415
#     4  11  24  45  69  97 141 184 238 290 348 417
#     4  11  24  45  70  96 140 187 233 294 346 420
#     4  10  22  42  64  99 140 174 226 289 344 408
#     4  10  22  40  70  99 130 182 231 278 347 414
#     4  12  26  41  73 106 134 188 239 285 353 422
#     4  10  23  43  64 100 140 177 222 296 344 413
#     4  10  23  41  67 100 138 176 225 285 354 408
#
# _framework density 21.295010999999999
#
# number of rings (size 3 to 8) (size 9 to 14) (size 15 to 20)
#    0.000    1.250    3.750    1.500    8.750    2.000 
#    0.000    0.625    0.000    0.000    0.000    0.000 
#    0.000    0.000    0.000    0.000    0.000    0.000 
#
# Total GULP energy -198290.151587 kJ/mol
# GULP energy per Si atom -12393.134474 kJ/mol
# Density = 2.124654 g / cm^3
# Si number density = 21.295011 Si / 1000 Ang^3
#
#
#
# Elastic Constant Matrix: (Units=GPa)
#
#
# Indices 1 2 3 4 5 6 
#
# 1 143.9833 34.7494 61.0169 -5.3010 3.5683 -26.0024
# 2 34.7494 64.0699 43.9901 6.8912 -1.3148 -11.0031
# 3 61.0169 43.9901 170.2834 -4.6185 6.7318 -16.7637
# 4 -5.3010 6.8912 -4.6185 30.8832 0.0354 1.2556
# 5 3.5683 -1.3148 6.7318 0.0354 43.7824 -3.7271
# 6 -26.0024 -11.0031 -16.7637 1.2556 -3.7271 30.1794
#
#
#
# Elastic Compliance Matrix: (Units=1/GPa)
#
#
# Indices 1 2 3 4 5 6 
#
# 1 0.009699 -0.003006 -0.002054 0.001783 -0.000052 0.006039
# 2 -0.003006 0.021518 -0.004396 -0.006111 0.001853 0.003297
# 3 -0.002054 -0.004396 0.007917 0.001781 -0.001114 0.000813
# 4 0.001783 -0.006111 0.001781 0.034367 -0.000735 -0.001223
# 5 -0.000052 0.001853 -0.001114 -0.000735 0.023321 0.002922
# 6 0.006039 0.003297 0.000813 -0.001223 0.002922 0.040404
#
#
# Mechanical properties :
#
#
# Convention : Reuss Voigt Hill
#
# Bulk Modulus (GPa) = 49.45230 73.09439 61.27334
# Shear Modulus (GPa) = 30.69813 36.87437 33.78625
#
# Velocity S-wave (km/s) = 3.80091 4.16576 3.98751
# Velocity P-wave (km/s) = 6.52192 7.58533 7.07364
#
# Compressibility (1/GPa) = 0.02022151
#
# Stress axis : x y z
#
# Youngs Moduli (GPa) = 103.10815 46.47258 126.31652
#
# Poissons Ratio (x) = 0.13969 0.25943
# Poissons Ratio (y) = 0.30992 0.55532
# Poissons Ratio (z) = 0.21177 0.20431
#
# Static dielectric constant tensor:
#      x y z
#    x 4.398670 -0.187980 0.414580 
#    y -0.187980 3.777000 -0.234000 
#    z 0.414580 -0.234000 4.044960 
# 
# 
# High freq. dielectric constant tensor:
#      x y z
#    x 1.859580 -0.008900 0.009040 
#    y -0.008900 1.806140 -0.012400 
#    z 0.009040 -0.012400 1.846560 
# 
# From -- ./inp_files/448222.got.cif
#   From: 2010.06.25/outbox.cif.g09.slc.cpg/sg2_225_cif.got.tgz:448222.got - 2010.06.27 13:26:56.
