data_PCOD8018746
_publ_section_title
;
Structure prediction by ZEFSAII (Michael W. Deem and Ramdas Pophale) SiO2 
 PCOD8018746
Probable space group: P -1
;
_chemical_formula_sum "Si O2"
_cell_formula_units_Z 16
_cell_length_a 15.219480
_cell_length_b 17.040453
_cell_length_c 5.188126
_cell_angle_alpha 97.962816
_cell_angle_beta 117.181030
_cell_angle_gamma 40.780636
_cell_volume 730.309898
_symmetry_space_group_name_H-M "P -1"
_symmetry_group_IT_number 2
_symmetry_cell_setting 'triclinic'
loop_
_space_group_symop_operation_xyz
x,y,z
-x,-y,-z
loop_
_atom_site_type_symbol
_atom_site_label
_atom_site_fract_x
_atom_site_fract_y
_atom_site_fract_z
Si Si1 0.796944 0.547740 0.695789
Si Si2 0.527458 0.817551 0.297368
Si Si3 0.319784 0.957201 0.569146
Si Si4 0.887612 0.617594 0.212435
Si Si5 0.898034 0.045604 0.634592
Si Si6 0.341360 0.118919 0.686942
Si Si7 0.601154 0.523424 0.375279
Si Si8 0.398395 0.652921 0.668711
O O1 0.673416 0.663256 0.372806
O O2 0.743633 0.491126 0.643991
O O3 0.986359 0.423449 0.838003
O O4 0.770547 0.625766 0.933459
O O5 0.415799 0.862067 0.407000
O O6 0.607039 0.855281 0.468951
O O7 0.429596 0.882119 0.932555
O O8 0.158312 0.009992 0.434239
O O9 0.267710 0.080841 0.485362
O O10 0.787926 0.752270 0.257843
O O11 0.000000 0.500000 0.500000
O O12 0.741531 0.196417 0.462577
O O13 0.000000 0.000000 0.500000
O O14 0.000000 0.000000 0.000000
O O15 0.500000 0.000000 0.000000
O O16 0.469110 0.607340 0.457611
O O17 0.670645 0.390731 0.374993
O O18 0.524291 0.599537 0.034590
#
# Coordination Sequence:
#
# PCOD8018746 Si02
#       8
#     2   2   2   2   2   2   2   2
#     4  11  23  38  65  91 128 175 207 258 336 376
#     4  11  21  40  67  94 125 162 218 270 315 382
#     4  11  24  41  66  96 121 170 222 262 319 386
#     4  11  24  42  56  94 134 165 212 263 314 385
#     4  12  25  43  64  92 134 173 210 268 328 388
#     4  10  22  42  66  91 129 170 214 264 313 380
#     4  10  22  40  70  94 123 167 214 276 319 384
#     4  10  22  43  64  99 127 157 224 272 322 379
#
# _framework density 21.908508999999999
#
# number of rings (size 3 to 8) (size 9 to 14) (size 15 to 20)
#    0.000    1.250    1.250    4.875    1.750    2.000 
#    2.250    0.000    0.000    0.000    0.000    0.000 
#    0.000    0.000    0.000    0.000    0.000    0.000 
#
# Total GULP energy -198296.736718 kJ/mol
# GULP energy per Si atom -12393.546045 kJ/mol
# Density = 2.185864 g / cm^3
# Si number density = 21.908509 Si / 1000 Ang^3
#
#
#
# Elastic Constant Matrix: (Units=GPa)
#
#
# Indices 1 2 3 4 5 6 
#
# 1 139.1686 25.5530 32.1516 10.3564 24.2320 7.1265
# 2 25.5530 86.1381 13.0790 -1.0397 7.3373 1.2939
# 3 32.1516 13.0790 71.3945 16.6017 5.4068 6.1866
# 4 10.3564 -1.0397 16.6017 21.8608 -1.5925 -4.5302
# 5 24.2320 7.3373 5.4068 -1.5925 43.3448 11.0894
# 6 7.1265 1.2939 6.1866 -4.5302 11.0894 35.3659
#
#
#
# Elastic Compliance Matrix: (Units=1/GPa)
#
#
# Indices 1 2 3 4 5 6 
#
# 1 0.009183 -0.001946 -0.002791 -0.002698 -0.004497 -0.000226
# 2 -0.001946 0.012630 -0.002243 0.003376 -0.000912 0.001041
# 3 -0.002791 -0.002243 0.019438 -0.014500 0.000177 -0.004669
# 4 -0.002698 0.003376 -0.014500 0.060430 0.002423 0.009938
# 5 -0.004497 -0.000912 0.000177 0.002423 0.027718 -0.007472
# 6 -0.000226 0.001041 -0.004669 0.009938 -0.007472 0.032716
#
#
# Mechanical properties :
#
#
# Convention : Reuss Voigt Hill
#
# Bulk Modulus (GPa) = 36.64524 48.69647 42.67086
# Shear Modulus (GPa) = 27.00159 35.17547 31.08853
#
# Velocity S-wave (km/s) = 3.51446 4.01129 3.77107
# Velocity P-wave (km/s) = 5.76467 6.61282 6.20326
#
# Compressibility (1/GPa) = 0.02728867
#
# Stress axis : x y z
#
# Youngs Moduli (GPa) = 108.89381 79.17584 51.44646
#
# Poissons Ratio (x) = 0.15411 0.14361
# Poissons Ratio (y) = 0.21196 0.11541
# Poissons Ratio (z) = 0.30397 0.17761
#
# Static dielectric constant tensor:
#      x y z
#    x 4.762240 0.109170 0.143410 
#    y 0.109170 4.465890 -0.138530 
#    z 0.143410 -0.138530 4.089460 
# 
# 
# High freq. dielectric constant tensor:
#      x y z
#    x 1.873740 0.008730 -0.003900 
#    y 0.008730 1.859300 0.005180 
#    z -0.003900 0.005180 1.857880 
# 
# From -- ./inp_files/99405.got.cif
#   From: 2010.06.25/outbox.cif.g09.slc.cpg/sg2_50_cif.got.tgz:99405.got - 2010.06.27 13:26:56.
