data_PCOD8018683
_publ_section_title
;
Structure prediction by ZEFSAII (Michael W. Deem and Ramdas Pophale) SiO2 
 PCOD8018683
Probable space group: P -1
;
_chemical_formula_sum "Si O2"
_cell_formula_units_Z 16
_cell_length_a 15.667251
_cell_length_b 9.340745
_cell_length_c 11.834497
_cell_angle_alpha 114.946939
_cell_angle_beta 48.354075
_cell_angle_gamma 141.678220
_cell_volume 783.753458
_symmetry_space_group_name_H-M "P -1"
_symmetry_group_IT_number 2
_symmetry_cell_setting 'triclinic'
loop_
_space_group_symop_operation_xyz
x,y,z
-x,-y,-z
loop_
_atom_site_type_symbol
_atom_site_label
_atom_site_fract_x
_atom_site_fract_y
_atom_site_fract_z
Si Si1 0.941050 0.878817 0.335914
Si Si2 0.945007 0.622699 0.068231
Si Si3 0.458728 0.570005 0.903562
Si Si4 0.256276 0.083352 0.844262
Si Si5 0.487565 0.793579 0.172565
Si Si6 0.447964 0.792260 0.790451
Si Si7 0.767475 0.659443 0.646953
Si Si8 0.647680 0.778262 0.450829
O O1 0.982774 0.763841 0.192874
O O2 0.869898 0.739073 0.469205
O O3 0.819787 0.878688 0.380318
O O4 0.116438 0.151626 0.292871
O O5 0.745358 0.430791 0.154285
O O6 0.000000 0.500000 0.000000
O O7 0.057929 0.823010 0.936722
O O8 0.284836 0.290748 0.937746
O O9 0.465645 0.734027 0.877711
O O10 0.611053 0.614925 0.743184
O O11 0.483815 0.645794 0.036431
O O12 0.356441 0.063202 0.829679
O O13 0.323208 0.140059 0.676403
O O14 0.308672 0.588570 0.329516
O O15 0.502568 0.975170 0.158528
O O16 0.585447 0.865794 0.605001
O O17 0.500000 0.500000 0.500000
#
# Coordination Sequence:
#
# PCOD8018683 Si02
#       8
#     2   2   2   2   2   2   2   2
#     4  11  22  42  69  91 132 169 217 272 316 382
#     4  12  25  41  61 100 134 165 212 272 325 378
#     4  11  21  42  66  92 127 171 222 262 317 387
#     4  11  23  41  70  94 126 175 221 263 321 383
#     4  11  23  40  62  97 131 169 217 264 327 386
#     4  12  25  41  68  94 137 172 209 270 334 374
#     4  10  22  40  69  93 122 175 224 260 315 387
#     4  12  22  44  66  98 130 167 220 266 315 394
#
# _framework density 20.414583
#
# number of rings (size 3 to 8) (size 9 to 14) (size 15 to 20)
#    0.000    0.750    5.000    4.125    0.000    4.500 
#    0.000    0.625    0.000    0.000    0.000    0.000 
#    0.000    0.000    0.000    0.000    0.000    0.000 
#
# Total GULP energy -198396.515006 kJ/mol
# GULP energy per Si atom -12399.782188 kJ/mol
# Density = 2.036812 g / cm^3
# Si number density = 20.414583 Si / 1000 Ang^3
#
#
#
# Elastic Constant Matrix: (Units=GPa)
#
#
# Indices 1 2 3 4 5 6 
#
# 1 92.9940 36.3034 22.4843 -5.5332 1.7987 -6.5889
# 2 36.3034 111.1520 32.4767 -15.7981 -2.9592 -16.0643
# 3 22.4843 32.4767 88.6014 0.2309 3.3593 -3.1655
# 4 -5.5332 -15.7981 0.2309 31.5820 -3.6914 6.3275
# 5 1.7987 -2.9592 3.3593 -3.6914 27.3241 2.2343
# 6 -6.5889 -16.0643 -3.1655 6.3275 2.2343 32.5755
#
#
#
# Elastic Compliance Matrix: (Units=1/GPa)
#
#
# Indices 1 2 3 4 5 6 
#
# 1 0.012646 -0.003477 -0.001873 0.000235 -0.001003 0.000684
# 2 -0.003477 0.012590 -0.003696 0.005204 0.002425 0.003969
# 3 -0.001873 -0.003696 0.013197 -0.002474 -0.002210 -0.000287
# 4 0.000235 0.005204 -0.002474 0.036055 0.006136 -0.005051
# 5 -0.001003 0.002425 -0.002210 0.006136 0.038276 -0.003039
# 6 0.000684 0.003969 -0.000287 -0.005051 -0.003039 0.033955
#
#
# Mechanical properties :
#
#
# Convention : Reuss Voigt Hill
#
# Bulk Modulus (GPa) = 49.16422 52.80846 50.98634
# Shear Modulus (GPa) = 29.13907 31.72850 30.43379
#
# Velocity S-wave (km/s) = 3.78215 3.94662 3.86526
# Velocity P-wave (km/s) = 6.57328 6.83315 6.70447
#
# Compressibility (1/GPa) = 0.02033999
#
# Stress axis : x y z
#
# Youngs Moduli (GPa) = 79.07931 79.42642 75.77745
#
# Poissons Ratio (x) = 0.27620 0.14190
# Poissons Ratio (y) = 0.27499 0.28009
# Poissons Ratio (z) = 0.14808 0.29358
#
# Static dielectric constant tensor:
#      x y z
#    x 3.780610 0.106960 -0.091570 
#    y 0.106960 3.945790 -0.320770 
#    z -0.091570 -0.320770 4.086260 
# 
# 
# High freq. dielectric constant tensor:
#      x y z
#    x 1.796380 0.002840 0.011600 
#    y 0.002840 1.804780 -0.012270 
#    z 0.011600 -0.012270 1.801700 
# 
# From -- ./inp_files/189917.got.cif
#   From: 2010.06.25/outbox.cif.g09.slc.cpg/sg2_95_cif.got.tgz:189917.got - 2010.06.27 13:26:56.
