data_PCOD8018559
_publ_section_title
;
Structure prediction by ZEFSAII (Michael W. Deem and Ramdas Pophale) SiO2 
 PCOD8018559
Probable space group: P -1
;
_chemical_formula_sum "Si O2"
_cell_formula_units_Z 14
_cell_length_a 20.930851
_cell_length_b 6.819976
_cell_length_c 9.407264
_cell_angle_alpha 131.991792
_cell_angle_beta 43.421656
_cell_angle_gamma 133.369550
_cell_volume 630.835366
_symmetry_space_group_name_H-M "P -1"
_symmetry_group_IT_number 2
_symmetry_cell_setting 'triclinic'
loop_
_space_group_symop_operation_xyz
x,y,z
-x,-y,-z
loop_
_atom_site_type_symbol
_atom_site_label
_atom_site_fract_x
_atom_site_fract_y
_atom_site_fract_z
Si Si1 0.188461 0.162388 0.972997
Si Si2 0.853672 0.318121 0.647860
Si Si3 0.508764 0.438044 0.119770
Si Si4 0.408510 0.260079 0.612452
Si Si5 0.087107 0.881945 0.276437
Si Si6 0.359621 0.914210 0.260559
Si Si7 0.037089 0.743982 0.822525
O O1 0.135658 0.389716 0.145715
O O2 0.171711 0.072820 0.122042
O O3 0.306093 0.319200 0.818008
O O4 0.138188 0.878572 0.819633
O O5 0.851910 0.092492 0.662428
O O6 0.945792 0.358679 0.412325
O O7 0.756891 0.216431 0.653319
O O8 0.547359 0.734896 0.295338
O O9 0.403954 0.204597 0.235206
O O10 0.500000 0.500000 0.000000
O O11 0.592254 0.311727 0.962131
O O12 0.500000 0.500000 0.500000
O O13 0.379274 0.971066 0.427002
O O14 0.040127 0.555556 0.131306
O O15 0.000000 0.000000 0.500000
O O16 0.000000 0.000000 0.000000
#
# Coordination Sequence:
#
# PCOD8018559 Si02
#       7
#     2   2   2   2   2   2   2
#     4  12  24  44  70 100 139 181 230 286 345 411
#     4  12  24  43  69  99 138 182 230 279 352 410
#     4  10  22  40  67  94 133 172 222 279 341 398
#     4  10  22  43  67  99 137 176 224 279 341 410
#     4  12  26  44  70 104 142 179 235 293 342 411
#     4  10  22  41  64  95 132 177 220 278 336 412
#     4  12  24  46  70  98 141 187 225 284 354 412
#
# _framework density 22.192795
#
# number of rings (size 3 to 8) (size 9 to 14) (size 15 to 20)
#    0.000    0.857    5.714    1.714    2.000    0.571 
#    0.000    4.286    0.000    0.000    0.000    0.000 
#    0.000    0.000    0.000    0.000    0.000    0.000 
#
# Total GULP energy -173469.028844 kJ/mol
# GULP energy per Si atom -12390.644917 kJ/mol
# Density = 2.214228 g / cm^3
# Si number density = 22.192795 Si / 1000 Ang^3
#
#
#
# Elastic Constant Matrix: (Units=GPa)
#
#
# Indices 1 2 3 4 5 6 
#
# 1 89.6113 29.4306 22.3265 -2.8839 23.7522 2.3002
# 2 29.4306 79.4897 39.0374 -0.5804 -6.1046 -1.6890
# 3 22.3265 39.0374 107.3081 -9.4387 6.6608 7.2112
# 4 -2.8839 -0.5804 -9.4387 40.5273 6.6327 6.7497
# 5 23.7522 -6.1046 6.6608 6.6327 53.1938 -1.9354
# 6 2.3002 -1.6890 7.2112 6.7497 -1.9354 34.4457
#
#
#
# Elastic Compliance Matrix: (Units=1/GPa)
#
#
# Indices 1 2 3 4 5 6 
#
# 1 0.015565 -0.006414 -0.000004 0.002733 -0.008112 -0.002344
# 2 -0.006414 0.018628 -0.006377 -0.003328 0.006349 0.003685
# 3 -0.000004 -0.006377 0.012424 0.003919 -0.002914 -0.003845
# 4 0.002733 -0.003328 0.003919 0.027844 -0.005818 -0.006949
# 5 -0.008112 0.006349 -0.002914 -0.005818 0.024385 0.003973
# 6 -0.002344 0.003685 -0.003845 -0.006949 0.003973 0.031758
#
#
# Mechanical properties :
#
#
# Convention : Reuss Voigt Hill
#
# Bulk Modulus (GPa) = 47.55547 50.88867 49.22207
# Shear Modulus (GPa) = 30.63701 38.00765 34.32233
#
# Velocity S-wave (km/s) = 3.71953 4.14286 3.93689
# Velocity P-wave (km/s) = 6.31834 6.77233 6.54927
#
# Compressibility (1/GPa) = 0.02102808
#
# Stress axis : x y z
#
# Youngs Moduli (GPa) = 64.24709 53.68221 80.49251
#
# Poissons Ratio (x) = 0.34431 0.00030
# Poissons Ratio (y) = 0.41207 0.51328
# Poissons Ratio (z) = 0.00024 0.34232
#
# Static dielectric constant tensor:
#      x y z
#    x 4.130120 0.348630 0.430820 
#    y 0.348630 3.979530 0.188470 
#    z 0.430820 0.188470 4.489970 
# 
# 
# High freq. dielectric constant tensor:
#      x y z
#    x 1.883050 0.024550 0.016390 
#    y 0.024550 1.853840 -0.001390 
#    z 0.016390 -0.001390 1.888290 
# 
# From -- ./inp_files/52303.got.cif
#   From: 2010.06.25/outbox.cif.g09.slc.cpg/sg2_27_cif.got.tgz:52303.got - 2010.06.27 13:26:56.
