data_PCOD8018791
_publ_section_title
;
Structure prediction by ZEFSAII (Michael W. Deem and Ramdas Pophale) SiO2 
 PCOD8018791
Probable space group: P -1
;
_chemical_formula_sum "Si O2"
_cell_formula_units_Z 10
_cell_length_a 9.427658
_cell_length_b 15.372896
_cell_length_c 9.024404
_cell_angle_alpha 137.104046
_cell_angle_beta 73.589001
_cell_angle_gamma 141.266956
_cell_volume 409.215082
_symmetry_space_group_name_H-M "P -1"
_symmetry_group_IT_number 2
_symmetry_cell_setting 'triclinic'
loop_
_space_group_symop_operation_xyz
x,y,z
-x,-y,-z
loop_
_atom_site_type_symbol
_atom_site_label
_atom_site_fract_x
_atom_site_fract_y
_atom_site_fract_z
Si Si1 0.637693 0.737478 0.796626
Si Si2 0.451944 0.933924 0.605020
Si Si3 0.155263 0.577329 0.706056
Si Si4 0.212415 0.228624 0.914742
Si Si5 0.572078 0.735357 0.398333
O O1 0.500000 0.500000 0.500000
O O2 0.449189 0.710954 0.745452
O O3 0.599272 0.720376 0.965911
O O4 0.000000 0.000000 0.000000
O O5 0.472026 0.797886 0.453666
O O6 0.099872 0.696803 0.465856
O O7 0.500000 0.000000 0.500000
O O8 0.708735 0.200848 0.961674
O O9 0.000000 0.500000 0.500000
O O10 0.285887 0.239189 0.743665
O O11 0.291845 0.440090 0.178188
O O12 0.843215 0.945126 0.703485
#
# Coordination Sequence:
#
# PCOD8018791 Si02
#       5
#     2   2   2   2   2
#     4  12  27  45  73  99 145 193 243 289 359 437
#     4  12  26  47  78 106 149 196 252 300 380 438
#     4  12  29  49  74 112 153 193 248 311 371 450
#     4  10  22  41  65 103 136 174 239 290 354 415
#     4  10  22  40  71  99 135 180 229 303 350 426
#
# _framework density 24.437027
#
# number of rings (size 3 to 8) (size 9 to 14) (size 15 to 20)
#    0.000    0.800    0.000    6.000    8.400    4.800 
#    0.000    0.000    0.000    0.000    0.000    0.000 
#    0.000    0.000    0.000    0.000    0.000    0.000 
#
# Total GULP energy -123909.160137 kJ/mol
# GULP energy per Si atom -12390.916014 kJ/mol
# Density = 2.438141 g / cm^3
# Si number density = 24.437027 Si / 1000 Ang^3
#
#
#
# Elastic Constant Matrix: (Units=GPa)
#
#
# Indices 1 2 3 4 5 6 
#
# 1 169.8339 32.7010 56.5770 -7.3097 20.3504 3.2851
# 2 32.7010 96.4632 55.3114 9.7642 20.7370 7.6296
# 3 56.5770 55.3114 183.2436 15.2540 15.0221 1.6620
# 4 -7.3097 9.7642 15.2540 38.3249 -2.2920 17.7536
# 5 20.3504 20.7370 15.0221 -2.2920 43.9332 -2.1929
# 6 3.2851 7.6296 1.6620 17.7536 -2.1929 31.2218
#
#
#
# Elastic Compliance Matrix: (Units=1/GPa)
#
#
# Indices 1 2 3 4 5 6 
#
# 1 0.007203 -0.000976 -0.002021 0.003475 -0.002130 -0.002537
# 2 -0.000976 0.014137 -0.003383 -0.001515 -0.005277 -0.002681
# 3 -0.002021 -0.003383 0.007394 -0.003757 -0.000053 0.002778
# 4 0.003475 -0.001515 -0.003757 0.038798 0.001328 -0.021764
# 5 -0.002130 -0.005277 -0.000053 0.001328 0.026457 0.002620
# 6 -0.002537 -0.002681 0.002778 -0.021764 0.002620 0.045362
#
#
# Mechanical properties :
#
#
# Convention : Reuss Voigt Hill
#
# Bulk Modulus (GPa) = 62.59984 82.07995 72.33990
# Shear Modulus (GPa) = 31.75878 43.02608 37.39243
#
# Velocity S-wave (km/s) = 3.60893 4.20061 3.91596
# Velocity P-wave (km/s) = 6.56036 7.56228 7.07907
#
# Compressibility (1/GPa) = 0.01597448
#
# Stress axis : x y z
#
# Youngs Moduli (GPa) = 138.82690 70.73622 135.24248
#
# Poissons Ratio (x) = 0.06905 0.27332
# Poissons Ratio (y) = 0.13552 0.45749
# Poissons Ratio (z) = 0.28057 0.23928
#
# Static dielectric constant tensor:
#      x y z
#    x 4.079110 -0.397870 0.959740 
#    y -0.397870 4.532500 0.886800 
#    z 0.959740 0.886800 4.062850 
# 
# 
# High freq. dielectric constant tensor:
#      x y z
#    x 1.964470 -0.006750 0.012330 
#    y -0.006750 1.984070 0.000140 
#    z 0.012330 0.000140 2.005110 
# 
# From -- ./inp_files/70913.got.cif
#   From: 2010.06.25/outbox.cif.g09.slc.cpg/sg2_36_cif.got.tgz:70913.got - 2010.06.27 13:26:56.
