data_PCOD8018656
_publ_section_title
;
Structure prediction by ZEFSAII (Michael W. Deem and Ramdas Pophale) SiO2 
 PCOD8018656
Probable space group: P -1
;
_chemical_formula_sum "Si O2"
_cell_formula_units_Z 16
_cell_length_a 23.580616
_cell_length_b 8.837203
_cell_length_c 9.252875
_cell_angle_alpha 46.247341
_cell_angle_beta 133.276049
_cell_angle_gamma 149.718288
_cell_volume 681.352017
_symmetry_space_group_name_H-M "P -1"
_symmetry_group_IT_number 2
_symmetry_cell_setting 'triclinic'
loop_
_space_group_symop_operation_xyz
x,y,z
-x,-y,-z
loop_
_atom_site_type_symbol
_atom_site_label
_atom_site_fract_x
_atom_site_fract_y
_atom_site_fract_z
Si Si1 0.712072 0.958474 0.488932
Si Si2 0.730238 0.890855 0.871878
Si Si3 0.806057 0.385185 0.895463
Si Si4 0.545663 0.913823 0.827426
Si Si5 0.481274 0.524424 0.717758
Si Si6 0.324583 0.661388 0.725314
Si Si7 0.889837 0.835262 0.513652
Si Si8 0.107906 0.719798 0.648014
O O1 0.690214 0.164513 0.317142
O O2 0.782518 0.035357 0.421737
O O3 0.779436 0.005841 0.717936
O O4 0.593726 0.601047 0.476273
O O5 0.609404 0.767144 0.719264
O O6 0.799220 0.159475 0.934747
O O7 0.713637 0.617683 0.065789
O O8 0.891483 0.722310 0.746019
O O9 0.679715 0.237144 0.810900
O O10 0.875995 0.459386 0.112312
O O11 0.475990 0.711145 0.693634
O O12 0.459987 0.922564 0.736698
O O13 0.554084 0.745958 0.069602
O O14 0.232391 0.490786 0.547431
O O15 0.896330 0.095484 0.371412
O O16 0.000000 0.000000 0.500000
O O17 0.000000 0.500000 0.500000
#
# Coordination Sequence:
#
# PCOD8018656 Si02
#       8
#     2   2   2   2   2   2   2   2
#     4  12  23  42  65 105 145 177 230 285 337 399
#     4  10  22  40  69 101 139 184 226 271 345 408
#     4  11  23  48  74 102 136 185 231 282 348 418
#     4   9  19  40  69 100 142 189 223 271 345 418
#     4   9  18  37  63  96 143 180 218 277 326 402
#     4  11  23  42  69 105 142 186 229 276 340 416
#     4  12  27  48  75 101 132 183 240 286 342 416
#     4  12  28  48  73 101 136 176 232 300 344 400
#
# _framework density 23.482723
#
# number of rings (size 3 to 8) (size 9 to 14) (size 15 to 20)
#    0.000    1.250    3.750    2.625    0.000    5.500 
#    4.500    0.000    0.000    0.000    0.000    0.000 
#    0.000    0.000    0.000    0.000    0.000    0.000 
#
# Total GULP energy -198294.239732 kJ/mol
# GULP energy per Si atom -12393.389983 kJ/mol
# Density = 2.342928 g / cm^3
# Si number density = 23.482723 Si / 1000 Ang^3
#
#
#
# Elastic Constant Matrix: (Units=GPa)
#
#
# Indices 1 2 3 4 5 6 
#
# 1 118.0300 17.9273 25.6106 -5.3425 7.4944 12.6927
# 2 17.9273 72.2452 20.8620 14.4434 6.7781 9.8284
# 3 25.6106 20.8620 100.1365 9.3298 -6.6780 14.2975
# 4 -5.3425 14.4434 9.3298 40.9926 -0.4670 -8.4194
# 5 7.4944 6.7781 -6.6780 -0.4670 28.6746 -3.7958
# 6 12.6927 9.8284 14.2975 -8.4194 -3.7958 32.8063
#
#
#
# Elastic Compliance Matrix: (Units=1/GPa)
#
#
# Indices 1 2 3 4 5 6 
#
# 1 0.009694 -0.001560 -0.002208 0.001832 -0.002939 -0.002190
# 2 -0.001560 0.017612 -0.002044 -0.007286 -0.005177 -0.006251
# 3 -0.002208 -0.002044 0.012093 -0.003153 0.003265 -0.004235
# 4 0.001832 -0.007286 -0.003153 0.030180 0.002440 0.010876
# 5 -0.002939 -0.005177 0.003265 0.002440 0.038506 0.006347
# 6 -0.002190 -0.006251 -0.004235 0.010876 0.006347 0.038573
#
#
# Mechanical properties :
#
#
# Convention : Reuss Voigt Hill
#
# Bulk Modulus (GPa) = 36.00523 46.57907 41.29215
# Shear Modulus (GPa) = 29.84339 35.56214 32.70276
#
# Velocity S-wave (km/s) = 3.56879 3.89575 3.73585
# Velocity P-wave (km/s) = 5.68749 6.33359 6.01922
#
# Compressibility (1/GPa) = 0.02777375
#
# Stress axis : x y z
#
# Youngs Moduli (GPa) = 103.16019 56.77922 82.69193
#
# Poissons Ratio (x) = 0.08860 0.18259
# Poissons Ratio (y) = 0.16097 0.16902
# Poissons Ratio (z) = 0.22779 0.11606
#
# Static dielectric constant tensor:
#      x y z
#    x 4.163820 -0.011980 -0.284820 
#    y -0.011980 4.113700 0.160950 
#    z -0.284820 0.160950 4.259080 
# 
# 
# High freq. dielectric constant tensor:
#      x y z
#    x 1.928840 0.001160 -0.011150 
#    y 0.001160 1.910700 0.000340 
#    z -0.011150 0.000340 1.939680 
# 
# From -- ./inp_files/352050.got.cif
#   From: 2010.06.25/outbox.cif.g09.slc.cpg/sg2_177_cif.got.tgz:352050.got - 2010.06.27 13:26:56.
