data_PCOD8018034
_publ_section_title
;
Structure prediction by ZEFSAII (Michael W. Deem and Ramdas Pophale) SiO2 
 PCOD8018034
Probable space group: P -1
;
_chemical_formula_sum "Si O2"
_cell_formula_units_Z 14
_cell_length_a 8.234256
_cell_length_b 10.284948
_cell_length_c 15.559992
_cell_angle_alpha 142.229145
_cell_angle_beta 56.164004
_cell_angle_gamma 103.442548
_cell_volume 612.035739
_symmetry_space_group_name_H-M "P -1"
_symmetry_group_IT_number 2
_symmetry_cell_setting 'triclinic'
loop_
_space_group_symop_operation_xyz
x,y,z
-x,-y,-z
loop_
_atom_site_type_symbol
_atom_site_label
_atom_site_fract_x
_atom_site_fract_y
_atom_site_fract_z
Si Si1 0.737428 0.976879 0.149167
Si Si2 0.010666 0.531004 0.638797
Si Si3 0.239676 0.039947 0.674148
Si Si4 0.205469 0.681424 0.809925
Si Si5 0.572791 0.632204 0.263132
Si Si6 0.115341 0.107014 0.272266
Si Si7 0.440419 0.276573 0.052255
O O1 0.656638 0.044983 0.305934
O O2 0.667112 0.195906 0.218831
O O3 0.641900 0.794549 0.048757
O O4 0.997132 0.868697 0.016778
O O5 0.035489 0.720993 0.666778
O O6 0.753633 0.627480 0.772737
O O7 0.131113 0.522751 0.687605
O O8 0.119747 0.269608 0.435234
O O9 0.367451 0.862310 0.469171
O O10 0.996294 0.063548 0.754863
O O11 0.241071 0.291872 0.785293
O O12 0.363153 0.527679 0.755135
O O13 0.512948 0.490877 0.131383
O O14 0.356741 0.947234 0.087887
#
# Coordination Sequence:
#
# PCOD8018034 Si02
#       7
#     2   2   2   2   2   2   2
#     4  10  23  40  66  96 131 158 225 263 321 383
#     4  10  22  40  61 103 132 161 215 276 312 389
#     4  11  24  47  62  94 130 178 216 265 316 404
#     4  10  22  40  65  96 128 170 208 274 320 383
#     4  11  26  42  67  91 135 171 219 265 327 376
#     4  11  22  39  68  93 131 176 209 263 332 381
#     4  11  24  39  65 100 129 168 212 274 320 382
#
# _framework density 22.874482
#
# number of rings (size 3 to 8) (size 9 to 14) (size 15 to 20)
#    0.000    1.429    2.857    1.286    8.000    3.429 
#    0.000    2.143    0.000    0.000    0.000    0.000 
#    0.000    0.000    0.000    0.000    0.000    0.000 
#
# Total GULP energy -173569.553218 kJ/mol
# GULP energy per Si atom -12397.825230 kJ/mol
# Density = 2.282242 g / cm^3
# Si number density = 22.874482 Si / 1000 Ang^3
#
#
#
# Elastic Constant Matrix: (Units=GPa)
#
#
# Indices 1 2 3 4 5 6 
#
# 1 79.1457 23.4012 30.7014 9.8267 16.4808 21.8225
# 2 23.4012 82.3948 32.9629 7.6811 16.3595 18.1965
# 3 30.7014 32.9629 93.3003 8.5252 15.6515 19.4432
# 4 9.8267 7.6811 8.5252 25.9614 5.9807 5.8971
# 5 16.4808 16.3595 15.6515 5.9807 33.0333 7.1450
# 6 21.8225 18.1965 19.4432 5.8971 7.1450 31.2315
#
#
#
# Elastic Compliance Matrix: (Units=1/GPa)
#
#
# Indices 1 2 3 4 5 6 
#
# 1 0.017590 -0.000854 -0.002672 -0.002480 -0.004785 -0.008567
# 2 -0.000854 0.015899 -0.003373 -0.001021 -0.004509 -0.005342
# 3 -0.002672 -0.003373 0.014205 -0.001097 -0.002619 -0.004205
# 4 -0.002480 -0.001021 -0.001097 0.042043 -0.004506 -0.003897
# 5 -0.004785 -0.004509 -0.002619 -0.004506 0.036950 -0.000001
# 6 -0.008567 -0.005342 -0.004205 -0.003897 -0.000001 0.044472
#
#
# Mechanical properties :
#
#
# Convention : Reuss Voigt Hill
#
# Bulk Modulus (GPa) = 29.50147 47.66352 38.58250
# Shear Modulus (GPa) = 25.47705 29.23026 27.35365
#
# Velocity S-wave (km/s) = 3.34095 3.57859 3.46181
# Velocity P-wave (km/s) = 5.27330 6.16095 5.73432
#
# Compressibility (1/GPa) = 0.03389662
#
# Stress axis : x y z
#
# Youngs Moduli (GPa) = 56.84932 62.89737 70.39874
#
# Poissons Ratio (x) = 0.05369 0.18811
# Poissons Ratio (y) = 0.04853 0.23746
# Poissons Ratio (z) = 0.15190 0.21216
#
# Static dielectric constant tensor:
#      x y z
#    x 4.012900 0.357420 0.334900 
#    y 0.357420 3.945000 -0.018220 
#    z 0.334900 -0.018220 4.227790 
# 
# 
# High freq. dielectric constant tensor:
#      x y z
#    x 1.901810 0.023890 0.022540 
#    y 0.023890 1.871710 -0.002800 
#    z 0.022540 -0.002800 1.911200 
# 
# From -- ./inp_files/209373.got.cif
#   From: 2010.06.25/outbox.cif.g09.slc.cpg/sg2_105_cif.got.tgz:209373.got - 2010.06.27 13:26:56.
