data_PCOD8018102
_publ_section_title
;
Structure prediction by ZEFSAII (Michael W. Deem and Ramdas Pophale) SiO2 
 PCOD8018102
Probable space group: P -1
;
_chemical_formula_sum "Si O2"
_cell_formula_units_Z 16
_cell_length_a 9.494958
_cell_length_b 8.374800
_cell_length_c 11.636028
_cell_angle_alpha 121.360883
_cell_angle_beta 95.663611
_cell_angle_gamma 97.626795
_cell_volume 767.573307
_symmetry_space_group_name_H-M "P -1"
_symmetry_group_IT_number 2
_symmetry_cell_setting 'triclinic'
loop_
_space_group_symop_operation_xyz
x,y,z
-x,-y,-z
loop_
_atom_site_type_symbol
_atom_site_label
_atom_site_fract_x
_atom_site_fract_y
_atom_site_fract_z
Si Si1 0.653408 0.506539 0.303549
Si Si2 0.588148 0.673517 0.648499
Si Si3 0.005787 0.227344 0.962423
Si Si4 0.623867 0.920068 0.542980
Si Si5 0.094875 0.842373 0.438294
Si Si6 0.101165 0.195050 0.202358
Si Si7 0.881036 0.566494 0.163443
Si Si8 0.120563 0.672411 0.613208
O O1 0.493700 0.362679 0.247496
O O2 0.652078 0.724912 0.416501
O O3 0.719469 0.512799 0.183565
O O4 0.743635 0.407446 0.363974
O O5 0.500000 0.500000 0.500000
O O6 0.581283 0.871657 0.655542
O O7 0.757624 0.668745 0.677502
O O8 0.106461 0.273459 0.874427
O O9 0.111271 0.227687 0.079018
O O10 0.895264 0.025537 0.857215
O O11 0.907156 0.378736 0.033004
O O12 0.500000 0.000000 0.500000
O O13 0.771206 0.081946 0.608053
O O14 0.159368 0.810390 0.557008
O O15 0.997239 0.645235 0.304354
O O16 0.000000 0.000000 0.500000
O O17 0.947986 0.226259 0.250321
O O18 0.000000 0.500000 0.500000
#
# Coordination Sequence:
#
# PCOD8018102 Si02
#       8
#     2   2   2   2   2   2   2   2
#     4  11  22  39  58  91 129 166 208 258 318 386
#     4  10  22  40  62  90 132 163 199 258 329 392
#     4  10  23  40  64  89 127 169 218 259 298 371
#     4  11  23  38  55  93 133 166 196 254 333 387
#     4  12  21  36  65  99 127 157 212 273 322 371
#     4  11  22  41  64  94 122 168 213 257 317 376
#     4  11  21  39  61  92 125 165 213 264 310 365
#     4  12  20  35  63  97 124 160 206 267 326 371
#
# _framework density 20.844915
#
# number of rings (size 3 to 8) (size 9 to 14) (size 15 to 20)
#    0.000    1.000    3.750    4.500    0.000    3.000 
#    0.000    1.250    0.000    0.000    0.000    0.000 
#    0.000    0.000    0.000    0.000    0.000    0.000 
#
# Total GULP energy -198286.867838 kJ/mol
# GULP energy per Si atom -12392.929240 kJ/mol
# Density = 2.079747 g / cm^3
# Si number density = 20.844915 Si / 1000 Ang^3
#
#
#
# Elastic Constant Matrix: (Units=GPa)
#
#
# Indices 1 2 3 4 5 6 
#
# 1 101.0360 44.6002 23.1597 -5.0639 -10.8241 12.9194
# 2 44.6002 115.2613 28.7514 -24.2549 -14.4664 6.7260
# 3 23.1597 28.7514 70.5522 -10.2218 -11.6377 7.1048
# 4 -5.0639 -24.2549 -10.2218 43.3407 7.5639 -11.4019
# 5 -10.8241 -14.4664 -11.6377 7.5639 29.8866 -7.3826
# 6 12.9194 6.7260 7.1048 -11.4019 -7.3826 45.6076
#
#
#
# Elastic Compliance Matrix: (Units=1/GPa)
#
#
# Indices 1 2 3 4 5 6 
#
# 1 0.012853 -0.004628 -0.002166 -0.002660 0.001493 -0.003044
# 2 -0.004628 0.012534 -0.002518 0.005923 0.002335 0.001713
# 3 -0.002166 -0.002518 0.016849 0.001442 0.004038 -0.000626
# 4 -0.002660 0.005923 0.001442 0.028636 -0.003228 0.006292
# 5 0.001493 0.002335 0.004038 -0.003228 0.038516 0.004031
# 6 -0.003044 0.001713 -0.000626 0.006292 0.004031 0.024859
#
#
# Mechanical properties :
#
#
# Convention : Reuss Voigt Hill
#
# Bulk Modulus (GPa) = 42.35025 53.31911 47.83468
# Shear Modulus (GPa) = 31.10597 36.45619 33.78108
#
# Velocity S-wave (km/s) = 3.86716 4.18655 4.03002
# Velocity P-wave (km/s) = 6.34830 7.00029 6.68225
#
# Compressibility (1/GPa) = 0.02361261
#
# Stress axis : x y z
#
# Youngs Moduli (GPa) = 77.80482 79.78074 59.35051
#
# Poissons Ratio (x) = 0.36922 0.12854
# Poissons Ratio (y) = 0.36008 0.14945
# Poissons Ratio (z) = 0.16850 0.20089
#
# Static dielectric constant tensor:
#      x y z
#    x 3.799340 0.616550 -0.479460 
#    y 0.616550 4.514680 -0.461820 
#    z -0.479460 -0.461820 4.180590 
# 
# 
# High freq. dielectric constant tensor:
#      x y z
#    x 1.798270 0.013150 -0.017130 
#    y 0.013150 1.844500 -0.012500 
#    z -0.017130 -0.012500 1.791100 
# 
# From -- ./inp_files/383240.got.cif
#   From: 2010.06.25/outbox.cif.g09.slc.cpg/sg2_192_cif.got.tgz:383240.got - 2010.06.27 13:26:56.
