data_PCOD8018514
_publ_section_title
;
Structure prediction by ZEFSAII (Michael W. Deem and Ramdas Pophale) SiO2 
 PCOD8018514
Probable space group: P -1
;
_chemical_formula_sum "Si O2"
_cell_formula_units_Z 14
_cell_length_a 5.282161
_cell_length_b 15.779306
_cell_length_c 25.011598
_cell_angle_alpha 19.286427
_cell_angle_beta 121.904781
_cell_angle_gamma 119.742517
_cell_volume 584.503718
_symmetry_space_group_name_H-M "P -1"
_symmetry_group_IT_number 2
_symmetry_cell_setting 'triclinic'
loop_
_space_group_symop_operation_xyz
x,y,z
-x,-y,-z
loop_
_atom_site_type_symbol
_atom_site_label
_atom_site_fract_x
_atom_site_fract_y
_atom_site_fract_z
Si Si1 0.127478 0.583908 0.384521
Si Si2 0.511835 0.118859 0.685331
Si Si3 0.718189 0.838632 0.583011
Si Si4 0.794927 0.974675 0.940820
Si Si5 0.066100 0.765944 0.876604
Si Si6 0.845215 0.278194 0.966207
Si Si7 0.351551 0.785695 0.468637
O O1 0.311786 0.326328 0.571737
O O2 0.150416 0.790844 0.313883
O O3 0.789629 0.495590 0.389407
O O4 0.257131 0.733076 0.258537
O O5 0.439032 0.142327 0.600758
O O6 0.417204 0.838836 0.864287
O O7 0.819630 0.585423 0.776473
O O8 0.541931 0.757131 0.559421
O O9 0.500000 0.000000 0.500000
O O10 0.000000 0.000000 0.500000
O O11 0.483489 0.843201 0.998851
O O12 0.963930 0.821773 0.003019
O O13 0.000000 0.000000 0.000000
O O14 0.985862 0.770255 0.928398
O O15 0.888624 0.981869 0.694161
O O16 0.000000 0.500000 0.000000
#
# Coordination Sequence:
#
# PCOD8018514 Si02
#       7
#     2   2   2   2   2   2   2
#     4  10  22  40  67 102 144 180 238 292 367 429
#     4  10  22  41  68 102 137 187 236 297 363 438
#     4  12  29  51  76 103 148 197 250 301 360 440
#     4  12  26  44  73 106 149 192 240 299 374 441
#     4  11  25  44  71 105 146 189 248 309 370 429
#     4  12  27  48  72 110 148 189 247 306 368 432
#     4  11  25  42  74 100 142 191 247 292 372 436
#
# _framework density 23.951944999999998
#
# number of rings (size 3 to 8) (size 9 to 14) (size 15 to 20)
#    0.000    0.857    1.429    4.286   10.000    0.571 
#    0.000    0.000    0.000    0.000    0.000    0.000 
#    0.000    0.000    0.000    0.000    0.000    0.000 
#
# Total GULP energy -173492.465867 kJ/mol
# GULP energy per Si atom -12392.318990 kJ/mol
# Density = 2.389743 g / cm^3
# Si number density = 23.951945 Si / 1000 Ang^3
#
#
#
# Elastic Constant Matrix: (Units=GPa)
#
#
# Indices 1 2 3 4 5 6 
#
# 1 111.1850 34.7657 16.3397 -25.1343 -23.4042 2.7035
# 2 34.7657 152.4853 25.8272 -13.7202 -15.2484 -1.8466
# 3 16.3397 25.8272 111.5861 -19.9805 -29.3736 14.1348
# 4 -25.1343 -13.7202 -19.9805 50.0753 4.9953 -5.6404
# 5 -23.4042 -15.2484 -29.3736 4.9953 37.0259 -4.2567
# 6 2.7035 -1.8466 14.1348 -5.6404 -4.2567 40.5628
#
#
#
# Elastic Compliance Matrix: (Units=1/GPa)
#
#
# Indices 1 2 3 4 5 6 
#
# 1 0.012130 -0.001791 0.001568 0.005493 0.007445 0.000109
# 2 -0.001791 0.007339 -0.001197 0.000657 0.000974 0.001064
# 3 0.001568 -0.001197 0.012682 0.004221 0.009647 -0.002979
# 4 0.005493 0.000657 0.004221 0.024416 0.004028 0.002011
# 5 0.007445 0.000974 0.009647 0.004028 0.039325 0.000874
# 6 0.000109 0.001064 -0.002979 0.002011 0.000874 0.026104
#
#
# Mechanical properties :
#
#
# Convention : Reuss Voigt Hill
#
# Bulk Modulus (GPa) = 34.11828 58.79129 46.45479
# Shear Modulus (GPa) = 37.14567 45.42106 41.28336
#
# Velocity S-wave (km/s) = 3.94234 4.35942 4.15612
# Velocity P-wave (km/s) = 5.91593 7.06670 6.51676
#
# Compressibility (1/GPa) = 0.02930980
#
# Stress axis : x y z
#
# Youngs Moduli (GPa) = 82.44138 136.26757 78.85334
#
# Poissons Ratio (x) = 0.24406 -0.12364
# Poissons Ratio (y) = 0.14766 0.09439
# Poissons Ratio (z) = -0.12926 0.16312
#
# Static dielectric constant tensor:
#      x y z
#    x 4.680910 0.174990 -0.307100 
#    y 0.174990 4.563370 0.005590 
#    z -0.307100 0.005590 4.640390 
# 
# 
# High freq. dielectric constant tensor:
#      x y z
#    x 1.951070 0.002100 -0.013300 
#    y 0.002100 1.961280 -0.005420 
#    z -0.013300 -0.005420 1.962810 
# 
# From -- ./inp_files/85372.got.cif
#   From: 2010.06.25/outbox.cif.g09.slc.cpg/sg2_43_cif.got.tgz:85372.got - 2010.06.27 13:26:56.
