data_PCOD8018225
_publ_section_title
;
Structure prediction by ZEFSAII (Michael W. Deem and Ramdas Pophale) SiO2 
 PCOD8018225
Probable space group: P -1
;
_chemical_formula_sum "Si O2"
_cell_formula_units_Z 12
_cell_length_a 11.783899
_cell_length_b 14.865071
_cell_length_c 17.992175
_cell_angle_alpha 20.655319
_cell_angle_beta 29.292699
_cell_angle_gamma 28.175544
_cell_volume 503.329218
_symmetry_space_group_name_H-M "P -1"
_symmetry_group_IT_number 2
_symmetry_cell_setting 'triclinic'
loop_
_space_group_symop_operation_xyz
x,y,z
-x,-y,-z
loop_
_atom_site_type_symbol
_atom_site_label
_atom_site_fract_x
_atom_site_fract_y
_atom_site_fract_z
Si Si1 0.198076 0.421874 0.046131
Si Si2 0.690273 0.339058 0.901361
Si Si3 0.969307 0.312717 0.395820
Si Si4 0.787052 0.843199 0.472082
Si Si5 0.005072 0.129822 0.014962
Si Si6 0.276053 0.082198 0.122890
O O1 0.335495 0.240964 0.036317
O O2 0.084171 0.243077 0.300944
O O3 0.394572 0.494890 0.930296
O O4 0.987704 0.713295 0.918122
O O5 0.846140 0.533817 0.646229
O O6 0.738149 0.255186 0.026293
O O7 0.787738 0.068278 0.005128
O O8 0.174033 0.158336 0.460522
O O9 0.744098 0.203161 0.617507
O O10 0.882807 0.643696 0.198835
O O11 0.500000 0.000000 0.500000
O O12 0.973071 0.963487 0.233265
O O13 0.500000 0.000000 0.000000
#
# Coordination Sequence:
#
# PCOD8018225 Si02
#       6
#     2   2   2   2   2   2
#     4  11  25  46  70 100 133 176 230 279 337 398
#     4  10  22  40  64 103 137 177 221 272 330 408
#     4  11  23  42  69  98 134 178 221 277 340 394
#     4  11  21  37  67  98 138 178 218 270 334 406
#     4  10  22  40  65 103 141 177 217 269 337 406
#     4  11  27  49  70  97 131 177 234 286 335 393
#
# _framework density 23.841253999999999
#
# number of rings (size 3 to 8) (size 9 to 14) (size 15 to 20)
#    0.000    1.333    0.000    5.000    4.667    3.333 
#    6.000    0.000    0.000    0.000    0.000    0.000 
#    0.000    0.000    0.000    0.000    0.000    0.000 
#
# Total GULP energy -148759.731509 kJ/mol
# GULP energy per Si atom -12396.644292 kJ/mol
# Density = 2.378699 g / cm^3
# Si number density = 23.841254 Si / 1000 Ang^3
#
#
#
# Elastic Constant Matrix: (Units=GPa)
#
#
# Indices 1 2 3 4 5 6 
#
# 1 88.1743 20.0027 34.6842 -4.8985 3.3584 16.4808
# 2 20.0027 77.4356 36.5812 -0.8409 -4.9777 26.0404
# 3 34.6842 36.5812 173.8811 5.1941 0.3647 17.2745
# 4 -4.8985 -0.8409 5.1941 33.4436 3.4682 5.3051
# 5 3.3584 -4.9777 0.3647 3.4682 39.9976 5.5426
# 6 16.4808 26.0404 17.2745 5.3051 5.5426 39.0103
#
#
#
# Elastic Compliance Matrix: (Units=1/GPa)
#
#
# Indices 1 2 3 4 5 6 
#
# 1 0.013422 -0.001036 -0.002119 0.003049 -0.000901 -0.004327
# 2 -0.001036 0.018618 -0.002624 0.002175 0.003857 -0.011672
# 3 -0.002119 -0.002624 0.006783 -0.001398 -0.000067 -0.000158
# 4 0.003049 0.002175 -0.001398 0.031794 -0.001873 -0.006179
# 5 -0.000901 0.003857 -0.000067 -0.001873 0.026507 -0.005675
# 6 -0.004327 -0.011672 -0.000158 -0.006179 -0.005675 0.036970
#
#
# Mechanical properties :
#
#
# Convention : Reuss Voigt Hill
#
# Bulk Modulus (GPa) = 36.67487 58.00302 47.33894
# Shear Modulus (GPa) = 32.31252 39.03851 35.67552
#
# Velocity S-wave (km/s) = 3.68546 4.05091 3.87250
# Velocity P-wave (km/s) = 5.79021 6.80158 6.31617
#
# Compressibility (1/GPa) = 0.02726663
#
# Stress axis : x y z
#
# Youngs Moduli (GPa) = 74.50395 53.71249 147.42320
#
# Poissons Ratio (x) = 0.05564 0.31234
# Poissons Ratio (y) = 0.07717 0.38679
# Poissons Ratio (z) = 0.15785 0.14092
#
# Static dielectric constant tensor:
#      x y z
#    x 4.627860 0.117200 0.166720 
#    y 0.117200 3.992950 -0.308980 
#    z 0.166720 -0.308980 4.697030 
# 
# 
# High freq. dielectric constant tensor:
#      x y z
#    x 1.965340 0.009550 0.004370 
#    y 0.009550 1.923510 -0.016480 
#    z 0.004370 -0.016480 1.951070 
# 
# From -- ./inp_files/60163.got.cif
#   From: 2010.06.25/outbox.cif.g09.slc.cpg/sg2_31_cif.got.tgz:60163.got - 2010.06.27 13:26:56.
