data_PCOD8018664
_publ_section_title
;
Structure prediction by ZEFSAII (Michael W. Deem and Ramdas Pophale) SiO2 
 PCOD8018664
Probable space group: P -1
;
_chemical_formula_sum "Si O2"
_cell_formula_units_Z 14
_cell_length_a 21.595513
_cell_length_b 21.618891
_cell_length_c 12.363503
_cell_angle_alpha 160.287789
_cell_angle_beta 151.499256
_cell_angle_gamma 18.577364
_cell_volume 615.320893
_symmetry_space_group_name_H-M "P -1"
_symmetry_group_IT_number 2
_symmetry_cell_setting 'triclinic'
loop_
_space_group_symop_operation_xyz
x,y,z
-x,-y,-z
loop_
_atom_site_type_symbol
_atom_site_label
_atom_site_fract_x
_atom_site_fract_y
_atom_site_fract_z
Si Si1 0.197221 0.852044 0.827428
Si Si2 0.732867 0.266976 0.790272
Si Si3 0.372839 0.029482 0.942393
Si Si4 0.504146 0.780448 0.131174
Si Si5 0.790541 0.134707 0.892457
Si Si6 0.337121 0.389575 0.137338
Si Si7 0.035378 0.433663 0.818129
O O1 0.324862 0.583548 0.508683
O O2 0.273091 0.968652 0.091317
O O3 0.296677 0.727928 0.896746
O O4 0.967109 0.062517 0.810683
O O5 0.693107 0.106402 0.417566
O O6 0.669323 0.340512 0.941622
O O7 0.624978 0.545640 0.022690
O O8 0.489522 0.912275 0.040627
O O9 0.500000 0.000000 0.000000
O O10 0.183486 0.354095 0.215010
O O11 0.500000 0.000000 0.500000
O O12 0.612599 0.612157 0.910147
O O13 0.822832 0.884601 0.512068
O O14 0.000000 0.000000 0.000000
O O15 0.130899 0.505174 0.022253
O O16 0.000000 0.500000 0.000000
#
# Coordination Sequence:
#
# PCOD8018664 Si02
#       7
#     2   2   2   2   2   2   2
#     4  11  24  46  72  99 141 180 232 287 346 412
#     4  11  24  45  71 100 138 188 226 280 361 399
#     4  12  24  39  73 107 136 179 226 280 352 411
#     4  12  29  48  69 100 139 185 240 288 334 418
#     4  10  22  40  69 103 137 178 220 287 348 405
#     4  12  25  45  69 102 137 184 232 283 343 412
#     4  12  21  42  69 102 142 173 228 287 345 415
#
# _framework density 22.752355999999999
#
# number of rings (size 3 to 8) (size 9 to 14) (size 15 to 20)
#    0.000    0.571    5.714    2.143    0.000    5.143 
#    0.000    0.000    0.000    0.000    0.000    0.000 
#    0.000    0.000    0.000    0.000    0.000    0.000 
#
# Total GULP energy -173477.651337 kJ/mol
# GULP energy per Si atom -12391.260810 kJ/mol
# Density = 2.270057 g / cm^3
# Si number density = 22.752356 Si / 1000 Ang^3
#
#
#
# Elastic Constant Matrix: (Units=GPa)
#
#
# Indices 1 2 3 4 5 6 
#
# 1 169.8831 58.0256 61.8890 -6.4776 -1.3184 -5.1886
# 2 58.0256 114.2761 22.6957 1.1151 12.5969 4.4341
# 3 61.8890 22.6957 112.6526 -2.6300 1.4970 12.1156
# 4 -6.4776 1.1151 -2.6300 32.1047 -3.0522 14.1049
# 5 -1.3184 12.5969 1.4970 -3.0522 47.5024 -5.6882
# 6 -5.1886 4.4341 12.1156 14.1049 -5.6882 39.9234
#
#
#
# Elastic Compliance Matrix: (Units=1/GPa)
#
#
# Indices 1 2 3 4 5 6 
#
# 1 0.009021 -0.004016 -0.004496 0.000404 0.001855 0.003104
# 2 -0.004016 0.011209 0.000206 -0.000579 -0.003380 -0.002107
# 3 -0.004496 0.000206 0.011926 0.002233 -0.001030 -0.005162
# 4 0.000404 -0.000579 0.002233 0.037533 0.000866 -0.013698
# 5 0.001855 -0.003380 -0.001030 0.000866 0.022547 0.003836
# 6 0.003104 -0.002107 -0.005162 -0.013698 0.003836 0.032638
#
#
# Mechanical properties :
#
#
# Convention : Reuss Voigt Hill
#
# Bulk Modulus (GPa) = 64.33266 75.78137 70.05701
# Shear Modulus (GPa) = 34.09102 40.85287 37.47195
#
# Velocity S-wave (km/s) = 3.87505 4.24198 4.06266
# Velocity P-wave (km/s) = 6.95399 7.57443 7.27083
#
# Compressibility (1/GPa) = 0.01554420
#
# Stress axis : x y z
#
# Youngs Moduli (GPa) = 110.85706 89.21309 83.84977
#
# Poissons Ratio (x) = 0.35831 0.37696
# Poissons Ratio (y) = 0.44524 -0.01729
# Poissons Ratio (z) = 0.49838 -0.01840
#
# Static dielectric constant tensor:
#      x y z
#    x 4.439130 -0.240030 0.807140 
#    y -0.240030 3.976690 0.858980 
#    z 0.807140 0.858980 1.483870 
# 
# 
# High freq. dielectric constant tensor:
#      x y z
#    x 1.907170 -0.014620 0.005730 
#    y -0.014620 1.908770 -0.013750 
#    z 0.005730 -0.013750 1.894620 
# 
# From -- ./inp_files/457613.got.cif
#   From: 2010.06.25/outbox.cif.g09.slc.cpg/sg2_229_cif.got.tgz:457613.got - 2010.06.27 13:26:56.
