data_PCOD8018954
_publ_section_title
;
Structure prediction by ZEFSAII (Michael W. Deem and Ramdas Pophale) SiO2 
 PCOD8018954
Probable space group: P -1
;
_chemical_formula_sum "Si O2"
_cell_formula_units_Z 12
_cell_length_a 9.267500
_cell_length_b 11.859695
_cell_length_c 10.625727
_cell_angle_alpha 84.711796
_cell_angle_beta 61.669181
_cell_angle_gamma 38.215884
_cell_volume 544.939166
_symmetry_space_group_name_H-M "P -1"
_symmetry_group_IT_number 2
_symmetry_cell_setting 'triclinic'
loop_
_space_group_symop_operation_xyz
x,y,z
-x,-y,-z
loop_
_atom_site_type_symbol
_atom_site_label
_atom_site_fract_x
_atom_site_fract_y
_atom_site_fract_z
Si Si1 0.289255 0.417595 0.320187
Si Si2 0.260749 0.704670 0.991763
Si Si3 0.208281 0.912245 0.674281
Si Si4 0.708506 0.809236 0.780266
Si Si5 0.936951 0.841687 0.866964
Si Si6 0.263205 0.090903 0.487409
O O1 0.437467 0.314193 0.407729
O O2 0.137048 0.387996 0.338366
O O3 0.061106 0.656119 0.386662
O O4 0.576580 0.275334 0.123112
O O5 0.500000 0.500000 0.000000
O O6 0.952467 0.914418 0.172031
O O7 0.163592 0.691074 0.907720
O O8 0.029149 0.897830 0.738972
O O9 0.210359 0.986238 0.538054
O O10 0.959595 0.718323 0.779629
O O11 0.610715 0.959902 0.700221
O O12 0.415443 0.939221 0.966475
O O13 0.500000 0.000000 0.500000
#
# Coordination Sequence:
#
# PCOD8018954 Si02
#       6
#     2   2   2   2   2   2
#     4  11  21  39  67  89 122 168 204 254 304 365
#     4  11  19  38  67  93 117 162 220 248 292 371
#     4  11  21  41  65  91 121 164 213 248 300 370
#     4  11  22  40  62  92 129 160 200 257 315 357
#     4  10  22  41  63  90 126 165 200 256 311 359
#     4  12  24  38  65  97 120 160 214 253 304 367
#
# _framework density 22.020807000000001
#
# number of rings (size 3 to 8) (size 9 to 14) (size 15 to 20)
#    0.000    1.000    6.667    1.500    0.000    0.667 
#    0.000    5.833    0.000    0.000    0.000    0.000 
#    0.000    0.000    0.000    0.000    0.000    0.000 
#
# Total GULP energy -148749.121097 kJ/mol
# GULP energy per Si atom -12395.760091 kJ/mol
# Density = 2.197069 g / cm^3
# Si number density = 22.020807 Si / 1000 Ang^3
#
#
#
# Elastic Constant Matrix: (Units=GPa)
#
#
# Indices 1 2 3 4 5 6 
#
# 1 155.0028 51.1742 21.5628 -12.7939 -9.5683 -3.7989
# 2 51.1742 123.8855 14.7258 -8.7985 -9.2603 -5.7910
# 3 21.5628 14.7258 54.8407 -14.8622 -21.9244 3.6197
# 4 -12.7939 -8.7985 -14.8622 35.6281 5.0963 -4.5413
# 5 -9.5683 -9.2603 -21.9244 5.0963 31.5674 -4.8269
# 6 -3.7989 -5.7910 3.6197 -4.5413 -4.8269 30.0903
#
#
#
# Elastic Compliance Matrix: (Units=1/GPa)
#
#
# Indices 1 2 3 4 5 6 
#
# 1 0.007804 -0.002845 -0.001953 0.001387 0.000088 0.000896
# 2 -0.002845 0.009618 -0.000640 0.001107 0.001642 0.001999
# 3 -0.001953 -0.000640 0.028558 0.008561 0.017723 0.000330
# 4 0.001387 0.001107 0.008561 0.032697 0.002120 0.004633
# 5 0.000088 0.001642 0.017723 0.002120 0.045031 0.005739
# 6 0.000896 0.001999 0.000330 0.004633 0.005739 0.035311
#
#
# Mechanical properties :
#
#
# Convention : Reuss Voigt Hill
#
# Bulk Modulus (GPa) = 28.48559 56.51718 42.50139
# Shear Modulus (GPa) = 27.53374 35.87492 31.70433
#
# Velocity S-wave (km/s) = 3.53987 4.04064 3.79851
# Velocity P-wave (km/s) = 5.44714 6.89130 6.21134
#
# Compressibility (1/GPa) = 0.03510546
#
# Stress axis : x y z
#
# Youngs Moduli (GPa) = 128.13638 103.97332 35.01675
#
# Poissons Ratio (x) = 0.29577 0.06838
# Poissons Ratio (y) = 0.36450 0.02240
# Poissons Ratio (z) = 0.25023 0.06651
#
# Static dielectric constant tensor:
#      x y z
#    x 3.981530 0.033010 -0.264650 
#    y 0.033010 4.169640 -0.339020 
#    z -0.264650 -0.339020 4.191260 
# 
# 
# High freq. dielectric constant tensor:
#      x y z
#    x 1.854090 -0.005530 -0.029690 
#    y -0.005530 1.852930 -0.013680 
#    z -0.029690 -0.013680 1.877800 
# 
# From -- ./inp_files/251119.got.cif
#   From: 2010.06.25/outbox.cif.g09.slc.cpg/sg2_126_cif.got.tgz:251119.got - 2010.06.27 13:26:56.
