data_PCOD8018877
_publ_section_title
;
Structure prediction by ZEFSAII (Michael W. Deem and Ramdas Pophale) SiO2 
 PCOD8018877
Probable space group: P -1
;
_chemical_formula_sum "Si O2"
_cell_formula_units_Z 16
_cell_length_a 13.752148
_cell_length_b 13.659495
_cell_length_c 13.462455
_cell_angle_alpha 148.692511
_cell_angle_beta 44.804461
_cell_angle_gamma 148.742470
_cell_volume 679.818494
_symmetry_space_group_name_H-M "P -1"
_symmetry_group_IT_number 2
_symmetry_cell_setting 'triclinic'
loop_
_space_group_symop_operation_xyz
x,y,z
-x,-y,-z
loop_
_atom_site_type_symbol
_atom_site_label
_atom_site_fract_x
_atom_site_fract_y
_atom_site_fract_z
Si Si1 0.661390 0.295537 0.638228
Si Si2 0.411209 0.239732 0.388589
Si Si3 0.162347 0.973964 0.156872
Si Si4 0.766169 0.710793 0.798717
Si Si5 0.236712 0.212169 0.694066
Si Si6 0.499918 0.728800 0.071043
Si Si7 0.056477 0.746101 0.553510
Si Si8 0.290295 0.761749 0.746540
O O1 0.641633 0.408341 0.653128
O O2 0.636785 0.395701 0.843153
O O3 0.855864 0.358314 0.550464
O O4 0.500000 0.000000 0.500000
O O5 0.500000 0.500000 0.500000
O O6 0.293291 0.188018 0.525253
O O7 0.578348 0.247546 0.290268
O O8 0.265987 0.020236 0.223706
O O9 0.949707 0.833576 0.214771
O O10 0.259655 0.234164 0.247746
O O11 0.168761 0.792667 0.928016
O O12 0.981839 0.835958 0.765183
O O13 0.703021 0.811756 0.012043
O O14 0.207096 0.993846 0.590696
O O15 0.401142 0.502728 0.865168
O O16 0.558657 0.991185 0.220136
O O17 0.863756 0.507806 0.431133
#
# Coordination Sequence:
#
# PCOD8018877 Si02
#       8
#     2   2   2   2   2   2   2   2
#     4  12  24  40  66 100 130 172 219 267 327 390
#     4  12  23  41  68  97 131 175 217 266 330 391
#     4  10  23  40  62  94 132 173 220 272 320 380
#     4  10  22  41  61  91 132 170 214 263 320 381
#     4  11  23  43  66  96 132 173 217 269 327 387
#     4  11  23  43  67  95 133 173 215 271 325 387
#     4  11  23  43  67  95 133 173 215 271 325 387
#     4  11  23  43  66  96 132 173 217 269 327 387
#
# _framework density 23.535693999999999
#
# number of rings (size 3 to 8) (size 9 to 14) (size 15 to 20)
#    0.000    1.000    0.000    8.250    0.000    0.000 
#    0.000   11.250    0.000    0.000    0.000    0.000 
#    0.000    0.000    0.000    0.000    0.000    0.000 
#
# Total GULP energy -198219.039079 kJ/mol
# GULP energy per Si atom -12388.689942 kJ/mol
# Density = 2.348213 g / cm^3
# Si number density = 23.535694 Si / 1000 Ang^3
#
#
#
# Elastic Constant Matrix: (Units=GPa)
#
#
# Indices 1 2 3 4 5 6 
#
# 1 96.2102 23.6759 33.2526 0.0757 -33.2092 9.1541
# 2 23.6759 103.8779 28.3343 -1.6534 -18.5307 -5.1740
# 3 33.2526 28.3343 74.5915 -14.5161 -30.5348 10.2609
# 4 0.0757 -1.6534 -14.5161 59.2200 11.0683 -14.2692
# 5 -33.2092 -18.5307 -30.5348 11.0683 38.8886 5.4503
# 6 9.1541 -5.1740 10.2609 -14.2692 5.4503 35.2434
#
#
#
# Elastic Compliance Matrix: (Units=1/GPa)
#
#
# Indices 1 2 3 4 5 6 
#
# 1 0.017707 -0.001525 0.000079 -0.005680 0.017453 -0.009845
# 2 -0.001525 0.011269 -0.003721 -0.000003 0.000724 0.003020
# 3 0.000079 -0.003721 0.023726 -0.000251 0.018457 -0.010430
# 4 -0.005680 -0.000003 -0.000251 0.022338 -0.013177 0.012630
# 5 0.017453 0.000724 0.018457 -0.013177 0.062686 -0.024830
# 6 -0.009845 0.003020 -0.010430 0.012630 -0.024830 0.043365
#
#
# Mechanical properties :
#
#
# Convention : Reuss Voigt Hill
#
# Bulk Modulus (GPa) = 23.60218 49.46724 36.53471
# Shear Modulus (GPa) = 24.32542 39.29820 31.81181
#
# Velocity S-wave (km/s) = 3.21838 4.09066 3.68046
# Velocity P-wave (km/s) = 4.88474 6.58597 5.79809
#
# Compressibility (1/GPa) = 0.04236896
#
# Stress axis : x y z
#
# Youngs Moduli (GPa) = 56.47365 88.74271 42.14770
#
# Poissons Ratio (x) = 0.13530 -0.00332
# Poissons Ratio (y) = 0.08610 0.15681
# Poissons Ratio (z) = -0.00445 0.33017
#
# Static dielectric constant tensor:
#      x y z
#    x 4.806020 -0.281160 -0.078500 
#    y -0.281160 4.240110 -0.054300 
#    z -0.078500 -0.054300 4.149420 
# 
# 
# High freq. dielectric constant tensor:
#      x y z
#    x 1.921090 -0.000150 -0.027260 
#    y -0.000150 1.950940 -0.018630 
#    z -0.027260 -0.018630 1.944420 
# 
# From -- ./inp_files/534554.got.cif
#   From: 2010.06.25/outbox.cif.g09.slc.cpg/sg2_268_cif.got.tgz:534554.got - 2010.06.27 13:26:56.
