data_PCOD8018547
_publ_section_title
;
Structure prediction by ZEFSAII (Michael W. Deem and Ramdas Pophale) SiO2 
 PCOD8018547
Probable space group: P -1
;
_chemical_formula_sum "Si O2"
_cell_formula_units_Z 16
_cell_length_a 15.553994
_cell_length_b 8.651330
_cell_length_c 10.693674
_cell_angle_alpha 43.688283
_cell_angle_beta 129.227393
_cell_angle_gamma 131.270530
_cell_volume 712.788793
_symmetry_space_group_name_H-M "P -1"
_symmetry_group_IT_number 2
_symmetry_cell_setting 'triclinic'
loop_
_space_group_symop_operation_xyz
x,y,z
-x,-y,-z
loop_
_atom_site_type_symbol
_atom_site_label
_atom_site_fract_x
_atom_site_fract_y
_atom_site_fract_z
Si Si1 0.748925 0.555009 0.994081
Si Si2 0.120907 0.103069 0.870669
Si Si3 0.402621 0.737427 0.766314
Si Si4 0.917486 0.741339 0.519570
Si Si5 0.404305 0.230538 0.434999
Si Si6 0.654892 0.642473 0.427994
Si Si7 0.032619 0.430326 0.937116
Si Si8 0.362370 0.223647 0.924336
O O1 0.658668 0.671440 0.787500
O O2 0.847830 0.737303 0.069805
O O3 0.670938 0.320022 0.138272
O O4 0.822782 0.477753 0.000707
O O5 0.085981 0.240971 0.643892
O O6 0.234419 0.042242 0.963205
O O7 0.014481 0.856833 0.951623
O O8 0.369419 0.499862 0.789862
O O9 0.380053 0.950458 0.546286
O O10 0.541783 0.838664 0.872320
O O11 0.785615 0.638578 0.521804
O O12 0.977721 0.548232 0.712309
O O13 0.000000 0.000000 0.500000
O O14 0.547438 0.378459 0.483916
O O15 0.342786 0.234800 0.508650
O O16 0.625874 0.803212 0.198318
O O17 0.000000 0.500000 0.000000
#
# Coordination Sequence:
#
# PCOD8018547 Si02
#       8
#     2   2   2   2   2   2   2   2
#     4  11  25  44  63 100 134 164 224 263 324 394
#     4  10  24  43  66  96 130 171 213 274 318 388
#     4  10  22  40  67  93 130 177 201 268 329 376
#     4  11  24  44  67  94 131 168 219 270 314 387
#     4  11  24  41  66  95 134 170 208 275 321 387
#     4  10  23  43  62  98 130 165 224 262 323 390
#     4  12  25  42  70  95 128 178 215 268 327 375
#     4   9  20  43  62  95 134 161 220 259 319 397
#
# _framework density 22.447042
#
# number of rings (size 3 to 8) (size 9 to 14) (size 15 to 20)
#    0.000    1.500    2.500    1.125    3.500    4.500 
#    0.000    0.000    0.000    0.000    0.000    0.000 
#    0.000    0.000    0.000    0.000    0.000    0.000 
#
# Total GULP energy -198374.758683 kJ/mol
# GULP energy per Si atom -12398.422418 kJ/mol
# Density = 2.239595 g / cm^3
# Si number density = 22.447042 Si / 1000 Ang^3
#
#
#
# Elastic Constant Matrix: (Units=GPa)
#
#
# Indices 1 2 3 4 5 6 
#
# 1 99.0659 18.7599 30.7676 -1.9345 -4.2679 14.7232
# 2 18.7599 54.8794 30.1458 9.1682 2.8840 4.6061
# 3 30.7676 30.1458 112.5142 -0.0681 7.2647 13.1246
# 4 -1.9345 9.1682 -0.0681 31.2187 -2.3332 -4.2272
# 5 -4.2679 2.8840 7.2647 -2.3332 31.1793 8.9071
# 6 14.7232 4.6061 13.1246 -4.2272 8.9071 34.5151
#
#
#
# Elastic Compliance Matrix: (Units=1/GPa)
#
#
# Indices 1 2 3 4 5 6 
#
# 1 0.012272 -0.002973 -0.002248 0.001268 0.003959 -0.004849
# 2 -0.002973 0.023503 -0.005342 -0.007269 -0.001805 -0.000262
# 3 -0.002248 -0.005342 0.011287 0.001046 -0.001785 -0.002031
# 4 0.001268 -0.007269 0.001046 0.034916 0.002142 0.003755
# 5 0.003959 -0.001805 -0.001785 0.002142 0.036169 -0.009840
# 6 -0.004849 -0.000262 -0.002031 0.003755 -0.009840 0.034848
#
#
# Mechanical properties :
#
#
# Convention : Reuss Voigt Hill
#
# Bulk Modulus (GPa) = 38.55640 47.31181 42.93410
# Shear Modulus (GPa) = 27.35751 31.83503 29.59627
#
# Velocity S-wave (km/s) = 3.49486 3.77002 3.63505
# Velocity P-wave (km/s) = 5.78786 6.33037 6.06518
#
# Compressibility (1/GPa) = 0.02593603
#
# Stress axis : x y z
#
# Youngs Moduli (GPa) = 81.48934 42.54722 88.60064
#
# Poissons Ratio (x) = 0.12648 0.19921
# Poissons Ratio (y) = 0.24224 0.47327
# Poissons Ratio (z) = 0.18322 0.22727
#
# Static dielectric constant tensor:
#      x y z
#    x 4.341860 -0.020880 -0.101630 
#    y -0.020880 4.348440 0.037570 
#    z -0.101630 0.037570 4.031360 
# 
# 
# High freq. dielectric constant tensor:
#      x y z
#    x 1.897840 0.016240 -0.016340 
#    y 0.016240 1.876010 0.013560 
#    z -0.016340 0.013560 1.877810 
# 
# From -- ./inp_files/429108.got.cif
#   From: 2010.06.25/outbox.cif.g09.slc.cpg/sg2_215_cif.got.tgz:429108.got - 2010.06.27 13:26:56.
