data_PCOD8019271
_publ_section_title
;
Structure prediction by ZEFSAII (Michael W. Deem and Ramdas Pophale) SiO2 
 PCOD8019271
Probable space group: P -1
;
_chemical_formula_sum "Si O2"
_cell_formula_units_Z 16
_cell_length_a 14.423431
_cell_length_b 8.258728
_cell_length_c 13.665212
_cell_angle_alpha 73.554989
_cell_angle_beta 137.614996
_cell_angle_gamma 74.997501
_cell_volume 726.172540
_symmetry_space_group_name_H-M "P -1"
_symmetry_group_IT_number 2
_symmetry_cell_setting 'triclinic'
loop_
_space_group_symop_operation_xyz
x,y,z
-x,-y,-z
loop_
_atom_site_type_symbol
_atom_site_label
_atom_site_fract_x
_atom_site_fract_y
_atom_site_fract_z
Si Si1 0.187806 0.158718 0.616299
Si Si2 0.106464 0.926814 0.847709
Si Si3 0.511396 0.192553 0.474910
Si Si4 0.164249 0.978300 0.089918
Si Si5 0.846948 0.422518 0.454302
Si Si6 0.443326 0.680354 0.007278
Si Si7 0.206060 0.070231 0.424871
Si Si8 0.895308 0.505683 0.827604
O O1 0.194507 0.353298 0.576411
O O2 0.216437 0.039339 0.554945
O O3 0.974408 0.303898 0.473356
O O4 0.368453 0.927385 0.863513
O O5 0.957125 0.214693 0.658062
O O6 0.264852 0.755105 0.915711
O O7 0.230272 0.855644 0.055390
O O8 0.980268 0.868469 0.772940
O O9 0.286310 0.451334 0.279262
O O10 0.500000 0.000000 0.500000
O O11 0.649020 0.157530 0.670498
O O12 0.594158 0.172427 0.435158
O O13 0.056124 0.252174 0.940497
O O14 0.000000 0.000000 0.000000
O O15 0.631987 0.535578 0.248285
O O16 0.500000 0.500000 0.000000
O O17 0.180333 0.289761 0.343513
O O18 0.000000 0.500000 0.000000
#
# Coordination Sequence:
#
# PCOD8019271 Si02
#       8
#     2   2   2   2   2   2   2   2
#     4  10  22  41  66  92 127 168 214 272 326 388
#     4  11  24  41  65  96 133 173 213 272 329 387
#     4  10  22  42  64  92 129 168 219 265 320 388
#     4  12  23  44  64  96 134 169 221 274 321 388
#     4  10  22  44  63  94 131 165 215 272 329 388
#     4  11  23  42  65  96 131 167 216 269 327 393
#     4  11  21  42  62  95 129 168 222 260 327 392
#     4  11  22  43  65  89 130 174 214 270 324 380
#
# _framework density 22.033331
#
# number of rings (size 3 to 8) (size 9 to 14) (size 15 to 20)
#    0.000    1.250    3.750    2.625    0.000    5.500 
#   11.250    0.000    0.000    0.000    0.000    0.000 
#    0.000    0.000    0.000    0.000    0.000    0.000 
#
# Total GULP energy -198353.722455 kJ/mol
# GULP energy per Si atom -12397.107653 kJ/mol
# Density = 2.198318 g / cm^3
# Si number density = 22.033331 Si / 1000 Ang^3
#
#
#
# Elastic Constant Matrix: (Units=GPa)
#
#
# Indices 1 2 3 4 5 6 
#
# 1 86.7110 32.3171 27.1393 8.7780 11.3946 -15.5697
# 2 32.3171 88.5403 26.8349 8.8849 7.8826 -18.6233
# 3 27.1393 26.8349 104.9685 16.4613 17.9494 -8.5444
# 4 8.7780 8.8849 16.4613 42.0390 1.1538 -2.8804
# 5 11.3946 7.8826 17.9494 1.1538 34.3738 4.5151
# 6 -15.5697 -18.6233 -8.5444 -2.8804 4.5151 39.6350
#
#
#
# Elastic Compliance Matrix: (Units=1/GPa)
#
#
# Indices 1 2 3 4 5 6 
#
# 1 0.014740 -0.003540 -0.001751 -0.001264 -0.003652 0.004073
# 2 -0.003540 0.014520 -0.001882 -0.001190 -0.001809 0.005146
# 3 -0.001751 -0.001882 0.012070 -0.003722 -0.005345 0.001368
# 4 -0.001264 -0.001190 -0.003722 0.025698 0.001799 -0.000196
# 5 -0.003652 -0.001809 -0.005345 0.001799 0.034397 -0.007225
# 6 0.004073 0.005146 0.001368 -0.000196 -0.007225 0.030352
#
#
# Mechanical properties :
#
#
# Convention : Reuss Voigt Hill
#
# Bulk Modulus (GPa) = 37.06165 50.31137 43.68651
# Shear Modulus (GPa) = 32.23384 36.13814 34.18599
#
# Velocity S-wave (km/s) = 3.82901 4.05428 3.94326
# Velocity P-wave (km/s) = 6.03371 6.69328 6.37204
#
# Compressibility (1/GPa) = 0.02698207
#
# Stress axis : x y z
#
# Youngs Moduli (GPa) = 67.84484 68.87219 82.85236
#
# Poissons Ratio (x) = 0.24383 0.14511
# Poissons Ratio (y) = 0.24019 0.15590
# Poissons Ratio (z) = 0.11883 0.12959
#
# Static dielectric constant tensor:
#      x y z
#    x 4.184280 -0.086940 0.249680 
#    y -0.086940 4.142490 -0.042170 
#    z 0.249680 -0.042170 4.108610 
# 
# 
# High freq. dielectric constant tensor:
#      x y z
#    x 1.868700 -0.002640 0.007140 
#    y -0.002640 1.875040 -0.001850 
#    z 0.007140 -0.001850 1.862150 
# 
# From -- ./inp_files/483857.got.cif
#   From: 2010.06.25/outbox.cif.g09.slc.cpg/sg2_242_cif.got.tgz:483857.got - 2010.06.27 13:26:56.
