data_PCOD8019206
_publ_section_title
;
Structure prediction by ZEFSAII (Michael W. Deem and Ramdas Pophale) SiO2 
 PCOD8019206
Probable space group: P -1
;
_chemical_formula_sum "Si O2"
_cell_formula_units_Z 14
_cell_length_a 6.020066
_cell_length_b 27.414111
_cell_length_c 27.588203
_cell_angle_alpha 10.002781
_cell_angle_beta 46.384903
_cell_angle_gamma 47.108247
_cell_volume 572.530151
_symmetry_space_group_name_H-M "P -1"
_symmetry_group_IT_number 2
_symmetry_cell_setting 'triclinic'
loop_
_space_group_symop_operation_xyz
x,y,z
-x,-y,-z
loop_
_atom_site_type_symbol
_atom_site_label
_atom_site_fract_x
_atom_site_fract_y
_atom_site_fract_z
Si Si1 0.746603 0.855171 0.392711
Si Si2 0.677487 0.082441 0.073838
Si Si3 0.668770 0.714497 0.701865
Si Si4 0.361190 0.271944 0.777893
Si Si5 0.556163 0.410788 0.922555
Si Si6 0.597268 0.452460 0.398109
Si Si7 0.892881 0.234184 0.205470
O O1 0.511288 0.616618 0.681096
O O2 0.072475 0.695689 0.501295
O O3 0.642395 0.965782 0.247724
O O4 0.756670 0.132631 0.153202
O O5 0.643136 0.804322 0.317737
O O6 0.427122 0.328692 0.857794
O O7 0.995774 0.240147 0.863008
O O8 0.725807 0.604295 0.746960
O O9 0.313408 0.820227 0.661876
O O10 0.902807 0.965366 0.431498
O O11 0.733792 0.475961 0.963270
O O12 0.500000 0.500000 0.500000
O O13 0.472811 0.348135 0.740515
O O14 0.500000 0.000000 0.000000
O O15 0.238351 0.312279 0.090617
#
# Coordination Sequence:
#
# PCOD8019206 Si02
#       7
#     2   2   2   2   2   2   2
#     4  12  27  46  69 103 140 183 241 286 327 413
#     4  12  26  48  74 100 142 191 225 276 349 402
#     4  10  22  41  65  96 133 173 223 284 350 416
#     4  12  26  46  74 111 142 169 231 290 327 409
#     4  12  24  42  68  98 136 180 229 288 347 398
#     4  12  26  48  74 100 142 191 225 276 349 402
#     4  10  22  41  65  96 133 173 223 284 350 416
#
# _framework density 24.452860999999999
#
# number of rings (size 3 to 8) (size 9 to 14) (size 15 to 20)
#    0.000    0.571    0.000    9.000    0.000    8.000 
#    0.000    8.571    0.000    0.000    0.000    0.000 
#    0.000    0.000    0.000    0.000    0.000    0.000 
#
# Total GULP energy -173498.661451 kJ/mol
# GULP energy per Si atom -12392.761532 kJ/mol
# Density = 2.439721 g / cm^3
# Si number density = 24.452861 Si / 1000 Ang^3
#
#
#
# Elastic Constant Matrix: (Units=GPa)
#
#
# Indices 1 2 3 4 5 6 
#
# 1 80.3208 22.4666 40.8582 -8.0769 -1.8484 17.7989
# 2 22.4666 84.2817 37.3823 -15.5523 0.5641 19.7511
# 3 40.8582 37.3823 181.6404 -12.9857 -2.5989 15.7243
# 4 -8.0769 -15.5523 -12.9857 51.7596 4.9404 -9.4364
# 5 -1.8484 0.5641 -2.5989 4.9404 59.1759 -3.3743
# 6 17.7989 19.7511 15.7243 -9.4364 -3.3743 23.7282
#
#
#
# Elastic Compliance Matrix: (Units=1/GPa)
#
#
# Indices 1 2 3 4 5 6 
#
# 1 0.016173 -0.000896 -0.002625 -0.000165 -0.000143 -0.009732
# 2 -0.000896 0.015878 -0.002012 0.002324 -0.001057 -0.010438
# 3 -0.002625 -0.002012 0.006593 0.000536 0.000154 -0.000490
# 4 -0.000165 0.002324 0.000536 0.021383 -0.001439 0.006133
# 5 -0.000143 -0.001057 0.000154 -0.001439 0.017189 0.002757
# 6 -0.009732 -0.010438 -0.000490 0.006133 0.002757 0.061289
#
#
# Mechanical properties :
#
#
# Convention : Reuss Voigt Hill
#
# Bulk Modulus (GPa) = 36.25918 60.85079 48.55499
# Shear Modulus (GPa) = 31.49400 43.30177 37.39789
#
# Velocity S-wave (km/s) = 3.59269 4.21268 3.91498
# Velocity P-wave (km/s) = 5.66306 6.97146 6.35104
#
# Compressibility (1/GPa) = 0.02757922
#
# Stress axis : x y z
#
# Youngs Moduli (GPa) = 61.83290 62.98027 151.68049
#
# Poissons Ratio (x) = 0.05640 0.39814
# Poissons Ratio (y) = 0.05537 0.30513
# Poissons Ratio (z) = 0.16230 0.12670
#
# Static dielectric constant tensor:
#      x y z
#    x 4.335140 0.074370 -0.099120 
#    y 0.074370 4.709550 -0.039130 
#    z -0.099120 -0.039130 4.935710 
# 
# 
# High freq. dielectric constant tensor:
#      x y z
#    x 1.957830 0.004380 -0.008460 
#    y 0.004380 1.966170 -0.008040 
#    z -0.008460 -0.008040 2.007950 
# 
# From -- ./inp_files/615968.got.cif
#   From: 2010.06.25/outbox.cif.g09.slc.cpg/sg2_308_cif.got.tgz:615968.got - 2010.06.27 13:26:56.
