data_PCOD8019040
_publ_section_title
;
Structure prediction by ZEFSAII (Michael W. Deem and Ramdas Pophale) SiO2 
 PCOD8019040
Probable space group: P -1
;
_chemical_formula_sum "Si O2"
_cell_formula_units_Z 14
_cell_length_a 23.226420
_cell_length_b 8.642176
_cell_length_c 11.638423
_cell_angle_alpha 54.950694
_cell_angle_beta 159.888622
_cell_angle_gamma 132.190291
_cell_volume 580.411793
_symmetry_space_group_name_H-M "P -1"
_symmetry_group_IT_number 2
_symmetry_cell_setting 'triclinic'
loop_
_space_group_symop_operation_xyz
x,y,z
-x,-y,-z
loop_
_atom_site_type_symbol
_atom_site_label
_atom_site_fract_x
_atom_site_fract_y
_atom_site_fract_z
Si Si1 0.481731 0.131146 0.014775
Si Si2 0.818129 0.899407 0.372354
Si Si3 0.045859 0.648632 0.912884
Si Si4 0.405788 0.035362 0.488436
Si Si5 0.248725 0.584252 0.133778
Si Si6 0.433056 0.438719 0.120581
Si Si7 0.192195 0.294770 0.942263
O O1 0.594948 0.085627 0.345559
O O2 0.269487 0.062045 0.691093
O O3 0.566172 0.382821 0.039572
O O4 0.500000 0.000000 0.000000
O O5 0.888824 0.724521 0.594365
O O6 0.660535 0.795942 0.018875
O O7 0.995540 0.129751 0.581708
O O8 0.052597 0.542701 0.848393
O O9 0.000000 0.500000 0.000000
O O10 0.261121 0.842201 0.221325
O O11 0.612260 0.174903 0.757271
O O12 0.308363 0.185929 0.265783
O O13 0.361383 0.512240 0.467198
O O14 0.164203 0.432253 0.930192
O O15 0.313469 0.445806 0.002299
#
# Coordination Sequence:
#
# PCOD8019040 Si02
#       7
#     2   2   2   2   2   2   2
#     4  12  24  41  65  96 128 167 213 265 318 377
#     4  11  25  41  62  95 130 164 209 269 321 369
#     4  11  23  40  64  96 131 168 211 263 320 378
#     4  10  22  41  64  91 127 172 214 253 316 390
#     4  11  22  43  68  92 125 174 217 255 310 387
#     4  11  22  43  68  93 127 171 215 259 313 382
#     4  10  23  43  66  95 128 166 214 266 315 369
#
# _framework density 24.120804
#
# number of rings (size 3 to 8) (size 9 to 14) (size 15 to 20)
#    0.000    1.143    0.000    7.286    0.000    5.714 
#    0.000    5.714    0.000    0.000    0.000    0.000 
#    0.000    0.000    0.000    0.000    0.000    0.000 
#
# Total GULP energy -173489.680426 kJ/mol
# GULP energy per Si atom -12392.120030 kJ/mol
# Density = 2.406590 g / cm^3
# Si number density = 24.120804 Si / 1000 Ang^3
#
#
#
# Elastic Constant Matrix: (Units=GPa)
#
#
# Indices 1 2 3 4 5 6 
#
# 1 141.7328 24.1157 11.6040 -11.8663 13.3692 -20.4424
# 2 24.1157 74.8726 1.5457 4.8373 -1.7382 14.8640
# 3 11.6040 1.5457 64.0120 4.8237 0.0671 -4.0016
# 4 -11.8663 4.8373 4.8237 26.7509 -3.3092 -6.1089
# 5 13.3692 -1.7382 0.0671 -3.3092 38.7096 -11.1973
# 6 -20.4424 14.8640 -4.0016 -6.1089 -11.1973 46.9767
#
#
#
# Elastic Compliance Matrix: (Units=1/GPa)
#
#
# Indices 1 2 3 4 5 6 
#
# 1 0.009539 -0.004698 -0.001735 0.006635 -0.001179 0.006072
# 2 -0.004698 0.016999 0.000458 -0.007266 -0.000693 -0.008494
# 3 -0.001735 0.000458 0.016210 -0.003724 0.000292 0.000066
# 4 0.006635 -0.007266 -0.003724 0.045621 0.004740 0.011932
# 5 -0.001179 -0.000693 0.000292 0.004740 0.028693 0.007187
# 6 0.006072 -0.008494 0.000066 0.011932 0.007187 0.029887
#
#
# Mechanical properties :
#
#
# Convention : Reuss Voigt Hill
#
# Bulk Modulus (GPa) = 32.46804 39.46090 35.96447
# Shear Modulus (GPa) = 29.55671 38.71092 34.13381
#
# Velocity S-wave (km/s) = 3.50431 4.01044 3.76589
# Velocity P-wave (km/s) = 5.46475 6.15142 5.81822
#
# Compressibility (1/GPa) = 0.03079952
#
# Stress axis : x y z
#
# Youngs Moduli (GPa) = 104.82889 58.82542 61.69032
#
# Poissons Ratio (x) = 0.27637 0.10703
# Poissons Ratio (y) = 0.49249 -0.02828
# Poissons Ratio (z) = 0.18188 -0.02697
#
# Static dielectric constant tensor:
#      x y z
#    x 4.517450 -0.047270 -0.077200 
#    y -0.047270 4.419680 -0.070990 
#    z -0.077200 -0.070990 4.530670 
# 
# 
# High freq. dielectric constant tensor:
#      x y z
#    x 1.967900 -0.004100 0.005000 
#    y -0.004100 1.960690 -0.006970 
#    z 0.005000 -0.006970 1.952330 
# 
# From -- ./inp_files/189577.got.cif
#   From: 2010.06.25/outbox.cif.g09.slc.cpg/sg2_95_cif.got.tgz:189577.got - 2010.06.27 13:26:56.
