data_PCOD8019138
_publ_section_title
;
Structure prediction by ZEFSAII (Michael W. Deem and Ramdas Pophale) SiO2 
 PCOD8019138
Probable space group: P -1
;
_chemical_formula_sum "Si O2"
_cell_formula_units_Z 16
_cell_length_a 15.594818
_cell_length_b 8.671769
_cell_length_c 10.953532
_cell_angle_alpha 118.211030
_cell_angle_beta 107.928276
_cell_angle_gamma 122.250133
_cell_volume 728.299316
_symmetry_space_group_name_H-M "P -1"
_symmetry_group_IT_number 2
_symmetry_cell_setting 'triclinic'
loop_
_space_group_symop_operation_xyz
x,y,z
-x,-y,-z
loop_
_atom_site_type_symbol
_atom_site_label
_atom_site_fract_x
_atom_site_fract_y
_atom_site_fract_z
Si Si1 0.728216 0.958183 0.714358
Si Si2 0.199344 0.257662 0.763295
Si Si3 0.676709 0.846750 0.385133
Si Si4 0.106535 0.413845 0.628208
Si Si5 0.410367 0.618044 0.482622
Si Si6 0.075137 0.724339 0.853431
Si Si7 0.760406 0.321261 0.473206
Si Si8 0.660689 0.627054 0.890462
O O1 0.772387 0.052917 0.626457
O O2 0.595027 0.885165 0.669374
O O3 0.669186 0.666960 0.589398
O O4 0.877627 0.221137 0.963372
O O5 0.258719 0.227620 0.670603
O O6 0.203497 0.461422 0.790174
O O7 0.305266 0.424915 0.991148
O O8 0.029769 0.927450 0.605052
O O9 0.501742 0.530259 0.227723
O O10 0.682698 0.013282 0.353050
O O11 0.036450 0.476383 0.683451
O O12 0.211400 0.629398 0.640508
O O13 0.360747 0.719915 0.560981
O O14 0.350921 0.529712 0.283582
O O15 0.920283 0.595469 0.721687
O O16 0.213596 0.027459 0.951790
#
# Coordination Sequence:
#
# PCOD8019138 Si02
#       8
#     2   2   2   2   2   2   2   2
#     4   9  21  41  62  90 129 161 198 252 308 360
#     4  11  22  42  62  90 121 162 205 254 307 362
#     4  11  23  40  64  93 125 160 202 255 305 362
#     4  11  24  40  62  88 126 159 202 261 307 355
#     4   9  21  41  63  91 126 164 200 250 306 363
#     4  11  22  42  65  90 125 164 204 252 304 364
#     4  12  23  40  65  92 125 162 207 252 303 364
#     4  10  22  41  65  89 124 162 201 251 308 364
#
# _framework density 21.968990000000002
#
# number of rings (size 3 to 8) (size 9 to 14) (size 15 to 20)
#    0.000    1.500    2.500    3.000    0.000    6.500 
#    4.500    1.875    0.000    0.000    0.000    0.000 
#    0.000    0.000    0.000    0.000    0.000    0.000 
#
# Total GULP energy -198450.242962 kJ/mol
# GULP energy per Si atom -12403.140185 kJ/mol
# Density = 2.191899 g / cm^3
# Si number density = 21.968990 Si / 1000 Ang^3
#
#
#
# Elastic Constant Matrix: (Units=GPa)
#
#
# Indices 1 2 3 4 5 6 
#
# 1 88.2445 9.5496 -14.2907 -9.8926 9.6854 -7.0354
# 2 9.5496 85.1612 9.1210 -25.0720 1.8483 2.1408
# 3 -14.2907 9.1210 56.0056 -21.0661 12.2949 -9.8516
# 4 -9.8926 -25.0720 -21.0661 43.9466 0.7588 0.9647
# 5 9.6854 1.8483 12.2949 0.7588 22.8006 -3.7809
# 6 -7.0354 2.1408 -9.8516 0.9647 -3.7809 25.8847
#
#
#
# Elastic Compliance Matrix: (Units=1/GPa)
#
#
# Indices 1 2 3 4 5 6 
#
# 1 0.016055 -0.000283 0.011326 0.008946 -0.012108 0.006596
# 2 -0.000283 0.014298 0.001075 0.008679 -0.002154 -0.001488
# 3 0.011326 0.001075 0.035296 0.020200 -0.022551 0.012376
# 4 0.008946 0.008679 0.020200 0.039552 -0.015780 0.005623
# 5 -0.012108 -0.002154 -0.022551 -0.015780 0.061510 -0.002123
# 6 0.006596 -0.001488 0.012376 0.005623 -0.002123 0.044739
#
#
# Mechanical properties :
#
#
# Convention : Reuss Voigt Hill
#
# Bulk Modulus (GPa) = 11.12526 26.46346 18.79436
# Shear Modulus (GPa) = 23.02290 33.52848 28.27569
#
# Velocity S-wave (km/s) = 3.24075 3.91086 3.59147
# Velocity P-wave (km/s) = 4.36788 5.69782 5.07659
#
# Compressibility (1/GPa) = 0.08988552
#
# Stress axis : x y z
#
# Youngs Moduli (GPa) = 62.28739 69.93857 28.33190
#
# Poissons Ratio (x) = 0.01976 -0.32089
# Poissons Ratio (y) = 0.01760 -0.03046
# Poissons Ratio (z) = -0.70546 -0.07518
#
# Static dielectric constant tensor:
#      x y z
#    x 3.742330 0.029120 0.202570 
#    y 0.029120 4.136800 -0.218770 
#    z 0.202570 -0.218770 3.873810 
# 
# 
# High freq. dielectric constant tensor:
#      x y z
#    x 1.853180 0.004030 0.012250 
#    y 0.004030 1.875330 -0.013020 
#    z 0.012250 -0.013020 1.855900 
# 
# From -- ./inp_files/240261.got.cif
#   From: 2010.06.25/outbox.cif.g09.slc.cpg/sg2_121_cif.got.tgz:240261.got - 2010.06.27 13:26:56.
