data_PCOD8019235
_publ_section_title
;
Structure prediction by ZEFSAII (Michael W. Deem and Ramdas Pophale) SiO2 
 PCOD8019235
Probable space group: P -1
;
_chemical_formula_sum "Si O2"
_cell_formula_units_Z 16
_cell_length_a 9.600995
_cell_length_b 16.056795
_cell_length_c 8.407757
_cell_angle_alpha 130.818330
_cell_angle_beta 123.089413
_cell_angle_gamma 89.493523
_cell_volume 686.956615
_symmetry_space_group_name_H-M "P -1"
_symmetry_group_IT_number 2
_symmetry_cell_setting 'triclinic'
loop_
_space_group_symop_operation_xyz
x,y,z
-x,-y,-z
loop_
_atom_site_type_symbol
_atom_site_label
_atom_site_fract_x
_atom_site_fract_y
_atom_site_fract_z
Si Si1 0.671437 0.134286 0.848376
Si Si2 0.825725 0.207524 0.700999
Si Si3 0.371987 0.690209 0.491220
Si Si4 0.991783 0.873052 0.778178
Si Si5 0.613453 0.912924 0.138880
Si Si6 0.425925 0.567009 0.649107
Si Si7 0.850057 0.812452 0.266512
Si Si8 0.381670 0.393603 0.659631
O O1 0.793173 0.229644 0.893857
O O2 0.557744 0.179064 0.948721
O O3 0.500000 0.000000 0.500000
O O4 0.811067 0.113982 0.023732
O O5 0.806644 0.311166 0.711615
O O6 0.044286 0.233211 0.848606
O O7 0.660253 0.059543 0.352472
O O8 0.300372 0.606424 0.508286
O O9 0.466186 0.634364 0.364801
O O10 0.538310 0.841973 0.832577
O O11 0.985590 0.865411 0.574076
O O12 0.800458 0.741957 0.560665
O O13 0.000000 0.000000 0.000000
O O14 0.822421 0.926813 0.324843
O O15 0.500000 0.500000 0.500000
O O16 0.298574 0.460666 0.574666
O O17 0.623726 0.692562 0.006892
O O18 0.500000 0.500000 0.000000
#
# Coordination Sequence:
#
# PCOD8019235 Si02
#       8
#     2   2   2   2   2   2   2   2
#     4  10  24  42  63  99 151 185 232 295 360 420
#     4  11  23  38  65 105 144 182 235 296 361 421
#     4  10  23  38  72  96 134 191 236 287 351 421
#     4  12  26  40  73 108 144 184 246 295 362 430
#     4  10  22  41  65  99 150 186 229 297 363 424
#     4   9  21  44  66  93 135 187 233 287 347 424
#     4  11  23  41  69 103 143 182 242 292 357 432
#     4  11  24  45  73 105 143 194 237 294 362 431
#
# _framework density 23.291135000000001
#
# number of rings (size 3 to 8) (size 9 to 14) (size 15 to 20)
#    0.000    1.500    1.250    3.000   12.250    0.000 
#    0.000    2.500    2.750    4.500    0.000    0.000 
#    0.000    0.000    0.000    0.000    0.000    0.000 
#
# Total GULP energy -198240.656384 kJ/mol
# GULP energy per Si atom -12390.041024 kJ/mol
# Density = 2.323812 g / cm^3
# Si number density = 23.291135 Si / 1000 Ang^3
#
#
#
# Elastic Constant Matrix: (Units=GPa)
#
#
# Indices 1 2 3 4 5 6 
#
# 1 124.4390 43.0532 29.1482 -12.6660 2.0596 -10.6938
# 2 43.0532 125.6615 20.6939 -29.0846 10.1009 -16.2667
# 3 29.1482 20.6939 89.5704 -11.3088 -9.5199 -4.2790
# 4 -12.6660 -29.0846 -11.3088 44.9744 -3.8324 6.5279
# 5 2.0596 10.1009 -9.5199 -3.8324 35.4303 -5.3799
# 6 -10.6938 -16.2667 -4.2790 6.5279 -5.3799 34.9593
#
#
#
# Elastic Compliance Matrix: (Units=1/GPa)
#
#
# Indices 1 2 3 4 5 6 
#
# 1 0.009677 -0.002679 -0.002472 0.000156 -0.000242 0.001345
# 2 -0.002679 0.010832 -0.001054 0.005399 -0.002215 0.002743
# 3 -0.002472 -0.001054 0.012965 0.002159 0.004251 0.000592
# 4 0.000156 0.005399 0.002159 0.026730 0.001632 -0.001916
# 5 -0.000242 -0.002215 0.004251 0.001632 0.030773 0.003847
# 6 0.001345 0.002743 0.000592 -0.001916 0.003847 0.031314
#
#
# Mechanical properties :
#
#
# Convention : Reuss Voigt Hill
#
# Bulk Modulus (GPa) = 47.47229 58.38463 52.92846
# Shear Modulus (GPa) = 35.28024 39.52449 37.40236
#
# Velocity S-wave (km/s) = 3.89620 4.12391 4.01167
# Velocity P-wave (km/s) = 6.37706 6.91355 6.65072
#
# Compressibility (1/GPa) = 0.02106492
#
# Stress axis : x y z
#
# Youngs Moduli (GPa) = 103.33351 92.32041 77.13104
#
# Poissons Ratio (x) = 0.24732 0.19068
# Poissons Ratio (y) = 0.27683 0.08126
# Poissons Ratio (z) = 0.25546 0.09726
#
# Static dielectric constant tensor:
#      x y z
#    x 4.408920 -0.019850 -0.380140 
#    y -0.019850 3.633450 -0.747160 
#    z -0.380140 -0.747160 3.671160 
# 
# 
# High freq. dielectric constant tensor:
#      x y z
#    x 1.913270 -0.003470 -0.016980 
#    y -0.003470 1.928350 -0.008260 
#    z -0.016980 -0.008260 1.917120 
# 
# From -- ./inp_files/218739.got.cif
#   From: 2010.06.25/outbox.cif.g09.slc.cpg/sg2_110_cif.got.tgz:218739.got - 2010.06.27 13:26:56.
