data_PCOD8019949
_publ_section_title
;
Structure prediction by ZEFSAII (Michael W. Deem and Ramdas Pophale) SiO2 
 PCOD8019949
Probable space group: P -1
;
_chemical_formula_sum "Si O2"
_cell_formula_units_Z 16
_cell_length_a 12.043036
_cell_length_b 8.887063
_cell_length_c 20.446716
_cell_angle_alpha 111.528221
_cell_angle_beta 42.053608
_cell_angle_gamma 141.865768
_cell_volume 770.470866
_symmetry_space_group_name_H-M "P -1"
_symmetry_group_IT_number 2
_symmetry_cell_setting 'triclinic'
loop_
_space_group_symop_operation_xyz
x,y,z
-x,-y,-z
loop_
_atom_site_type_symbol
_atom_site_label
_atom_site_fract_x
_atom_site_fract_y
_atom_site_fract_z
Si Si1 0.780258 0.569505 0.655670
Si Si2 0.761810 0.558095 0.270758
Si Si3 0.143135 0.134899 0.528142
Si Si4 0.739180 0.261281 0.126835
Si Si5 0.164542 0.755201 0.620001
Si Si6 0.087478 0.749478 0.282633
Si Si7 0.794564 0.957321 0.118953
Si Si8 0.742746 0.886268 0.271593
O O1 0.614055 0.382158 0.630627
O O2 0.995729 0.609562 0.600543
O O3 0.523869 0.387336 0.792981
O O4 0.972026 0.884472 0.614256
O O5 0.482276 0.357295 0.409156
O O6 0.733240 0.382196 0.208120
O O7 0.812176 0.755807 0.236020
O O8 0.035946 0.747767 0.228729
O O9 0.101257 0.283647 0.593905
O O10 0.000000 0.000000 0.500000
O O11 0.772718 0.109462 0.116346
O O12 0.434140 0.038694 0.187272
O O13 0.000000 0.500000 0.000000
O O14 0.031151 0.523341 0.692779
O O15 0.500000 0.000000 0.500000
O O16 0.141372 0.914317 0.687669
O O17 0.911540 0.074894 0.161262
O O18 0.000000 0.000000 0.000000
#
# Coordination Sequence:
#
# PCOD8019949 Si02
#       8
#     2   2   2   2   2   2   2   2
#     4  10  23  41  66  93 130 173 225 261 336 392
#     4  12  24  43  70 100 140 175 225 277 332 403
#     4  12  21  41  69  99 137 182 217 271 338 397
#     4  12  26  46  72  98 133 177 228 284 335 393
#     4  12  24  40  64  99 140 173 214 274 332 401
#     4  12  25  42  67 103 139 171 228 276 335 402
#     4  10  22  45  69  90 129 172 221 275 330 389
#     4  10  22  42  63  95 131 175 221 261 328 392
#
# _framework density 20.766521999999998
#
# number of rings (size 3 to 8) (size 9 to 14) (size 15 to 20)
#    0.750    0.000    3.750    4.125    1.750    1.000 
#    0.000    0.625    0.000    0.000    0.000    0.000 
#    0.000    0.000    0.000    0.000    0.000    0.000 
#
# Total GULP energy -198305.574529 kJ/mol
# GULP energy per Si atom -12394.098408 kJ/mol
# Density = 2.071926 g / cm^3
# Si number density = 20.766522 Si / 1000 Ang^3
#
#
#
# Elastic Constant Matrix: (Units=GPa)
#
#
# Indices 1 2 3 4 5 6 
#
# 1 170.5657 52.9164 42.4439 -4.0430 -5.5310 6.2718
# 2 52.9164 93.8824 48.2892 5.4723 -7.8084 -0.2192
# 3 42.4439 48.2892 125.2573 -10.0943 -8.1798 -11.8005
# 4 -4.0430 5.4723 -10.0943 25.8292 -8.5260 -4.6699
# 5 -5.5310 -7.8084 -8.1798 -8.5260 27.1413 -7.4423
# 6 6.2718 -0.2192 -11.8005 -4.6699 -7.4423 39.7386
#
#
#
# Elastic Compliance Matrix: (Units=1/GPa)
#
#
# Indices 1 2 3 4 5 6 
#
# 1 0.007351 -0.003647 -0.001092 0.001315 0.000171 -0.001318
# 2 -0.003647 0.015966 -0.005665 -0.006664 -0.000469 -0.001889
# 3 -0.001092 -0.005665 0.012240 0.008981 0.006306 0.006012
# 4 0.001315 -0.006664 0.008981 0.053131 0.021214 0.012639
# 5 0.000171 -0.000469 0.006306 0.021214 0.049015 0.013516
# 6 -0.001318 -0.001889 0.006012 0.012639 0.013516 0.031164
#
#
# Mechanical properties :
#
#
# Convention : Reuss Voigt Hill
#
# Bulk Modulus (GPa) = 67.80299 75.22269 71.51284
# Shear Modulus (GPa) = 25.69480 34.94555 30.32017
#
# Velocity S-wave (km/s) = 3.52137 4.10662 3.82521
# Velocity P-wave (km/s) = 7.01815 7.66730 7.34990
#
# Compressibility (1/GPa) = 0.01474861
#
# Stress axis : x y z
#
# Youngs Moduli (GPa) = 136.03031 62.63166 81.70227
#
# Poissons Ratio (x) = 0.22844 0.08921
# Poissons Ratio (y) = 0.49615 0.46285
# Poissons Ratio (z) = 0.14853 0.35481
#
# Static dielectric constant tensor:
#      x y z
#    x 5.619780 -0.176460 1.203220 
#    y -0.176460 4.650150 -0.488560 
#    z 1.203220 -0.488560 4.790180 
# 
# 
# High freq. dielectric constant tensor:
#      x y z
#    x 1.836770 -0.003090 0.001660 
#    y -0.003090 1.811310 -0.006770 
#    z 0.001660 -0.006770 1.796190 
# 
# From -- ./inp_files/594146.got.cif
#   From: 2010.06.25/outbox.cif.g09.slc.cpg/sg2_298_cif.got.tgz:594146.got - 2010.06.27 13:26:56.
