data_PCOD8019709
_publ_section_title
;
Structure prediction by ZEFSAII (Michael W. Deem and Ramdas Pophale) SiO2 
 PCOD8019709
Probable space group: P -1
;
_chemical_formula_sum "Si O2"
_cell_formula_units_Z 16
_cell_length_a 9.222687
_cell_length_b 7.995344
_cell_length_c 12.993229
_cell_angle_alpha 109.792268
_cell_angle_beta 70.872616
_cell_angle_gamma 128.205452
_cell_volume 699.282087
_symmetry_space_group_name_H-M "P -1"
_symmetry_group_IT_number 2
_symmetry_cell_setting 'triclinic'
loop_
_space_group_symop_operation_xyz
x,y,z
-x,-y,-z
loop_
_atom_site_type_symbol
_atom_site_label
_atom_site_fract_x
_atom_site_fract_y
_atom_site_fract_z
Si Si1 0.857162 0.701234 0.815489
Si Si2 0.162670 0.577446 0.060129
Si Si3 0.412181 0.286688 0.352037
Si Si4 0.495481 0.248045 0.543938
Si Si5 0.156492 0.621789 0.405245
Si Si6 0.900326 0.163162 0.719417
Si Si7 0.457928 0.590391 0.864132
Si Si8 0.801218 0.850083 0.253228
O O1 0.900557 0.626160 0.894827
O O2 0.816384 0.540329 0.698548
O O3 0.670937 0.697426 0.873240
O O4 0.041984 0.937555 0.799621
O O5 0.199806 0.777487 0.160811
O O6 0.359954 0.664688 0.978341
O O7 0.000000 0.500000 0.000000
O O8 0.459701 0.193328 0.419559
O O9 0.411408 0.494480 0.418911
O O10 0.551341 0.337604 0.235312
O O11 0.206675 0.095399 0.319555
O O12 0.646556 0.207457 0.545782
O O13 0.308279 0.105962 0.626544
O O14 0.094561 0.742228 0.373010
O O15 0.000000 0.500000 0.500000
O O16 0.108432 0.255579 0.727259
O O17 0.342352 0.327032 0.834108
#
# Coordination Sequence:
#
# PCOD8019709 Si02
#       8
#     2   2   2   2   2   2   2   2
#     4  11  24  47  68  98 130 180 227 268 333 405
#     4  11  25  45  67 100 135 172 220 289 338 383
#     4  10  22  41  70  96 129 179 227 261 326 406
#     4  10  23  43  67  97 136 178 223 263 332 402
#     4  11  25  41  62  98 143 175 212 282 334 388
#     4  11  24  42  65  99 136 170 227 274 337 389
#     4  11  22  45  70  94 134 176 227 277 326 395
#     4  11  22  43  72  95 130 178 228 269 319 413
#
# _framework density 22.880610000000001
#
# number of rings (size 3 to 8) (size 9 to 14) (size 15 to 20)
#    0.000    1.250    5.000    0.375    7.000    2.000 
#    2.250    0.000    0.000    0.000    0.000    0.000 
#    0.000    0.000    0.000    0.000    0.000    0.000 
#
# Total GULP energy -198399.705370 kJ/mol
# GULP energy per Si atom -12399.981586 kJ/mol
# Density = 2.282853 g / cm^3
# Si number density = 22.880610 Si / 1000 Ang^3
#
#
#
# Elastic Constant Matrix: (Units=GPa)
#
#
# Indices 1 2 3 4 5 6 
#
# 1 125.2804 30.3612 51.1541 -30.4418 1.5955 7.2867
# 2 30.3612 89.6195 19.1025 -17.5009 1.8168 22.3754
# 3 51.1541 19.1025 115.1268 -29.5723 2.8963 9.8149
# 4 -30.4418 -17.5009 -29.5723 28.8042 5.5800 -3.4127
# 5 1.5955 1.8168 2.8963 5.5800 38.0679 -6.1732
# 6 7.2867 22.3754 9.8149 -3.4127 -6.1732 30.2253
#
#
#
# Elastic Compliance Matrix: (Units=1/GPa)
#
#
# Indices 1 2 3 4 5 6 
#
# 1 0.011613 -0.001578 -0.002539 0.008997 -0.001555 -0.000109
# 2 -0.001578 0.016203 0.001454 0.009049 -0.004073 -0.011897
# 3 -0.002539 0.001454 0.013014 0.011726 -0.003328 -0.004046
# 4 0.008997 0.009049 0.011726 0.063185 -0.012268 -0.008047
# 5 -0.001555 -0.004073 -0.003328 -0.012268 0.030076 0.009229
# 6 -0.000109 -0.011897 -0.004046 -0.008047 0.009229 0.044208
#
#
# Mechanical properties :
#
#
# Convention : Reuss Voigt Hill
#
# Bulk Modulus (GPa) = 28.16573 59.02914 43.59744
# Shear Modulus (GPa) = 25.58064 34.71339 30.14702
#
# Velocity S-wave (km/s) = 3.34729 3.89929 3.63379
# Velocity P-wave (km/s) = 5.22261 6.79172 6.05818
#
# Compressibility (1/GPa) = 0.03550414
#
# Stress axis : x y z
#
# Youngs Moduli (GPa) = 86.10760 61.71742 76.84233
#
# Poissons Ratio (x) = 0.09736 0.19510
# Poissons Ratio (y) = 0.13584 -0.11170
# Poissons Ratio (z) = 0.21863 -0.08972
#
# Static dielectric constant tensor:
#      x y z
#    x 4.158790 -0.038690 0.178170 
#    y -0.038690 4.113430 -0.090630 
#    z 0.178170 -0.090630 4.326190 
# 
# 
# High freq. dielectric constant tensor:
#      x y z
#    x 1.902690 0.004410 0.011500 
#    y 0.004410 1.902450 -0.007150 
#    z 0.011500 -0.007150 1.908510 
# 
# From -- ./inp_files/493374.got.cif
#   From: 2010.06.25/outbox.cif.g09.slc.cpg/sg2_247_cif.got.tgz:493374.got - 2010.06.27 13:26:56.
