data_PCOD8019026
_publ_section_title
;
Structure prediction by ZEFSAII (Michael W. Deem and Ramdas Pophale) SiO2 
 PCOD8019026
Probable space group: P -1
;
_chemical_formula_sum "Si O2"
_cell_formula_units_Z 16
_cell_length_a 6.706217
_cell_length_b 9.867561
_cell_length_c 20.827200
_cell_angle_alpha 51.684161
_cell_angle_beta 134.553935
_cell_angle_gamma 124.594129
_cell_volume 748.518749
_symmetry_space_group_name_H-M "P -1"
_symmetry_group_IT_number 2
_symmetry_cell_setting 'triclinic'
loop_
_space_group_symop_operation_xyz
x,y,z
-x,-y,-z
loop_
_atom_site_type_symbol
_atom_site_label
_atom_site_fract_x
_atom_site_fract_y
_atom_site_fract_z
Si Si1 0.222000 0.453691 0.332606
Si Si2 0.799836 0.451940 0.907626
Si Si3 0.131215 0.758642 0.135723
Si Si4 0.302332 0.137963 0.910555
Si Si5 0.211925 0.091995 0.763448
Si Si6 0.272622 0.230816 0.287581
Si Si7 0.165746 0.352960 0.570612
Si Si8 0.112467 0.826418 0.562417
O O1 0.087125 0.602306 0.224941
O O2 0.306437 0.323450 0.337023
O O3 0.508855 0.557249 0.404091
O O4 0.006992 0.338463 0.368884
O O5 0.936985 0.336425 0.921162
O O6 0.495300 0.337066 0.896306
O O7 0.736063 0.628051 0.811327
O O8 0.000000 0.500000 0.000000
O O9 0.445319 0.893941 0.166706
O O10 0.909184 0.878207 0.070829
O O11 0.117246 0.099994 0.813976
O O12 0.500000 0.000000 0.000000
O O13 0.157390 0.261817 0.664804
O O14 0.030576 0.914005 0.741475
O O15 0.540041 0.137684 0.366022
O O16 0.000000 0.500000 0.500000
O O17 0.002670 0.214694 0.522885
O O18 0.000000 0.000000 0.500000
#
# Coordination Sequence:
#
# PCOD8019026 Si02
#       8
#     2   2   2   2   2   2   2   2
#     4  10  22  41  64  90 124 171 217 264 319 382
#     4  10  22  42  67  97 125 166 211 268 332 385
#     4   9  22  42  65  94 125 165 219 257 319 395
#     4  11  23  42  68  95 128 170 210 265 327 388
#     4  10  24  40  63  92 129 168 213 269 320 377
#     4  11  23  43  63  92 134 167 212 273 326 381
#     4  11  23  41  65  89 126 177 214 264 324 379
#     4  12  26  39  62  96 129 171 221 268 326 386
#
# _framework density 21.37555
#
# number of rings (size 3 to 8) (size 9 to 14) (size 15 to 20)
#    0.000    1.500    1.250    3.375    3.500    6.500 
#    0.000    5.000    0.000    0.000    0.000    0.000 
#    0.000    0.000    0.000    0.000    0.000    0.000 
#
# Total GULP energy -198395.430463 kJ/mol
# GULP energy per Si atom -12399.714404 kJ/mol
# Density = 2.132690 g / cm^3
# Si number density = 21.375550 Si / 1000 Ang^3
#
#
#
# Elastic Constant Matrix: (Units=GPa)
#
#
# Indices 1 2 3 4 5 6 
#
# 1 113.8243 35.2961 49.1857 2.8614 11.7504 -12.1692
# 2 35.2961 112.3974 42.4376 11.6150 15.1886 0.3168
# 3 49.1857 42.4376 104.1955 18.7344 5.5569 -13.4100
# 4 2.8614 11.6150 18.7344 31.0822 -6.8748 -3.3991
# 5 11.7504 15.1886 5.5569 -6.8748 33.9344 -7.9571
# 6 -12.1692 0.3168 -13.4100 -3.3991 -7.9571 40.0179
#
#
#
# Elastic Compliance Matrix: (Units=1/GPa)
#
#
# Indices 1 2 3 4 5 6 
#
# 1 0.011791 -0.001907 -0.004912 0.002463 -0.001488 0.001868
# 2 -0.001907 0.011952 -0.003391 -0.003861 -0.005683 -0.003269
# 3 -0.004912 -0.003391 0.014922 -0.006937 0.000063 0.002957
# 4 0.002463 -0.003861 -0.006937 0.040493 0.011180 0.004117
# 5 -0.001488 -0.005683 0.000063 0.011180 0.036622 0.007845
# 6 0.001868 -0.003269 0.002957 0.004117 0.007845 0.028483
#
#
# Mechanical properties :
#
#
# Convention : Reuss Voigt Hill
#
# Bulk Modulus (GPa) = 54.81178 64.91734 59.86456
# Shear Modulus (GPa) = 29.27988 34.57343 31.92665
#
# Velocity S-wave (km/s) = 3.70507 4.02609 3.86891
# Velocity P-wave (km/s) = 6.63335 7.21446 6.93000
#
# Compressibility (1/GPa) = 0.01824425
#
# Stress axis : x y z
#
# Youngs Moduli (GPa) = 84.81154 83.66523 67.01506
#
# Poissons Ratio (x) = 0.15952 0.32921
# Poissons Ratio (y) = 0.16170 0.22728
# Poissons Ratio (z) = 0.41663 0.28374
#
# Static dielectric constant tensor:
#      x y z
#    x 3.570190 0.207390 -0.043040 
#    y 0.207390 3.897410 -0.001120 
#    z -0.043040 -0.001120 3.914240 
# 
# 
# High freq. dielectric constant tensor:
#      x y z
#    x 1.834360 0.005040 -0.009870 
#    y 0.005040 1.845390 -0.002150 
#    z -0.009870 -0.002150 1.848420 
# 
# From -- ./inp_files/357804.got.cif
#   From: 2010.06.25/outbox.cif.g09.slc.cpg/sg2_179_cif.got.tgz:357804.got - 2010.06.27 13:26:56.
