data_PCOD8019233
_publ_section_title
;
Structure prediction by ZEFSAII (Michael W. Deem and Ramdas Pophale) SiO2 
 PCOD8019233
Probable space group: P -1
;
_chemical_formula_sum "Si O2"
_cell_formula_units_Z 16
_cell_length_a 15.089865
_cell_length_b 12.903449
_cell_length_c 9.048060
_cell_angle_alpha 103.124416
_cell_angle_beta 66.178977
_cell_angle_gamma 152.718567
_cell_volume 701.237465
_symmetry_space_group_name_H-M "P -1"
_symmetry_group_IT_number 2
_symmetry_cell_setting 'triclinic'
loop_
_space_group_symop_operation_xyz
x,y,z
-x,-y,-z
loop_
_atom_site_type_symbol
_atom_site_label
_atom_site_fract_x
_atom_site_fract_y
_atom_site_fract_z
Si Si1 0.081158 0.550577 0.797723
Si Si2 0.810360 0.236140 0.479724
Si Si3 0.934710 0.878229 0.853610
Si Si4 0.169066 0.026377 0.222105
Si Si5 0.726812 0.477514 0.275433
Si Si6 0.379531 0.621930 0.021951
Si Si7 0.343877 0.820513 0.178095
Si Si8 0.255079 0.067187 0.513863
O O1 0.211806 0.770245 0.686181
O O2 0.225772 0.588308 0.703430
O O3 0.866050 0.319536 0.774891
O O4 0.000000 0.500000 0.000000
O O5 0.598196 0.068549 0.665108
O O6 0.000000 0.500000 0.500000
O O7 0.850120 0.151633 0.458353
O O8 0.815847 0.839250 0.805699
O O9 0.158946 0.053864 0.693589
O O10 0.762622 0.615492 0.905082
O O11 0.000000 0.000000 0.000000
O O12 0.364164 0.149836 0.057838
O O13 0.189761 0.046480 0.390557
O O14 0.935353 0.756372 0.239643
O O15 0.673734 0.403719 0.118267
O O16 0.515663 0.322180 0.444361
O O17 0.316407 0.666523 0.169333
O O18 0.500000 0.000000 0.000000
#
# Coordination Sequence:
#
# PCOD8019233 Si02
#       8
#     2   2   2   2   2   2   2   2
#     4  11  22  38  64  95 138 183 225 285 345 410
#     4  10  22  41  65  99 138 181 233 282 346 427
#     4  12  25  48  73 104 135 180 238 302 362 415
#     4  11  24  47  72  98 137 187 236 286 361 422
#     4  11  23  44  67 103 139 186 237 282 353 426
#     4  11  23  44  72 104 144 180 234 297 346 421
#     4  11  21  41  69  99 140 187 229 281 350 423
#     4  11  26  47  70  98 144 184 233 299 349 425
#
# _framework density 22.816807000000001
#
# number of rings (size 3 to 8) (size 9 to 14) (size 15 to 20)
#    0.000    1.000    2.500    6.000    0.000    1.000 
#    6.750    0.000    0.000    0.000    0.000    0.000 
#    0.000    0.000    0.000    0.000    0.000    0.000 
#
# Total GULP energy -198261.650233 kJ/mol
# GULP energy per Si atom -12391.353140 kJ/mol
# Density = 2.276487 g / cm^3
# Si number density = 22.816807 Si / 1000 Ang^3
#
#
#
# Elastic Constant Matrix: (Units=GPa)
#
#
# Indices 1 2 3 4 5 6 
#
# 1 175.3482 47.3084 67.1028 -4.5872 2.8947 -8.2149
# 2 47.3084 74.9477 11.6737 -6.2916 1.4966 5.3951
# 3 67.1028 11.6737 172.1745 -1.2569 4.7837 -4.5139
# 4 -4.5872 -6.2916 -1.2569 30.0380 -11.2385 -4.7931
# 5 2.8947 1.4966 4.7837 -11.2385 40.8713 -16.9052
# 6 -8.2149 5.3951 -4.5139 -4.7931 -16.9052 40.6971
#
#
#
# Elastic Compliance Matrix: (Units=1/GPa)
#
#
# Indices 1 2 3 4 5 6 
#
# 1 0.008238 -0.004889 -0.002838 0.001031 0.001313 0.002663
# 2 -0.004889 0.016737 0.000729 0.001751 -0.001301 -0.003459
# 3 -0.002838 0.000729 0.006878 -0.000362 -0.000856 -0.000305
# 4 0.001031 0.001751 -0.000362 0.041684 0.016145 0.011552
# 5 0.001313 -0.001301 -0.000856 0.016145 0.036091 0.017236
# 6 0.002663 -0.003459 -0.000305 0.011552 0.017236 0.034054
#
#
# Mechanical properties :
#
#
# Convention : Reuss Voigt Hill
#
# Bulk Modulus (GPa) = 56.00336 74.96003 65.48170
# Shear Modulus (GPa) = 30.55629 42.08031 36.31830
#
# Velocity S-wave (km/s) = 3.66348 4.29915 3.99398
# Velocity P-wave (km/s) = 6.51865 7.58735 7.07322
#
# Compressibility (1/GPa) = 0.01785607
#
# Stress axis : x y z
#
# Youngs Moduli (GPa) = 121.38294 59.74652 145.39058
#
# Poissons Ratio (x) = 0.29213 0.41268
# Poissons Ratio (y) = 0.59350 -0.10599
# Poissons Ratio (z) = 0.34454 -0.04356
#
# Static dielectric constant tensor:
#      x y z
#    x 4.477970 -0.059180 0.154870 
#    y -0.059180 4.088490 -0.052510 
#    z 0.154870 -0.052510 3.008230 
# 
# 
# High freq. dielectric constant tensor:
#      x y z
#    x 1.915460 -0.002780 0.002920 
#    y -0.002780 1.887210 -0.021850 
#    z 0.002920 -0.021850 1.919010 
# 
# From -- ./inp_files/307690.got.cif
#   From: 2010.06.25/outbox.cif.g09.slc.cpg/sg2_154_cif.got.tgz:307690.got - 2010.06.27 13:26:56.
