data_PCOD8019244
_publ_section_title
;
Structure prediction by ZEFSAII (Michael W. Deem and Ramdas Pophale) SiO2 
 PCOD8019244
Probable space group: P -1
;
_chemical_formula_sum "Si O2"
_cell_formula_units_Z 14
_cell_length_a 21.425840
_cell_length_b 12.027845
_cell_length_c 6.442075
_cell_angle_alpha 118.837111
_cell_angle_beta 50.874918
_cell_angle_gamma 150.087924
_cell_volume 633.212853
_symmetry_space_group_name_H-M "P -1"
_symmetry_group_IT_number 2
_symmetry_cell_setting 'triclinic'
loop_
_space_group_symop_operation_xyz
x,y,z
-x,-y,-z
loop_
_atom_site_type_symbol
_atom_site_label
_atom_site_fract_x
_atom_site_fract_y
_atom_site_fract_z
Si Si1 0.383158 0.053268 0.834010
Si Si2 0.094484 0.078131 0.565282
Si Si3 0.407776 0.596702 0.936038
Si Si4 0.356852 0.291734 0.990585
Si Si5 0.411292 0.991937 0.303849
Si Si6 0.861871 0.661318 0.957371
Si Si7 0.154803 0.646010 0.259070
O O1 0.421604 0.992232 0.532051
O O2 0.244517 0.836043 0.065083
O O3 0.525718 0.264769 0.861311
O O4 0.337187 0.115342 0.845219
O O5 0.225464 0.168323 0.290675
O O6 0.156759 0.277170 0.744214
O O7 0.000000 0.000000 0.500000
O O8 0.009623 0.878657 0.723889
O O9 0.523692 0.783393 0.685513
O O10 0.371596 0.397938 0.845851
O O11 0.262494 0.480661 0.079937
O O12 0.500000 0.500000 0.000000
O O13 0.244855 0.769518 0.394005
O O14 0.500000 0.000000 0.000000
O O15 0.862628 0.521829 0.923055
O O16 0.000000 0.500000 0.500000
#
# Coordination Sequence:
#
# PCOD8019244 Si02
#       7
#     2   2   2   2   2   2   2
#     4  10  25  43  67 100 137 173 224 278 329 397
#     4  11  24  42  66 100 130 170 226 272 329 403
#     4  10  22  41  66 101 125 176 217 278 331 389
#     4  10  22  42  64  96 132 171 217 270 340 391
#     4  11  24  43  67 102 129 174 234 267 327 406
#     4  11  24  42  68  97 131 174 223 274 331 391
#     4  11  25  45  67  98 137 176 219 275 338 397
#
# _framework density 22.109470999999999
#
# number of rings (size 3 to 8) (size 9 to 14) (size 15 to 20)
#    0.000    1.429    2.857    0.857    4.000    6.857 
#    5.143    0.000    0.000    0.000    0.000    0.000 
#    0.000    0.000    0.000    0.000    0.000    0.000 
#
# Total GULP energy -173488.407976 kJ/mol
# GULP energy per Si atom -12392.029141 kJ/mol
# Density = 2.205915 g / cm^3
# Si number density = 22.109471 Si / 1000 Ang^3
#
#
#
# Elastic Constant Matrix: (Units=GPa)
#
#
# Indices 1 2 3 4 5 6 
#
# 1 116.0764 50.7414 43.9830 3.7073 -10.5037 1.3543
# 2 50.7414 114.1574 44.1503 -2.6628 -6.1015 -0.6567
# 3 43.9830 44.1503 117.6849 7.8640 2.1064 19.1302
# 4 3.7073 -2.6628 7.8640 24.7843 6.7442 -2.8615
# 5 -10.5037 -6.1015 2.1064 6.7442 31.3425 -8.3936
# 6 1.3543 -0.6567 19.1302 -2.8615 -8.3936 50.7985
#
#
#
# Elastic Compliance Matrix: (Units=1/GPa)
#
#
# Indices 1 2 3 4 5 6 
#
# 1 0.011968 -0.003908 -0.003165 -0.002218 0.004318 0.001411
# 2 -0.003908 0.012027 -0.003588 0.002924 0.001171 0.001969
# 3 -0.003165 -0.003588 0.012176 -0.003504 -0.003237 -0.005280
# 4 -0.002218 0.002924 -0.003504 0.044819 -0.008922 0.002467
# 5 0.004318 0.001171 -0.003237 -0.008922 0.037544 0.006820
# 6 0.001411 0.001969 -0.005280 0.002467 0.006820 0.022928
#
#
# Mechanical properties :
#
#
# Convention : Reuss Voigt Hill
#
# Bulk Modulus (GPa) = 67.34410 69.51866 68.43138
# Shear Modulus (GPa) = 29.80932 35.32132 32.56532
#
# Velocity S-wave (km/s) = 3.67585 4.00129 3.84202
# Velocity P-wave (km/s) = 6.96716 7.27037 7.12038
#
# Compressibility (1/GPa) = 0.01484911
#
# Stress axis : x y z
#
# Youngs Moduli (GPa) = 83.55731 83.14884 82.12626
#
# Poissons Ratio (x) = 0.32497 0.25993
# Poissons Ratio (y) = 0.32657 0.29463
# Poissons Ratio (z) = 0.26446 0.29830
#
# Static dielectric constant tensor:
#      x y z
#    x 4.555920 -0.425710 0.060210 
#    y -0.425710 4.443560 -0.080630 
#    z 0.060210 -0.080630 3.821060 
# 
# 
# High freq. dielectric constant tensor:
#      x y z
#    x 1.874400 -0.008020 0.003520 
#    y -0.008020 1.885270 -0.013300 
#    z 0.003520 -0.013300 1.858560 
# 
# From -- ./inp_files/118775.got.cif
#   From: 2010.06.25/outbox.cif.g09.slc.cpg/sg2_60_cif.got.tgz:118775.got - 2010.06.27 13:26:56.
