data_PCOD8019631
_publ_section_title
;
Structure prediction by ZEFSAII (Michael W. Deem and Ramdas Pophale) SiO2 
 PCOD8019631
Probable space group: P -1
;
_chemical_formula_sum "Si O2"
_cell_formula_units_Z 14
_cell_length_a 9.896174
_cell_length_b 14.964460
_cell_length_c 14.453895
_cell_angle_alpha 144.143215
_cell_angle_beta 36.896843
_cell_angle_gamma 149.652562
_cell_volume 596.000334
_symmetry_space_group_name_H-M "P -1"
_symmetry_group_IT_number 2
_symmetry_cell_setting 'triclinic'
loop_
_space_group_symop_operation_xyz
x,y,z
-x,-y,-z
loop_
_atom_site_type_symbol
_atom_site_label
_atom_site_fract_x
_atom_site_fract_y
_atom_site_fract_z
Si Si1 0.259445 0.783943 0.481693
Si Si2 0.893781 0.223170 0.064125
Si Si3 0.654625 0.903448 0.793146
Si Si4 0.966922 0.806953 0.839919
Si Si5 0.838305 0.661891 0.453171
Si Si6 0.988756 0.827385 0.322423
Si Si7 0.567286 0.597601 0.203959
O O1 0.123341 0.805218 0.663722
O O2 0.391680 0.674447 0.336622
O O3 0.021252 0.649088 0.419644
O O4 0.500000 0.000000 0.500000
O O5 0.203821 0.354123 0.958993
O O6 0.713730 0.999964 0.942160
O O7 0.683174 0.276725 0.191519
O O8 0.908331 0.231236 0.172676
O O9 0.867655 0.851262 0.625416
O O10 0.745061 0.073071 0.810095
O O11 0.634112 0.632011 0.867934
O O12 0.000000 0.000000 0.000000
O O13 0.500000 0.500000 0.500000
O O14 0.985274 0.704917 0.307152
O O15 0.699783 0.681040 0.301356
O O16 0.000000 0.000000 0.500000
#
# Coordination Sequence:
#
# PCOD8019631 Si02
#       7
#     2   2   2   2   2   2   2
#     4  12  26  43  70 104 140 178 232 291 345 417
#     4  10  22  41  69  94 134 178 223 282 341 413
#     4   9  20  40  64  95 130 177 225 269 341 411
#     4  12  26  43  67  97 142 182 231 283 348 403
#     4  11  23  38  64  98 137 171 225 283 337 405
#     4   9  19  38  68  95 133 176 226 274 340 411
#     4  11  24  45  70 105 136 181 233 287 345 415
#
# _framework density 23.489917999999999
#
# number of rings (size 3 to 8) (size 9 to 14) (size 15 to 20)
#    0.000    1.429    0.000    6.000    8.000    0.000 
#    0.000    0.000    0.000    6.000    0.000    0.000 
#    0.000    0.000    0.000    0.000    0.000    0.000 
#
# Total GULP energy -173463.245235 kJ/mol
# GULP energy per Si atom -12390.231803 kJ/mol
# Density = 2.343645 g / cm^3
# Si number density = 23.489918 Si / 1000 Ang^3
#
#
#
# Elastic Constant Matrix: (Units=GPa)
#
#
# Indices 1 2 3 4 5 6 
#
# 1 136.6010 47.1135 53.5187 -12.5289 26.6688 15.3517
# 2 47.1135 143.1460 30.1446 -9.5825 9.2671 17.7012
# 3 53.5187 30.1446 63.5336 -19.1127 -4.0031 -1.0358
# 4 -12.5289 -9.5825 -19.1127 35.2066 2.2614 3.9635
# 5 26.6688 9.2671 -4.0031 2.2614 44.4066 -0.5335
# 6 15.3517 17.7012 -1.0358 3.9635 -0.5335 40.1981
#
#
#
# Elastic Compliance Matrix: (Units=1/GPa)
#
#
# Indices 1 2 3 4 5 6 
#
# 1 0.015684 -0.000887 -0.013790 -0.000794 -0.010509 -0.006016
# 2 -0.000887 0.008565 -0.003249 0.000764 -0.001630 -0.003614
# 3 -0.013790 -0.003249 0.032915 0.010591 0.011468 0.006653
# 4 -0.000794 0.000764 0.010591 0.034468 -0.000521 -0.003166
# 5 -0.010509 -0.001630 0.011468 -0.000521 0.030297 0.005480
# 6 -0.006016 -0.003614 0.006653 -0.003166 0.005480 0.029322
#
#
# Mechanical properties :
#
#
# Convention : Reuss Voigt Hill
#
# Bulk Modulus (GPa) = 46.92079 67.20380 57.06229
# Shear Modulus (GPa) = 25.74563 38.12918 31.93740
#
# Velocity S-wave (km/s) = 3.31422 4.03328 3.69131
# Velocity P-wave (km/s) = 5.88759 7.09659 6.52017
#
# Compressibility (1/GPa) = 0.02131252
#
# Stress axis : x y z
#
# Youngs Moduli (GPa) = 63.75774 116.74808 30.38164
#
# Poissons Ratio (x) = 0.10356 0.41897
# Poissons Ratio (y) = 0.05656 0.09870
# Poissons Ratio (z) = 0.87923 0.37928
#
# Static dielectric constant tensor:
#      x y z
#    x 4.644440 -0.026980 0.238030 
#    y -0.026980 4.431110 0.111350 
#    z 0.238030 0.111350 4.164650 
# 
# 
# High freq. dielectric constant tensor:
#      x y z
#    x 1.931230 0.014130 0.019610 
#    y 0.014130 1.941240 -0.004580 
#    z 0.019610 -0.004580 1.933700 
# 
# From -- ./inp_files/505544.got.cif
#   From: 2010.06.25/outbox.cif.g09.slc.cpg/sg2_253_cif.got.tgz:505544.got - 2010.06.27 13:26:56.
