data_PCOD8019503
_publ_section_title
;
Structure prediction by ZEFSAII (Michael W. Deem and Ramdas Pophale) SiO2 
 PCOD8019503
Probable space group: P -1
;
_chemical_formula_sum "Si O2"
_cell_formula_units_Z 16
_cell_length_a 11.349106
_cell_length_b 8.377852
_cell_length_c 12.027559
_cell_angle_alpha 127.706039
_cell_angle_beta 126.340046
_cell_angle_gamma 64.495277
_cell_volume 724.620614
_symmetry_space_group_name_H-M "P -1"
_symmetry_group_IT_number 2
_symmetry_cell_setting 'triclinic'
loop_
_space_group_symop_operation_xyz
x,y,z
-x,-y,-z
loop_
_atom_site_type_symbol
_atom_site_label
_atom_site_fract_x
_atom_site_fract_y
_atom_site_fract_z
Si Si1 0.780560 0.297546 0.726204
Si Si2 0.079139 0.125343 0.893135
Si Si3 0.388373 0.049678 0.559371
Si Si4 0.554975 0.866503 0.132762
Si Si5 0.307683 0.810109 0.801389
Si Si6 0.163766 0.416118 0.511526
Si Si7 0.914994 0.627803 0.797443
Si Si8 0.784029 0.545784 0.034927
O O1 0.837419 0.445901 0.730547
O O2 0.906501 0.136636 0.780992
O O3 0.673067 0.165263 0.544508
O O4 0.705467 0.412022 0.842373
O O5 0.133784 0.305987 0.931233
O O6 0.149461 0.911017 0.796694
O O7 0.119373 0.165500 0.061832
O O8 0.478800 0.095273 0.740142
O O9 0.252344 0.226651 0.544088
O O10 0.500000 0.000000 0.500000
O O11 0.668464 0.664842 0.102363
O O12 0.620221 0.063142 0.200584
O O13 0.409737 0.810227 0.966828
O O14 0.275962 0.590108 0.647546
O O15 0.146083 0.333583 0.342634
O O16 0.000000 0.500000 0.500000
O O17 0.092539 0.577349 0.872022
#
# Coordination Sequence:
#
# PCOD8019503 Si02
#       8
#     2   2   2   2   2   2   2   2
#     4   9  18  39  65  88 120 161 208 252 302 361
#     4   8  16  34  63  96 115 144 207 261 303 344
#     4  12  28  43  56  91 134 169 198 245 318 378
#     4  10  22  43  65  88 121 164 211 252 301 367
#     4  10  22  41  68  91 115 162 215 258 295 359
#     4  12  26  43  60  94 129 162 206 252 314 367
#     4   9  18  37  67  92 116 157 209 261 294 357
#     4   8  16  34  65  95 114 148 205 260 302 348
#
# _framework density 22.080518999999999
#
# number of rings (size 3 to 8) (size 9 to 14) (size 15 to 20)
#    0.000    2.250    0.000    3.750    3.500    0.500 
#    4.500    9.375    0.000    0.000    0.000    0.000 
#    0.000    0.000    0.000    0.000    0.000    0.000 
#
# Total GULP energy -198260.570310 kJ/mol
# GULP energy per Si atom -12391.285644 kJ/mol
# Density = 2.203026 g / cm^3
# Si number density = 22.080519 Si / 1000 Ang^3
#
#
#
# Elastic Constant Matrix: (Units=GPa)
#
#
# Indices 1 2 3 4 5 6 
#
# 1 63.6840 3.3548 11.7485 -7.0977 -15.3536 -6.5265
# 2 3.3548 47.7972 8.0597 -4.1634 -4.5525 0.0570
# 3 11.7485 8.0597 94.8022 -19.0385 -26.4136 6.7364
# 4 -7.0977 -4.1634 -19.0385 32.9424 7.4082 -1.8127
# 5 -15.3536 -4.5525 -26.4136 7.4082 32.6853 -0.7917
# 6 -6.5265 0.0570 6.7364 -1.8127 -0.7917 17.9501
#
#
#
# Elastic Compliance Matrix: (Units=1/GPa)
#
#
# Indices 1 2 3 4 5 6 
#
# 1 0.018788 -0.000309 0.000020 0.002541 0.008403 0.007452
# 2 -0.000309 0.021419 -0.001013 0.001710 0.001642 0.000445
# 3 0.000020 -0.001013 0.015116 0.005972 0.010619 -0.004591
# 4 0.002541 0.001710 0.005972 0.035057 -0.001636 0.002145
# 5 0.008403 0.001642 0.010619 -0.001636 0.043743 0.000829
# 6 0.007452 0.000445 -0.004591 0.002145 0.000829 0.060394
#
#
# Mechanical properties :
#
#
# Convention : Reuss Voigt Hill
#
# Bulk Modulus (GPa) = 18.96883 28.06772 23.51828
# Shear Modulus (GPa) = 23.28883 28.92358 26.10620
#
# Velocity S-wave (km/s) = 3.25117 3.62320 3.44222
# Velocity P-wave (km/s) = 4.76476 5.49932 5.14517
#
# Compressibility (1/GPa) = 0.05271807
#
# Stress axis : x y z
#
# Youngs Moduli (GPa) = 53.22572 46.68720 66.15465
#
# Poissons Ratio (x) = 0.01444 -0.00132
# Poissons Ratio (y) = 0.01646 0.06703
# Poissons Ratio (z) = -0.00106 0.04731
#
# Static dielectric constant tensor:
#      x y z
#    x 4.238110 -0.728630 -0.091820 
#    y -0.728630 4.616200 0.187560 
#    z -0.091820 0.187560 4.118890 
# 
# 
# High freq. dielectric constant tensor:
#      x y z
#    x 1.854260 -0.007690 -0.004480 
#    y -0.007690 1.858740 0.007620 
#    z -0.004480 0.007620 1.881640 
# 
# From -- ./inp_files/261979.got.cif
#   From: 2010.06.25/outbox.cif.g09.slc.cpg/sg2_131_cif.got.tgz:261979.got - 2010.06.27 13:26:56.
