data_PCOD8019158
_publ_section_title
;
Structure prediction by ZEFSAII (Michael W. Deem and Ramdas Pophale) SiO2 
 PCOD8019158
Probable space group: P -1
;
_chemical_formula_sum "Si O2"
_cell_formula_units_Z 12
_cell_length_a 26.529498
_cell_length_b 25.801805
_cell_length_c 11.705998
_cell_angle_alpha 160.397164
_cell_angle_beta 19.159809
_cell_angle_gamma 168.840977
_cell_volume 493.990937
_symmetry_space_group_name_H-M "P -1"
_symmetry_group_IT_number 2
_symmetry_cell_setting 'triclinic'
loop_
_space_group_symop_operation_xyz
x,y,z
-x,-y,-z
loop_
_atom_site_type_symbol
_atom_site_label
_atom_site_fract_x
_atom_site_fract_y
_atom_site_fract_z
Si Si1 0.378682 0.049836 0.921656
Si Si2 0.951912 0.063992 0.345710
Si Si3 0.800672 0.191265 0.776372
Si Si4 0.225121 0.423296 0.704853
Si Si5 0.339923 0.204826 0.105828
Si Si6 0.894106 0.730576 0.912489
O O1 0.500000 0.000000 0.500000
O O2 0.567655 0.261831 0.064341
O O3 0.370686 0.183390 0.126088
O O4 0.080720 0.762621 0.011773
O O5 0.787647 0.078730 0.686866
O O6 0.229700 0.355162 0.423088
O O7 0.797367 0.824592 0.273420
O O8 0.000000 0.000000 0.000000
O O9 0.918253 0.184686 0.410486
O O10 0.000000 0.500000 0.000000
O O11 0.500000 0.000000 0.000000
O O12 0.277874 0.335092 0.503404
O O13 0.623580 0.406851 0.848551
O O14 0.087797 0.899258 0.958512
#
# Coordination Sequence:
#
# PCOD8019158 Si02
#       6
#     2   2   2   2   2   2
#     4  12  26  42  63  97 135 171 213 267 325 384
#     4   9  22  44  68  95 128 165 217 267 316 382
#     4  11  24  40  62  95 130 166 207 262 325 385
#     4  11  23  43  68  94 125 175 219 263 320 382
#     4  11  22  42  66  91 124 167 218 265 312 379
#     4  10  22  41  65  92 123 170 215 262 317 376
#
# _framework density 24.291944000000001
#
# number of rings (size 3 to 8) (size 9 to 14) (size 15 to 20)
#    0.000    1.333    0.000    5.500    0.000    8.000 
#    0.000   14.167    0.000    0.000    0.000    0.000 
#    0.000    0.000    0.000    0.000    0.000    0.000 
#
# Total GULP energy -148743.937567 kJ/mol
# GULP energy per Si atom -12395.328131 kJ/mol
# Density = 2.423665 g / cm^3
# Si number density = 24.291944 Si / 1000 Ang^3
#
#
#
# Elastic Constant Matrix: (Units=GPa)
#
#
# Indices 1 2 3 4 5 6 
#
# 1 119.7535 45.5153 29.8728 9.8877 -0.0013 19.5396
# 2 45.5153 144.0932 44.2293 -7.3273 -1.6383 20.3461
# 3 29.8728 44.2293 102.5769 7.7754 5.1020 22.7712
# 4 9.8877 -7.3273 7.7754 40.9634 5.7489 10.3122
# 5 -0.0013 -1.6383 5.1020 5.7489 40.8989 0.9486
# 6 19.5396 20.3461 22.7712 10.3122 0.9486 36.3593
#
#
#
# Elastic Compliance Matrix: (Units=1/GPa)
#
#
# Indices 1 2 3 4 5 6 
#
# 1 0.010241 -0.002606 -0.001105 -0.002085 0.000391 -0.002772
# 2 -0.002606 0.009243 -0.002843 0.003536 0.000297 -0.003002
# 3 -0.001105 -0.002843 0.012646 -0.001087 -0.001414 -0.005390
# 4 -0.002085 0.003536 -0.001087 0.028288 -0.003511 -0.008109
# 5 0.000391 0.000297 -0.001414 -0.003511 0.025113 0.000849
# 6 -0.002772 -0.003002 -0.005390 -0.008109 0.000849 0.036326
#
#
# Mechanical properties :
#
#
# Convention : Reuss Voigt Hill
#
# Bulk Modulus (GPa) = 52.57004 67.29539 59.93272
# Shear Modulus (GPa) = 35.38463 40.09806 37.74135
#
# Velocity S-wave (km/s) = 3.82074 4.06726 3.94592
# Velocity P-wave (km/s) = 6.41498 7.05830 6.74432
#
# Compressibility (1/GPa) = 0.01902224
#
# Stress axis : x y z
#
# Youngs Moduli (GPa) = 97.64634 108.19293 79.07933
#
# Poissons Ratio (x) = 0.28194 0.08737
# Poissons Ratio (y) = 0.25446 0.22481
# Poissons Ratio (z) = 0.10788 0.30757
#
# Static dielectric constant tensor:
#      x y z
#    x 4.706160 0.245810 -0.129320 
#    y 0.245810 4.389510 0.133950 
#    z -0.129320 0.133950 4.691770 
# 
# 
# High freq. dielectric constant tensor:
#      x y z
#    x 1.971170 0.015330 0.006890 
#    y 0.015330 1.967720 0.002320 
#    z 0.006890 0.002320 1.962580 
# 
# From -- ./inp_files/206118.got.cif
#   From: 2010.06.25/outbox.cif.g09.slc.cpg/sg2_104_cif.got.tgz:206118.got - 2010.06.27 13:26:56.
