data_PCOD8019118
_publ_section_title
;
Structure prediction by ZEFSAII (Michael W. Deem and Ramdas Pophale) SiO2 
 PCOD8019118
Probable space group: P -1
;
_chemical_formula_sum "Si O2"
_cell_formula_units_Z 16
_cell_length_a 8.784865
_cell_length_b 10.765062
_cell_length_c 11.383152
_cell_angle_alpha 56.022973
_cell_angle_beta 126.958043
_cell_angle_gamma 102.011822
_cell_volume 699.923938
_symmetry_space_group_name_H-M "P -1"
_symmetry_group_IT_number 2
_symmetry_cell_setting 'triclinic'
loop_
_space_group_symop_operation_xyz
x,y,z
-x,-y,-z
loop_
_atom_site_type_symbol
_atom_site_label
_atom_site_fract_x
_atom_site_fract_y
_atom_site_fract_z
Si Si1 0.937975 0.635928 0.058674
Si Si2 0.779413 0.375488 0.008264
Si Si3 0.471276 0.235835 0.545219
Si Si4 0.169079 0.749796 0.653230
Si Si5 0.180529 0.033970 0.137212
Si Si6 0.379040 0.537179 0.680480
Si Si7 0.837681 0.598335 0.528716
Si Si8 0.716752 0.971726 0.562663
O O1 0.050708 0.536666 0.266876
O O2 0.803427 0.543809 0.972076
O O3 0.090272 0.685181 0.011334
O O4 0.805087 0.788450 0.973029
O O5 0.830554 0.256633 0.201712
O O6 0.557124 0.396575 0.853669
O O7 0.580364 0.328720 0.457336
O O8 0.380657 0.341613 0.554700
O O9 0.279881 0.187294 0.420815
O O10 0.623647 0.086523 0.742020
O O11 0.321398 0.608543 0.743714
O O12 0.959389 0.734998 0.508643
O O13 0.231816 0.907779 0.569394
O O14 0.138175 0.029230 0.260332
O O15 0.000000 0.000000 0.000000
O O16 0.198246 0.469249 0.580127
O O17 0.500000 0.000000 0.500000
#
# Coordination Sequence:
#
# PCOD8019118 Si02
#       8
#     2   2   2   2   2   2   2   2
#     4  10  22  41  65 101 132 170 221 270 327 385
#     4  10  23  39  68  98 133 169 223 276 320 386
#     4  11  23  43  70  98 127 180 222 264 324 400
#     4  11  24  43  65  99 134 175 218 275 334 386
#     4  11  23  38  67  97 130 167 222 267 325 388
#     4  12  21  42  70  99 133 171 226 267 336 387
#     4  11  25  42  69 100 136 171 217 280 330 388
#     4  10  22  43  68  89 130 175 222 261 320 405
#
# _framework density 22.859627
#
# number of rings (size 3 to 8) (size 9 to 14) (size 15 to 20)
#    0.000    1.250    3.750    2.625    7.000    0.500 
#    0.000    0.000    0.000    1.500    0.000    0.000 
#    0.000    0.000    0.000    0.000    0.000    0.000 
#
# Total GULP energy -198325.278145 kJ/mol
# GULP energy per Si atom -12395.329884 kJ/mol
# Density = 2.280760 g / cm^3
# Si number density = 22.859627 Si / 1000 Ang^3
#
#
#
# Elastic Constant Matrix: (Units=GPa)
#
#
# Indices 1 2 3 4 5 6 
#
# 1 43.6462 -9.3504 1.2600 -2.9935 -0.0413 23.1529
# 2 -9.3504 74.8389 28.7457 5.3352 -2.2420 23.1170
# 3 1.2600 28.7457 88.6329 10.7015 12.1574 14.1612
# 4 -2.9935 5.3352 10.7015 41.0992 -4.8541 5.3991
# 5 -0.0413 -2.2420 12.1574 -4.8541 30.9035 -7.2519
# 6 23.1529 23.1170 14.1612 5.3991 -7.2519 33.8555
#
#
#
# Elastic Compliance Matrix: (Units=1/GPa)
#
#
# Indices 1 2 3 4 5 6 
#
# 1 0.066262 0.027993 0.001968 0.008194 -0.013674 -0.069488
# 2 0.027993 0.030133 -0.003522 0.003679 -0.005187 -0.039944
# 3 0.001968 -0.003522 0.014953 -0.003418 -0.008175 -0.006402
# 4 0.008194 0.003679 -0.003418 0.027099 0.003470 -0.010264
# 5 -0.013674 -0.005187 -0.008175 0.003470 0.041510 0.024650
# 6 -0.069488 -0.039944 -0.006402 -0.010264 0.024650 0.113927
#
#
# Mechanical properties :
#
#
# Convention : Reuss Voigt Hill
#
# Bulk Modulus (GPa) = 6.08914 27.60315 16.84614
# Shear Modulus (GPa) = 16.90639 33.60250 25.25445
#
# Velocity S-wave (km/s) = 2.72246 3.83815 3.32740
# Velocity P-wave (km/s) = 3.54286 5.63411 4.70612
#
# Compressibility (1/GPa) = 0.16422680
#
# Stress axis : x y z
#
# Youngs Moduli (GPa) = 15.09167 33.18652 66.87441
#
# Poissons Ratio (x) = -0.92900 -0.13159
# Poissons Ratio (y) = -0.42247 0.23550
# Poissons Ratio (z) = -0.02970 0.11687
#
# Static dielectric constant tensor:
#      x y z
#    x 4.163250 -0.119340 0.009550 
#    y -0.119340 4.394800 0.188100 
#    z 0.009550 0.188100 4.080150 
# 
# 
# High freq. dielectric constant tensor:
#      x y z
#    x 1.892980 -0.006830 0.007130 
#    y -0.006830 1.904240 0.007860 
#    z 0.007130 0.007860 1.895320 
# 
# From -- ./inp_files/392220.got.cif
#   From: 2010.06.25/outbox.cif.g09.slc.cpg/sg2_197_cif.got.tgz:392220.got - 2010.06.27 13:26:56.
