data_PCOD8019149
_publ_section_title
;
Structure prediction by ZEFSAII (Michael W. Deem and Ramdas Pophale) SiO2 
 PCOD8019149
Probable space group: P -1
;
_chemical_formula_sum "Si O2"
_cell_formula_units_Z 12
_cell_length_a 13.472922
_cell_length_b 8.794302
_cell_length_c 7.345012
_cell_angle_alpha 72.791486
_cell_angle_beta 115.450471
_cell_angle_gamma 62.615155
_cell_volume 549.913951
_symmetry_space_group_name_H-M "P -1"
_symmetry_group_IT_number 2
_symmetry_cell_setting 'triclinic'
loop_
_space_group_symop_operation_xyz
x,y,z
-x,-y,-z
loop_
_atom_site_type_symbol
_atom_site_label
_atom_site_fract_x
_atom_site_fract_y
_atom_site_fract_z
Si Si1 0.634799 0.248426 0.735037
Si Si2 0.512558 0.165365 0.381592
Si Si3 0.003828 0.305024 0.370770
Si Si4 0.789933 0.394970 0.873213
Si Si5 0.841742 0.538866 0.506438
Si Si6 0.330007 0.989929 0.812788
O O1 0.500000 0.500000 0.500000
O O2 0.646737 0.120050 0.616125
O O3 0.782979 0.210215 0.899698
O O4 0.596657 0.174101 0.902963
O O5 0.354197 0.407868 0.196337
O O6 0.552889 0.137149 0.212944
O O7 0.500000 0.000000 0.500000
O O8 0.898251 0.377128 0.438112
O O9 0.022560 0.479836 0.307080
O O10 0.936266 0.295153 0.139198
O O11 0.169215 0.065303 0.612022
O O12 0.790050 0.475686 0.648289
O O13 0.701823 0.790952 0.246334
#
# Coordination Sequence:
#
# PCOD8019149 Si02
#       6
#     2   2   2   2   2   2
#     4  10  26  42  57  93 134 161 202 257 316 365
#     4  11  23  40  67  93 118 165 213 253 302 371
#     4   9  21  38  66  91 124 161 210 250 309 362
#     4  11  22  40  62  93 129 159 202 260 312 359
#     4   9  20  38  65  93 123 161 207 254 301 367
#     4  10  22  41  65  91 124 163 210 254 303 371
#
# _framework density 21.821598000000002
#
# number of rings (size 3 to 8) (size 9 to 14) (size 15 to 20)
#    1.000    1.000    1.667    0.500    2.333    9.333 
#    0.000    1.667    0.000    0.000    0.000    0.000 
#    0.000    0.000    0.000    0.000    0.000    0.000 
#
# Total GULP energy -148718.392871 kJ/mol
# GULP energy per Si atom -12393.199406 kJ/mol
# Density = 2.177193 g / cm^3
# Si number density = 21.821598 Si / 1000 Ang^3
#
#
#
# Elastic Constant Matrix: (Units=GPa)
#
#
# Indices 1 2 3 4 5 6 
#
# 1 73.2559 29.6746 28.0867 6.8451 -24.6360 -4.0305
# 2 29.6746 47.6264 14.6431 2.5778 -4.4464 0.6712
# 3 28.0867 14.6431 92.4900 -5.3576 -21.5497 6.5131
# 4 6.8451 2.5778 -5.3576 17.9143 1.3900 6.8632
# 5 -24.6360 -4.4464 -21.5497 1.3900 41.5287 12.8887
# 6 -4.0305 0.6712 6.5131 6.8632 12.8887 46.9572
#
#
#
# Elastic Compliance Matrix: (Units=1/GPa)
#
#
# Indices 1 2 3 4 5 6 
#
# 1 0.025232 -0.013004 -0.003535 -0.010161 0.011739 0.001105
# 2 -0.013004 0.029143 -0.001981 0.000538 -0.005712 0.000231
# 3 -0.003535 -0.001981 0.014533 0.007459 0.006594 -0.005191
# 4 -0.010161 0.000538 0.007459 0.066281 -0.000784 -0.011387
# 5 0.011739 -0.005712 0.006594 -0.000784 0.036936 -0.009849
# 6 0.001105 0.000231 -0.005191 -0.011387 -0.009849 0.026475
#
#
# Mechanical properties :
#
#
# Convention : Reuss Voigt Hill
#
# Bulk Modulus (GPa) = 31.37942 39.79790 35.58866
# Shear Modulus (GPa) = 20.30362 30.67789 25.49076
#
# Velocity S-wave (km/s) = 3.05362 3.75353 3.42152
# Velocity P-wave (km/s) = 5.18112 6.08792 5.65273
#
# Compressibility (1/GPa) = 0.03186803
#
# Stress axis : x y z
#
# Youngs Moduli (GPa) = 39.63260 34.31396 68.80946
#
# Poissons Ratio (x) = 0.44622 0.24322
# Poissons Ratio (y) = 0.51539 0.13630
# Poissons Ratio (z) = 0.14009 0.06797
#
# Static dielectric constant tensor:
#      x y z
#    x 4.135620 0.234420 0.154640 
#    y 0.234420 4.018250 0.290000 
#    z 0.154640 0.290000 3.808220 
# 
# 
# High freq. dielectric constant tensor:
#      x y z
#    x 1.858310 0.002700 -0.003210 
#    y 0.002700 1.838540 0.011690 
#    z -0.003210 0.011690 1.852570 
# 
# From -- ./inp_files/88819.got.cif
#   From: 2010.06.25/outbox.cif.g09.slc.cpg/sg2_45_cif.got.tgz:88819.got - 2010.06.27 13:26:56.
