data_PCOD8019133
_publ_section_title
;
Structure prediction by ZEFSAII (Michael W. Deem and Ramdas Pophale) SiO2 
 PCOD8019133
Probable space group: P -1
;
_chemical_formula_sum "Si O2"
_cell_formula_units_Z 12
_cell_length_a 8.591912
_cell_length_b 19.073803
_cell_length_c 15.632278
_cell_angle_alpha 160.077368
_cell_angle_beta 46.393020
_cell_angle_gamma 141.407666
_cell_volume 532.110799
_symmetry_space_group_name_H-M "P -1"
_symmetry_group_IT_number 2
_symmetry_cell_setting 'triclinic'
loop_
_space_group_symop_operation_xyz
x,y,z
-x,-y,-z
loop_
_atom_site_type_symbol
_atom_site_label
_atom_site_fract_x
_atom_site_fract_y
_atom_site_fract_z
Si Si1 0.431249 0.320514 0.222619
Si Si2 0.966323 0.449283 0.737714
Si Si3 0.390822 0.169069 0.245499
Si Si4 0.845005 0.233883 0.714894
Si Si5 0.122366 0.971693 0.289782
Si Si6 0.426106 0.960187 0.691342
O O1 0.287064 0.184406 0.209011
O O2 0.399489 0.549622 0.479965
O O3 0.735964 0.445658 0.263555
O O4 0.330665 0.125399 0.960173
O O5 0.828873 0.255639 0.644555
O O6 0.818987 0.306495 0.543313
O O7 0.937011 0.678248 0.028570
O O8 0.164940 0.047358 0.260432
O O9 0.500000 0.000000 0.000000
O O10 0.983385 0.091576 0.524367
O O11 0.569010 0.089855 0.697874
O O12 0.000000 0.500000 0.000000
O O13 0.393127 0.068724 0.344271
#
# Coordination Sequence:
#
# PCOD8019133 Si02
#       6
#     2   2   2   2   2   2
#     4  10  22  41  65  88 123 161 203 248 305 361
#     4  11  23  41  61  93 127 158 202 251 304 363
#     4  11  19  40  69  85 119 168 200 249 305 356
#     4  12  22  43  65  87 127 166 199 249 307 361
#     4  11  23  42  63  92 123 160 205 252 302 360
#     4  11  23  41  63  94 124 159 204 251 305 361
#
# _framework density 22.551694999999999
#
# number of rings (size 3 to 8) (size 9 to 14) (size 15 to 20)
#    0.000    1.000    8.333    1.000    0.000    0.667 
#    6.000    6.667    0.000    0.000    0.000    0.000 
#    0.000    0.000    0.000    0.000    0.000    0.000 
#
# Total GULP energy -148747.055006 kJ/mol
# GULP energy per Si atom -12395.587917 kJ/mol
# Density = 2.250037 g / cm^3
# Si number density = 22.551695 Si / 1000 Ang^3
#
#
#
# Elastic Constant Matrix: (Units=GPa)
#
#
# Indices 1 2 3 4 5 6 
#
# 1 50.1148 17.3803 66.6614 4.1959 10.3336 -14.0212
# 2 17.3803 73.4458 -10.2676 2.8463 2.9530 -26.1729
# 3 66.6614 -10.2676 199.6755 -9.6157 -8.2751 1.5374
# 4 4.1959 2.8463 -9.6157 34.4918 -2.8367 -4.0225
# 5 10.3336 2.9530 -8.2751 -2.8367 48.0977 6.3408
# 6 -14.0212 -26.1729 1.5374 -4.0225 6.3408 21.0661
#
#
#
# Elastic Compliance Matrix: (Units=1/GPa)
#
#
# Indices 1 2 3 4 5 6 
#
# 1 0.097940 0.002228 -0.035563 -0.015963 -0.038672 0.079142
# 2 0.002228 0.026327 0.000109 0.001281 -0.006810 0.036478
# 3 -0.035563 0.000109 0.018070 0.007320 0.014856 -0.027928
# 4 -0.015963 0.001281 0.007320 0.032827 0.007270 -0.005488
# 5 -0.038672 -0.006810 0.014856 0.007270 0.038499 -0.045484
# 6 0.079142 0.036478 -0.027928 -0.005488 -0.045484 0.160147
#
#
# Mechanical properties :
#
#
# Convention : Reuss Voigt Hill
#
# Bulk Modulus (GPa) = 13.17819 52.30936 32.74378
# Shear Modulus (GPa) = 10.73983 37.36193 24.05088
#
# Velocity S-wave (km/s) = 2.18464 4.07470 3.26924
# Velocity P-wave (km/s) = 3.49568 6.73671 5.36671
#
# Compressibility (1/GPa) = 0.07588293
#
# Stress axis : x y z
#
# Youngs Moduli (GPa) = 10.21033 37.98421 55.34139
#
# Poissons Ratio (x) = -0.08463 1.96812
# Poissons Ratio (y) = -0.02275 -0.00601
# Poissons Ratio (z) = 0.36311 -0.00412
#
# Static dielectric constant tensor:
#      x y z
#    x 3.650760 -0.353510 -0.277300 
#    y -0.353510 4.642320 -0.011150 
#    z -0.277300 -0.011150 4.630840 
# 
# 
# High freq. dielectric constant tensor:
#      x y z
#    x 1.839240 -0.021520 -0.014950 
#    y -0.021520 1.898560 -0.013750 
#    z -0.014950 -0.013750 1.916620 
# 
# From -- ./inp_files/305223.got.cif
#   From: 2010.06.25/outbox.cif.g09.slc.cpg/sg2_153_cif.got.tgz:305223.got - 2010.06.27 13:26:56.
