data_PCOD8019250
_publ_section_title
;
Structure prediction by ZEFSAII (Michael W. Deem and Ramdas Pophale) SiO2 
 PCOD8019250
Probable space group: P -1
;
_chemical_formula_sum "Si O2"
_cell_formula_units_Z 16
_cell_length_a 21.688583
_cell_length_b 6.856392
_cell_length_c 5.458099
_cell_angle_alpha 103.675546
_cell_angle_beta 105.206093
_cell_angle_gamma 53.511467
_cell_volume 626.305087
_symmetry_space_group_name_H-M "P -1"
_symmetry_group_IT_number 2
_symmetry_cell_setting 'triclinic'
loop_
_space_group_symop_operation_xyz
x,y,z
-x,-y,-z
loop_
_atom_site_type_symbol
_atom_site_label
_atom_site_fract_x
_atom_site_fract_y
_atom_site_fract_z
Si Si1 0.996901 0.686312 0.815831
Si Si2 0.348886 0.951420 0.075968
Si Si3 0.745173 0.462539 0.861371
Si Si4 0.884266 0.589518 0.537064
Si Si5 0.907330 0.199953 0.749379
Si Si6 0.708399 0.964431 0.458877
Si Si7 0.681145 0.536606 0.314397
Si Si8 0.508156 0.862110 0.217593
O O1 0.938090 0.609083 0.807288
O O2 0.071598 0.464100 0.689136
O O3 0.941888 0.919600 0.643700
O O4 0.020361 0.790192 0.089080
O O5 0.299654 0.245772 0.100083
O O6 0.324611 0.876443 0.277410
O O7 0.441327 0.814297 0.134795
O O8 0.326582 0.870681 0.777623
O O9 0.838204 0.323532 0.914879
O O10 0.720695 0.384622 0.563804
O O11 0.724566 0.381617 0.067282
O O12 0.874150 0.370979 0.524278
O O13 0.800263 0.836809 0.508445
O O14 0.682165 0.778177 0.386332
O O15 0.593156 0.611189 0.231815
O O16 0.500000 0.000000 0.500000
O O17 0.500000 0.000000 0.000000
#
# Coordination Sequence:
#
# PCOD8019250 Si02
#       8
#     2   2   2   2   2   2   2   2
#     4  10  24  38  56  86 108 146 202 230 300 346
#     4  10  17  28  43  76 102 149 180 228 280 336
#     4  10  18  29  50  69 104 144 184 218 292 326
#     4  11  21  38  59  79 114 151 188 245 287 348
#     4  11  21  38  59  79 114 151 188 245 287 348
#     4  10  18  29  50  69 104 144 184 218 292 326
#     4  10  17  28  43  76 102 149 180 228 280 336
#     4  12  16  24  40  66 114 138 178 234 270 333
#
# _framework density 25.546657
#
# number of rings (size 3 to 8) (size 9 to 14) (size 15 to 20)
#    0.000    1.500    7.500    2.250    0.000    0.000 
#    0.000    0.000    0.000    0.000    0.000    0.000 
#    0.000   11.000    0.000    0.000    0.000    0.000 
#
# Total GULP energy -198285.470141 kJ/mol
# GULP energy per Si atom -12392.841884 kJ/mol
# Density = 2.548851 g / cm^3
# Si number density = 25.546657 Si / 1000 Ang^3
#
#
#
# Elastic Constant Matrix: (Units=GPa)
#
#
# Indices 1 2 3 4 5 6 
#
# 1 110.0108 43.2832 47.4377 1.1018 -16.1219 -49.6657
# 2 43.2832 53.6171 11.8665 -7.1219 -8.0544 -23.3464
# 3 47.4377 11.8665 178.7054 -8.9087 -34.8265 -12.0342
# 4 1.1018 -7.1219 -8.9087 24.9390 2.2816 4.9015
# 5 -16.1219 -8.0544 -34.8265 2.2816 47.9635 -4.7138
# 6 -49.6657 -23.3464 -12.0342 4.9015 -4.7138 35.4608
#
#
#
# Elastic Compliance Matrix: (Units=1/GPa)
#
#
# Indices 1 2 3 4 5 6 
#
# 1 0.043614 -0.008753 -0.004825 -0.019144 0.016347 0.058504
# 2 -0.008753 0.030331 0.002010 0.007859 0.004007 0.007838
# 3 -0.004825 0.002010 0.007442 0.003688 0.003656 -0.002933
# 4 -0.019144 0.007859 0.003688 0.050791 -0.007647 -0.028424
# 5 0.016347 0.004007 0.003656 -0.007647 0.033204 0.032244
# 6 0.058504 0.007838 -0.002933 -0.028424 0.032244 0.122519
#
#
# Mechanical properties :
#
#
# Convention : Reuss Voigt Hill
#
# Bulk Modulus (GPa) = 17.16738 60.83424 39.00081
# Shear Modulus (GPa) = 15.13066 37.65571 26.39319
#
# Velocity S-wave (km/s) = 2.43631 3.84343 3.21773
# Velocity P-wave (km/s) = 3.82737 6.60005 5.39488
#
# Compressibility (1/GPa) = 0.05824999
#
# Stress axis : x y z
#
# Youngs Moduli (GPa) = 22.92831 32.96976 134.37381
#
# Poissons Ratio (x) = 0.28860 0.64838
# Poissons Ratio (y) = 0.20070 -0.27010
# Poissons Ratio (z) = 0.11063 -0.06627
#
# Static dielectric constant tensor:
#      x y z
#    x 4.792960 -0.232990 -0.197680 
#    y -0.232990 4.343870 -0.222440 
#    z -0.197680 -0.222440 5.519330 
# 
# 
# High freq. dielectric constant tensor:
#      x y z
#    x 2.027090 -0.016400 -0.002100 
#    y -0.016400 1.994870 -0.009480 
#    z -0.002100 -0.009480 2.029740 
# 
# From -- ./inp_files/43624.got.cif
#   From: 2010.06.25/outbox.cif.g09.slc.cpg/sg2_22_cif.got.tgz:43624.got - 2010.06.27 13:26:56.
