data_PCOD8019071
_publ_section_title
;
Structure prediction by ZEFSAII (Michael W. Deem and Ramdas Pophale) SiO2 
 PCOD8019071
Probable space group: P -1
;
_chemical_formula_sum "Si O2"
_cell_formula_units_Z 14
_cell_length_a 13.690999
_cell_length_b 11.677292
_cell_length_c 8.831268
_cell_angle_alpha 38.506765
_cell_angle_beta 130.000605
_cell_angle_gamma 124.616383
_cell_volume 667.090229
_symmetry_space_group_name_H-M "P -1"
_symmetry_group_IT_number 2
_symmetry_cell_setting 'triclinic'
loop_
_space_group_symop_operation_xyz
x,y,z
-x,-y,-z
loop_
_atom_site_type_symbol
_atom_site_label
_atom_site_fract_x
_atom_site_fract_y
_atom_site_fract_z
Si Si1 0.180348 0.235000 0.257049
Si Si2 0.576582 0.811421 0.930909
Si Si3 0.033710 0.901560 0.288736
Si Si4 0.136366 0.557295 0.658934
Si Si5 0.643602 0.436199 0.372022
Si Si6 0.204597 0.287166 0.576464
Si Si7 0.423288 0.111885 0.483384
O O1 0.164367 0.268631 0.383051
O O2 0.323200 0.187248 0.417013
O O3 0.079802 0.058458 0.294337
O O4 0.148085 0.417898 0.953002
O O5 0.627079 0.897095 0.730116
O O6 0.453375 0.903886 0.770550
O O7 0.542731 0.589169 0.096146
O O8 0.690718 0.848616 0.130716
O O9 0.143248 0.769580 0.504343
O O10 0.914964 0.765694 0.377657
O O11 0.000000 0.000000 0.000000
O O12 0.260416 0.550805 0.686672
O O13 0.000000 0.500000 0.500000
O O14 0.732628 0.499233 0.543803
O O15 0.562759 0.235938 0.514204
#
# Coordination Sequence:
#
# PCOD8019071 Si02
#       7
#     2   2   2   2   2   2   2
#     4  12  26  42  62  96 136 164 210 258 324 386
#     4   9  21  40  62  92 127 162 217 256 304 370
#     4  12  24  44  70  92 123 167 220 265 309 374
#     4  12  23  42  69  95 121 168 219 266 309 368
#     4  10  22  41  64  94 127 159 218 261 304 378
#     4  10  24  45  60  96 134 165 203 266 326 375
#     4  11  22  38  68  93 121 175 211 262 305 367
#
# _framework density 20.986664999999999
#
# number of rings (size 3 to 8) (size 9 to 14) (size 15 to 20)
#    0.857    0.286    4.286    1.714    6.000    1.714 
#    2.571    0.000    0.000    0.000    0.000    0.000 
#    0.000    0.000    0.000    0.000    0.000    0.000 
#
# Total GULP energy -173490.798865 kJ/mol
# GULP energy per Si atom -12392.199919 kJ/mol
# Density = 2.093890 g / cm^3
# Si number density = 20.986665 Si / 1000 Ang^3
#
#
#
# Elastic Constant Matrix: (Units=GPa)
#
#
# Indices 1 2 3 4 5 6 
#
# 1 83.6379 20.3904 50.5690 2.2095 2.5999 -4.4487
# 2 20.3904 86.6278 50.4435 10.8902 -3.2995 -9.1456
# 3 50.5690 50.4435 99.8521 1.9327 15.4428 -23.4336
# 4 2.2095 10.8902 1.9327 34.1324 -14.0982 3.1191
# 5 2.5999 -3.2995 15.4428 -14.0982 29.7610 -0.7786
# 6 -4.4487 -9.1456 -23.4336 3.1191 -0.7786 35.6561
#
#
#
# Elastic Compliance Matrix: (Units=1/GPa)
#
#
# Indices 1 2 3 4 5 6 
#
# 1 0.018704 0.002659 -0.013119 0.001735 0.006143 -0.005624
# 2 0.002659 0.018334 -0.012299 -0.002148 0.007094 -0.002706
# 3 -0.013119 -0.012299 0.029060 -0.005409 -0.017482 0.014398
# 4 0.001735 -0.002148 -0.005409 0.039448 0.020924 -0.006883
# 5 0.006143 0.007094 -0.017482 0.020924 0.052583 -0.009585
# 6 -0.005624 -0.002706 0.014398 -0.006883 -0.009585 0.036505
#
#
# Mechanical properties :
#
#
# Convention : Reuss Voigt Hill
#
# Bulk Modulus (GPa) = 48.59398 56.99151 52.79274
# Shear Modulus (GPa) = 20.24170 29.82423 25.03296
#
# Velocity S-wave (km/s) = 3.10901 3.77384 3.45745
# Velocity P-wave (km/s) = 6.00774 6.79737 6.41471
#
# Compressibility (1/GPa) = 0.02057868
#
# Stress axis : x y z
#
# Youngs Moduli (GPa) = 53.46338 54.54265 34.41172
#
# Poissons Ratio (x) = -0.14503 0.45146
# Poissons Ratio (y) = -0.14216 0.42324
# Poissons Ratio (z) = 0.70141 0.67084
#
# Static dielectric constant tensor:
#      x y z
#    x 3.629870 -0.069860 0.292240 
#    y -0.069860 3.909270 -0.166510 
#    z 0.292240 -0.166510 3.842780 
# 
# 
# High freq. dielectric constant tensor:
#      x y z
#    x 1.811550 -0.005060 0.022240 
#    y -0.005060 1.829320 -0.003870 
#    z 0.022240 -0.003870 1.812030 
# 
# From -- ./inp_files/306361.got.cif
#   From: 2010.06.25/outbox.cif.g09.slc.cpg/sg2_154_cif.got.tgz:306361.got - 2010.06.27 13:26:56.
