data_PCOD8019086
_publ_section_title
;
Structure prediction by ZEFSAII (Michael W. Deem and Ramdas Pophale) SiO2 
 PCOD8019086
Probable space group: P -1
;
_chemical_formula_sum "Si O2"
_cell_formula_units_Z 16
_cell_length_a 13.608581
_cell_length_b 11.639670
_cell_length_c 12.388726
_cell_angle_alpha 86.686687
_cell_angle_beta 144.533658
_cell_angle_gamma 66.931306
_cell_volume 741.807942
_symmetry_space_group_name_H-M "P -1"
_symmetry_group_IT_number 2
_symmetry_cell_setting 'triclinic'
loop_
_space_group_symop_operation_xyz
x,y,z
-x,-y,-z
loop_
_atom_site_type_symbol
_atom_site_label
_atom_site_fract_x
_atom_site_fract_y
_atom_site_fract_z
Si Si1 0.622796 0.202518 0.021626
Si Si2 0.049302 0.387686 0.285139
Si Si3 0.883371 0.031286 0.656583
Si Si4 0.099147 0.726488 0.995249
Si Si5 0.635706 0.560010 0.419336
Si Si6 0.973834 0.811377 0.122729
Si Si7 0.489020 0.039822 0.807839
Si Si8 0.456407 0.246866 0.098089
O O1 0.423175 0.380664 0.761607
O O2 0.583503 0.086881 0.973929
O O3 0.573739 0.255929 0.100412
O O4 0.913476 0.086239 0.253941
O O5 0.258734 0.376190 0.433107
O O6 0.194737 0.217146 0.497525
O O7 0.905311 0.397438 0.057054
O O8 0.839390 0.562116 0.161319
O O9 0.956923 0.091459 0.804209
O O10 0.606531 0.198465 0.345926
O O11 0.880054 0.916718 0.730508
O O12 0.377051 0.647146 0.241846
O O13 0.031413 0.741023 0.057717
O O14 0.855551 0.350103 0.631669
O O15 0.672133 0.946719 0.870400
O O16 0.513486 0.903645 0.893279
#
# Coordination Sequence:
#
# PCOD8019086 Si02
#       8
#     2   2   2   2   2   2   2   2
#     4   9  22  40  66  91 129 171 209 263 326 378
#     4  11  24  42  65 100 133 164 222 267 309 395
#     4  10  22  41  64  95 129 162 225 265 310 396
#     4  11  23  43  67  92 133 173 212 270 326 373
#     4  10  22  42  61  98 133 159 222 266 307 396
#     4  11  22  43  66  91 128 178 208 266 334 371
#     4  10  22  42  61  96 131 162 220 266 306 396
#     4  12  21  42  66  93 130 172 207 266 331 370
#
# _framework density 21.568925
#
# number of rings (size 3 to 8) (size 9 to 14) (size 15 to 20)
#    0.000    1.500    2.500    3.000    0.000    3.000 
#    6.750    3.125    0.000    0.000    0.000    0.000 
#    0.000    0.000    0.000    0.000    0.000    0.000 
#
# Total GULP energy -198405.918505 kJ/mol
# GULP energy per Si atom -12400.369907 kJ/mol
# Density = 2.151983 g / cm^3
# Si number density = 21.568925 Si / 1000 Ang^3
#
#
#
# Elastic Constant Matrix: (Units=GPa)
#
#
# Indices 1 2 3 4 5 6 
#
# 1 70.2241 21.1573 33.8088 -3.8408 -7.1369 -2.5016
# 2 21.1573 65.2490 30.5049 -9.5670 -2.1749 6.6018
# 3 33.8088 30.5049 106.8938 -22.1435 -2.4646 0.5708
# 4 -3.8408 -9.5670 -22.1435 39.9123 7.1113 1.8445
# 5 -7.1369 -2.1749 -2.4646 7.1113 23.6630 0.2213
# 6 -2.5016 6.6018 0.5708 1.8445 0.2213 28.1732
#
#
#
# Elastic Compliance Matrix: (Units=1/GPa)
#
#
# Indices 1 2 3 4 5 6 
#
# 1 0.018498 -0.004134 -0.005229 -0.003243 0.005602 0.002886
# 2 -0.004134 0.019221 -0.003643 0.002519 -0.000570 -0.004958
# 3 -0.005229 -0.003643 0.013334 0.006474 -0.002466 -0.000285
# 4 -0.003243 0.002519 0.006474 0.030728 -0.009279 -0.002948
# 5 0.005602 -0.000570 -0.002466 -0.009279 0.046420 0.000924
# 6 0.002886 -0.004958 -0.000285 -0.002948 0.000924 0.037104
#
#
# Mechanical properties :
#
#
# Convention : Reuss Voigt Hill
#
# Bulk Modulus (GPa) = 39.93257 45.92320 42.92788
# Shear Modulus (GPa) = 25.04193 28.80941 26.92567
#
# Velocity S-wave (km/s) = 3.41107 3.65867 3.53704
# Velocity P-wave (km/s) = 5.83678 6.25983 6.05200
#
# Compressibility (1/GPa) = 0.02504222
#
# Stress axis : x y z
#
# Youngs Moduli (GPa) = 54.06035 52.02535 74.99512
#
# Poissons Ratio (x) = 0.21508 0.39214
# Poissons Ratio (y) = 0.22350 0.27317
# Poissons Ratio (z) = 0.28268 0.18950
#
# Static dielectric constant tensor:
#      x y z
#    x 3.666320 0.246370 0.056940 
#    y 0.246370 3.833440 -0.072430 
#    z 0.056940 -0.072430 3.968830 
# 
# 
# High freq. dielectric constant tensor:
#      x y z
#    x 1.830780 0.017020 0.001350 
#    y 0.017020 1.843870 -0.005930 
#    z 0.001350 -0.005930 1.853590 
# 
# From -- ./inp_files/257815.got.cif
#   From: 2010.06.25/outbox.cif.g09.slc.cpg/sg2_129_cif.got.tgz:257815.got - 2010.06.27 13:26:56.
