data_PCOD8019065
_publ_section_title
;
Structure prediction by ZEFSAII (Michael W. Deem and Ramdas Pophale) SiO2 
 PCOD8019065
Probable space group: P -1
;
_chemical_formula_sum "Si O2"
_cell_formula_units_Z 10
_cell_length_a 13.639231
_cell_length_b 10.395552
_cell_length_c 13.433131
_cell_angle_alpha 43.249567
_cell_angle_beta 22.012723
_cell_angle_gamma 34.206216
_cell_volume 394.622817
_symmetry_space_group_name_H-M "P -1"
_symmetry_group_IT_number 2
_symmetry_cell_setting 'triclinic'
loop_
_space_group_symop_operation_xyz
x,y,z
-x,-y,-z
loop_
_atom_site_type_symbol
_atom_site_label
_atom_site_fract_x
_atom_site_fract_y
_atom_site_fract_z
Si Si1 0.219763 0.565219 0.302642
Si Si2 0.575646 0.510681 0.536191
Si Si3 0.412109 0.965576 0.377471
Si Si4 0.635557 0.114684 0.249601
Si Si5 0.321264 0.232342 0.974100
O O1 0.408909 0.399184 0.315774
O O2 0.000000 0.500000 0.500000
O O3 0.500000 0.500000 0.000000
O O4 0.964757 0.840488 0.410991
O O5 0.500000 0.500000 0.500000
O O6 0.410320 0.786141 0.557560
O O7 0.440600 0.394742 0.795534
O O8 0.954898 0.371312 0.274473
O O9 0.631152 0.826799 0.154265
O O10 0.586983 0.071142 0.204183
O O11 0.500000 0.000000 0.500000
O O12 0.000000 0.000000 0.000000
O O13 0.500000 0.000000 0.000000
#
# Coordination Sequence:
#
# PCOD8019065 Si02
#       5
#     2   2   2   2   2
#     4  10  22  41  64  93 128 172 222 268 323 391
#     4  10  22  42  67  98 132 174 221 268 329 401
#     4  10  23  44  68  94 138 180 210 278 336 376
#     4  11  24  42  64  96 129 171 226 269 318 393
#     4  11  24  43  68 103 134 169 223 271 327 407
#
# _framework density 25.340653
#
# number of rings (size 3 to 8) (size 9 to 14) (size 15 to 20)
#    0.000    1.600    0.000    5.400    0.000   16.000 
#    0.000    8.000    0.000    0.000    0.000    0.000 
#    0.000    0.000    0.000    0.000    0.000    0.000 
#
# Total GULP energy -123922.223727 kJ/mol
# GULP energy per Si atom -12392.222373 kJ/mol
# Density = 2.528298 g / cm^3
# Si number density = 25.340653 Si / 1000 Ang^3
#
#
#
# Elastic Constant Matrix: (Units=GPa)
#
#
# Indices 1 2 3 4 5 6 
#
# 1 36.4008 37.2057 35.2083 5.3151 -22.8732 -4.1517
# 2 37.2057 235.0457 83.1829 8.1038 -33.3873 -41.5778
# 3 35.2083 83.1829 190.1299 -2.0468 -40.9973 -14.7598
# 4 5.3151 8.1038 -2.0468 56.2459 -9.0515 -1.9135
# 5 -22.8732 -33.3873 -40.9973 -9.0515 36.9399 3.7591
# 6 -4.1517 -41.5778 -14.7598 -1.9135 3.7591 53.1836
#
#
#
# Elastic Compliance Matrix: (Units=1/GPa)
#
#
# Indices 1 2 3 4 5 6 
#
# 1 0.048579 -0.003681 -0.002254 -0.000276 0.024331 -0.001441
# 2 -0.003681 0.006276 -0.001473 -0.000265 0.001275 0.004111
# 3 -0.002254 -0.001473 0.007713 0.001720 0.006210 0.000436
# 4 -0.000276 -0.000265 0.001720 0.018901 0.006079 0.000499
# 5 0.024331 0.001275 0.006210 0.006079 0.051550 0.001195
# 6 -0.001441 0.004111 0.000436 0.000499 0.001195 0.021958
#
#
# Mechanical properties :
#
#
# Convention : Reuss Voigt Hill
#
# Bulk Modulus (GPa) = 20.94147 85.86336 53.40241
# Shear Modulus (GPa) = 26.92365 49.67252 38.29808
#
# Velocity S-wave (km/s) = 3.26309 4.43221 3.89180
# Velocity P-wave (km/s) = 4.74119 7.75563 6.42763
#
# Compressibility (1/GPa) = 0.04775215
#
# Stress axis : x y z
#
# Youngs Moduli (GPa) = 20.58486 159.34214 129.65510
#
# Poissons Ratio (x) = 0.58660 0.29221
# Poissons Ratio (y) = 0.07578 0.19096
# Poissons Ratio (z) = 0.04639 0.23468
#
# Static dielectric constant tensor:
#      x y z
#    x 4.825440 -0.012060 -0.331220 
#    y -0.012060 6.136300 -0.122880 
#    z -0.331220 -0.122880 4.951710 
# 
# 
# High freq. dielectric constant tensor:
#      x y z
#    x 1.998580 -0.009740 -0.012630 
#    y -0.009740 2.048970 -0.003790 
#    z -0.012630 -0.003790 2.013350 
# 
# From -- ./inp_files/129956.got.cif
#   From: 2010.06.25/outbox.cif.g09.slc.cpg/sg2_65_cif.got.tgz:129956.got - 2010.06.27 13:26:56.
