data_PCOD8019508
_publ_section_title
;
Structure prediction by ZEFSAII (Michael W. Deem and Ramdas Pophale) SiO2 
 PCOD8019508
Probable space group: P -1
;
_chemical_formula_sum "Si O2"
_cell_formula_units_Z 16
_cell_length_a 10.262756
_cell_length_b 11.561442
_cell_length_c 17.312983
_cell_angle_alpha 145.798713
_cell_angle_beta 130.180885
_cell_angle_gamma 72.230166
_cell_volume 747.037000
_symmetry_space_group_name_H-M "P -1"
_symmetry_group_IT_number 2
_symmetry_cell_setting 'triclinic'
loop_
_space_group_symop_operation_xyz
x,y,z
-x,-y,-z
loop_
_atom_site_type_symbol
_atom_site_label
_atom_site_fract_x
_atom_site_fract_y
_atom_site_fract_z
Si Si1 0.419369 0.905140 0.520109
Si Si2 0.336023 0.806946 0.605145
Si Si3 0.041656 0.289417 0.226998
Si Si4 0.935156 0.844275 0.671259
Si Si5 0.838995 0.215164 0.785597
Si Si6 0.673709 0.813901 0.802674
Si Si7 0.632623 0.967942 0.098101
Si Si8 0.499941 0.513503 0.718752
O O1 0.344769 0.913398 0.582590
O O2 0.254204 0.902325 0.399032
O O3 0.417747 0.661943 0.362114
O O4 0.643843 0.142875 0.725085
O O5 0.113044 0.573514 0.409556
O O6 0.506096 0.733345 0.626599
O O7 0.409132 0.996360 0.809052
O O8 0.107915 0.209471 0.284428
O O9 0.167311 0.265523 0.192559
O O10 0.802826 0.111105 0.024030
O O11 0.738076 0.634956 0.436831
O O12 0.962095 0.102619 0.805154
O O13 0.130486 0.837409 0.719268
O O14 0.000000 0.500000 0.000000
O O15 0.551123 0.696421 0.768500
O O16 0.597177 0.697099 0.930052
O O17 0.500000 0.000000 0.000000
#
# Coordination Sequence:
#
# PCOD8019508 Si02
#       8
#     2   2   2   2   2   2   2   2
#     4  10  23  41  66  94 118 158 208 261 310 354
#     4  12  23  38  59  89 131 160 203 252 301 366
#     4  11  21  33  59  91 122 160 201 246 307 372
#     4  11  22  38  61  86 120 170 202 248 311 361
#     4  10  22  41  68  92 118 154 210 266 309 358
#     4  11  20  33  55  88 121 161 194 247 305 355
#     4  12  24  39  57  90 130 172 202 243 304 376
#     4  11  20  39  60  83 128 160 204 246 302 370
#
# _framework density 21.417950000000001
#
# number of rings (size 3 to 8) (size 9 to 14) (size 15 to 20)
#    0.000    1.000    5.000    2.625    0.000    4.000 
#    0.000    0.625    0.000   10.500    0.000    0.000 
#    0.000    0.000    0.000    0.000    0.000    0.000 
#
# Total GULP energy -198262.826853 kJ/mol
# GULP energy per Si atom -12391.426678 kJ/mol
# Density = 2.136920 g / cm^3
# Si number density = 21.417950 Si / 1000 Ang^3
#
#
#
# Elastic Constant Matrix: (Units=GPa)
#
#
# Indices 1 2 3 4 5 6 
#
# 1 84.2847 34.8405 32.6554 -1.4977 0.0085 17.1615
# 2 34.8405 91.5363 25.5225 0.2862 2.1993 30.1172
# 3 32.6554 25.5225 104.4167 19.9738 11.3666 19.1014
# 4 -1.4977 0.2862 19.9738 31.8222 6.1311 4.2646
# 5 0.0085 2.1993 11.3666 6.1311 39.4110 -6.9119
# 6 17.1615 30.1172 19.1014 4.2646 -6.9119 26.7485
#
#
#
# Elastic Compliance Matrix: (Units=1/GPa)
#
#
# Indices 1 2 3 4 5 6 
#
# 1 0.015789 -0.003695 -0.004127 0.003814 0.000171 -0.003587
# 2 -0.003695 0.019558 0.000319 0.003450 -0.005554 -0.021864
# 3 -0.004127 0.000319 0.014035 -0.007144 -0.004305 -0.007708
# 4 0.003814 0.003450 -0.007144 0.038322 -0.005637 -0.008797
# 5 0.000171 -0.005554 -0.004305 -0.005637 0.030981 0.018123
# 6 -0.003587 -0.021864 -0.007708 -0.008797 0.018123 0.075894
#
#
# Mechanical properties :
#
#
# Convention : Reuss Voigt Hill
#
# Bulk Modulus (GPa) = 29.08893 51.80828 40.44861
# Shear Modulus (GPa) = 22.62013 32.07761 27.34887
#
# Velocity S-wave (km/s) = 3.25334 3.87421 3.57727
# Velocity P-wave (km/s) = 5.26530 6.65239 5.99907
#
# Compressibility (1/GPa) = 0.03437733
#
# Stress axis : x y z
#
# Youngs Moduli (GPa) = 63.33589 51.12925 71.25154
#
# Poissons Ratio (x) = 0.18891 0.29404
# Poissons Ratio (y) = 0.23401 -0.02275
# Poissons Ratio (z) = 0.26137 -0.01632
#
# Static dielectric constant tensor:
#      x y z
#    x 3.690020 0.098360 0.166180 
#    y 0.098360 3.727010 0.034760 
#    z 0.166180 0.034760 4.309550 
# 
# 
# High freq. dielectric constant tensor:
#      x y z
#    x 1.820620 0.014750 0.018610 
#    y 0.014750 1.809010 -0.000560 
#    z 0.018610 -0.000560 1.861800 
# 
# From -- ./inp_files/568258.got.cif
#   From: 2010.06.25/outbox.cif.g09.slc.cpg/sg2_285_cif.got.tgz:568258.got - 2010.06.27 13:26:56.
