data_PCOD8019039
_publ_section_title
;
Structure prediction by ZEFSAII (Michael W. Deem and Ramdas Pophale) SiO2 
 PCOD8019039
Probable space group: P -1
;
_chemical_formula_sum "Si O2"
_cell_formula_units_Z 16
_cell_length_a 14.596350
_cell_length_b 9.157632
_cell_length_c 10.529783
_cell_angle_alpha 66.240048
_cell_angle_beta 143.572900
_cell_angle_gamma 110.289419
_cell_volume 764.270832
_symmetry_space_group_name_H-M "P -1"
_symmetry_group_IT_number 2
_symmetry_cell_setting 'triclinic'
loop_
_space_group_symop_operation_xyz
x,y,z
-x,-y,-z
loop_
_atom_site_type_symbol
_atom_site_label
_atom_site_fract_x
_atom_site_fract_y
_atom_site_fract_z
Si Si1 0.571626 0.277167 0.237377
Si Si2 0.764710 0.102823 0.722198
Si Si3 0.250741 0.838140 0.025549
Si Si4 0.525194 0.185310 0.939406
Si Si5 0.966040 0.461304 0.116961
Si Si6 0.738316 0.598162 0.384277
Si Si7 0.897657 0.782336 0.011781
Si Si8 0.783838 0.806760 0.140509
O O1 0.660913 0.161347 0.471653
O O2 0.617304 0.460522 0.251301
O O3 0.609934 0.249042 0.140957
O O4 0.391911 0.241282 0.079240
O O5 0.699565 0.149094 0.773792
O O6 0.937438 0.177137 0.881186
O O7 0.772263 0.909593 0.782930
O O8 0.384928 0.778344 0.104316
O O9 0.107234 0.714987 0.886689
O O10 0.203491 0.010454 0.861661
O O11 0.362101 0.267998 0.707434
O O12 0.500000 0.000000 0.000000
O O13 0.852369 0.597911 0.991892
O O14 0.134779 0.478475 0.361144
O O15 0.000000 0.500000 0.000000
O O16 0.833874 0.685064 0.346744
O O17 0.906607 0.790265 0.171056
#
# Coordination Sequence:
#
# PCOD8019039 Si02
#       8
#     2   2   2   2   2   2   2   2
#     4  11  22  43  69  94 132 167 219 270 318 388
#     4  10  22  45  66  93 128 172 217 263 319 391
#     4  11  23  44  65  94 138 166 215 270 320 384
#     4  11  23  45  65  99 130 169 215 267 328 382
#     4  12  25  44  62  95 137 168 217 272 317 380
#     4  11  24  43  65  95 132 170 214 268 322 385
#     4  10  22  41  64  91 127 168 219 256 320 384
#     4  10  23  42  64  96 126 167 221 262 324 390
#
# _framework density 20.934987
#
# number of rings (size 3 to 8) (size 9 to 14) (size 15 to 20)
#    0.000    1.250    5.000    1.500    3.500    5.000 
#    2.250    1.250    0.000    0.000    0.000    0.000 
#    0.000    0.000    0.000    0.000    0.000    0.000 
#
# Total GULP energy -198303.507072 kJ/mol
# GULP energy per Si atom -12393.969192 kJ/mol
# Density = 2.088734 g / cm^3
# Si number density = 20.934987 Si / 1000 Ang^3
#
#
#
# Elastic Constant Matrix: (Units=GPa)
#
#
# Indices 1 2 3 4 5 6 
#
# 1 126.7917 30.6406 31.4995 -8.7586 -23.2927 -6.2779
# 2 30.6406 155.9119 23.4317 -6.0392 3.0016 -2.2742
# 3 31.4995 23.4317 79.7362 -14.7062 -20.9213 -9.3595
# 4 -8.7586 -6.0392 -14.7062 27.7218 4.9110 3.1707
# 5 -23.2927 3.0016 -20.9213 4.9110 21.3245 0.1136
# 6 -6.2779 -2.2742 -9.3595 3.1707 0.1136 37.7487
#
#
#
# Elastic Compliance Matrix: (Units=1/GPa)
#
#
# Indices 1 2 3 4 5 6 
#
# 1 0.010753 -0.002260 -0.000238 0.000533 0.011699 0.001513
# 2 -0.002260 0.007448 -0.003003 0.000563 -0.006589 -0.000699
# 3 -0.000238 -0.003003 0.019934 0.006131 0.018285 0.004152
# 4 0.000533 0.000563 0.006131 0.040302 -0.002754 -0.001734
# 5 0.011699 -0.006589 0.018285 -0.002754 0.079142 0.006076
# 6 0.001513 -0.000699 0.004152 -0.001734 0.006076 0.027857
#
#
# Mechanical properties :
#
#
# Convention : Reuss Voigt Hill
#
# Bulk Modulus (GPa) = 36.85637 59.28705 48.07171
# Shear Modulus (GPa) = 24.33283 35.81686 30.07485
#
# Velocity S-wave (km/s) = 3.41296 4.14074 3.79434
# Velocity P-wave (km/s) = 5.75972 7.15836 6.49679
#
# Compressibility (1/GPa) = 0.02713235
#
# Stress axis : x y z
#
# Youngs Moduli (GPa) = 92.99464 134.26827 50.16609
#
# Poissons Ratio (x) = 0.30345 0.01196
# Poissons Ratio (y) = 0.21017 0.15065
# Poissons Ratio (z) = 0.02216 0.40320
#
# Static dielectric constant tensor:
#      x y z
#    x 5.421940 0.914390 0.493320 
#    y 0.914390 4.878000 0.392450 
#    z 0.493320 0.392450 3.895880 
# 
# 
# High freq. dielectric constant tensor:
#      x y z
#    x 1.825770 0.001160 -0.017400 
#    y 0.001160 1.843450 -0.015640 
#    z -0.017400 -0.015640 1.794050 
# 
# From -- ./inp_files/298057.got.cif
#   From: 2010.06.25/outbox.cif.g09.slc.cpg/sg2_150_cif.got.tgz:298057.got - 2010.06.27 13:26:56.
