data_PCOD8019654
_publ_section_title
;
Structure prediction by ZEFSAII (Michael W. Deem and Ramdas Pophale) SiO2 
 PCOD8019654
Probable space group: P -1
;
_chemical_formula_sum "Si O2"
_cell_formula_units_Z 16
_cell_length_a 19.756548
_cell_length_b 8.558956
_cell_length_c 5.280396
_cell_angle_alpha 121.551189
_cell_angle_beta 66.707418
_cell_angle_gamma 99.404250
_cell_volume 697.801751
_symmetry_space_group_name_H-M "P -1"
_symmetry_group_IT_number 2
_symmetry_cell_setting 'triclinic'
loop_
_space_group_symop_operation_xyz
x,y,z
-x,-y,-z
loop_
_atom_site_type_symbol
_atom_site_label
_atom_site_fract_x
_atom_site_fract_y
_atom_site_fract_z
Si Si1 0.718059 0.562695 0.585048
Si Si2 0.583205 0.691322 0.550731
Si Si3 0.303022 0.147412 0.771309
Si Si4 0.658601 0.205974 0.318688
Si Si5 0.571319 0.307460 0.034232
Si Si6 0.168558 0.231318 0.713533
Si Si7 0.046736 0.535072 0.218530
Si Si8 0.046660 0.952303 0.632756
O O1 0.644064 0.605624 0.575708
O O2 0.726928 0.340801 0.373880
O O3 0.789293 0.670541 0.491773
O O4 0.702225 0.638369 0.953489
O O5 0.620070 0.866104 0.511875
O O6 0.562630 0.529524 0.250133
O O7 0.510085 0.768624 0.870775
O O8 0.228209 0.123830 0.711343
O O9 0.307621 0.001886 0.870981
O O10 0.625517 0.220852 0.099014
O O11 0.598684 0.251295 0.666346
O O12 0.117549 0.068659 0.580409
O O13 0.117926 0.398734 0.042053
O O14 0.073052 0.740036 0.384142
O O15 0.000000 0.500000 0.500000
O O16 0.000000 0.500000 0.000000
O O17 0.000000 0.000000 0.500000
O O18 0.000000 0.000000 0.000000
#
# Coordination Sequence:
#
# PCOD8019654 Si02
#       8
#     2   2   2   2   2   2   2   2
#     4  10  24  45  65  95 143 180 230 275 346 410
#     4   9  21  41  67  95 133 183 225 294 338 409
#     4  11  25  43  67  96 142 180 231 277 342 411
#     4  11  25  43  66  99 135 179 231 291 330 411
#     4  10  22  41  69  97 131 179 236 283 356 385
#     4  11  27  45  71 102 138 188 222 281 345 412
#     4  12  25  48  76 106 140 176 225 281 342 408
#     4  12  25  48  75 107 141 173 226 283 340 408
#
# _framework density 22.929148000000001
#
# number of rings (size 3 to 8) (size 9 to 14) (size 15 to 20)
#    0.000    1.250    3.750    0.000    8.750    4.500 
#    0.000    0.000    0.000    0.000    0.000    0.000 
#    0.000    0.000    0.000    0.000    0.000    0.000 
#
# Total GULP energy -198226.435191 kJ/mol
# GULP energy per Si atom -12389.152199 kJ/mol
# Density = 2.287696 g / cm^3
# Si number density = 22.929148 Si / 1000 Ang^3
#
#
#
# Elastic Constant Matrix: (Units=GPa)
#
#
# Indices 1 2 3 4 5 6 
#
# 1 80.8983 49.4483 23.6332 -12.1617 -11.9443 36.5543
# 2 49.4483 138.0338 18.8724 6.8763 -10.1574 17.0483
# 3 23.6332 18.8724 76.0085 -6.7854 -0.4513 11.3618
# 4 -12.1617 6.8763 -6.7854 40.4250 -0.3199 3.9465
# 5 -11.9443 -10.1574 -0.4513 -0.3199 33.8090 -4.5900
# 6 36.5543 17.0483 11.3618 3.9465 -4.5900 38.6547
#
#
#
# Elastic Compliance Matrix: (Units=1/GPa)
#
#
# Indices 1 2 3 4 5 6 
#
# 1 0.034478 -0.008686 -0.002978 0.014194 0.005774 -0.028661
# 2 -0.008686 0.010211 -0.000955 -0.004952 0.000559 0.004563
# 3 -0.002978 -0.000955 0.014691 0.001862 -0.001319 -0.001428
# 4 0.014194 -0.004952 0.001862 0.031621 0.001842 -0.014796
# 5 0.005774 0.000559 -0.001319 0.001842 0.031547 -0.001762
# 6 -0.028661 0.004563 -0.001428 -0.014796 -0.001762 0.052682
#
#
# Mechanical properties :
#
#
# Convention : Reuss Voigt Hill
#
# Bulk Modulus (GPa) = 29.28985 53.20538 41.24762
# Shear Modulus (GPa) = 23.60172 36.11020 29.85596
#
# Velocity S-wave (km/s) = 3.21180 3.97276 3.61237
# Velocity P-wave (km/s) = 5.15325 6.65570 5.95207
#
# Compressibility (1/GPa) = 0.03414152
#
# Stress axis : x y z
#
# Youngs Moduli (GPa) = 29.00433 97.93285 68.06777
#
# Poissons Ratio (x) = 0.85066 0.20268
# Poissons Ratio (y) = 0.25194 0.06503
# Poissons Ratio (z) = 0.08636 0.09357
#
# Static dielectric constant tensor:
#      x y z
#    x 3.704990 0.093670 0.166010 
#    y 0.093670 4.613330 0.075270 
#    z 0.166010 0.075270 3.996080 
# 
# 
# High freq. dielectric constant tensor:
#      x y z
#    x 1.898900 0.012650 0.003040 
#    y 0.012650 1.923510 -0.002410 
#    z 0.003040 -0.002410 1.903430 
# 
# From -- ./inp_files/53228.got.cif
#   From: 2010.06.25/outbox.cif.g09.slc.cpg/sg2_27_cif.got.tgz:53228.got - 2010.06.27 13:26:56.
