data_PCOD8019173
_publ_section_title
;
Structure prediction by ZEFSAII (Michael W. Deem and Ramdas Pophale) SiO2 
 PCOD8019173
Probable space group: P -1
;
_chemical_formula_sum "Si O2"
_cell_formula_units_Z 16
_cell_length_a 11.607417
_cell_length_b 5.114811
_cell_length_c 13.762943
_cell_angle_alpha 74.127461
_cell_angle_beta 115.552345
_cell_angle_gamma 106.948720
_cell_volume 694.751819
_symmetry_space_group_name_H-M "P -1"
_symmetry_group_IT_number 2
_symmetry_cell_setting 'triclinic'
loop_
_space_group_symop_operation_xyz
x,y,z
-x,-y,-z
loop_
_atom_site_type_symbol
_atom_site_label
_atom_site_fract_x
_atom_site_fract_y
_atom_site_fract_z
Si Si1 0.976530 0.851149 0.404677
Si Si2 0.264726 0.983122 0.747366
Si Si3 0.786085 0.298442 0.443225
Si Si4 0.588816 0.285291 0.529228
Si Si5 0.362935 0.010900 0.243227
Si Si6 0.852672 0.967991 0.983026
Si Si7 0.268382 0.630772 0.965526
Si Si8 0.483621 0.619369 0.195405
O O1 0.126508 0.844401 0.431831
O O2 0.887121 0.547156 0.407831
O O3 0.000000 0.000000 0.500000
O O4 0.889201 0.010896 0.288336
O O5 0.280465 0.899863 0.648381
O O6 0.304718 0.770243 0.860092
O O7 0.358940 0.287542 0.769097
O O8 0.679272 0.404314 0.459200
O O9 0.500000 0.500000 0.500000
O O10 0.500000 0.000000 0.500000
O O11 0.670928 0.204390 0.658159
O O12 0.226122 0.040264 0.145164
O O13 0.445027 0.322258 0.267035
O O14 0.449633 0.877924 0.214110
O O15 0.812754 0.676155 0.053836
O O16 0.820828 0.208922 0.016812
O O17 0.000000 0.000000 0.000000
O O18 0.406063 0.605518 0.066851
#
# Coordination Sequence:
#
# PCOD8019173 Si02
#       8
#     2   2   2   2   2   2   2   2
#     4   9  22  43  64  89 132 176 221 273 345 385
#     4  11  23  38  69  99 129 181 217 274 344 400
#     4  10  24  44  64  95 139 171 224 288 331 399
#     4  12  27  42  68 101 131 176 231 273 336 406
#     4  10  23  42  62  94 129 176 217 272 336 387
#     4  10  22  44  67  93 131 176 219 279 327 396
#     4  10  23  40  65 101 134 166 226 266 333 408
#     4  10  22  41  65  93 139 167 211 277 331 398
#
# _framework density 23.029806000000001
#
# number of rings (size 3 to 8) (size 9 to 14) (size 15 to 20)
#    0.000    1.750    0.000    2.250   10.500    1.000 
#    4.500    3.750    0.000    0.000    0.000    0.000 
#    0.000    0.000    0.000    0.000    0.000    0.000 
#
# Total GULP energy -198237.251797 kJ/mol
# GULP energy per Si atom -12389.828237 kJ/mol
# Density = 2.297739 g / cm^3
# Si number density = 23.029806 Si / 1000 Ang^3
#
#
#
# Elastic Constant Matrix: (Units=GPa)
#
#
# Indices 1 2 3 4 5 6 
#
# 1 106.6884 22.9504 35.9809 8.4704 11.5173 -4.0643
# 2 22.9504 112.5073 29.6664 -3.5149 12.2973 -3.5182
# 3 35.9809 29.6664 112.1393 -8.9471 5.3859 11.0343
# 4 8.4704 -3.5149 -8.9471 31.3964 6.3303 7.8494
# 5 11.5173 12.2973 5.3859 6.3303 27.3847 -2.6770
# 6 -4.0643 -3.5182 11.0343 7.8494 -2.6770 32.8600
#
#
#
# Elastic Compliance Matrix: (Units=1/GPa)
#
#
# Indices 1 2 3 4 5 6 
#
# 1 0.011781 -0.001116 -0.004151 -0.004999 -0.002115 0.003753
# 2 -0.001116 0.010181 -0.002141 0.001359 -0.003895 0.001029
# 3 -0.004151 -0.002141 0.012031 0.006263 -0.001734 -0.006420
# 4 -0.004999 0.001359 0.006263 0.040504 -0.010383 -0.013097
# 5 -0.002115 -0.003895 -0.001734 -0.010383 0.042468 0.005844
# 6 0.003753 0.001029 -0.006420 -0.013097 0.005844 0.036767
#
#
# Mechanical properties :
#
#
# Convention : Reuss Voigt Hill
#
# Bulk Modulus (GPa) = 52.14951 56.50336 54.32644
# Shear Modulus (GPa) = 28.58105 34.51071 31.54588
#
# Velocity S-wave (km/s) = 3.52667 3.87528 3.70508
# Velocity P-wave (km/s) = 6.26711 6.67921 6.47644
#
# Compressibility (1/GPa) = 0.01917563
#
# Stress axis : x y z
#
# Youngs Moduli (GPa) = 84.87930 98.22317 83.12118
#
# Poissons Ratio (x) = 0.10964 0.34507
# Poissons Ratio (y) = 0.09475 0.17796
# Poissons Ratio (z) = 0.35237 0.21029
#
# Static dielectric constant tensor:
#      x y z
#    x 4.607350 0.605730 0.160200 
#    y 0.605730 5.026930 -0.664190 
#    z 0.160200 -0.664190 5.181890 
# 
# 
# High freq. dielectric constant tensor:
#      x y z
#    x 1.895250 -0.012170 0.034120 
#    y -0.012170 1.917830 0.005760 
#    z 0.034120 0.005760 1.915960 
# 
# From -- ./inp_files/510761.got.cif
#   From: 2010.06.25/outbox.cif.g09.slc.cpg/sg2_256_cif.got.tgz:510761.got - 2010.06.27 13:26:56.
