data_PCOD8019134
_publ_section_title
;
Structure prediction by ZEFSAII (Michael W. Deem and Ramdas Pophale) SiO2 
 PCOD8019134
Probable space group: P -1
;
_chemical_formula_sum "Si O2"
_cell_formula_units_Z 16
_cell_length_a 8.916891
_cell_length_b 11.750838
_cell_length_c 18.002802
_cell_angle_alpha 31.347951
_cell_angle_beta 131.597754
_cell_angle_gamma 120.660083
_cell_volume 725.941925
_symmetry_space_group_name_H-M "P -1"
_symmetry_group_IT_number 2
_symmetry_cell_setting 'triclinic'
loop_
_space_group_symop_operation_xyz
x,y,z
-x,-y,-z
loop_
_atom_site_type_symbol
_atom_site_label
_atom_site_fract_x
_atom_site_fract_y
_atom_site_fract_z
Si Si1 0.799217 0.622430 0.277062
Si Si2 0.812258 0.767804 0.737378
Si Si3 0.502711 0.812725 0.328458
Si Si4 0.817266 0.060037 0.964310
Si Si5 0.360867 0.766324 0.632174
Si Si6 0.733412 0.478734 0.495172
Si Si7 0.019681 0.331635 0.993786
Si Si8 0.527451 0.745740 0.855209
O O1 0.759150 0.437492 0.307606
O O2 0.684448 0.583448 0.338518
O O3 0.034555 0.630925 0.365812
O O4 0.722706 0.852787 0.082817
O O5 0.585040 0.708150 0.703199
O O6 0.952635 0.746616 0.868496
O O7 0.787830 0.022703 0.564694
O O8 0.932881 0.594823 0.814827
O O9 0.355367 0.793878 0.220950
O O10 0.705482 0.660158 0.451419
O O11 0.407765 0.712474 0.427174
O O12 0.548060 0.062793 0.216560
O O13 0.866476 0.201869 0.972075
O O14 0.000000 0.000000 0.000000
O O15 0.394852 0.819441 0.698956
O O16 0.233654 0.263722 0.063570
O O17 0.500000 0.500000 0.000000
#
# Coordination Sequence:
#
# PCOD8019134 Si02
#       8
#     2   2   2   2   2   2   2   2
#     4  11  24  43  65  97 126 165 218 268 315 371
#     4   9  22  42  62  94 122 164 207 262 316 378
#     4  11  24  44  65  95 131 170 212 257 327 381
#     4  12  23  41  69  93 129 172 208 263 321 383
#     4  10  23  38  67  90 125 163 212 261 311 379
#     4  10  25  42  67  93 129 168 208 274 316 374
#     4  10  22  41  65  88 127 165 208 258 322 375
#     4  11  23  41  62  90 129 169 208 258 314 379
#
# _framework density 22.040330000000001
#
# number of rings (size 3 to 8) (size 9 to 14) (size 15 to 20)
#    0.000    1.500    2.500    0.750   10.500    2.500 
#    4.500    1.250    0.000    0.000    0.000    0.000 
#    0.000    0.000    0.000    0.000    0.000    0.000 
#
# Total GULP energy -198313.891551 kJ/mol
# GULP energy per Si atom -12394.618222 kJ/mol
# Density = 2.199017 g / cm^3
# Si number density = 22.040330 Si / 1000 Ang^3
#
#
#
# Elastic Constant Matrix: (Units=GPa)
#
#
# Indices 1 2 3 4 5 6 
#
# 1 52.3659 17.8810 27.5141 -2.9205 -12.2168 -14.0799
# 2 17.8810 127.5479 34.0649 -24.1633 -5.2611 -9.2778
# 3 27.5141 34.0649 90.8790 -13.0448 -18.4031 -10.6297
# 4 -2.9205 -24.1633 -13.0448 39.8400 0.2248 3.7268
# 5 -12.2168 -5.2611 -18.4031 0.2248 27.6429 -14.1086
# 6 -14.0799 -9.2778 -10.6297 3.7268 -14.1086 20.8265
#
#
#
# Elastic Compliance Matrix: (Units=1/GPa)
#
#
# Indices 1 2 3 4 5 6 
#
# 1 0.069507 -0.000784 0.014570 -0.002906 0.104179 0.125172
# 2 -0.000784 0.009698 -0.002007 0.004875 0.001666 0.003022
# 3 0.014570 -0.002007 0.024304 0.002379 0.050291 0.055004
# 4 -0.002906 0.004875 0.002379 0.029076 -0.001435 -0.004754
# 5 0.104179 0.001666 0.050291 -0.001435 0.253091 0.268550
# 6 0.125172 0.003022 0.055004 -0.004754 0.268550 0.344833
#
#
# Mechanical properties :
#
#
# Convention : Reuss Voigt Hill
#
# Bulk Modulus (GPa) = 7.86988 47.74587 27.80788
# Shear Modulus (GPa) = 6.67283 30.41742 18.54512
#
# Velocity S-wave (km/s) = 1.74187 3.71897 2.90387
# Velocity P-wave (km/s) = 2.76115 6.33648 4.88748
#
# Compressibility (1/GPa) = 0.12706674
#
# Stress axis : x y z
#
# Youngs Moduli (GPa) = 14.38709 103.11052 41.14564
#
# Poissons Ratio (x) = 0.08083 -0.59950
# Poissons Ratio (y) = 0.01128 0.08260
# Poissons Ratio (z) = -0.20962 0.20699
#
# Static dielectric constant tensor:
#      x y z
#    x 3.197830 -0.649050 0.806910 
#    y -0.649050 3.516420 0.602430 
#    z 0.806910 0.602430 3.222440 
# 
# 
# High freq. dielectric constant tensor:
#      x y z
#    x 1.845740 -0.009150 0.004200 
#    y -0.009150 1.870370 -0.001710 
#    z 0.004200 -0.001710 1.880220 
# 
# From -- ./inp_files/559582.got.cif
#   From: 2010.06.25/outbox.cif.g09.slc.cpg/sg2_280_cif.got.tgz:559582.got - 2010.06.27 13:26:56.
