data_PCOD8019230
_publ_section_title
;
Structure prediction by ZEFSAII (Michael W. Deem and Ramdas Pophale) SiO2 
 PCOD8019230
Probable space group: P -1
;
_chemical_formula_sum "Si O2"
_cell_formula_units_Z 16
_cell_length_a 9.247797
_cell_length_b 16.115124
_cell_length_c 8.653070
_cell_angle_alpha 111.423121
_cell_angle_beta 107.094158
_cell_angle_gamma 36.906095
_cell_volume 720.880927
_symmetry_space_group_name_H-M "P -1"
_symmetry_group_IT_number 2
_symmetry_cell_setting 'triclinic'
loop_
_space_group_symop_operation_xyz
x,y,z
-x,-y,-z
loop_
_atom_site_type_symbol
_atom_site_label
_atom_site_fract_x
_atom_site_fract_y
_atom_site_fract_z
Si Si1 0.080049 0.264729 0.663952
Si Si2 0.204469 0.300396 0.418548
Si Si3 0.256597 0.349307 0.928379
Si Si4 0.463842 0.509925 0.313859
Si Si5 0.947594 0.038103 0.753451
Si Si6 0.269092 0.985768 0.576726
Si Si7 0.261857 0.453050 0.698779
Si Si8 0.699636 0.222762 0.102422
O O1 0.064122 0.320000 0.531341
O O2 0.248012 0.248919 0.815384
O O3 0.815627 0.380361 0.734631
O O4 0.203288 0.113000 0.579974
O O5 0.458225 0.135404 0.355166
O O6 0.262168 0.378152 0.514354
O O7 0.012182 0.379858 0.270798
O O8 0.338575 0.374515 0.829876
O O9 0.458925 0.271445 0.070049
O O10 0.000000 0.500000 0.000000
O O11 0.500000 0.500000 0.500000
O O12 0.534442 0.568874 0.292357
O O13 0.631172 0.356982 0.189907
O O14 0.088482 0.043633 0.696028
O O15 0.131139 0.880894 0.772308
O O16 0.750759 0.075297 0.613619
O O17 0.828045 0.148546 0.928178
#
# Coordination Sequence:
#
# PCOD8019230 Si02
#       8
#     2   2   2   2   2   2   2   2
#     4  11  23  41  67 103 131 175 227 276 337 396
#     4  10  22  41  65  98 140 168 215 284 336 397
#     4  11  24  44  66  94 140 181 215 275 349 404
#     4  12  24  41  72 102 134 173 234 285 328 407
#     4  10  25  44  68 100 132 183 223 281 338 403
#     4  11  24  42  74  98 133 174 238 274 332 402
#     4  10  24  39  65 101 133 175 226 271 344 396
#     4  11  25  46  67  95 145 177 221 278 350 392
#
# _framework density 22.195067000000002
#
# number of rings (size 3 to 8) (size 9 to 14) (size 15 to 20)
#    0.000    1.250    2.500    2.625    8.750    1.500 
#    2.250    0.625    0.000    0.000    0.000    0.000 
#    0.000    0.000    0.000    0.000    0.000    0.000 
#
# Total GULP energy -198437.465781 kJ/mol
# GULP energy per Si atom -12402.341611 kJ/mol
# Density = 2.214455 g / cm^3
# Si number density = 22.195067 Si / 1000 Ang^3
#
#
#
# Elastic Constant Matrix: (Units=GPa)
#
#
# Indices 1 2 3 4 5 6 
#
# 1 142.4220 36.9983 23.3115 7.5418 4.0191 6.8814
# 2 36.9983 102.9451 11.3007 9.9012 2.8539 -8.6498
# 3 23.3115 11.3007 65.1606 9.8272 5.5148 6.8386
# 4 7.5418 9.9012 9.8272 33.1778 -1.8417 8.1371
# 5 4.0191 2.8539 5.5148 -1.8417 13.0769 3.3450
# 6 6.8814 -8.6498 6.8386 8.1371 3.3450 41.2003
#
#
#
# Elastic Compliance Matrix: (Units=1/GPa)
#
#
# Indices 1 2 3 4 5 6 
#
# 1 0.008211 -0.002818 -0.002236 -0.000017 -0.000574 -0.001542
# 2 -0.002818 0.011572 -0.000597 -0.003778 -0.002959 0.003986
# 3 -0.002236 -0.000597 0.017667 -0.004639 -0.006979 -0.001201
# 4 -0.000017 -0.003778 -0.004639 0.035082 0.009706 -0.007737
# 5 -0.000574 -0.002959 -0.006979 0.009706 0.083669 -0.008077
# 6 -0.001542 0.003986 -0.001201 -0.007737 -0.008077 0.027749
#
#
# Mechanical properties :
#
#
# Convention : Reuss Voigt Hill
#
# Bulk Modulus (GPa) = 38.24255 50.41650 44.32952
# Shear Modulus (GPa) = 24.51363 33.41882 28.96622
#
# Velocity S-wave (km/s) = 3.32695 3.88453 3.61650
# Velocity P-wave (km/s) = 5.65913 6.54858 6.12003
#
# Compressibility (1/GPa) = 0.02614889
#
# Stress axis : x y z
#
# Youngs Moduli (GPa) = 121.78952 86.41261 56.60421
#
# Poissons Ratio (x) = 0.24347 0.12656
# Poissons Ratio (y) = 0.34315 0.03379
# Poissons Ratio (z) = 0.27231 0.05159
#
# Static dielectric constant tensor:
#      x y z
#    x 4.220520 -0.156240 0.047980 
#    y -0.156240 4.153890 -0.054330 
#    z 0.047980 -0.054330 4.014060 
# 
# 
# High freq. dielectric constant tensor:
#      x y z
#    x 1.883790 -0.009430 0.000340 
#    y -0.009430 1.886150 0.000020 
#    z 0.000340 0.000020 1.852910 
# 
# From -- ./inp_files/208360.got.cif
#   From: 2010.06.25/outbox.cif.g09.slc.cpg/sg2_105_cif.got.tgz:208360.got - 2010.06.27 13:26:56.
