data_PCOD8019047
_publ_section_title
;
Structure prediction by ZEFSAII (Michael W. Deem and Ramdas Pophale) SiO2 
 PCOD8019047
Probable space group: P -1
;
_chemical_formula_sum "Si O2"
_cell_formula_units_Z 14
_cell_length_a 8.963491
_cell_length_b 13.123849
_cell_length_c 17.078833
_cell_angle_alpha 149.577233
_cell_angle_beta 41.481707
_cell_angle_gamma 137.533602
_cell_volume 648.224236
_symmetry_space_group_name_H-M "P -1"
_symmetry_group_IT_number 2
_symmetry_cell_setting 'triclinic'
loop_
_space_group_symop_operation_xyz
x,y,z
-x,-y,-z
loop_
_atom_site_type_symbol
_atom_site_label
_atom_site_fract_x
_atom_site_fract_y
_atom_site_fract_z
Si Si1 0.814818 0.426309 0.297891
Si Si2 0.908046 0.337675 0.036675
Si Si3 0.665006 0.520202 0.819199
Si Si4 0.293786 0.743835 0.103166
Si Si5 0.293860 0.127501 0.730334
Si Si6 0.621723 0.789956 0.577924
Si Si7 0.491454 0.771017 0.443705
O O1 0.785982 0.662035 0.469571
O O2 0.636336 0.276734 0.327778
O O3 0.758456 0.336362 0.172887
O O4 0.072399 0.416056 0.212079
O O5 0.086545 0.566265 0.106359
O O6 0.048750 0.163217 0.875103
O O7 0.729392 0.274799 0.993765
O O8 0.511707 0.324021 0.801063
O O9 0.652063 0.448639 0.685019
O O10 0.548589 0.712312 0.002603
O O11 0.269025 0.963738 0.290087
O O12 0.303570 0.110326 0.619475
O O13 0.316982 0.917097 0.623202
O O14 0.606318 0.731660 0.453489
#
# Coordination Sequence:
#
# PCOD8019047 Si02
#       7
#     2   2   2   2   2   2   2
#     4  11  26  42  60  90 130 165 205 247 311 362
#     4  10  22  41  64  92 125 157 206 260 304 364
#     4   9  20  40  62  90 122 159 199 256 305 357
#     4  10  23  39  66  93 118 161 211 252 312 352
#     4   8  19  36  65  95 120 153 202 258 306 352
#     4  11  26  42  60  91 127 168 203 251 303 374
#     4   9  19  39  63  88 129 154 204 251 303 365
#
# _framework density 21.597463999999999
#
# number of rings (size 3 to 8) (size 9 to 14) (size 15 to 20)
#    0.857    1.429    0.000    0.857    8.000    3.429 
#    0.000    0.000    0.000    0.000    0.000    0.000 
#    0.000    0.000    0.000    0.000    0.000    0.000 
#
# Total GULP energy -173551.641580 kJ/mol
# GULP energy per Si atom -12396.545827 kJ/mol
# Density = 2.154831 g / cm^3
# Si number density = 21.597464 Si / 1000 Ang^3
#
#
#
# Elastic Constant Matrix: (Units=GPa)
#
#
# Indices 1 2 3 4 5 6 
#
# 1 70.5412 11.3160 8.8135 -5.0452 4.8359 6.6637
# 2 11.3160 18.4870 4.3515 -4.8278 -1.9539 -5.1870
# 3 8.8135 4.3515 82.9365 5.8819 -8.4774 -7.4785
# 4 -5.0452 -4.8278 5.8819 29.1257 -1.2830 -6.5152
# 5 4.8359 -1.9539 -8.4774 -1.2830 43.5091 -6.6366
# 6 6.6637 -5.1870 -7.4785 -6.5152 -6.6366 15.9345
#
#
#
# Elastic Compliance Matrix: (Units=1/GPa)
#
#
# Indices 1 2 3 4 5 6 
#
# 1 0.019734 -0.018755 -0.003387 -0.003879 -0.006924 -0.020417
# 2 -0.018755 0.087804 0.002093 0.023494 0.015269 0.053373
# 3 -0.003387 0.002093 0.013754 -0.000504 0.004708 0.010307
# 4 -0.003879 0.023494 -0.000504 0.044783 0.007346 0.030403
# 5 -0.006924 0.015269 0.004708 0.007346 0.029438 0.025340
# 6 -0.020417 0.053373 0.010307 0.030403 0.025340 0.116491
#
#
# Mechanical properties :
#
#
# Convention : Reuss Voigt Hill
#
# Bulk Modulus (GPa) = 12.31608 24.54740 18.43174
# Shear Modulus (GPa) = 13.18687 27.54611 20.36649
#
# Velocity S-wave (km/s) = 2.47366 3.57519 3.07417
# Velocity P-wave (km/s) = 3.72473 5.33228 4.59928
#
# Compressibility (1/GPa) = 0.08119465
#
# Stress axis : x y z
#
# Youngs Moduli (GPa) = 50.67424 11.38903 72.70695
#
# Poissons Ratio (x) = 0.21360 0.24624
# Poissons Ratio (y) = 0.95041 -0.15221
# Poissons Ratio (z) = 0.17162 -0.02384
#
# Static dielectric constant tensor:
#      x y z
#    x 3.765420 -0.151300 -0.079670 
#    y -0.151300 3.352030 0.007800 
#    z -0.079670 0.007800 4.022130 
# 
# 
# High freq. dielectric constant tensor:
#      x y z
#    x 1.845890 -0.007460 -0.009850 
#    y -0.007460 1.793340 -0.000540 
#    z -0.009850 -0.000540 1.866900 
# 
# From -- ./inp_files/561401.got.cif
#   From: 2010.06.25/outbox.cif.g09.slc.cpg/sg2_281_cif.got.tgz:561401.got - 2010.06.27 13:26:56.
