data_PCOD8020169
_publ_section_title
;
Structure prediction by ZEFSAII (Michael W. Deem and Ramdas Pophale) SiO2 
 PCOD8020169
Probable space group: P -1
;
_chemical_formula_sum "Si O2"
_cell_formula_units_Z 14
_cell_length_a 9.319926
_cell_length_b 11.719678
_cell_length_c 17.876015
_cell_angle_alpha 149.865934
_cell_angle_beta 47.141224
_cell_angle_gamma 112.682049
_cell_volume 599.772357
_symmetry_space_group_name_H-M "P -1"
_symmetry_group_IT_number 2
_symmetry_cell_setting 'triclinic'
loop_
_space_group_symop_operation_xyz
x,y,z
-x,-y,-z
loop_
_atom_site_type_symbol
_atom_site_label
_atom_site_fract_x
_atom_site_fract_y
_atom_site_fract_z
Si Si1 0.563729 0.212703 0.117993
Si Si2 0.778127 0.982179 0.059859
Si Si3 0.452013 0.063937 0.358830
Si Si4 0.031448 0.625044 0.373357
Si Si5 0.883221 0.065823 0.788536
Si Si6 0.611076 0.209710 0.529590
Si Si7 0.491254 0.612781 0.177357
O O1 0.372753 0.524278 0.338501
O O2 0.609776 0.208921 0.187737
O O3 0.795270 0.114458 0.931863
O O4 0.500000 0.000000 0.000000
O O5 0.632699 0.047115 0.224613
O O6 0.858753 0.691715 0.831930
O O7 0.000000 0.000000 0.000000
O O8 0.519375 0.757102 0.177049
O O9 0.180559 0.259435 0.544710
O O10 0.470535 0.190622 0.500972
O O11 0.235532 0.660388 0.290822
O O12 0.927088 0.787388 0.580281
O O13 0.701814 0.296536 0.924973
O O14 0.124802 0.051804 0.702706
O O15 0.482296 0.251831 0.678965
#
# Coordination Sequence:
#
# PCOD8020169 Si02
#       7
#     2   2   2   2   2   2   2
#     4  11  22  40  63  91 125 166 220 263 305 380
#     4  12  27  42  62  97 134 170 213 260 319 387
#     4  12  25  42  66  96 135 171 206 267 327 377
#     4  11  24  43  67  96 128 169 216 264 322 381
#     4  10  22  42  66  91 126 168 213 268 318 370
#     4  10  23  41  65  94 125 168 213 263 324 380
#     4  10  23  44  68  97 126 165 221 265 316 385
#
# _framework density 23.342191
#
# number of rings (size 3 to 8) (size 9 to 14) (size 15 to 20)
#    0.000    1.143    0.000    6.857    0.000   13.143 
#    0.000    0.000    0.000    0.000    0.000    0.000 
#    0.000    0.000    0.000    0.000    0.000    0.000 
#
# Total GULP energy -173582.766925 kJ/mol
# GULP energy per Si atom -12398.769066 kJ/mol
# Density = 2.328906 g / cm^3
# Si number density = 23.342191 Si / 1000 Ang^3
#
#
#
# Elastic Constant Matrix: (Units=GPa)
#
#
# Indices 1 2 3 4 5 6 
#
# 1 120.5514 17.2340 21.2528 -21.8688 -18.5667 -4.3920
# 2 17.2340 117.8726 19.3213 -12.7547 -10.5359 -13.4870
# 3 21.2528 19.3213 93.6673 -8.5401 -13.8744 -4.1006
# 4 -21.8688 -12.7547 -8.5401 24.2268 -0.1366 -2.0312
# 5 -18.5667 -10.5359 -13.8744 -0.1366 37.8144 4.0377
# 6 -4.3920 -13.4870 -4.1006 -2.0312 4.0377 32.6876
#
#
#
# Elastic Compliance Matrix: (Units=1/GPa)
#
#
# Indices 1 2 3 4 5 6 
#
# 1 0.011047 0.000217 -0.000831 0.009944 0.005059 0.001462
# 2 0.000217 0.009857 -0.001118 0.005341 0.002031 0.004037
# 3 -0.000831 -0.001118 0.011925 0.002941 0.003596 0.000662
# 4 0.009944 0.005341 0.002941 0.054681 0.006959 0.006447
# 5 0.005059 0.002031 0.003596 0.006959 0.030992 -0.001427
# 6 0.001462 0.004037 0.000662 0.006447 -0.001427 0.033115
#
#
# Mechanical properties :
#
#
# Convention : Reuss Voigt Hill
#
# Bulk Modulus (GPa) = 34.05540 49.74526 41.90033
# Shear Modulus (GPa) = 30.32717 37.23133 33.77925
#
# Velocity S-wave (km/s) = 3.60841 3.99811 3.80825
# Velocity P-wave (km/s) = 5.65528 6.53228 6.10954
#
# Compressibility (1/GPa) = 0.02936392
#
# Stress axis : x y z
#
# Youngs Moduli (GPa) = 90.52055 101.45489 83.85782
#
# Poissons Ratio (x) = -0.02198 0.06970
# Poissons Ratio (y) = -0.01961 0.09374
# Poissons Ratio (z) = 0.07524 0.11341
#
# Static dielectric constant tensor:
#      x y z
#    x 3.988810 0.193450 0.024260 
#    y 0.193450 4.020850 0.078000 
#    z 0.024260 0.078000 4.320710 
# 
# 
# High freq. dielectric constant tensor:
#      x y z
#    x 1.937350 -0.007650 -0.001040 
#    y -0.007650 1.918360 0.004840 
#    z -0.001040 0.004840 1.927540 
# 
# From -- ./inp_files/47379.got.cif
#   From: 2010.06.25/outbox.cif.g09.slc.cpg/sg2_24_cif.got.tgz:47379.got - 2010.06.27 13:26:56.
