data_PCOD8020503
_publ_section_title
;
Structure prediction by ZEFSAII (Michael W. Deem and Ramdas Pophale) SiO2 
 PCOD8020503
Probable space group: P -1
;
_chemical_formula_sum "Si O2"
_cell_formula_units_Z 14
_cell_length_a 11.741719
_cell_length_b 11.332673
_cell_length_c 7.458782
_cell_angle_alpha 112.110700
_cell_angle_beta 37.939566
_cell_angle_gamma 124.484609
_cell_volume 498.152537
_symmetry_space_group_name_H-M "P -1"
_symmetry_group_IT_number 2
_symmetry_cell_setting 'triclinic'
loop_
_space_group_symop_operation_xyz
x,y,z
-x,-y,-z
loop_
_atom_site_type_symbol
_atom_site_label
_atom_site_fract_x
_atom_site_fract_y
_atom_site_fract_z
Si Si1 0.975472 0.212486 0.470813
Si Si2 0.387946 0.094343 0.739512
Si Si3 0.081881 0.315482 0.786667
Si Si4 0.166318 0.076068 0.674435
Si Si5 0.699793 0.491819 0.824471
Si Si6 0.724420 0.380854 0.373099
Si Si7 0.528279 0.193513 0.012833
O O1 0.727806 0.164434 0.750819
O O2 0.088847 0.258116 0.547383
O O3 0.116556 0.351584 0.245621
O O4 0.998810 0.072630 0.304475
O O5 0.173770 0.025105 0.845306
O O6 0.490348 0.251999 0.606960
O O7 0.384072 0.115890 0.970591
O O8 0.500000 0.000000 0.500000
O O9 0.102676 0.203742 0.828858
O O10 0.260894 0.483672 0.684974
O O11 0.858031 0.309720 0.084503
O O12 0.391951 0.132647 0.325908
O O13 0.807512 0.441214 0.504538
O O14 0.617945 0.367595 0.006583
O O15 0.500000 0.500000 0.000000
#
# Coordination Sequence:
#
# PCOD8020503 Si02
#       7
#     2   2   2   2   2   2   2
#     4  11  22  41  71 106 142 191 237 297 370 424
#     4  11  24  44  68 102 148 186 241 294 359 425
#     4  10  22  42  69 102 140 185 248 295 356 429
#     4  12  25  44  75 109 146 195 239 300 359 431
#     4  10  22  44  72 104 141 188 245 300 358 432
#     4   9  21  43  67  96 140 189 235 301 357 420
#     4  11  23  43  74 102 144 195 242 291 360 433
#
# _framework density 28.103840999999999
#
# number of rings (size 3 to 8) (size 9 to 14) (size 15 to 20)
#    0.000    1.429    1.429    3.857    2.000    0.571 
#    2.571   17.857    0.000    0.000    0.000    0.000 
#    0.000    0.000    0.000    0.000    0.000    0.000 
#
# Total GULP energy -173501.200015 kJ/mol
# GULP energy per Si atom -12392.942858 kJ/mol
# Density = 2.803988 g / cm^3
# Si number density = 28.103841 Si / 1000 Ang^3
#
#
#
# Elastic Constant Matrix: (Units=GPa)
#
#
# Indices 1 2 3 4 5 6 
#
# 1 109.8520 26.4792 16.4112 18.4777 -3.5400 -6.0435
# 2 26.4792 164.1516 42.5274 7.8344 -0.9000 -24.4217
# 3 16.4112 42.5274 102.2669 14.9036 14.9853 -3.7256
# 4 18.4777 7.8344 14.9036 47.6442 -8.9240 -2.8409
# 5 -3.5400 -0.9000 14.9853 -8.9240 36.8051 1.8942
# 6 -6.0435 -24.4217 -3.7256 -2.8409 1.8942 44.1543
#
#
#
# Elastic Compliance Matrix: (Units=1/GPa)
#
#
# Indices 1 2 3 4 5 6 
#
# 1 0.010108 -0.001237 -0.000646 -0.003424 0.000353 0.000409
# 2 -0.001237 0.007640 -0.003131 0.000674 0.001312 0.003779
# 3 -0.000646 -0.003131 0.012739 -0.004457 -0.006367 -0.000759
# 4 -0.003424 0.000674 -0.004457 0.025061 0.007536 0.000817
# 5 0.000353 0.001312 -0.006367 0.007536 0.031689 -0.000638
# 6 0.000409 0.003779 -0.000759 0.000817 -0.000638 0.024810
#
#
# Mechanical properties :
#
#
# Convention : Reuss Voigt Hill
#
# Bulk Modulus (GPa) = 48.87815 60.78957 54.83386
# Shear Modulus (GPa) = 38.79177 45.11091 41.95134
#
# Velocity S-wave (km/s) = 3.71927 4.01078 3.86777
# Velocity P-wave (km/s) = 5.98947 6.56702 6.28488
#
# Compressibility (1/GPa) = 0.02045904
#
# Stress axis : x y z
#
# Youngs Moduli (GPa) = 98.93538 130.89023 78.49909
#
# Poissons Ratio (x) = 0.16191 0.05067
# Poissons Ratio (y) = 0.12238 0.24581
# Poissons Ratio (z) = 0.06386 0.40986
#
# Static dielectric constant tensor:
#      x y z
#    x 4.723390 -0.068530 0.232480 
#    y -0.068530 6.086640 -0.140450 
#    z 0.232480 -0.140450 5.255590 
# 
# 
# High freq. dielectric constant tensor:
#      x y z
#    x 2.103400 -0.006330 0.005200 
#    y -0.006330 2.169000 -0.001290 
#    z 0.005200 -0.001290 2.156630 
# 
# From -- ./inp_files/262873.got.cif
#   From: 2010.06.25/outbox.cif.g09.slc.cpg/sg2_132_cif.got.tgz:262873.got - 2010.06.27 13:26:56.
