data_PCOD8020208
_publ_section_title
;
Structure prediction by ZEFSAII (Michael W. Deem and Ramdas Pophale) SiO2 
 PCOD8020208
Probable space group: P -1
;
_chemical_formula_sum "Si O2"
_cell_formula_units_Z 16
_cell_length_a 12.187462
_cell_length_b 14.380710
_cell_length_c 9.042352
_cell_angle_alpha 90.800463
_cell_angle_beta 148.401288
_cell_angle_gamma 77.013676
_cell_volume 758.713859
_symmetry_space_group_name_H-M "P -1"
_symmetry_group_IT_number 2
_symmetry_cell_setting 'triclinic'
loop_
_space_group_symop_operation_xyz
x,y,z
-x,-y,-z
loop_
_atom_site_type_symbol
_atom_site_label
_atom_site_fract_x
_atom_site_fract_y
_atom_site_fract_z
Si Si1 0.202528 0.392695 0.342623
Si Si2 0.853833 0.934849 0.308318
Si Si3 0.639687 0.959560 0.362380
Si Si4 0.786948 0.097696 0.701610
Si Si5 0.964070 0.233606 0.730323
Si Si6 0.641945 0.812903 0.597401
Si Si7 0.601981 0.459921 0.274566
Si Si8 0.292985 0.488244 0.178043
O O1 0.345628 0.271833 0.512821
O O2 0.310626 0.457048 0.560887
O O3 0.213347 0.412482 0.178153
O O4 0.944915 0.410893 0.099965
O O5 0.789903 0.900880 0.392485
O O6 0.981678 0.833800 0.356896
O O7 0.000000 0.000000 0.500000
O O8 0.626703 0.011759 0.968160
O O9 0.715531 0.892395 0.596322
O O10 0.673997 0.063004 0.433781
O O11 0.838151 0.191700 0.704831
O O12 0.617941 0.135877 0.646729
O O13 0.000000 0.000000 0.000000
O O14 0.808727 0.349175 0.507004
O O15 0.192855 0.230208 0.072180
O O16 0.391400 0.452758 0.126477
O O17 0.500000 0.500000 0.000000
O O18 0.500000 0.500000 0.500000
#
# Coordination Sequence:
#
# PCOD8020208 Si02
#       8
#     2   2   2   2   2   2   2   2
#     4  10  22  42  66  95 128 171 215 277 323 384
#     4  11  24  43  64  93 139 179 217 264 329 396
#     4  11  24  42  63  99 136 172 216 278 318 397
#     4  12  23  42  68 102 135 169 220 279 328 387
#     4  12  24  42  70  94 129 184 222 270 336 387
#     4  12  24  40  70 100 130 172 231 267 332 389
#     4  11  26  45  64  98 138 171 222 276 330 399
#     4   9  18  40  66  88 126 163 215 273 324 371
#
# _framework density 21.088321000000001
#
# number of rings (size 3 to 8) (size 9 to 14) (size 15 to 20)
#    0.000    1.000    3.750    4.125    0.000    3.500 
#    0.000    0.000    0.000    0.000    0.000    0.000 
#    0.000    0.000    0.000    0.000    0.000    0.000 
#
# Total GULP energy -198329.741281 kJ/mol
# GULP energy per Si atom -12395.608830 kJ/mol
# Density = 2.104032 g / cm^3
# Si number density = 21.088321 Si / 1000 Ang^3
#
#
#
# Elastic Constant Matrix: (Units=GPa)
#
#
# Indices 1 2 3 4 5 6 
#
# 1 132.6459 40.7283 49.9029 -12.5962 10.3252 -21.4243
# 2 40.7283 128.9828 51.7573 1.4899 6.9964 -21.2432
# 3 49.9029 51.7573 121.9797 -4.0555 8.5628 -7.9272
# 4 -12.5962 1.4899 -4.0555 35.0886 -0.0934 -0.1964
# 5 10.3252 6.9964 8.5628 -0.0934 36.2359 -3.9240
# 6 -21.4243 -21.2432 -7.9272 -0.1964 -3.9240 31.3288
#
#
#
# Elastic Compliance Matrix: (Units=1/GPa)
#
#
# Indices 1 2 3 4 5 6 
#
# 1 0.010390 -0.001052 -0.003240 0.003427 -0.001396 0.005419
# 2 -0.001052 0.010486 -0.003689 -0.001220 -0.000270 0.005416
# 3 -0.003240 -0.003689 0.011047 0.000255 -0.001199 -0.002070
# 4 0.003427 -0.001220 0.000255 0.029819 -0.000540 0.001700
# 5 -0.001396 -0.000270 -0.001199 -0.000540 0.028560 0.002133
# 6 0.005419 0.005416 -0.002070 0.001700 0.002133 0.039052
#
#
# Mechanical properties :
#
#
# Convention : Reuss Voigt Hill
#
# Bulk Modulus (GPa) = 62.65104 74.26505 68.45804
# Shear Modulus (GPa) = 33.19275 36.61199 34.90237
#
# Velocity S-wave (km/s) = 3.97166 4.17121 4.07265
# Velocity P-wave (km/s) = 7.12779 7.64796 7.39245
#
# Compressibility (1/GPa) = 0.01596143
#
# Stress axis : x y z
#
# Youngs Moduli (GPa) = 96.24457 95.36493 90.52335
#
# Poissons Ratio (x) = 0.10033 0.29332
# Poissons Ratio (y) = 0.10125 0.33390
# Poissons Ratio (z) = 0.31185 0.35176
#
# Static dielectric constant tensor:
#      x y z
#    x 4.270360 -0.094360 0.156580 
#    y -0.094360 3.795740 0.063220 
#    z 0.156580 0.063220 3.889950 
# 
# 
# High freq. dielectric constant tensor:
#      x y z
#    x 1.835000 -0.006660 0.015310 
#    y -0.006660 1.821770 0.007450 
#    z 0.015310 0.007450 1.825480 
# 
# From -- ./inp_files/273273.got.cif
#   From: 2010.06.25/outbox.cif.g09.slc.cpg/sg2_137_cif.got.tgz:273273.got - 2010.06.27 13:26:56.
