data_PCOD8020582
_publ_section_title
;
Structure prediction by ZEFSAII (Michael W. Deem and Ramdas Pophale) SiO2 
 PCOD8020582
Probable space group: P -1
;
_chemical_formula_sum "Si O2"
_cell_formula_units_Z 14
_cell_length_a 5.248050
_cell_length_b 21.263185
_cell_length_c 9.319891
_cell_angle_alpha 35.895007
_cell_angle_beta 96.545337
_cell_angle_gamma 103.392298
_cell_volume 588.212827
_symmetry_space_group_name_H-M "P -1"
_symmetry_group_IT_number 2
_symmetry_cell_setting 'triclinic'
loop_
_space_group_symop_operation_xyz
x,y,z
-x,-y,-z
loop_
_atom_site_type_symbol
_atom_site_label
_atom_site_fract_x
_atom_site_fract_y
_atom_site_fract_z
Si Si1 0.620534 0.545518 0.775216
Si Si2 0.572363 0.371591 0.850841
Si Si3 0.021559 0.321829 0.819030
Si Si4 0.960160 0.994799 0.756143
Si Si5 0.250337 0.142244 0.265770
Si Si6 0.188551 0.676398 0.501091
Si Si7 0.755236 0.094649 0.814276
O O1 0.589217 0.438868 0.872068
O O2 0.434099 0.625261 0.568263
O O3 0.934042 0.601085 0.706247
O O4 0.500000 0.500000 0.000000
O O5 0.853933 0.400467 0.736587
O O6 0.328714 0.394308 0.696112
O O7 0.517446 0.238476 0.124304
O O8 0.921450 0.286603 0.720815
O O9 0.013557 0.207585 0.115464
O O10 0.203549 0.061873 0.549306
O O11 0.852457 0.083546 0.678665
O O12 0.742818 0.925730 0.757683
O O13 0.037770 0.914222 0.029533
O O14 0.304842 0.784839 0.403248
O O15 0.500000 0.000000 0.000000
#
# Coordination Sequence:
#
# PCOD8020582 Si02
#       7
#     2   2   2   2   2   2   2
#     4  12  29  47  71 101 139 185 234 283 356 414
#     4  10  23  43  71  98 138 176 231 283 343 416
#     4  10  22  42  70 101 137 175 230 281 350 402
#     4  10  22  44  65 103 135 184 230 286 342 411
#     4   9  22  40  71  99 142 175 235 287 338 406
#     4  12  27  46  73 101 142 180 231 298 335 422
#     4  11  26  40  71  99 143 186 232 273 361 410
#
# _framework density 23.800909000000001
#
# number of rings (size 3 to 8) (size 9 to 14) (size 15 to 20)
#    0.857    0.571    1.429    2.143    8.000    5.714 
#    0.000    2.857    0.000    0.000    0.000    0.000 
#    0.000    0.000    0.000    0.000    0.000    0.000 
#
# Total GULP energy -173470.321167 kJ/mol
# GULP energy per Si atom -12390.737226 kJ/mol
# Density = 2.374674 g / cm^3
# Si number density = 23.800909 Si / 1000 Ang^3
#
#
#
# Elastic Constant Matrix: (Units=GPa)
#
#
# Indices 1 2 3 4 5 6 
#
# 1 97.6095 37.7724 19.6032 -10.8897 -14.5675 -16.7375
# 2 37.7724 186.8805 38.5825 -9.5446 -12.7907 -21.1253
# 3 19.6032 38.5825 51.7308 4.3928 -5.2915 -4.0747
# 4 -10.8897 -9.5446 4.3928 39.0364 2.2301 -11.2556
# 5 -14.5675 -12.7907 -5.2915 2.2301 26.1339 -4.2948
# 6 -16.7375 -21.1253 -4.0747 -11.2556 -4.2948 36.3816
#
#
#
# Elastic Compliance Matrix: (Units=1/GPa)
#
#
# Indices 1 2 3 4 5 6 
#
# 1 0.014779 -0.000083 -0.004543 0.006833 0.008227 0.009328
# 2 -0.000083 0.007402 -0.005077 0.003679 0.003089 0.005195
# 3 -0.004543 -0.005077 0.025050 -0.006554 -0.000087 -0.004270
# 4 0.006833 0.003679 -0.006554 0.033355 0.003956 0.015332
# 5 0.008227 0.003089 -0.000087 0.003956 0.046016 0.012225
# 6 0.009328 0.005195 -0.004270 0.015332 0.012225 0.040502
#
#
# Mechanical properties :
#
#
# Convention : Reuss Voigt Hill
#
# Bulk Modulus (GPa) = 35.93680 58.68191 47.30936
# Shear Modulus (GPa) = 25.53819 36.32788 30.93304
#
# Velocity S-wave (km/s) = 3.27921 3.91106 3.60899
# Velocity P-wave (km/s) = 5.42856 6.71595 6.10628
#
# Compressibility (1/GPa) = 0.02782663
#
# Stress axis : x y z
#
# Youngs Moduli (GPa) = 67.66410 135.09080 39.92008
#
# Poissons Ratio (x) = 0.01118 0.18134
# Poissons Ratio (y) = 0.00560 0.20267
# Poissons Ratio (z) = 0.30737 0.68585
#
# Static dielectric constant tensor:
#      x y z
#    x 4.029250 0.230580 -0.198480 
#    y 0.230580 4.202670 0.048570 
#    z -0.198480 0.048570 4.131350 
# 
# 
# High freq. dielectric constant tensor:
#      x y z
#    x 1.933020 -0.009110 -0.001950 
#    y -0.009110 1.957690 -0.008010 
#    z -0.001950 -0.008010 1.934160 
# 
# From -- ./inp_files/140465.got.cif
#   From: 2010.06.25/outbox.cif.g09.slc.cpg/sg2_71_cif.got.tgz:140465.got - 2010.06.27 13:26:56.
