data_PCOD8020228
_publ_section_title
;
Structure prediction by ZEFSAII (Michael W. Deem and Ramdas Pophale) SiO2 
 PCOD8020228
Probable space group: P -1
;
_chemical_formula_sum "Si O2"
_cell_formula_units_Z 16
_cell_length_a 6.437370
_cell_length_b 7.872585
_cell_length_c 21.468373
_cell_angle_alpha 52.207528
_cell_angle_beta 125.246038
_cell_angle_gamma 108.108694
_cell_volume 700.609651
_symmetry_space_group_name_H-M "P -1"
_symmetry_group_IT_number 2
_symmetry_cell_setting 'triclinic'
loop_
_space_group_symop_operation_xyz
x,y,z
-x,-y,-z
loop_
_atom_site_type_symbol
_atom_site_label
_atom_site_fract_x
_atom_site_fract_y
_atom_site_fract_z
Si Si1 0.214341 0.314065 0.070693
Si Si2 0.012233 0.310510 0.907633
Si Si3 0.654397 0.156025 0.450384
Si Si4 0.435965 0.285317 0.811753
Si Si5 0.481556 0.646163 0.329200
Si Si6 0.992060 0.910066 0.165027
Si Si7 0.782131 0.966798 0.385132
Si Si8 0.249173 0.633542 0.792773
O O1 0.488626 0.383528 0.120191
O O2 0.210324 0.255144 0.010090
O O3 0.142187 0.125471 0.147908
O O4 0.000000 0.500000 0.000000
O O5 0.073341 0.120059 0.912204
O O6 0.044950 0.542152 0.826576
O O7 0.721863 0.299241 0.883815
O O8 0.530539 0.389833 0.395287
O O9 0.950225 0.140496 0.522048
O O10 0.500000 0.000000 0.500000
O O11 0.631524 0.095956 0.386455
O O12 0.422767 0.272900 0.738520
O O13 0.282223 0.075497 0.851076
O O14 0.269412 0.485474 0.767953
O O15 0.626276 0.764891 0.382296
O O16 0.179584 0.711664 0.268367
O O17 0.826720 0.125630 0.298636
#
# Coordination Sequence:
#
# PCOD8020228 Si02
#       8
#     2   2   2   2   2   2   2   2
#     4  12  23  42  63 100 136 176 236 287 340 391
#     4  10  23  41  64  92 136 183 228 281 336 395
#     4  11  27  44  73 106 137 176 222 286 342 412
#     4  10  22  42  66  97 134 181 228 273 342 402
#     4  11  23  45  71 101 139 179 227 276 348 410
#     4  10  24  41  67  95 136 185 225 284 336 409
#     4  11  25  45  70 102 142 173 230 276 344 417
#     4  11  22  43  67  94 136 183 223 284 337 406
#
# _framework density 22.837254999999999
#
# number of rings (size 3 to 8) (size 9 to 14) (size 15 to 20)
#    0.000    1.250    3.750    1.125    5.250    3.000 
#    4.500    0.000    0.000    0.000    0.000    0.000 
#    0.000    0.000    0.000    0.000    0.000    0.000 
#
# Total GULP energy -198324.555804 kJ/mol
# GULP energy per Si atom -12395.284738 kJ/mol
# Density = 2.278528 g / cm^3
# Si number density = 22.837255 Si / 1000 Ang^3
#
#
#
# Elastic Constant Matrix: (Units=GPa)
#
#
# Indices 1 2 3 4 5 6 
#
# 1 117.2961 39.1608 30.8880 -1.2071 -3.9136 24.7362
# 2 39.1608 119.1741 36.2282 5.5451 1.2057 9.1554
# 3 30.8880 36.2282 85.3162 3.3685 3.5192 -1.2988
# 4 -1.2071 5.5451 3.3685 48.8553 2.4953 -2.5458
# 5 -3.9136 1.2057 3.5192 2.4953 29.3953 -6.4947
# 6 24.7362 9.1554 -1.2988 -2.5458 -6.4947 28.0898
#
#
#
# Elastic Compliance Matrix: (Units=1/GPa)
#
#
# Indices 1 2 3 4 5 6 
#
# 1 0.012428 -0.002155 -0.003748 0.000274 -0.000134 -0.010421
# 2 -0.002155 0.010393 -0.003595 -0.001052 -0.000612 -0.001892
# 3 -0.003748 -0.003595 0.014736 -0.000395 -0.001003 0.004886
# 4 0.000274 -0.001052 -0.000395 0.020774 -0.001267 0.001673
# 5 -0.000134 -0.000612 -0.001003 -0.001267 0.036134 0.008511
# 6 -0.010421 -0.001892 0.004886 0.001673 0.008511 0.047740
#
#
# Mechanical properties :
#
#
# Convention : Reuss Voigt Hill
#
# Bulk Modulus (GPa) = 53.87907 59.37117 56.62512
# Shear Modulus (GPa) = 29.87076 35.63536 32.75306
#
# Velocity S-wave (km/s) = 3.62053 3.95448 3.79118
# Velocity P-wave (km/s) = 6.41260 6.84869 6.63423
#
# Compressibility (1/GPa) = 0.01856008
#
# Stress axis : x y z
#
# Youngs Moduli (GPa) = 80.46288 96.22201 67.86133
#
# Poissons Ratio (x) = 0.20738 0.25436
# Poissons Ratio (y) = 0.17342 0.24395
# Poissons Ratio (z) = 0.30159 0.34590
#
# Static dielectric constant tensor:
#      x y z
#    x 4.226760 0.049080 -0.079370 
#    y 0.049080 4.714100 0.645290 
#    z -0.079370 0.645290 4.915040 
# 
# 
# High freq. dielectric constant tensor:
#      x y z
#    x 1.900000 0.010070 -0.002950 
#    y 0.010070 1.914220 0.006800 
#    z -0.002950 0.006800 1.891630 
# 
# From -- ./inp_files/480644.got.cif
#   From: 2010.06.25/outbox.cif.g09.slc.cpg/sg2_241_cif.got.tgz:480644.got - 2010.06.27 13:26:56.
