data_PCOD8020567
_publ_section_title
;
Structure prediction by ZEFSAII (Michael W. Deem and Ramdas Pophale) SiO2 
 PCOD8020567
Probable space group: P -1
;
_chemical_formula_sum "Si O2"
_cell_formula_units_Z 16
_cell_length_a 13.418384
_cell_length_b 8.364570
_cell_length_c 23.664037
_cell_angle_alpha 147.658872
_cell_angle_beta 33.316822
_cell_angle_gamma 127.191083
_cell_volume 732.353164
_symmetry_space_group_name_H-M "P -1"
_symmetry_group_IT_number 2
_symmetry_cell_setting 'triclinic'
loop_
_space_group_symop_operation_xyz
x,y,z
-x,-y,-z
loop_
_atom_site_type_symbol
_atom_site_label
_atom_site_fract_x
_atom_site_fract_y
_atom_site_fract_z
Si Si1 0.595225 0.580996 0.621629
Si Si2 0.566266 0.688641 0.072916
Si Si3 0.001033 0.698507 0.689266
Si Si4 0.629076 0.229239 0.009478
Si Si5 0.047405 0.481948 0.216813
Si Si6 0.611448 0.607058 0.429859
Si Si7 0.437814 0.693309 0.326048
Si Si8 0.947768 0.125603 0.499506
O O1 0.773174 0.349361 0.429876
O O2 0.412226 0.546862 0.665070
O O3 0.624952 0.439778 0.627669
O O4 0.581730 0.950308 0.740526
O O5 0.500000 0.500000 0.000000
O O6 0.566315 0.500484 0.073478
O O7 0.774960 0.717501 0.966760
O O8 0.919755 0.649246 0.774057
O O9 0.003437 0.439498 0.562021
O O10 0.856938 0.033257 0.834484
O O11 0.615067 0.406289 0.129476
O O12 0.500000 0.000000 0.000000
O O13 0.842354 0.480697 0.291405
O O14 0.055569 0.841598 0.320203
O O15 0.500000 0.500000 0.500000
O O16 0.516261 0.990300 0.586633
O O17 0.278918 0.774402 0.375928
O O18 0.000000 0.000000 0.500000
#
# Coordination Sequence:
#
# PCOD8020567 Si02
#       8
#     2   2   2   2   2   2   2   2
#     4  12  26  44  70 102 136 187 232 286 338 411
#     4  12  27  44  70 104 143 179 227 281 356 411
#     4  11  22  39  69  98 137 172 230 277 352 404
#     4  12  25  43  65 103 143 178 219 285 348 416
#     4  10  22  42  69  98 135 181 229 283 340 407
#     4  11  23  46  73  99 135 183 240 284 342 402
#     4  11  24  43  67  97 142 179 229 287 343 406
#     4   9  20  35  66  97 130 175 222 276 345 407
#
# _framework density 21.847384000000002
#
# number of rings (size 3 to 8) (size 9 to 14) (size 15 to 20)
#    0.000    1.000    2.500    4.125    8.750    1.000 
#    0.000    0.625    0.000    0.000    0.000    0.000 
#    0.000    0.000    0.000    0.000    0.000    0.000 
#
# Total GULP energy -198318.040781 kJ/mol
# GULP energy per Si atom -12394.877549 kJ/mol
# Density = 2.179766 g / cm^3
# Si number density = 21.847384 Si / 1000 Ang^3
#
#
#
# Elastic Constant Matrix: (Units=GPa)
#
#
# Indices 1 2 3 4 5 6 
#
# 1 102.3911 33.5656 31.3989 8.6683 -0.4577 2.8771
# 2 33.5656 114.2915 44.5682 9.8110 -0.5830 -16.8592
# 3 31.3989 44.5682 126.8167 5.2026 -8.2582 -9.7825
# 4 8.6683 9.8110 5.2026 44.4927 0.9775 1.6984
# 5 -0.4577 -0.5830 -8.2582 0.9775 30.2069 0.5351
# 6 2.8771 -16.8592 -9.7825 1.6984 0.5351 35.8911
#
#
#
# Elastic Compliance Matrix: (Units=1/GPa)
#
#
# Indices 1 2 3 4 5 6 
#
# 1 0.011518 -0.002898 -0.002018 -0.001256 -0.000343 -0.002770
# 2 -0.002898 0.011644 -0.002957 -0.001833 -0.000657 0.004993
# 3 -0.002018 -0.002957 0.009705 -0.000199 0.002548 0.001389
# 4 -0.001256 -0.001833 -0.000199 0.023239 -0.000827 -0.001902
# 5 -0.000343 -0.000657 0.002548 -0.000827 0.033811 -0.000052
# 6 -0.002770 0.004993 0.001389 -0.001902 -0.000052 0.030899
#
#
# Mechanical properties :
#
#
# Convention : Reuss Voigt Hill
#
# Bulk Modulus (GPa) = 58.40645 62.50717 60.45681
# Shear Modulus (GPa) = 35.14446 37.71591 36.43019
#
# Velocity S-wave (km/s) = 4.01513 4.15943 4.08792
# Velocity P-wave (km/s) = 6.94888 7.19310 7.07204
#
# Compressibility (1/GPa) = 0.01712140
#
# Stress axis : x y z
#
# Youngs Moduli (GPa) = 86.82080 85.87817 103.03535
#
# Poissons Ratio (x) = 0.24891 0.20789
# Poissons Ratio (y) = 0.25165 0.30468
# Poissons Ratio (z) = 0.17518 0.25395
#
# Static dielectric constant tensor:
#      x y z
#    x 4.085120 0.111990 0.118370 
#    y 0.111990 3.849000 0.169040 
#    z 0.118370 0.169040 4.392210 
# 
# 
# High freq. dielectric constant tensor:
#      x y z
#    x 1.858850 -0.004890 -0.003940 
#    y -0.004890 1.846180 0.007450 
#    z -0.003940 0.007450 1.869510 
# 
# From -- ./inp_files/328593.got.cif
#   From: 2010.06.25/outbox.cif.g09.slc.cpg/sg2_165_cif.got.tgz:328593.got - 2010.06.27 13:26:56.
