data_PCOD8020865
_publ_section_title
;
Structure prediction by ZEFSAII (Michael W. Deem and Ramdas Pophale) SiO2 
 PCOD8020865
Probable space group: P -1
;
_chemical_formula_sum "Si O2"
_cell_formula_units_Z 16
_cell_length_a 21.780635
_cell_length_b 12.978897
_cell_length_c 9.553193
_cell_angle_alpha 144.913838
_cell_angle_beta 141.883832
_cell_angle_gamma 32.352625
_cell_volume 789.641275
_symmetry_space_group_name_H-M "P -1"
_symmetry_group_IT_number 2
_symmetry_cell_setting 'triclinic'
loop_
_space_group_symop_operation_xyz
x,y,z
-x,-y,-z
loop_
_atom_site_type_symbol
_atom_site_label
_atom_site_fract_x
_atom_site_fract_y
_atom_site_fract_z
Si Si1 0.205963 0.134473 0.643199
Si Si2 0.785003 0.068029 0.030140
Si Si3 0.778669 0.486519 0.946666
Si Si4 0.617939 0.366524 0.654362
Si Si5 0.541099 0.323491 0.761335
Si Si6 0.718741 0.503124 0.547118
Si Si7 0.964856 0.863830 0.874124
Si Si8 0.864671 0.703902 0.996222
O O1 0.097400 0.211852 0.426762
O O2 0.310060 0.882543 0.539126
O O3 0.267021 0.262306 0.857955
O O4 0.154169 0.187478 0.765906
O O5 0.757177 0.291956 0.291667
O O6 0.661445 0.100526 0.786167
O O7 0.875069 0.009988 0.999449
O O8 0.842310 0.877586 0.033777
O O9 0.701289 0.455864 0.885845
O O10 0.762702 0.416841 0.687308
O O11 0.918667 0.345131 0.081050
O O12 0.500000 0.500000 0.500000
O O13 0.579231 0.401798 0.783890
O O14 0.426788 0.313155 0.510037
O O15 0.500000 0.500000 0.000000
O O16 0.777683 0.623017 0.724846
O O17 0.000000 0.000000 0.000000
O O18 0.000000 0.500000 0.000000
#
# Coordination Sequence:
#
# PCOD8020865 Si02
#       8
#     2   2   2   2   2   2   2   2
#     4  11  25  45  65 102 133 165 228 271 326 403
#     4  11  23  43  68  93 132 174 214 273 326 385
#     4  11  23  42  68  97 131 173 214 280 327 386
#     4  12  23  44  71  93 129 177 221 271 330 392
#     4  10  22  43  64  97 131 168 221 269 323 390
#     4  10  23  43  67  95 130 170 223 267 323 393
#     4  12  24  42  68  98 133 173 218 274 336 386
#     4  11  26  44  68  98 132 176 220 265 327 393
#
# _framework density 20.262364999999999
#
# number of rings (size 3 to 8) (size 9 to 14) (size 15 to 20)
#    0.000    1.000    3.750    2.625    3.500    2.000 
#    4.500    0.000    0.000    0.000    0.000    0.000 
#    0.000    0.000    0.000    0.000    0.000    0.000 
#
# Total GULP energy -198412.483421 kJ/mol
# GULP energy per Si atom -12400.780214 kJ/mol
# Density = 2.021625 g / cm^3
# Si number density = 20.262365 Si / 1000 Ang^3
#
#
#
# Elastic Constant Matrix: (Units=GPa)
#
#
# Indices 1 2 3 4 5 6 
#
# 1 160.0429 57.2766 71.9102 7.9289 -5.7374 -10.6527
# 2 57.2766 126.7398 58.9827 -20.2246 -5.8145 -10.5120
# 3 71.9102 58.9827 114.0132 -11.2275 1.7167 -0.2717
# 4 7.9289 -20.2246 -11.2275 38.3581 4.4911 6.8501
# 5 -5.7374 -5.8145 1.7167 4.4911 34.1011 -9.2204
# 6 -10.6527 -10.5120 -0.2717 6.8501 -9.2204 27.8288
#
#
#
# Elastic Compliance Matrix: (Units=1/GPa)
#
#
# Indices 1 2 3 4 5 6 
#
# 1 0.010894 -0.002324 -0.006411 -0.007018 0.004420 0.006422
# 2 -0.002324 0.012079 -0.004338 0.004768 0.002112 0.003157
# 3 -0.006411 -0.004338 0.015661 0.005489 -0.005229 -0.007023
# 4 -0.007018 0.004768 0.005489 0.034826 -0.008538 -0.012233
# 5 0.004420 0.002112 -0.005229 -0.008538 0.036295 0.016566
# 6 0.006422 0.003157 -0.007023 -0.012233 0.016566 0.048016
#
#
# Mechanical properties :
#
#
# Convention : Reuss Voigt Hill
#
# Bulk Modulus (GPa) = 80.07575 86.34831 83.21203
# Shear Modulus (GPa) = 26.58429 34.23270 30.40850
#
# Velocity S-wave (km/s) = 3.62609 4.11478 3.87814
# Velocity P-wave (km/s) = 7.55888 8.07978 7.82366
#
# Compressibility (1/GPa) = 0.01248818
#
# Stress axis : x y z
#
# Youngs Moduli (GPa) = 91.78952 82.78935 63.85251
#
# Poissons Ratio (x) = 0.19243 0.40938
# Poissons Ratio (y) = 0.21334 0.27696
# Poissons Ratio (z) = 0.58849 0.35910
#
# Static dielectric constant tensor:
#      x y z
#    x 3.796710 -0.099490 0.052430 
#    y -0.099490 4.036510 -0.464190 
#    z 0.052430 -0.464190 3.968260 
# 
# 
# High freq. dielectric constant tensor:
#      x y z
#    x 1.806870 -0.001160 -0.004040 
#    y -0.001160 1.801540 -0.017500 
#    z -0.004040 -0.017500 1.794400 
# 
# From -- ./inp_files/273560.got.cif
#   From: 2010.06.25/outbox.cif.g09.slc.cpg/sg2_137_cif.got.tgz:273560.got - 2010.06.27 13:26:56.
