data_PCOD8020203
_publ_section_title
;
Structure prediction by ZEFSAII (Michael W. Deem and Ramdas Pophale) SiO2 
 PCOD8020203
Probable space group: P -1
;
_chemical_formula_sum "Si O2"
_cell_formula_units_Z 16
_cell_length_a 9.170453
_cell_length_b 15.816574
_cell_length_c 8.847540
_cell_angle_alpha 100.681511
_cell_angle_beta 129.469218
_cell_angle_gamma 111.929272
_cell_volume 741.762310
_symmetry_space_group_name_H-M "P -1"
_symmetry_group_IT_number 2
_symmetry_cell_setting 'triclinic'
loop_
_space_group_symop_operation_xyz
x,y,z
-x,-y,-z
loop_
_atom_site_type_symbol
_atom_site_label
_atom_site_fract_x
_atom_site_fract_y
_atom_site_fract_z
Si Si1 0.635373 0.052189 0.263286
Si Si2 0.537202 0.497246 0.345193
Si Si3 0.105630 0.474767 0.925308
Si Si4 0.100005 0.628312 0.751807
Si Si5 0.134637 0.129578 0.638362
Si Si6 0.648590 0.226837 0.505101
Si Si7 0.457714 0.833012 0.245312
Si Si8 0.474041 0.287053 0.167891
O O1 0.583101 0.129993 0.318402
O O2 0.932030 0.139904 0.460890
O O3 0.549518 0.952963 0.289831
O O4 0.500000 0.000000 0.000000
O O5 0.500000 0.500000 0.500000
O O6 0.428820 0.374794 0.177232
O O7 0.825848 0.581414 0.515018
O O8 0.385574 0.526219 0.164469
O O9 0.099369 0.532975 0.793126
O O10 0.935264 0.340329 0.742882
O O11 0.000000 0.500000 0.000000
O O12 0.269345 0.668781 0.727986
O O13 0.196516 0.730197 0.964570
O O14 0.360984 0.192507 0.690786
O O15 0.237657 0.178022 0.890080
O O16 0.000000 0.000000 0.500000
O O17 0.551025 0.168081 0.582259
O O18 0.487245 0.257458 0.339701
#
# Coordination Sequence:
#
# PCOD8020203 Si02
#       8
#     2   2   2   2   2   2   2   2
#     4  11  23  44  66  95 128 170 220 271 330 388
#     4  12  23  40  66  95 132 180 216 268 334 386
#     4  12  23  42  66 100 136 173 218 279 325 393
#     4  11  23  45  64  97 140 173 221 274 326 392
#     4   9  20  42  64  88 123 165 213 267 325 383
#     4  12  22  41  68  94 133 171 214 275 328 383
#     4  10  22  42  66  94 132 170 215 274 324 391
#     4  11  24  43  65  97 134 172 219 275 325 398
#
# _framework density 21.570252
#
# number of rings (size 3 to 8) (size 9 to 14) (size 15 to 20)
#    0.000    1.000    3.750    3.750    0.000    0.500 
#    9.000    8.125    0.000    0.000    0.000    0.000 
#    0.000    0.000    0.000    0.000    0.000    0.000 
#
# Total GULP energy -198361.703705 kJ/mol
# GULP energy per Si atom -12397.606482 kJ/mol
# Density = 2.152116 g / cm^3
# Si number density = 21.570252 Si / 1000 Ang^3
#
#
#
# Elastic Constant Matrix: (Units=GPa)
#
#
# Indices 1 2 3 4 5 6 
#
# 1 68.2651 28.2420 50.2453 -2.4877 -2.4488 -13.2011
# 2 28.2420 88.7916 41.4433 -0.1290 3.0459 -0.4256
# 3 50.2453 41.4433 155.6353 0.4052 9.2207 -5.6150
# 4 -2.4877 -0.1290 0.4052 41.8214 -12.8912 -4.7917
# 5 -2.4488 3.0459 9.2207 -12.8912 45.9129 -2.6482
# 6 -13.2011 -0.4256 -5.6150 -4.7917 -2.6482 29.7712
#
#
#
# Elastic Compliance Matrix: (Units=1/GPa)
#
#
# Indices 1 2 3 4 5 6 
#
# 1 0.023446 -0.004644 -0.006243 0.004004 0.004525 0.010199
# 2 -0.004644 0.013789 -0.002196 -0.000840 -0.001102 -0.002509
# 3 -0.006243 -0.002196 0.009122 -0.001414 -0.002505 -0.001530
# 4 0.004004 -0.000840 -0.001414 0.027609 0.008692 0.006714
# 5 0.004525 -0.001102 -0.002505 0.008692 0.025337 0.005171
# 6 0.010199 -0.002509 -0.001530 0.006714 0.005171 0.039328
#
#
# Mechanical properties :
#
#
# Convention : Reuss Voigt Hill
#
# Bulk Modulus (GPa) = 49.52561 61.39481 55.46021
# Shear Modulus (GPa) = 29.14997 36.35186 32.75092
#
# Velocity S-wave (km/s) = 3.68012 4.10967 3.90081
# Velocity P-wave (km/s) = 6.40841 7.14448 6.78643
#
# Compressibility (1/GPa) = 0.02019158
#
# Stress axis : x y z
#
# Youngs Moduli (GPa) = 42.65159 72.52297 109.62094
#
# Poissons Ratio (x) = 0.33679 0.68438
# Poissons Ratio (y) = 0.19807 0.24068
# Poissons Ratio (z) = 0.26628 0.15923
#
# Static dielectric constant tensor:
#      x y z
#    x 4.522310 -0.246480 0.515460 
#    y -0.246480 4.115710 -0.059010 
#    z 0.515460 -0.059010 4.517380 
# 
# 
# High freq. dielectric constant tensor:
#      x y z
#    x 1.840680 -0.010820 -0.008650 
#    y -0.010820 1.841920 0.007950 
#    z -0.008650 0.007950 1.867180 
# 
# From -- ./inp_files/187058.got.cif
#   From: 2010.06.25/outbox.cif.g09.slc.cpg/sg2_94_cif.got.tgz:187058.got - 2010.06.27 13:26:56.
