data_PCOD8020507
_publ_section_title
;
Structure prediction by ZEFSAII (Michael W. Deem and Ramdas Pophale) SiO2 
 PCOD8020507
Probable space group: P -1
;
_chemical_formula_sum "Si O2"
_cell_formula_units_Z 10
_cell_length_a 8.959199
_cell_length_b 10.851348
_cell_length_c 7.124955
_cell_angle_alpha 44.740213
_cell_angle_beta 56.602819
_cell_angle_gamma 69.912060
_cell_volume 405.731647
_symmetry_space_group_name_H-M "P -1"
_symmetry_group_IT_number 2
_symmetry_cell_setting 'triclinic'
loop_
_space_group_symop_operation_xyz
x,y,z
-x,-y,-z
loop_
_atom_site_type_symbol
_atom_site_label
_atom_site_fract_x
_atom_site_fract_y
_atom_site_fract_z
Si Si1 0.390467 0.011019 0.874339
Si Si2 0.246140 0.713305 0.058330
Si Si3 0.433132 0.625785 0.686856
Si Si4 0.237073 0.500673 0.615895
Si Si5 0.953675 0.873157 0.844741
O O1 0.483722 0.180732 0.524927
O O2 0.180766 0.031404 0.033695
O O3 0.500000 0.000000 0.000000
O O4 0.398762 0.840319 0.923019
O O5 0.127500 0.604663 0.421751
O O6 0.339256 0.572576 0.009407
O O7 0.129035 0.836532 0.880664
O O8 0.274505 0.621062 0.643759
O O9 0.578930 0.507993 0.624579
O O10 0.143641 0.315316 0.948177
O O11 0.000000 0.000000 0.500000
#
# Coordination Sequence:
#
# PCOD8020507 Si02
#       5
#     2   2   2   2   2
#     4  11  22  44  69  96 139 173 226 274 329 401
#     4  12  23  43  72 102 132 177 224 272 339 392
#     4  10  22  42  69 104 130 178 218 278 332 393
#     4  10  23  45  69  97 140 169 228 274 325 402
#     4  11  26  45  66 100 137 180 218 277 338 394
#
# _framework density 24.646833000000001
#
# number of rings (size 3 to 8) (size 9 to 14) (size 15 to 20)
#    0.000    1.200    2.000    3.600    0.000    0.800 
#   10.800    0.000    0.000    0.000    0.000    0.000 
#    0.000    0.000    0.000    0.000    0.000    0.000 
#
# Total GULP energy -123898.855216 kJ/mol
# GULP energy per Si atom -12389.885522 kJ/mol
# Density = 2.459074 g / cm^3
# Si number density = 24.646833 Si / 1000 Ang^3
#
#
#
# Elastic Constant Matrix: (Units=GPa)
#
#
# Indices 1 2 3 4 5 6 
#
# 1 93.1001 35.3426 31.1485 9.4248 7.2590 22.1854
# 2 35.3426 121.0243 45.9399 5.4789 2.8277 33.2068
# 3 31.1485 45.9399 164.0234 -12.8754 19.6529 30.1026
# 4 9.4248 5.4789 -12.8754 39.0273 -1.0720 11.0365
# 5 7.2590 2.8277 19.6529 -1.0720 33.0467 6.2902
# 6 22.1854 33.2068 30.1026 11.0365 6.2902 34.9085
#
#
#
# Elastic Compliance Matrix: (Units=1/GPa)
#
#
# Indices 1 2 3 4 5 6 
#
# 1 0.013309 -0.002064 -0.001092 -0.001992 -0.001268 -0.004695
# 2 -0.002064 0.011908 -0.001341 0.001158 0.002098 -0.009603
# 3 -0.001092 -0.001341 0.008678 0.005059 -0.003405 -0.006499
# 4 -0.001992 0.001158 0.005059 0.031720 0.001105 -0.014425
# 5 -0.001268 0.002098 -0.003405 0.001105 0.033296 -0.004602
# 6 -0.004695 -0.009603 -0.006499 -0.014425 -0.004602 0.051759
#
#
# Mechanical properties :
#
#
# Convention : Reuss Voigt Hill
#
# Bulk Modulus (GPa) = 40.16052 67.00111 53.58082
# Shear Modulus (GPa) = 29.76794 39.11096 34.43945
#
# Velocity S-wave (km/s) = 3.47908 3.98786 3.74213
# Velocity P-wave (km/s) = 5.69811 6.96042 6.36066
#
# Compressibility (1/GPa) = 0.02490007
#
# Stress axis : x y z
#
# Youngs Moduli (GPa) = 75.13474 83.97524 115.23999
#
# Poissons Ratio (x) = 0.17334 0.12585
# Poissons Ratio (y) = 0.15509 0.15457
# Poissons Ratio (z) = 0.08205 0.11264
#
# Static dielectric constant tensor:
#      x y z
#    x 4.473710 0.063970 0.178900 
#    y 0.063970 4.404150 -0.006610 
#    z 0.178900 -0.006610 4.564500 
# 
# 
# High freq. dielectric constant tensor:
#      x y z
#    x 1.974070 0.010130 0.019030 
#    y 0.010130 1.979860 0.000790 
#    z 0.019030 0.000790 1.988700 
# 
# From -- ./inp_files/15264.got.cif
#   From: 2010.06.25/outbox.cif.g09.slc.cpg/sg2_8_cif.got.tgz:15264.got - 2010.06.27 13:26:56.
