data_PCOD8020905
_publ_section_title
;
Structure prediction by ZEFSAII (Michael W. Deem and Ramdas Pophale) SiO2 
 PCOD8020905
Probable space group: P -1
;
_chemical_formula_sum "Si O2"
_cell_formula_units_Z 14
_cell_length_a 12.767491
_cell_length_b 9.169881
_cell_length_c 12.532015
_cell_angle_alpha 122.776064
_cell_angle_beta 33.114868
_cell_angle_gamma 132.551162
_cell_volume 589.343984
_symmetry_space_group_name_H-M "P -1"
_symmetry_group_IT_number 2
_symmetry_cell_setting 'triclinic'
loop_
_space_group_symop_operation_xyz
x,y,z
-x,-y,-z
loop_
_atom_site_type_symbol
_atom_site_label
_atom_site_fract_x
_atom_site_fract_y
_atom_site_fract_z
Si Si1 0.814205 0.411258 0.453057
Si Si2 0.156015 0.229520 0.335170
Si Si3 0.137151 0.381391 0.721050
Si Si4 0.280201 0.790014 0.854835
Si Si5 0.323382 0.090489 0.755450
Si Si6 0.945404 0.822087 0.829675
Si Si7 0.705657 0.882005 0.627806
O O1 0.786767 0.540322 0.621520
O O2 0.912872 0.548369 0.320189
O O3 0.577465 0.215844 0.555514
O O4 0.998109 0.353922 0.306012
O O5 0.157319 0.154012 0.184308
O O6 0.326260 0.204578 0.258301
O O7 0.913294 0.099404 0.538472
O O8 0.266745 0.577311 0.760183
O O9 0.270529 0.264499 0.536629
O O10 0.915744 0.230733 0.911139
O O11 0.503880 0.914382 0.778554
O O12 0.276911 0.900243 0.792453
O O13 0.242674 0.227211 0.941332
O O14 0.173877 0.015552 0.746484
#
# Coordination Sequence:
#
# PCOD8020905 Si02
#       7
#     2   2   2   2   2   2   2
#     4  11  23  43  66 100 130 172 217 271 324 389
#     4  10  23  42  66  97 135 174 220 259 333 390
#     4  10  23  40  66 101 129 161 226 270 325 383
#     4  11  22  42  66  99 129 172 214 274 325 383
#     4  11  25  41  70  99 127 173 222 263 335 377
#     4  11  23  43  64  94 136 169 214 276 313 395
#     4  10  22  43  65  92 132 178 213 269 323 390
#
# _framework density 23.755227999999999
#
# number of rings (size 3 to 8) (size 9 to 14) (size 15 to 20)
#    0.000    1.429    1.429    3.000    2.000    2.857 
#    5.143   15.714    0.000    0.000    0.000    0.000 
#    0.000    0.000    0.000    0.000    0.000    0.000 
#
# Total GULP energy -173564.083202 kJ/mol
# GULP energy per Si atom -12397.434514 kJ/mol
# Density = 2.370116 g / cm^3
# Si number density = 23.755228 Si / 1000 Ang^3
#
#
#
# Elastic Constant Matrix: (Units=GPa)
#
#
# Indices 1 2 3 4 5 6 
#
# 1 108.1143 3.0475 37.9773 4.8363 8.3324 12.3584
# 2 3.0475 70.5801 9.3700 -3.6361 4.0291 -3.2879
# 3 37.9773 9.3700 76.5946 -4.4499 7.5922 -1.8711
# 4 4.8363 -3.6361 -4.4499 24.7783 1.1586 1.8740
# 5 8.3324 4.0291 7.5922 1.1586 40.7601 3.2356
# 6 12.3584 -3.2879 -1.8711 1.8740 3.2356 20.7498
#
#
#
# Elastic Compliance Matrix: (Units=1/GPa)
#
#
# Indices 1 2 3 4 5 6 
#
# 1 0.012625 -0.000158 -0.006543 -0.003046 -0.000644 -0.007759
# 2 -0.000158 0.014644 -0.001413 0.001814 -0.001389 0.002340
# 3 -0.006543 -0.001413 0.017043 0.003840 -0.002220 0.005209
# 4 -0.003046 0.001814 0.003840 0.042059 -0.001377 -0.001136
# 5 -0.000644 -0.001389 -0.002220 -0.001377 0.025565 -0.003899
# 6 -0.007759 0.002340 0.005209 -0.001136 -0.003899 0.054366
#
#
# Mechanical properties :
#
#
# Convention : Reuss Voigt Hill
#
# Bulk Modulus (GPa) = 35.60644 39.56427 37.58536
# Shear Modulus (GPa) = 26.05637 30.91724 28.48680
#
# Velocity S-wave (km/s) = 3.31549 3.61153 3.46668
# Velocity P-wave (km/s) = 5.44776 5.83798 5.64624
#
# Compressibility (1/GPa) = 0.02808480
#
# Stress axis : x y z
#
# Youngs Moduli (GPa) = 79.20714 68.28518 58.67430
#
# Poissons Ratio (x) = 0.01079 0.38391
# Poissons Ratio (y) = 0.01252 0.08290
# Poissons Ratio (z) = 0.51826 0.09647
#
# Static dielectric constant tensor:
#      x y z
#    x 4.215140 0.056570 0.120640 
#    y 0.056570 4.349570 0.203910 
#    z 0.120640 0.203910 4.111920 
# 
# 
# High freq. dielectric constant tensor:
#      x y z
#    x 1.941090 0.001860 0.007330 
#    y 0.001860 1.938340 0.016640 
#    z 0.007330 0.016640 1.928870 
# 
# From -- ./inp_files/419640.got.cif
#   From: 2010.06.25/outbox.cif.g09.slc.cpg/sg2_210_cif.got.tgz:419640.got - 2010.06.27 13:26:56.
