data_PCOD8020198
_publ_section_title
;
Structure prediction by ZEFSAII (Michael W. Deem and Ramdas Pophale) SiO2 
 PCOD8020198
Probable space group: P -1
;
_chemical_formula_sum "Si O2"
_cell_formula_units_Z 14
_cell_length_a 10.774403
_cell_length_b 5.059940
_cell_length_c 10.348780
_cell_angle_alpha 79.185856
_cell_angle_beta 94.108761
_cell_angle_gamma 96.525379
_cell_volume 549.850715
_symmetry_space_group_name_H-M "P -1"
_symmetry_group_IT_number 2
_symmetry_cell_setting 'triclinic'
loop_
_space_group_symop_operation_xyz
x,y,z
-x,-y,-z
loop_
_atom_site_type_symbol
_atom_site_label
_atom_site_fract_x
_atom_site_fract_y
_atom_site_fract_z
Si Si1 0.916883 0.069652 0.867740
Si Si2 0.855550 0.403100 0.497546
Si Si3 0.714054 0.853181 0.557490
Si Si4 0.462097 0.375653 0.214489
Si Si5 0.618611 0.913153 0.265591
Si Si6 0.839943 0.653042 0.213997
Si Si7 0.778754 0.524411 0.933740
O O1 0.812658 0.261649 0.884795
O O2 0.016446 0.217537 0.760559
O O3 0.846368 0.787430 0.837893
O O4 0.000000 0.000000 0.000000
O O5 0.782915 0.586449 0.569878
O O6 0.805941 0.429746 0.343290
O O7 0.000000 0.500000 0.500000
O O8 0.821376 0.099243 0.574594
O O9 0.615344 0.808476 0.668349
O O10 0.639850 0.932207 0.418306
O O11 0.523820 0.649658 0.255950
O O12 0.370225 0.454736 0.085317
O O13 0.564884 0.187257 0.185157
O O14 0.747519 0.888898 0.199063
O O15 0.824685 0.514425 0.085702
#
# Coordination Sequence:
#
# PCOD8020198 Si02
#       7
#     2   2   2   2   2   2   2
#     4  10  22  42  66  94 129 173 216 259 330 395
#     4  11  25  41  67  99 129 174 210 274 332 383
#     4  11  24  44  66  94 133 171 223 266 324 389
#     4  12  25  42  69  96 136 170 229 265 316 396
#     4  11  24  43  66  97 129 183 216 270 324 376
#     4  10  24  43  67  93 137 165 222 268 330 394
#     4  11  25  41  67 101 127 176 212 271 334 381
#
# _framework density 25.461459000000001
#
# number of rings (size 3 to 8) (size 9 to 14) (size 15 to 20)
#    0.000    1.143    0.000    6.429    4.000   11.429 
#    0.000    0.000    0.000    0.000    0.000    0.000 
#    0.000    0.000    0.000    0.000    0.000    0.000 
#
# Total GULP energy -173660.151423 kJ/mol
# GULP energy per Si atom -12404.296530 kJ/mol
# Density = 2.540351 g / cm^3
# Si number density = 25.461459 Si / 1000 Ang^3
#
#
#
# Elastic Constant Matrix: (Units=GPa)
#
#
# Indices 1 2 3 4 5 6 
#
# 1 94.6414 6.8410 -1.9995 15.7061 10.6742 -17.4591
# 2 6.8410 120.7798 13.7468 7.7792 6.2998 -0.8822
# 3 -1.9995 13.7468 30.6810 2.0159 -11.0266 -5.6541
# 4 15.7061 7.7792 2.0159 21.4216 2.3547 9.0312
# 5 10.6742 6.2998 -11.0266 2.3547 32.5269 3.6200
# 6 -17.4591 -0.8822 -5.6541 9.0312 3.6200 43.5622
#
#
#
# Elastic Compliance Matrix: (Units=1/GPa)
#
#
# Indices 1 2 3 4 5 6 
#
# 1 0.015507 0.000160 0.002236 -0.015401 -0.004367 0.010064
# 2 0.000160 0.009209 -0.005070 -0.002803 -0.003403 0.000457
# 3 0.002236 -0.005070 0.041929 -0.008157 0.014303 0.006738
# 4 -0.015401 -0.002803 -0.008157 0.068829 0.000251 -0.021578
# 5 -0.004367 -0.003403 0.014303 0.000251 0.038020 -0.003174
# 6 0.010064 0.000457 0.006738 -0.021578 -0.003174 0.032610
#
#
# Mechanical properties :
#
#
# Convention : Reuss Voigt Hill
#
# Bulk Modulus (GPa) = 16.31412 31.47542 23.89477
# Shear Modulus (GPa) = 21.56252 34.66974 28.11613
#
# Velocity S-wave (km/s) = 2.91326 3.69407 3.32665
# Velocity P-wave (km/s) = 4.21158 5.53025 4.91533
#
# Compressibility (1/GPa) = 0.06129659
#
# Stress axis : x y z
#
# Youngs Moduli (GPa) = 64.48765 108.59051 23.84989
#
# Poissons Ratio (x) = -0.01743 -0.05332
# Poissons Ratio (y) = -0.01035 0.12093
# Poissons Ratio (z) = -0.14418 0.55059
#
# Static dielectric constant tensor:
#      x y z
#    x 5.305670 0.296600 -0.017410 
#    y 0.296600 4.805380 -0.248840 
#    z -0.017410 -0.248840 4.579870 
# 
# 
# High freq. dielectric constant tensor:
#      x y z
#    x 2.032450 0.004130 0.007790 
#    y 0.004130 2.021260 -0.006930 
#    z 0.007790 -0.006930 2.011960 
# 
# From -- ./inp_files/409329.got.cif
#   From: 2010.06.25/outbox.cif.g09.slc.cpg/sg2_205_cif.got.tgz:409329.got - 2010.06.27 13:26:56.
