data_PCOD8020589
_publ_section_title
;
Structure prediction by ZEFSAII (Michael W. Deem and Ramdas Pophale) SiO2 
 PCOD8020589
Probable space group: P -1
;
_chemical_formula_sum "Si O2"
_cell_formula_units_Z 16
_cell_length_a 8.956939
_cell_length_b 16.718719
_cell_length_c 10.570910
_cell_angle_alpha 34.004618
_cell_angle_beta 60.751892
_cell_angle_gamma 51.608209
_cell_volume 692.635004
_symmetry_space_group_name_H-M "P -1"
_symmetry_group_IT_number 2
_symmetry_cell_setting 'triclinic'
loop_
_space_group_symop_operation_xyz
x,y,z
-x,-y,-z
loop_
_atom_site_type_symbol
_atom_site_label
_atom_site_fract_x
_atom_site_fract_y
_atom_site_fract_z
Si Si1 0.650112 0.008286 0.024696
Si Si2 0.909322 0.489494 0.683949
Si Si3 0.763736 0.740964 0.784767
Si Si4 0.128749 0.552038 0.738960
Si Si5 0.585065 0.787644 0.526770
Si Si6 0.662491 0.319977 0.673434
Si Si7 0.916477 0.182942 0.995798
Si Si8 0.190924 0.962812 0.544298
O O1 0.638316 0.921305 0.270922
O O2 0.581626 0.194247 0.838807
O O3 0.867954 0.929504 0.989256
O O4 0.500000 0.000000 0.000000
O O5 0.692695 0.626204 0.612182
O O6 0.913224 0.317269 0.917726
O O7 0.000000 0.500000 0.500000
O O8 0.030554 0.512011 0.714563
O O9 0.638237 0.780057 0.661188
O O10 0.987790 0.642625 0.791922
O O11 0.743176 0.895965 0.665805
O O12 0.710806 0.621237 0.050639
O O13 0.202303 0.678908 0.497904
O O14 0.361421 0.828094 0.568021
O O15 0.500000 0.500000 0.500000
O O16 0.781161 0.269150 0.820823
O O17 0.829568 0.083505 0.241795
O O18 0.000000 0.000000 0.500000
#
# Coordination Sequence:
#
# PCOD8020589 Si02
#       8
#     2   2   2   2   2   2   2   2
#     4  12  27  47  75 106 143 195 248 302 369 436
#     4  11  21  44  73 106 141 190 239 300 368 422
#     4  10  22  44  71  96 140 186 237 287 363 435
#     4  10  22  42  70 102 138 187 235 298 355 432
#     4  11  25  44  73 101 139 193 244 290 367 439
#     4  12  28  42  71 111 145 186 250 301 363 431
#     4  12  25  47  75 100 153 189 242 309 361 433
#     4  12  26  44  68 105 144 189 239 303 365 435
#
# _framework density 23.100190000000001
#
# number of rings (size 3 to 8) (size 9 to 14) (size 15 to 20)
#    0.000    0.750    2.500    4.500    7.000    0.500 
#    0.000    0.000    0.000    0.000    0.000    0.000 
#    0.000    0.000    0.000    0.000    0.000    0.000 
#
# Total GULP energy -198373.677020 kJ/mol
# GULP energy per Si atom -12398.354814 kJ/mol
# Density = 2.304761 g / cm^3
# Si number density = 23.100190 Si / 1000 Ang^3
#
#
#
# Elastic Constant Matrix: (Units=GPa)
#
#
# Indices 1 2 3 4 5 6 
#
# 1 71.0641 38.8741 18.8610 -15.7431 7.9601 -6.6041
# 2 38.8741 126.7067 32.5796 -9.8492 9.8885 -18.3822
# 3 18.8610 32.5796 135.1827 1.2104 8.0732 -4.3076
# 4 -15.7431 -9.8492 1.2104 43.6356 2.2512 -1.1376
# 5 7.9601 9.8885 8.0732 2.2512 36.1476 -3.5226
# 6 -6.6041 -18.3822 -4.3076 -1.1376 -3.5226 38.0225
#
#
#
# Elastic Compliance Matrix: (Units=1/GPa)
#
#
# Indices 1 2 3 4 5 6 
#
# 1 0.018630 -0.004574 -0.001355 0.005894 -0.002839 0.000784
# 2 -0.004574 0.010474 -0.001698 0.000924 -0.001147 0.003998
# 3 -0.001355 -0.001698 0.008056 -0.001051 -0.000997 -0.000268
# 4 0.005894 0.000924 -0.001051 0.025470 -0.002721 0.001861
# 5 -0.002839 -0.001147 -0.000997 -0.002721 0.029137 0.001458
# 6 0.000784 0.003998 -0.000268 0.001861 0.001458 0.028530
#
#
# Mechanical properties :
#
#
# Convention : Reuss Voigt Hill
#
# Bulk Modulus (GPa) = 45.65181 57.06478 51.35830
# Shear Modulus (GPa) = 35.00082 39.73704 37.36893
#
# Velocity S-wave (km/s) = 3.89675 4.15203 4.02641
# Velocity P-wave (km/s) = 6.32863 6.90960 6.62549
#
# Compressibility (1/GPa) = 0.02190494
#
# Stress axis : x y z
#
# Youngs Moduli (GPa) = 53.67665 95.47824 124.12756
#
# Poissons Ratio (x) = 0.43670 0.16822
# Poissons Ratio (y) = 0.24551 0.21082
# Poissons Ratio (z) = 0.07274 0.16216
#
# Static dielectric constant tensor:
#      x y z
#    x 4.030300 -0.240500 -0.092450 
#    y -0.240500 4.482050 -0.256610 
#    z -0.092450 -0.256610 4.803550 
# 
# 
# High freq. dielectric constant tensor:
#      x y z
#    x 1.901670 -0.004750 0.006710 
#    y -0.004750 1.923140 0.001520 
#    z 0.006710 0.001520 1.935990 
# 
# From -- ./inp_files/402653.got.cif
#   From: 2010.06.25/outbox.cif.g09.slc.cpg/sg2_202_cif.got.tgz:402653.got - 2010.06.27 13:26:56.
