data_PCOD8020661
_publ_section_title
;
Structure prediction by ZEFSAII (Michael W. Deem and Ramdas Pophale) SiO2 
 PCOD8020661
Probable space group: P -1
;
_chemical_formula_sum "Si O2"
_cell_formula_units_Z 16
_cell_length_a 17.906650
_cell_length_b 8.678974
_cell_length_c 11.778281
_cell_angle_alpha 54.424420
_cell_angle_beta 45.404512
_cell_angle_gamma 32.293370
_cell_volume 696.043176
_symmetry_space_group_name_H-M "P -1"
_symmetry_group_IT_number 2
_symmetry_cell_setting 'triclinic'
loop_
_space_group_symop_operation_xyz
x,y,z
-x,-y,-z
loop_
_atom_site_type_symbol
_atom_site_label
_atom_site_fract_x
_atom_site_fract_y
_atom_site_fract_z
Si Si1 0.885326 0.250733 0.190067
Si Si2 0.298501 0.291355 0.374988
Si Si3 0.530033 0.642786 0.336731
Si Si4 0.414796 0.837540 0.904235
Si Si5 0.151319 0.582360 0.183832
Si Si6 0.067561 0.728451 0.617790
Si Si7 0.437114 0.473953 0.899155
Si Si8 0.877178 0.615065 0.915995
O O1 0.715073 0.451508 0.224614
O O2 0.859530 0.290472 0.335744
O O3 0.997063 0.920764 0.182801
O O4 0.971209 0.320587 0.011539
O O5 0.412237 0.317625 0.244686
O O6 0.160440 0.489519 0.341573
O O7 0.204049 0.423787 0.537754
O O8 0.408361 0.959683 0.382947
O O9 0.500000 0.500000 0.500000
O O10 0.481137 0.653842 0.255690
O O11 0.354429 0.788428 0.884058
O O12 0.426849 0.716525 0.066303
O O13 0.282664 0.175507 0.924893
O O14 0.148293 0.410155 0.175844
O O15 0.315173 0.468788 0.038943
O O16 0.940658 0.743550 0.789190
O O17 0.000000 0.000000 0.500000
#
# Coordination Sequence:
#
# PCOD8020661 Si02
#       8
#     2   2   2   2   2   2   2   2
#     4  12  26  48  70 107 146 191 238 300 363 430
#     4  11  25  49  70 106 141 194 240 295 357 433
#     4  12  28  44  70 107 149 184 238 304 366 418
#     4  10  22  42  76 102 137 190 236 288 348 436
#     4  11  23  45  77 101 144 184 247 290 359 436
#     4  12  29  48  72 104 150 191 245 298 359 432
#     4  10  22  42  71 104 139 183 236 289 357 425
#     4  12  25  45  74 107 140 191 244 298 359 425
#
# _framework density 22.987079000000001
#
# number of rings (size 3 to 8) (size 9 to 14) (size 15 to 20)
#    0.000    0.750    3.750    2.250    7.000    5.000 
#    0.000    0.000    0.000    0.000    0.000    0.000 
#    0.000    0.000    0.000    0.000    0.000    0.000 
#
# Total GULP energy -198285.166651 kJ/mol
# GULP energy per Si atom -12392.822916 kJ/mol
# Density = 2.293476 g / cm^3
# Si number density = 22.987079 Si / 1000 Ang^3
#
#
#
# Elastic Constant Matrix: (Units=GPa)
#
#
# Indices 1 2 3 4 5 6 
#
# 1 93.7951 14.3235 19.9580 -3.8697 16.6892 14.9783
# 2 14.3235 92.4471 11.0517 2.8278 -15.1648 13.4398
# 3 19.9580 11.0517 84.3052 -7.1966 4.4811 3.6329
# 4 -3.8697 2.8278 -7.1966 42.6201 9.4965 4.9750
# 5 16.6892 -15.1648 4.4811 9.4965 33.8909 4.2968
# 6 14.9783 13.4398 3.6329 4.9750 4.2968 34.3253
#
#
#
# Elastic Compliance Matrix: (Units=1/GPa)
#
#
# Indices 1 2 3 4 5 6 
#
# 1 0.013764 -0.002725 -0.001997 0.003400 -0.008154 -0.004200
# 2 -0.002725 0.013711 -0.001683 -0.002922 0.009117 -0.004719
# 3 -0.001997 -0.001683 0.012891 0.002591 -0.002209 0.000067
# 4 0.003400 -0.002922 0.002591 0.027123 -0.010515 -0.003229
# 5 -0.008154 0.009117 -0.002209 -0.010515 0.041273 -0.003420
# 6 -0.004200 -0.004719 0.000067 -0.003229 -0.003420 0.033703
#
#
# Mechanical properties :
#
#
# Convention : Reuss Voigt Hill
#
# Bulk Modulus (GPa) = 36.28791 40.13486 38.21138
# Shear Modulus (GPa) = 30.40257 37.18157 33.79207
#
# Velocity S-wave (km/s) = 3.64069 4.02618 3.83828
# Velocity P-wave (km/s) = 5.78734 6.25389 6.02513
#
# Compressibility (1/GPa) = 0.02755739
#
# Stress axis : x y z
#
# Youngs Moduli (GPa) = 72.65163 72.93274 77.57532
#
# Poissons Ratio (x) = 0.19873 0.15489
# Poissons Ratio (y) = 0.19796 0.13056
# Poissons Ratio (z) = 0.14506 0.12275
#
# Static dielectric constant tensor:
#      x y z
#    x 4.491300 0.106470 0.246690 
#    y 0.106470 4.291110 -0.099150 
#    z 0.246690 -0.099150 4.096080 
# 
# 
# High freq. dielectric constant tensor:
#      x y z
#    x 1.916820 0.017200 0.014040 
#    y 0.017200 1.913790 -0.002250 
#    z 0.014040 -0.002250 1.901680 
# 
# From -- ./inp_files/461985.got.cif
#   From: 2010.06.25/outbox.cif.g09.slc.cpg/sg2_231_cif.got.tgz:461985.got - 2010.06.27 13:26:56.
