data_PCOD8020455
_publ_section_title
;
Structure prediction by ZEFSAII (Michael W. Deem and Ramdas Pophale) SiO2 
 PCOD8020455
Probable space group: P -1
;
_chemical_formula_sum "Si O2"
_cell_formula_units_Z 16
_cell_length_a 21.027947
_cell_length_b 18.256866
_cell_length_c 9.307056
_cell_angle_alpha 32.739177
_cell_angle_beta 28.112375
_cell_angle_gamma 29.824920
_cell_volume 792.166473
_symmetry_space_group_name_H-M "P -1"
_symmetry_group_IT_number 2
_symmetry_cell_setting 'triclinic'
loop_
_space_group_symop_operation_xyz
x,y,z
-x,-y,-z
loop_
_atom_site_type_symbol
_atom_site_label
_atom_site_fract_x
_atom_site_fract_y
_atom_site_fract_z
Si Si1 0.083731 0.393096 0.148867
Si Si2 0.400693 0.950261 0.871530
Si Si3 0.192155 0.577651 0.809846
Si Si4 0.349082 0.043121 0.138480
Si Si5 0.938450 0.905055 0.694265
Si Si6 0.181693 0.598882 0.130611
Si Si7 0.482111 0.601662 0.230602
Si Si8 0.872019 0.065674 0.265233
O O1 0.204150 0.217504 0.153338
O O2 0.949045 0.404353 0.505041
O O3 0.195270 0.439648 0.938067
O O4 0.000000 0.500000 0.000000
O O5 0.500000 0.000000 0.500000
O O6 0.452525 0.769013 0.062768
O O7 0.411386 0.007920 0.911930
O O8 0.229868 0.044384 0.991361
O O9 0.336455 0.605123 0.432308
O O10 0.036791 0.724250 0.823491
O O11 0.178934 0.548127 0.054543
O O12 0.284112 0.925337 0.503069
O O13 0.500000 0.000000 0.000000
O O14 0.930995 0.940976 0.481545
O O15 0.000000 0.000000 0.500000
O O16 0.354170 0.482635 0.044046
O O17 0.160355 0.770153 0.881866
O O18 0.500000 0.500000 0.500000
O O19 0.000000 0.000000 0.000000
#
# Coordination Sequence:
#
# PCOD8020455 Si02
#       8
#     2   2   2   2   2   2   2   2
#     4  12  27  45  63  98 141 176 213 272 339 395
#     4  11  25  42  68  97 130 169 221 278 327 389
#     4  11  23  42  70  96 129 170 222 271 327 398
#     4  11  26  44  66  95 135 174 218 272 333 394
#     4  11  20  41  66  95 127 163 218 271 325 387
#     4  11  24  42  70  96 126 175 224 267 327 398
#     4  10  22  42  68  96 128 168 221 273 325 384
#     4  11  22  43  66  93 130 172 216 267 329 396
#
# _framework density 20.197773999999999
#
# number of rings (size 3 to 8) (size 9 to 14) (size 15 to 20)
#    0.000    1.000    3.750    4.125    8.750    2.000 
#    0.000    0.625    0.000    0.000    0.000    0.000 
#    0.000    0.000    0.000    0.000    0.000    0.000 
#
# Total GULP energy -198307.360561 kJ/mol
# GULP energy per Si atom -12394.210035 kJ/mol
# Density = 2.015180 g / cm^3
# Si number density = 20.197774 Si / 1000 Ang^3
#
#
#
# Elastic Constant Matrix: (Units=GPa)
#
#
# Indices 1 2 3 4 5 6 
#
# 1 118.9242 41.7090 68.9210 11.9026 -22.6092 3.1163
# 2 41.7090 113.3925 53.7795 10.7259 -3.1642 -5.1720
# 3 68.9210 53.7795 148.7570 21.6881 -11.7601 3.2139
# 4 11.9026 10.7259 21.6881 41.1225 0.8122 -5.4153
# 5 -22.6092 -3.1642 -11.7601 0.8122 28.6760 -1.2032
# 6 3.1163 -5.1720 3.2139 -5.4153 -1.2032 40.2174
#
#
#
# Elastic Compliance Matrix: (Units=1/GPa)
#
#
# Indices 1 2 3 4 5 6 
#
# 1 0.013750 -0.002584 -0.004555 -0.001198 0.008682 -0.000935
# 2 -0.002584 0.011259 -0.003019 -0.000323 -0.001949 0.001788
# 3 -0.004555 -0.003019 0.010516 -0.003627 0.000435 -0.001351
# 4 -0.001198 -0.000323 -0.003627 0.027238 -0.003075 0.003917
# 5 0.008682 -0.001949 0.000435 -0.003075 0.041763 -0.000123
# 6 -0.000935 0.001788 -0.001351 0.003917 -0.000123 0.025799
#
#
# Mechanical properties :
#
#
# Convention : Reuss Voigt Hill
#
# Bulk Modulus (GPa) = 65.74914 78.87696 72.31305
# Shear Modulus (GPa) = 32.11080 36.44747 34.27914
#
# Velocity S-wave (km/s) = 3.99158 4.25258 4.12415
# Velocity P-wave (km/s) = 7.33941 7.95297 7.65234
#
# Compressibility (1/GPa) = 0.01520932
#
# Stress axis : x y z
#
# Youngs Moduli (GPa) = 72.72759 88.81872 95.08956
#
# Poissons Ratio (x) = 0.22954 0.43312
# Poissons Ratio (y) = 0.18796 0.28704
# Poissons Ratio (z) = 0.33127 0.26811
#
# Static dielectric constant tensor:
#      x y z
#    x 3.597480 -0.206560 -0.334310 
#    y -0.206560 3.629400 0.380770 
#    z -0.334310 0.380770 3.784140 
# 
# 
# High freq. dielectric constant tensor:
#      x y z
#    x 1.788240 0.002280 -0.021780 
#    y 0.002280 1.805600 0.002700 
#    z -0.021780 0.002700 1.795370 
# 
# From -- ./inp_files/348769.got.cif
#   From: 2010.06.25/outbox.cif.g09.slc.cpg/sg2_175_cif.got.tgz:348769.got - 2010.06.27 13:26:56.
