data_PCOD8020961
_publ_section_title
;
Structure prediction by ZEFSAII (Michael W. Deem and Ramdas Pophale) SiO2 
 PCOD8020961
Probable space group: P -1
;
_chemical_formula_sum "Si O2"
_cell_formula_units_Z 16
_cell_length_a 15.613644
_cell_length_b 9.794861
_cell_length_c 19.014124
_cell_angle_alpha 24.806520
_cell_angle_beta 36.147724
_cell_angle_gamma 37.563568
_cell_volume 698.411124
_symmetry_space_group_name_H-M "P -1"
_symmetry_group_IT_number 2
_symmetry_cell_setting 'triclinic'
loop_
_space_group_symop_operation_xyz
x,y,z
-x,-y,-z
loop_
_atom_site_type_symbol
_atom_site_label
_atom_site_fract_x
_atom_site_fract_y
_atom_site_fract_z
Si Si1 0.748523 0.780597 0.124208
Si Si2 0.984823 0.846946 0.749132
Si Si3 0.179361 0.190137 0.379167
Si Si4 0.552241 0.607686 0.648202
Si Si5 0.426227 0.804610 0.298183
Si Si6 0.213082 0.651757 0.265540
Si Si7 0.312543 0.369614 0.000050
Si Si8 0.159928 0.817755 0.003478
O O1 0.888484 0.470272 0.157750
O O2 0.593445 0.670053 0.280546
O O3 0.724535 0.076046 0.945559
O O4 0.769536 0.933246 0.114580
O O5 0.046568 0.999531 0.567447
O O6 0.949733 0.141966 0.693810
O O7 0.831463 0.744760 0.880161
O O8 0.211929 0.332913 0.366791
O O9 0.135328 0.492609 0.212764
O O10 0.319629 0.910711 0.386616
O O11 0.611182 0.496375 0.582356
O O12 0.684153 0.481346 0.674309
O O13 0.413989 0.437780 0.836444
O O14 0.500000 0.000000 0.500000
O O15 0.410681 0.108105 0.111273
O O16 0.261722 0.715384 0.915289
O O17 0.000000 0.000000 0.000000
#
# Coordination Sequence:
#
# PCOD8020961 Si02
#       8
#     2   2   2   2   2   2   2   2
#     4  11  24  42  74 101 140 189 234 284 351 419
#     4  12  24  45  71 103 140 187 233 286 346 420
#     4  10  27  43  72 102 143 185 234 290 349 403
#     4  12  27  45  73 106 139 182 236 292 349 415
#     4  11  24  48  71 101 140 187 233 283 351 418
#     4  11  24  48  68 103 142 184 231 295 348 414
#     4  11  23  45  73  96 142 189 227 285 356 411
#     4  10  22  43  66 106 143 186 230 286 353 416
#
# _framework density 22.909143
#
# number of rings (size 3 to 8) (size 9 to 14) (size 15 to 20)
#    0.000    1.000    3.750    1.875    3.500    6.000 
#    0.000    0.000    0.000    0.000    0.000    0.000 
#    0.000    0.000    0.000    0.000    0.000    0.000 
#
# Total GULP energy -198366.150585 kJ/mol
# GULP energy per Si atom -12397.884412 kJ/mol
# Density = 2.285700 g / cm^3
# Si number density = 22.909143 Si / 1000 Ang^3
#
#
#
# Elastic Constant Matrix: (Units=GPa)
#
#
# Indices 1 2 3 4 5 6 
#
# 1 117.7486 65.4227 12.9175 -6.8980 -4.4819 1.2889
# 2 65.4227 190.0902 27.9840 -14.0825 -10.4703 22.1368
# 3 12.9175 27.9840 60.8040 2.0257 -13.9084 3.7741
# 4 -6.8980 -14.0825 2.0257 39.6448 -4.2443 -0.7154
# 5 -4.4819 -10.4703 -13.9084 -4.2443 13.1674 1.1895
# 6 1.2889 22.1368 3.7741 -0.7154 1.1895 47.0099
#
#
#
# Elastic Compliance Matrix: (Units=1/GPa)
#
#
# Indices 1 2 3 4 5 6 
#
# 1 0.010637 -0.003692 -0.000665 0.000605 0.000041 0.001508
# 2 -0.003692 0.007584 -0.001622 0.002521 0.004181 -0.003407
# 3 -0.000665 -0.001622 0.022603 0.000552 0.022681 -0.001598
# 4 0.000605 0.002521 0.000552 0.027433 0.011738 -0.001127
# 5 0.000041 0.004181 0.022681 0.011738 0.107597 -0.006335
# 6 0.001508 -0.003407 -0.001598 -0.001127 -0.006335 0.023107
#
#
# Mechanical properties :
#
#
# Convention : Reuss Voigt Hill
#
# Bulk Modulus (GPa) = 34.64261 64.58792 49.61526
# Shear Modulus (GPa) = 22.67153 37.45231 30.06192
#
# Velocity S-wave (km/s) = 3.14925 4.04768 3.62639
# Velocity P-wave (km/s) = 5.32712 7.07808 6.26408
#
# Compressibility (1/GPa) = 0.02886619
#
# Stress axis : x y z
#
# Youngs Moduli (GPa) = 94.00918 131.86030 44.24163
#
# Poissons Ratio (x) = 0.48678 0.02943
# Poissons Ratio (y) = 0.34704 0.07177
# Poissons Ratio (z) = 0.06253 0.21391
#
# Static dielectric constant tensor:
#      x y z
#    x 4.189470 -0.075870 -0.537060 
#    y -0.075870 5.208610 0.447960 
#    z -0.537060 0.447960 5.135800 
# 
# 
# High freq. dielectric constant tensor:
#      x y z
#    x 1.902830 0.007180 0.002800 
#    y 0.007180 1.933370 -0.006500 
#    z 0.002800 -0.006500 1.889370 
# 
# From -- ./inp_files/566744.got.cif
#   From: 2010.06.25/outbox.cif.g09.slc.cpg/sg2_284_cif.got.tgz:566744.got - 2010.06.27 13:26:56.
