data_PCOD8020303
_publ_section_title
;
Structure prediction by ZEFSAII (Michael W. Deem and Ramdas Pophale) SiO2 
 PCOD8020303
Probable space group: P -1
;
_chemical_formula_sum "Si O2"
_cell_formula_units_Z 14
_cell_length_a 10.760190
_cell_length_b 12.380120
_cell_length_c 12.592146
_cell_angle_alpha 145.343975
_cell_angle_beta 87.524400
_cell_angle_gamma 66.856765
_cell_volume 625.599770
_symmetry_space_group_name_H-M "P -1"
_symmetry_group_IT_number 2
_symmetry_cell_setting 'triclinic'
loop_
_space_group_symop_operation_xyz
x,y,z
-x,-y,-z
loop_
_atom_site_type_symbol
_atom_site_label
_atom_site_fract_x
_atom_site_fract_y
_atom_site_fract_z
Si Si1 0.152422 0.085125 0.642549
Si Si2 0.751896 0.657772 0.049888
Si Si3 0.289173 0.666809 0.622561
Si Si4 0.417156 0.797510 0.213190
Si Si5 0.806677 0.355290 0.611274
Si Si6 0.004217 0.728020 0.790981
Si Si7 0.856591 0.846175 0.662275
O O1 0.233358 0.131778 0.768949
O O2 0.237870 0.049213 0.497371
O O3 0.212863 0.802809 0.439330
O O4 0.927798 0.357087 0.860259
O O5 0.568238 0.788732 0.222215
O O6 0.738527 0.616282 0.892306
O O7 0.500000 0.500000 0.500000
O O8 0.314518 0.533142 0.400581
O O9 0.200353 0.618530 0.672036
O O10 0.130429 0.018116 0.910088
O O11 0.353354 0.883347 0.160175
O O12 0.500000 0.500000 0.000000
O O13 0.021931 0.135952 0.389445
O O14 0.064000 0.454840 0.610877
O O15 0.868542 0.868956 0.805909
#
# Coordination Sequence:
#
# PCOD8020303 Si02
#       7
#     2   2   2   2   2   2   2
#     4  11  24  43  61  94 133 168 217 266 326 394
#     4  11  24  40  64  92 130 171 217 265 323 389
#     4  10  23  41  68  99 128 169 222 270 328 388
#     4  12  23  40  67  96 131 173 217 269 329 389
#     4  11  22  41  65  94 129 170 212 267 330 381
#     4   9  22  45  63  93 136 171 215 272 325 385
#     4  10  22  42  67  93 130 176 218 266 328 389
#
# _framework density 22.378526999999998
#
# number of rings (size 3 to 8) (size 9 to 14) (size 15 to 20)
#    0.000    1.429    2.857    1.714    4.000    1.143 
#    0.000    6.429    0.000    0.000    0.000    0.000 
#    0.000    0.000    0.000    0.000    0.000    0.000 
#
# Total GULP energy -173549.381251 kJ/mol
# GULP energy per Si atom -12396.384375 kJ/mol
# Density = 2.232759 g / cm^3
# Si number density = 22.378527 Si / 1000 Ang^3
#
#
#
# Elastic Constant Matrix: (Units=GPa)
#
#
# Indices 1 2 3 4 5 6 
#
# 1 140.3838 46.5603 29.7008 2.3025 -11.0769 -21.0941
# 2 46.5603 90.8719 31.8297 -0.9509 0.2392 -13.9219
# 3 29.7008 31.8297 54.1928 -2.3004 10.3559 -9.1961
# 4 2.3025 -0.9509 -2.3004 31.7850 -6.5384 2.1038
# 5 -11.0769 0.2392 10.3559 -6.5384 44.7820 -3.8342
# 6 -21.0941 -13.9219 -9.1961 2.1038 -3.8342 33.8260
#
#
#
# Elastic Compliance Matrix: (Units=1/GPa)
#
#
# Indices 1 2 3 4 5 6 
#
# 1 0.009859 -0.003176 -0.003508 -0.000620 0.003547 0.004328
# 2 -0.003176 0.015522 -0.007128 0.000221 0.001032 0.002574
# 3 -0.003508 -0.007128 0.026059 0.000474 -0.006686 0.001176
# 4 -0.000620 0.000221 0.000474 0.032553 0.004343 -0.001699
# 5 0.003547 0.001032 -0.006686 0.004343 0.025679 0.003460
# 6 0.004328 0.002574 0.001176 -0.001699 0.003460 0.034139
#
#
# Mechanical properties :
#
#
# Convention : Reuss Voigt Hill
#
# Bulk Modulus (GPa) = 41.98510 55.73669 48.86090
# Shear Modulus (GPa) = 27.87504 33.90244 30.88874
#
# Velocity S-wave (km/s) = 3.53316 3.89646 3.71925
# Velocity P-wave (km/s) = 5.95368 6.72336 6.35020
#
# Compressibility (1/GPa) = 0.02381797
#
# Stress axis : x y z
#
# Youngs Moduli (GPa) = 101.42924 64.42459 38.37481
#
# Poissons Ratio (x) = 0.20458 0.13461
# Poissons Ratio (y) = 0.32210 0.27352
# Poissons Ratio (z) = 0.35580 0.45919
#
# Static dielectric constant tensor:
#      x y z
#    x 4.384070 -0.110620 0.089790 
#    y -0.110620 3.839920 -0.288590 
#    z 0.089790 -0.288590 3.886910 
# 
# 
# High freq. dielectric constant tensor:
#      x y z
#    x 1.905200 -0.005240 0.002610 
#    y -0.005240 1.861220 -0.017320 
#    z 0.002610 -0.017320 1.869970 
# 
# From -- ./inp_files/426351.got.cif
#   From: 2010.06.25/outbox.cif.g09.slc.cpg/sg2_214_cif.got.tgz:426351.got - 2010.06.27 13:26:56.
