data_PCOD8020344
_publ_section_title
;
Structure prediction by ZEFSAII (Michael W. Deem and Ramdas Pophale) SiO2 
 PCOD8020344
Probable space group: P -1
;
_chemical_formula_sum "Si O2"
_cell_formula_units_Z 16
_cell_length_a 9.310973
_cell_length_b 6.364244
_cell_length_c 17.241972
_cell_angle_alpha 100.725533
_cell_angle_beta 130.993171
_cell_angle_gamma 92.163134
_cell_volume 739.898784
_symmetry_space_group_name_H-M "P -1"
_symmetry_group_IT_number 2
_symmetry_cell_setting 'triclinic'
loop_
_space_group_symop_operation_xyz
x,y,z
-x,-y,-z
loop_
_atom_site_type_symbol
_atom_site_label
_atom_site_fract_x
_atom_site_fract_y
_atom_site_fract_z
Si Si1 0.906864 0.199567 0.495869
Si Si2 0.350292 0.271418 0.937744
Si Si3 0.453053 0.816206 0.535209
Si Si4 0.213757 0.399260 0.335366
Si Si5 0.887717 0.383574 0.332805
Si Si6 0.993207 0.441450 0.867556
Si Si7 0.488864 0.916101 0.871281
Si Si8 0.146635 0.843143 0.057112
O O1 0.685020 0.121014 0.442234
O O2 0.912887 0.307813 0.422428
O O3 0.041521 0.352900 0.618408
O O4 0.000000 0.000000 0.500000
O O5 0.135629 0.321811 0.860759
O O6 0.374612 0.105408 0.866449
O O7 0.500000 0.500000 0.000000
O O8 0.377009 0.148224 0.018312
O O9 0.341522 0.595261 0.441493
O O10 0.656100 0.782740 0.642839
O O11 0.500000 0.000000 0.500000
O O12 0.021676 0.293947 0.310516
O O13 0.158427 0.480518 0.237715
O O14 0.663410 0.304201 0.222710
O O15 0.875932 0.265639 0.873910
O O16 0.119712 0.652648 0.969951
O O17 0.634267 0.011876 0.859630
O O18 0.000000 0.000000 0.000000
#
# Coordination Sequence:
#
# PCOD8020344 Si02
#       8
#     2   2   2   2   2   2   2   2
#     4  10  22  43  65  96 131 168 214 271 328 395
#     4  11  22  40  63  95 129 167 225 274 323 390
#     4  10  22  42  67  96 129 166 216 269 327 401
#     4  10  23  42  65  94 127 169 216 272 330 389
#     4  10  23  41  64  94 129 168 216 272 328 389
#     4  11  24  42  66  92 133 176 220 281 329 397
#     4  11  24  40  66  94 129 173 221 277 328 395
#     4  11  24  44  61  92 134 175 222 274 332 395
#
# _framework density 21.624579000000001
#
# number of rings (size 3 to 8) (size 9 to 14) (size 15 to 20)
#    0.000    1.500    2.500    1.500    1.750    8.000 
#    0.000    0.000    0.000    0.000    0.000    0.000 
#    0.000    0.000    0.000    0.000    0.000    0.000 
#
# Total GULP energy -198392.309433 kJ/mol
# GULP energy per Si atom -12399.519340 kJ/mol
# Density = 2.157536 g / cm^3
# Si number density = 21.624579 Si / 1000 Ang^3
#
#
#
# Elastic Constant Matrix: (Units=GPa)
#
#
# Indices 1 2 3 4 5 6 
#
# 1 166.9186 72.2124 53.3525 -12.4526 19.2212 4.8316
# 2 72.2124 98.7288 27.4946 -19.1522 15.9445 0.0817
# 3 53.3525 27.4946 88.8095 -18.4644 17.1888 1.8105
# 4 -12.4526 -19.1522 -18.4644 38.4294 3.6437 3.6634
# 5 19.2212 15.9445 17.1888 3.6437 32.4821 -2.8014
# 6 4.8316 0.0817 1.8105 3.6634 -2.8014 45.3422
#
#
#
# Elastic Compliance Matrix: (Units=1/GPa)
#
#
# Indices 1 2 3 4 5 6 
#
# 1 0.010126 -0.006514 -0.004404 -0.001980 -0.000307 -0.000750
# 2 -0.006514 0.016967 0.001448 0.007660 -0.006133 -0.000392
# 3 -0.004404 0.001448 0.016746 0.008230 -0.008007 -0.001362
# 4 -0.001980 0.007660 0.008230 0.034551 -0.011130 -0.003611
# 5 -0.000307 -0.006133 -0.008007 -0.011130 0.039785 0.003721
# 6 -0.000750 -0.000392 -0.001362 -0.003611 0.003721 0.022711
#
#
# Mechanical properties :
#
#
# Convention : Reuss Voigt Hill
#
# Bulk Modulus (GPa) = 40.16155 73.39734 56.77944
# Shear Modulus (GPa) = 29.73998 36.67722 33.20860
#
# Velocity S-wave (km/s) = 3.71251 4.12283 3.92304
# Velocity P-wave (km/s) = 6.08190 7.52854 6.84355
#
# Compressibility (1/GPa) = 0.02489944
#
# Stress axis : x y z
#
# Youngs Moduli (GPa) = 98.75753 58.93935 59.71676
#
# Poissons Ratio (x) = 0.38393 0.26296
# Poissons Ratio (y) = 0.64330 -0.08648
# Poissons Ratio (z) = 0.43488 -0.08535
#
# Static dielectric constant tensor:
#      x y z
#    x 4.248790 -0.047550 0.097500 
#    y -0.047550 4.050180 0.080100 
#    z 0.097500 0.080100 3.785390 
# 
# 
# High freq. dielectric constant tensor:
#      x y z
#    x 1.863210 0.007010 0.004080 
#    y 0.007010 1.858020 -0.000970 
#    z 0.004080 -0.000970 1.833470 
# 
# From -- ./inp_files/553570.got.cif
#   From: 2010.06.25/outbox.cif.g09.slc.cpg/sg2_277_cif.got.tgz:553570.got - 2010.06.27 13:26:56.
