data_PCOD8020664
_publ_section_title
;
Structure prediction by ZEFSAII (Michael W. Deem and Ramdas Pophale) SiO2 
 PCOD8020664
Probable space group: P -1
;
_chemical_formula_sum "Si O2"
_cell_formula_units_Z 16
_cell_length_a 18.278465
_cell_length_b 21.294681
_cell_length_c 9.130186
_cell_angle_alpha 30.552513
_cell_angle_beta 137.693252
_cell_angle_gamma 158.668304
_cell_volume 618.319242
_symmetry_space_group_name_H-M "P -1"
_symmetry_group_IT_number 2
_symmetry_cell_setting 'triclinic'
loop_
_space_group_symop_operation_xyz
x,y,z
-x,-y,-z
loop_
_atom_site_type_symbol
_atom_site_label
_atom_site_fract_x
_atom_site_fract_y
_atom_site_fract_z
Si Si1 0.521915 0.262741 0.154015
Si Si2 0.083926 0.585480 0.115123
Si Si3 0.144371 0.838562 0.904623
Si Si4 0.033803 0.789844 0.321250
Si Si5 0.316569 0.547941 0.290212
Si Si6 0.159642 0.302955 0.057465
Si Si7 0.513327 0.985946 0.809674
Si Si8 0.397200 0.311657 0.348228
O O1 0.535892 0.128385 0.455951
O O2 0.675739 0.470396 0.836116
O O3 0.609733 0.407913 0.143741
O O4 0.279088 0.066846 0.153127
O O5 0.991036 0.367734 0.482494
O O6 0.003537 0.633047 0.982100
O O7 0.343195 0.842788 0.977200
O O8 0.000000 0.500000 0.000000
O O9 0.013547 0.791547 0.918356
O O10 0.320587 0.108819 0.564187
O O11 0.254793 0.824902 0.165796
O O12 0.921219 0.680831 0.533395
O O13 0.905605 0.755912 0.092313
O O14 0.445275 0.567764 0.527994
O O15 0.431365 0.792586 0.978912
O O16 0.196633 0.192067 0.363690
O O17 0.500000 0.500000 0.000000
#
# Coordination Sequence:
#
# PCOD8020664 Si02
#       8
#     2   2   2   2   2   2   2   2
#     4  12  26  43  76 113 155 191 248 304 383 445
#     4  11  23  41  72 110 155 192 240 301 382 457
#     4  11  26  45  74 108 147 196 251 310 373 443
#     4  11  24  48  71 111 159 193 246 308 373 463
#     4  10  24  45  73 108 150 194 248 312 374 447
#     4  12  28  47  77 109 146 200 259 306 372 444
#     4  10  22  42  71 108 152 193 237 297 381 454
#     4  11  24  50  77 101 144 199 261 310 367 438
#
# _framework density 25.876601000000001
#
# number of rings (size 3 to 8) (size 9 to 14) (size 15 to 20)
#    0.000    1.000    2.500    3.375    5.250    3.500 
#    0.000    0.625    0.000    0.000    0.000    0.000 
#    0.000    0.000    0.000    0.000    0.000    0.000 
#
# Total GULP energy -198278.011827 kJ/mol
# GULP energy per Si atom -12392.375739 kJ/mol
# Density = 2.581771 g / cm^3
# Si number density = 25.876601 Si / 1000 Ang^3
#
#
#
# Elastic Constant Matrix: (Units=GPa)
#
#
# Indices 1 2 3 4 5 6 
#
# 1 85.6135 40.1147 13.8781 1.5544 1.4676 22.7535
# 2 40.1147 131.0841 36.6437 4.4331 2.7544 1.5791
# 3 13.8781 36.6437 85.2142 18.5064 3.7100 9.4691
# 4 1.5544 4.4331 18.5064 31.8078 10.9333 3.8055
# 5 1.4676 2.7544 3.7100 10.9333 41.2080 1.0883
# 6 22.7535 1.5791 9.4691 3.8055 1.0883 34.0197
#
#
#
# Elastic Compliance Matrix: (Units=1/GPa)
#
#
# Indices 1 2 3 4 5 6 
#
# 1 0.017091 -0.005273 0.000540 0.001052 -0.000282 -0.011445
# 2 -0.005273 0.010356 -0.004240 0.000953 -0.000485 0.004135
# 3 0.000540 -0.004240 0.015673 -0.008540 0.001214 -0.003610
# 4 0.001052 0.000953 -0.008540 0.039912 -0.009855 -0.002520
# 5 -0.000282 -0.000485 0.001214 -0.009855 0.026812 0.000118
# 6 -0.011445 0.004135 -0.003610 -0.002520 0.000118 0.038141
#
#
# Mechanical properties :
#
#
# Convention : Reuss Voigt Hill
#
# Bulk Modulus (GPa) = 39.72339 53.68721 46.70530
# Shear Modulus (GPa) = 28.68245 35.49213 32.08729
#
# Velocity S-wave (km/s) = 3.33292 3.70752 3.52520
# Velocity P-wave (km/s) = 5.49505 6.25460 5.88709
#
# Compressibility (1/GPa) = 0.02517409
#
# Stress axis : x y z
#
# Youngs Moduli (GPa) = 58.51001 96.56566 63.80231
#
# Poissons Ratio (x) = 0.50918 -0.03443
# Poissons Ratio (y) = 0.30852 0.27051
# Poissons Ratio (z) = -0.03157 0.40941
#
# Static dielectric constant tensor:
#      x y z
#    x 4.981380 0.088810 0.667230 
#    y 0.088810 4.265440 1.418940 
#    z 0.667230 1.418940 2.164130 
# 
# 
# High freq. dielectric constant tensor:
#      x y z
#    x 2.030320 0.016030 0.005830 
#    y 0.016030 2.047800 0.013510 
#    z 0.005830 0.013510 2.026990 
# 
# From -- ./inp_files/349969.got.cif
#   From: 2010.06.25/outbox.cif.g09.slc.cpg/sg2_175_cif.got.tgz:349969.got - 2010.06.27 13:26:56.
