data_PCOD8020449
_publ_section_title
;
Structure prediction by ZEFSAII (Michael W. Deem and Ramdas Pophale) SiO2 
 PCOD8020449
Probable space group: P -1
;
_chemical_formula_sum "Si O2"
_cell_formula_units_Z 16
_cell_length_a 9.146903
_cell_length_b 22.549294
_cell_length_c 11.209758
_cell_angle_alpha 45.580644
_cell_angle_beta 139.725974
_cell_angle_gamma 149.036613
_cell_volume 761.689622
_symmetry_space_group_name_H-M "P -1"
_symmetry_group_IT_number 2
_symmetry_cell_setting 'triclinic'
loop_
_space_group_symop_operation_xyz
x,y,z
-x,-y,-z
loop_
_atom_site_type_symbol
_atom_site_label
_atom_site_fract_x
_atom_site_fract_y
_atom_site_fract_z
Si Si1 0.142605 0.925133 0.917508
Si Si2 0.143882 0.975194 0.414998
Si Si3 0.807153 0.279932 0.125129
Si Si4 0.353515 0.529677 0.022337
Si Si5 0.150891 0.818203 0.484823
Si Si6 0.935561 0.801020 0.728050
Si Si7 0.302366 0.549454 0.693568
Si Si8 0.253844 0.247696 0.885138
O O1 0.923614 0.822880 0.827780
O O2 0.096113 0.011508 0.773460
O O3 0.048839 0.862118 0.074496
O O4 0.500000 0.000000 0.000000
O O5 0.111221 0.901687 0.390690
O O6 0.053155 0.910746 0.574449
O O7 0.498671 0.103106 0.461730
O O8 0.916929 0.266330 0.336481
O O9 0.036758 0.415531 0.048863
O O10 0.825786 0.215085 0.123847
O O11 0.446539 0.218150 0.995880
O O12 0.615474 0.525074 0.177520
O O13 0.501629 0.637409 0.046334
O O14 0.252016 0.543840 0.812506
O O15 0.889402 0.735589 0.336071
O O16 0.584763 0.682112 0.638836
O O17 0.000000 0.500000 0.500000
#
# Coordination Sequence:
#
# PCOD8020449 Si02
#       8
#     2   2   2   2   2   2   2   2
#     4  12  25  39  64 100 131 172 219 272 330 385
#     4  10  22  43  63  91 136 168 222 277 314 393
#     4  10  23  43  66  91 136 171 218 274 318 395
#     4  10  23  41  63 101 130 167 221 268 321 395
#     4  10  23  42  66  96 127 179 219 266 333 379
#     4  10  22  43  64  94 130 171 221 269 327 388
#     4  10  22  42  68  95 134 171 208 271 337 386
#     4  12  24  41  68  95 132 175 217 272 327 390
#
# _framework density 21.005932000000001
#
# number of rings (size 3 to 8) (size 9 to 14) (size 15 to 20)
#    0.000    1.500    2.500    1.500    1.750    7.000 
#    0.000    0.000    0.000    0.000    0.000    0.000 
#    0.000    0.000    0.000    0.000    0.000    0.000 
#
# Total GULP energy -198458.387910 kJ/mol
# GULP energy per Si atom -12403.649244 kJ/mol
# Density = 2.095812 g / cm^3
# Si number density = 21.005932 Si / 1000 Ang^3
#
#
#
# Elastic Constant Matrix: (Units=GPa)
#
#
# Indices 1 2 3 4 5 6 
#
# 1 92.6238 31.7607 45.8008 0.1567 3.3647 21.6756
# 2 31.7607 71.6640 27.8481 -6.5090 -2.3972 15.7584
# 3 45.8008 27.8481 110.5251 8.8388 -0.0518 7.6296
# 4 0.1567 -6.5090 8.8388 31.8589 0.5551 -4.5041
# 5 3.3647 -2.3972 -0.0518 0.5551 34.4361 -0.1218
# 6 21.6756 15.7584 7.6296 -4.5041 -0.1218 33.1624
#
#
#
# Elastic Compliance Matrix: (Units=1/GPa)
#
#
# Indices 1 2 3 4 5 6 
#
# 1 0.016648 -0.003627 -0.005402 -0.000419 -0.001909 -0.007980
# 2 -0.003627 0.018267 -0.003057 0.003853 0.001541 -0.005078
# 3 -0.005402 -0.003057 0.012243 -0.003768 0.000400 0.001656
# 4 -0.000419 0.003853 -0.003768 0.033778 -0.000227 0.003896
# 5 -0.001909 0.001541 0.000400 -0.000227 0.029339 0.000500
# 6 -0.007980 -0.005078 0.001656 0.003896 0.000500 0.037933
#
#
# Mechanical properties :
#
#
# Convention : Reuss Voigt Hill
#
# Bulk Modulus (GPa) = 43.49909 53.95911 48.72910
# Shear Modulus (GPa) = 27.77127 31.18503 29.47815
#
# Velocity S-wave (km/s) = 3.63997 3.85721 3.75016
# Velocity P-wave (km/s) = 6.19829 6.75135 6.48072
#
# Compressibility (1/GPa) = 0.02298899
#
# Stress axis : x y z
#
# Youngs Moduli (GPa) = 60.06588 54.74307 81.67601
#
# Poissons Ratio (x) = 0.19853 0.44119
# Poissons Ratio (y) = 0.21783 0.24966
# Poissons Ratio (z) = 0.32446 0.16733
#
# Static dielectric constant tensor:
#      x y z
#    x 4.078520 0.047500 -0.005540 
#    y 0.047500 3.696700 -0.138990 
#    z -0.005540 -0.138990 3.618640 
# 
# 
# High freq. dielectric constant tensor:
#      x y z
#    x 1.839050 0.008180 -0.001150 
#    y 0.008180 1.820620 -0.009670 
#    z -0.001150 -0.009670 1.812650 
# 
# From -- ./inp_files/261087.got.cif
#   From: 2010.06.25/outbox.cif.g09.slc.cpg/sg2_131_cif.got.tgz:261087.got - 2010.06.27 13:26:56.
