data_PCOD8021577
_publ_section_title
;
Structure prediction by ZEFSAII (Michael W. Deem and Ramdas Pophale) SiO2 
 PCOD8021577
Probable space group: P -1
;
_chemical_formula_sum "Si O2"
_cell_formula_units_Z 16
_cell_length_a 11.206205
_cell_length_b 12.118016
_cell_length_c 6.786172
_cell_angle_alpha 77.643821
_cell_angle_beta 53.586531
_cell_angle_gamma 74.644370
_cell_volume 713.221617
_symmetry_space_group_name_H-M "P -1"
_symmetry_group_IT_number 2
_symmetry_cell_setting 'triclinic'
loop_
_space_group_symop_operation_xyz
x,y,z
-x,-y,-z
loop_
_atom_site_type_symbol
_atom_site_label
_atom_site_fract_x
_atom_site_fract_y
_atom_site_fract_z
Si Si1 0.609828 0.116794 0.789788
Si Si2 0.874649 0.611436 0.132022
Si Si3 0.929220 0.856925 0.066746
Si Si4 0.604029 0.982543 0.212975
Si Si5 0.094801 0.006147 0.600536
Si Si6 0.654142 0.516664 0.137518
Si Si7 0.164161 0.503841 0.418769
Si Si8 0.675432 0.361284 0.529367
O O1 0.451661 0.109637 0.843514
O O2 0.731087 0.011746 0.624503
O O3 0.664740 0.231264 0.626017
O O4 0.598047 0.100671 0.045379
O O5 0.944063 0.726930 0.026050
O O6 0.736682 0.615901 0.112918
O O7 0.801768 0.603098 0.423521
O O8 0.000000 0.500000 0.000000
O O9 0.773458 0.934524 0.124489
O O10 0.944138 0.873365 0.284143
O O11 0.066809 0.903458 0.811468
O O12 0.500000 0.000000 0.500000
O O13 0.000000 0.000000 0.500000
O O14 0.695378 0.397355 0.267481
O O15 0.476493 0.557059 0.279174
O O16 0.713221 0.497474 0.867653
O O17 0.180434 0.614846 0.494375
O O18 0.000000 0.500000 0.500000
#
# Coordination Sequence:
#
# PCOD8021577 Si02
#       8
#     2   2   2   2   2   2   2   2
#     4  11  24  41  68  98 129 174 222 274 335 390
#     4  11  24  42  66  99 132 173 223 273 334 394
#     4  11  25  43  68  96 135 176 220 279 331 396
#     4  11  23  44  66  96 134 171 228 271 332 398
#     4  11  24  44  66  99 132 173 222 272 334 394
#     4  10  22  44  64  94 134 171 223 269 334 393
#     4  11  23  40  64  97 130 172 221 266 332 393
#     4  10  24  41  67  95 132 174 218 276 327 400
#
# _framework density 22.433422
#
# number of rings (size 3 to 8) (size 9 to 14) (size 15 to 20)
#    0.000    1.250    3.750    1.125    3.500    4.000 
#    0.000    0.000    0.000    0.000    0.000    0.000 
#    0.000    0.000    0.000    0.000    0.000    0.000 
#
# Total GULP energy -198270.061806 kJ/mol
# GULP energy per Si atom -12391.878863 kJ/mol
# Density = 2.238236 g / cm^3
# Si number density = 22.433422 Si / 1000 Ang^3
#
#
#
# Elastic Constant Matrix: (Units=GPa)
#
#
# Indices 1 2 3 4 5 6 
#
# 1 96.4088 15.6020 8.5183 6.6657 9.0772 18.3553
# 2 15.6020 105.2602 26.8614 -13.4786 9.0483 16.3269
# 3 8.5183 26.8614 147.8063 2.5994 12.5245 -4.8841
# 4 6.6657 -13.4786 2.5994 20.9875 9.7419 -5.4186
# 5 9.0772 9.0483 12.5245 9.7419 37.8197 1.2821
# 6 18.3553 16.3269 -4.8841 -5.4186 1.2821 28.1079
#
#
#
# Elastic Compliance Matrix: (Units=1/GPa)
#
#
# Indices 1 2 3 4 5 6 
#
# 1 0.012887 -0.001154 -0.000671 -0.006880 -0.000512 -0.009165
# 2 -0.001154 0.012563 -0.002183 0.009416 -0.004265 -0.004913
# 3 -0.000671 -0.002183 0.007457 -0.000531 -0.001750 0.002980
# 4 -0.006880 0.009416 -0.000531 0.067759 -0.018315 0.012829
# 5 -0.000512 -0.004265 -0.001750 -0.018315 0.032967 -0.002527
# 6 -0.009165 -0.004913 0.002980 0.012829 -0.002527 0.047522
#
#
# Mechanical properties :
#
#
# Convention : Reuss Voigt Hill
#
# Bulk Modulus (GPa) = 40.17723 50.15985 45.16854
# Shear Modulus (GPa) = 25.32027 37.28260 31.30144
#
# Velocity S-wave (km/s) = 3.36324 4.08109 3.73943
# Velocity P-wave (km/s) = 5.74719 6.67945 6.23078
#
# Compressibility (1/GPa) = 0.02488972
#
# Stress axis : x y z
#
# Youngs Moduli (GPa) = 77.59514 79.59958 134.09882
#
# Poissons Ratio (x) = 0.09188 0.09004
# Poissons Ratio (y) = 0.08957 0.29276
# Poissons Ratio (z) = 0.05210 0.17378
#
# Static dielectric constant tensor:
#      x y z
#    x 4.301930 0.275810 0.031340 
#    y 0.275810 3.776500 -0.014540 
#    z 0.031340 -0.014540 4.583430 
# 
# 
# High freq. dielectric constant tensor:
#      x y z
#    x 1.898380 0.024400 -0.004090 
#    y 0.024400 1.844340 -0.008600 
#    z -0.004090 -0.008600 1.909610 
# 
# From -- ./inp_files/69621.got.cif
#   From: 2010.06.25/outbox.cif.g09.slc.cpg/sg2_35_cif.got.tgz:69621.got - 2010.06.27 13:26:56.
