data_PCOD8021362
_publ_section_title
;
Structure prediction by ZEFSAII (Michael W. Deem and Ramdas Pophale) SiO2 
 PCOD8021362
Probable space group: P -1
;
_chemical_formula_sum "Si O2"
_cell_formula_units_Z 14
_cell_length_a 6.374408
_cell_length_b 17.328276
_cell_length_c 9.296627
_cell_angle_alpha 143.339619
_cell_angle_beta 80.314165
_cell_angle_gamma 97.982033
_cell_volume 604.367916
_symmetry_space_group_name_H-M "P -1"
_symmetry_group_IT_number 2
_symmetry_cell_setting 'triclinic'
loop_
_space_group_symop_operation_xyz
x,y,z
-x,-y,-z
loop_
_atom_site_type_symbol
_atom_site_label
_atom_site_fract_x
_atom_site_fract_y
_atom_site_fract_z
Si Si1 0.227472 0.063030 0.065035
Si Si2 0.526390 0.444098 0.163673
Si Si3 0.411929 0.008961 0.264686
Si Si4 0.811848 0.232565 0.966446
Si Si5 0.850761 0.408280 0.471613
Si Si6 0.786042 0.735731 0.229452
Si Si7 0.138688 0.340004 0.587926
O O1 0.329119 0.999176 0.097830
O O2 0.233871 0.219210 0.308055
O O3 0.338327 0.022944 0.839618
O O4 0.000000 0.000000 0.000000
O O5 0.380023 0.527275 0.411657
O O6 0.692264 0.546185 0.232104
O O7 0.652626 0.333659 0.065532
O O8 0.367555 0.382961 0.972320
O O9 0.375697 0.146926 0.548090
O O10 0.298083 0.907487 0.233259
O O11 0.042101 0.229668 0.860287
O O12 0.844083 0.270163 0.186469
O O13 0.000000 0.500000 0.500000
O O14 0.935373 0.392786 0.602461
O O15 0.924219 0.705205 0.311483
#
# Coordination Sequence:
#
# PCOD8021362 Si02
#       7
#     2   2   2   2   2   2   2
#     4  10  22  43  71 100 131 173 226 278 337 392
#     4  12  25  42  68  99 138 177 228 273 338 399
#     4  10  24  43  67 100 134 177 225 276 330 402
#     4  12  25  44  71  99 141 176 226 278 337 398
#     4  12  24  43  67  99 130 173 227 277 337 392
#     4  11  26  45  66 101 139 182 223 274 337 401
#     4  11  25  44  71  97 136 175 227 278 337 397
#
# _framework density 23.164697
#
# number of rings (size 3 to 8) (size 9 to 14) (size 15 to 20)
#    0.000    0.857    2.857    3.000    2.000    9.714 
#    0.000    0.000    0.000    0.000    0.000    0.000 
#    0.000    0.000    0.000    0.000    0.000    0.000 
#
# Total GULP energy -173561.362614 kJ/mol
# GULP energy per Si atom -12397.240187 kJ/mol
# Density = 2.311197 g / cm^3
# Si number density = 23.164697 Si / 1000 Ang^3
#
#
#
# Elastic Constant Matrix: (Units=GPa)
#
#
# Indices 1 2 3 4 5 6 
#
# 1 101.4515 31.4301 46.6415 -1.2608 -7.6419 10.6554
# 2 31.4301 89.7649 46.1826 21.6700 2.6164 6.2117
# 3 46.6415 46.1826 126.2242 -2.7632 -11.3343 9.1917
# 4 -1.2608 21.6700 -2.7632 33.0689 0.0078 2.0687
# 5 -7.6419 2.6164 -11.3343 0.0078 34.4923 -0.6848
# 6 10.6554 6.2117 9.1917 2.0687 -0.6848 27.3345
#
#
#
# Elastic Compliance Matrix: (Units=1/GPa)
#
#
# Indices 1 2 3 4 5 6 
#
# 1 0.012841 -0.003429 -0.003002 0.002696 0.002051 -0.003370
# 2 -0.003429 0.018840 -0.006296 -0.013005 -0.004254 0.000050
# 3 -0.003002 -0.006296 0.011902 0.005111 0.003689 -0.001696
# 4 0.002696 -0.013005 0.005111 0.039461 0.003201 -0.002721
# 5 0.002051 -0.004254 0.003689 0.003201 0.030970 -0.000540
# 6 -0.003370 0.000050 -0.001696 -0.002721 -0.000540 0.038648
#
#
# Mechanical properties :
#
#
# Convention : Reuss Voigt Hill
#
# Bulk Modulus (GPa) = 55.16157 62.88322 59.02239
# Shear Modulus (GPa) = 27.15009 31.85825 29.50417
#
# Velocity S-wave (km/s) = 3.42723 3.71252 3.57272
# Velocity P-wave (km/s) = 6.28694 6.75145 6.52334
#
# Compressibility (1/GPa) = 0.01812856
#
# Stress axis : x y z
#
# Youngs Moduli (GPa) = 77.87356 53.07717 84.02025
#
# Poissons Ratio (x) = 0.18203 0.25220
# Poissons Ratio (y) = 0.26707 0.52903
# Poissons Ratio (z) = 0.23375 0.33420
#
# Static dielectric constant tensor:
#      x y z
#    x 4.638880 0.008520 -0.399820 
#    y 0.008520 4.182900 -0.156760 
#    z -0.399820 -0.156760 5.741230 
# 
# 
# High freq. dielectric constant tensor:
#      x y z
#    x 1.915410 -0.000170 -0.005570 
#    y -0.000170 1.915050 0.008290 
#    z -0.005570 0.008290 1.926090 
# 
# From -- ./inp_files/101632.got.cif
#   From: 2010.06.25/outbox.cif.g09.slc.cpg/sg2_51_cif.got.tgz:101632.got - 2010.06.27 13:26:56.
