data_PCOD8021267
_publ_section_title
;
Structure prediction by ZEFSAII (Michael W. Deem and Ramdas Pophale) SiO2 
 PCOD8021267
Probable space group: P -1
;
_chemical_formula_sum "Si O2"
_cell_formula_units_Z 16
_cell_length_a 11.834917
_cell_length_b 20.026056
_cell_length_c 9.087325
_cell_angle_alpha 68.319269
_cell_angle_beta 37.693716
_cell_angle_gamma 40.732469
_cell_volume 701.889190
_symmetry_space_group_name_H-M "P -1"
_symmetry_group_IT_number 2
_symmetry_cell_setting 'triclinic'
loop_
_space_group_symop_operation_xyz
x,y,z
-x,-y,-z
loop_
_atom_site_type_symbol
_atom_site_label
_atom_site_fract_x
_atom_site_fract_y
_atom_site_fract_z
Si Si1 0.666161 0.247917 0.114499
Si Si2 0.351871 0.709527 0.574890
Si Si3 0.355900 0.967301 0.665958
Si Si4 0.785183 0.775077 0.119344
Si Si5 0.331119 0.857060 0.299294
Si Si6 0.385016 0.225635 0.229746
Si Si7 0.303468 0.617651 0.203529
Si Si8 0.670856 0.503337 0.220347
O O1 0.539872 0.313794 0.349604
O O2 0.381669 0.292821 0.294688
O O3 0.758974 0.288570 0.893550
O O4 0.973656 0.096164 0.928456
O O5 0.259038 0.814351 0.515794
O O6 0.650934 0.581888 0.276166
O O7 0.034075 0.761008 0.858391
O O8 0.536434 0.865630 0.434861
O O9 0.416185 0.906011 0.805897
O O10 0.500000 0.000000 0.500000
O O11 0.584124 0.832485 0.129809
O O12 0.968730 0.640028 0.067824
O O13 0.455568 0.792337 0.065511
O O14 0.000000 0.000000 0.500000
O O15 0.031923 0.313902 0.476375
O O16 0.480955 0.576996 0.205813
O O17 0.500000 0.500000 0.000000
O O18 0.500000 0.500000 0.500000
#
# Coordination Sequence:
#
# PCOD8021267 Si02
#       8
#     2   2   2   2   2   2   2   2
#     4  12  25  43  73 104 139 184 233 285 346 414
#     4  11  23  44  68 100 139 185 230 276 343 414
#     4  12  22  44  72 100 136 182 230 285 353 409
#     4  11  24  46  71  96 135 184 227 286 347 404
#     4  12  27  43  68 106 144 180 227 283 345 418
#     4  12  25  44  68 104 142 178 230 292 346 410
#     4  12  25  45  71 102 138 179 238 289 343 410
#     4  10  22  43  69  96 133 180 227 276 340 411
#
# _framework density 22.795621000000001
#
# number of rings (size 3 to 8) (size 9 to 14) (size 15 to 20)
#    0.000    0.500    2.500    7.125    0.000    1.500 
#    0.000    3.750    0.000    0.000    0.000    0.000 
#    0.000    0.000    0.000    0.000    0.000    0.000 
#
# Total GULP energy -198436.481263 kJ/mol
# GULP energy per Si atom -12402.280079 kJ/mol
# Density = 2.274374 g / cm^3
# Si number density = 22.795621 Si / 1000 Ang^3
#
#
#
# Elastic Constant Matrix: (Units=GPa)
#
#
# Indices 1 2 3 4 5 6 
#
# 1 166.4736 42.5961 52.6505 7.5101 21.7525 -9.1376
# 2 42.5961 87.4271 41.6331 7.5817 9.4934 -11.2381
# 3 52.6505 41.6331 86.4757 9.4113 20.4845 -6.3782
# 4 7.5101 7.5817 9.4113 47.9786 2.9494 4.1233
# 5 21.7525 9.4934 20.4845 2.9494 43.2002 0.0750
# 6 -9.1376 -11.2381 -6.3782 4.1233 0.0750 38.2957
#
#
#
# Elastic Compliance Matrix: (Units=1/GPa)
#
#
# Indices 1 2 3 4 5 6 
#
# 1 0.007853 -0.001915 -0.003316 -0.000224 -0.001947 0.000788
# 2 -0.001915 0.015791 -0.006172 -0.001298 0.000504 0.003288
# 3 -0.003316 -0.006172 0.018077 -0.001770 -0.005426 0.000610
# 4 -0.000224 -0.001298 -0.001770 0.021708 -0.000239 -0.003066
# 5 -0.001947 0.000504 -0.005426 -0.000239 0.026609 -0.001247
# 6 0.000788 0.003288 0.000610 -0.003066 -0.001247 0.027699
#
#
# Mechanical properties :
#
#
# Convention : Reuss Voigt Hill
#
# Bulk Modulus (GPa) = 52.86573 68.23731 60.55152
# Shear Modulus (GPa) = 34.04852 39.46136 36.75494
#
# Velocity S-wave (km/s) = 3.86896 4.16516 4.01979
# Velocity P-wave (km/s) = 6.57267 7.28908 6.94013
#
# Compressibility (1/GPa) = 0.01891585
#
# Stress axis : x y z
#
# Youngs Moduli (GPa) = 127.33215 63.32797 55.31875
#
# Poissons Ratio (x) = 0.12129 0.18342
# Poissons Ratio (y) = 0.24388 0.34142
# Poissons Ratio (z) = 0.42219 0.39085
#
# Static dielectric constant tensor:
#      x y z
#    x 4.084980 0.308490 -0.210390 
#    y 0.308490 5.085090 0.356650 
#    z -0.210390 0.356650 3.743770 
# 
# 
# High freq. dielectric constant tensor:
#      x y z
#    x 1.913960 0.002240 0.006440 
#    y 0.002240 1.907500 -0.002850 
#    z 0.006440 -0.002850 1.904000 
# 
# From -- ./inp_files/283009.got.cif
#   From: 2010.06.25/outbox.cif.g09.slc.cpg/sg2_142_cif.got.tgz:283009.got - 2010.06.27 13:26:56.
