data_PCOD8021118
_publ_section_title
;
Structure prediction by ZEFSAII (Michael W. Deem and Ramdas Pophale) SiO2 
 PCOD8021118
Probable space group: P -1
;
_chemical_formula_sum "Si O2"
_cell_formula_units_Z 16
_cell_length_a 22.552346
_cell_length_b 7.836923
_cell_length_c 5.401739
_cell_angle_alpha 68.269135
_cell_angle_beta 58.475665
_cell_angle_gamma 57.363596
_cell_volume 680.117805
_symmetry_space_group_name_H-M "P -1"
_symmetry_group_IT_number 2
_symmetry_cell_setting 'triclinic'
loop_
_space_group_symop_operation_xyz
x,y,z
-x,-y,-z
loop_
_atom_site_type_symbol
_atom_site_label
_atom_site_fract_x
_atom_site_fract_y
_atom_site_fract_z
Si Si1 0.696930 0.159108 0.269979
Si Si2 0.016335 0.796931 0.713568
Si Si3 0.535360 0.173893 0.582084
Si Si4 0.142915 0.078211 0.829191
Si Si5 0.855717 0.321215 0.149233
Si Si6 0.088141 0.435132 0.417081
Si Si7 0.299806 0.612399 0.356581
Si Si8 0.460857 0.257208 0.199804
O O1 0.626808 0.099123 0.432980
O O2 0.692908 0.260855 0.492757
O O3 0.777721 0.949683 0.196560
O O4 0.693947 0.298301 0.969863
O O5 0.057511 0.810179 0.868314
O O6 0.081004 0.589127 0.571873
O O7 0.000000 0.000000 0.500000
O O8 0.934732 0.781285 0.924341
O O9 0.499864 0.302739 0.336977
O O10 0.517295 0.980376 0.722794
O O11 0.495000 0.308321 0.843879
O O12 0.132494 0.196647 0.525952
O O13 0.150956 0.847826 0.924017
O O14 0.782473 0.399273 0.452350
O O15 0.856664 0.523457 0.919406
O O16 0.000000 0.500000 0.500000
O O17 0.368915 0.387007 0.343184
#
# Coordination Sequence:
#
# PCOD8021118 Si02
#       8
#     2   2   2   2   2   2   2   2
#     4  11  25  45  66 102 136 176 226 283 336 407
#     4  12  22  41  69  90 133 179 221 286 338 401
#     4  10  22  43  68 100 138 174 224 275 337 402
#     4  11  24  45  64  99 135 174 228 287 341 406
#     4  11  25  45  64  95 136 176 225 288 338 404
#     4  12  25  43  66  99 126 180 238 277 347 409
#     4  11  25  44  68 100 138 177 227 276 346 403
#     4  10  22  43  68  99 136 179 220 275 338 408
#
# _framework density 23.525334999999998
#
# number of rings (size 3 to 8) (size 9 to 14) (size 15 to 20)
#    0.000    1.000    2.500    3.750    1.750    5.000 
#   11.250    0.000    0.000    0.000    0.000    0.000 
#    0.000    0.000    0.000    0.000    0.000    0.000 
#
# Total GULP energy -198265.318828 kJ/mol
# GULP energy per Si atom -12391.582427 kJ/mol
# Density = 2.347179 g / cm^3
# Si number density = 23.525335 Si / 1000 Ang^3
#
#
#
# Elastic Constant Matrix: (Units=GPa)
#
#
# Indices 1 2 3 4 5 6 
#
# 1 110.6815 32.0262 59.4268 1.5322 -7.1252 -33.7831
# 2 32.0262 64.0897 21.7299 -1.0023 -1.0739 -24.4307
# 3 59.4268 21.7299 131.8662 -0.8035 -3.4725 -13.3251
# 4 1.5322 -1.0023 -0.8035 43.0947 -7.3456 -9.6748
# 5 -7.1252 -1.0739 -3.4725 -7.3456 49.3672 1.3852
# 6 -33.7831 -24.4307 -13.3251 -9.6748 1.3852 39.6940
#
#
#
# Elastic Compliance Matrix: (Units=1/GPa)
#
#
# Indices 1 2 3 4 5 6 
#
# 1 0.016164 -0.001796 -0.005799 0.002100 0.001886 0.011151
# 2 -0.001796 0.021684 -0.001514 0.003302 0.000258 0.012105
# 3 -0.005799 -0.001514 0.010190 -0.000219 -0.000116 -0.002496
# 4 0.002100 0.003302 -0.000219 0.026118 0.003966 0.009973
# 5 0.001886 0.000258 -0.000116 0.003966 0.021061 0.001956
# 6 0.011151 0.012105 -0.002496 0.009973 0.001956 0.043659
#
#
# Mechanical properties :
#
#
# Convention : Reuss Voigt Hill
#
# Bulk Modulus (GPa) = 33.53437 59.22259 46.37848
# Shear Modulus (GPa) = 29.93397 39.32814 34.63106
#
# Velocity S-wave (km/s) = 3.57096 4.09312 3.84093
# Velocity P-wave (km/s) = 5.59356 6.89687 6.27912
#
# Compressibility (1/GPa) = 0.02982015
#
# Stress axis : x y z
#
# Youngs Moduli (GPa) = 61.86433 46.11653 98.13696
#
# Poissons Ratio (x) = 0.08282 0.56914
# Poissons Ratio (y) = 0.11110 0.14856
# Poissons Ratio (z) = 0.35878 0.06981
#
# Static dielectric constant tensor:
#      x y z
#    x 4.659950 -0.090650 0.112740 
#    y -0.090650 4.326530 0.274960 
#    z 0.112740 0.274960 4.693550 
# 
# 
# High freq. dielectric constant tensor:
#      x y z
#    x 1.935930 -0.012310 -0.002750 
#    y -0.012310 1.920380 -0.000440 
#    z -0.002750 -0.000440 1.941030 
# 
# From -- ./inp_files/122815.got.cif
#   From: 2010.06.25/outbox.cif.g09.slc.cpg/sg2_62_cif.got.tgz:122815.got - 2010.06.27 13:26:56.
