data_PCOD8021846
_publ_section_title
;
Structure prediction by ZEFSAII (Michael W. Deem and Ramdas Pophale) SiO2 
 PCOD8021846
Probable space group: P -1
;
_chemical_formula_sum "Si O2"
_cell_formula_units_Z 16
_cell_length_a 15.058806
_cell_length_b 10.213618
_cell_length_c 9.131035
_cell_angle_alpha 42.340740
_cell_angle_beta 51.648005
_cell_angle_gamma 52.051454
_cell_volume 708.571575
_symmetry_space_group_name_H-M "P -1"
_symmetry_group_IT_number 2
_symmetry_cell_setting 'triclinic'
loop_
_space_group_symop_operation_xyz
x,y,z
-x,-y,-z
loop_
_atom_site_type_symbol
_atom_site_label
_atom_site_fract_x
_atom_site_fract_y
_atom_site_fract_z
Si Si1 0.753904 0.987826 0.570232
Si Si2 0.940485 0.740627 0.371871
Si Si3 0.783217 0.672488 0.356242
Si Si4 0.180225 0.724538 0.209839
Si Si5 0.672781 0.370875 0.152968
Si Si6 0.451888 0.201114 0.063635
Si Si7 0.718662 0.995212 0.925269
Si Si8 0.529606 0.762494 0.666484
O O1 0.856409 0.804036 0.547029
O O2 0.625977 0.951852 0.709071
O O3 0.753451 0.201545 0.320054
O O4 0.785091 0.993581 0.705682
O O5 0.855328 0.804436 0.262829
O O6 0.000000 0.500000 0.500000
O O7 0.047650 0.844152 0.185785
O O8 0.846298 0.430551 0.510874
O O9 0.661995 0.672200 0.555083
O O10 0.756983 0.765064 0.142936
O O11 0.245561 0.868137 0.102264
O O12 0.256002 0.618396 0.078417
O O13 0.555303 0.309068 0.293863
O O14 0.630156 0.590131 0.102042
O O15 0.483519 0.298793 0.101562
O O16 0.577226 0.076902 0.965168
O O17 0.500000 0.000000 0.500000
#
# Coordination Sequence:
#
# PCOD8021846 Si02
#       8
#     2   2   2   2   2   2   2   2
#     4  12  26  43  60  93 131 167 202 249 316 373
#     4  10  22  44  69  90 117 158 216 267 304 355
#     4  11  21  40  65  92 121 159 210 262 302 356
#     4  11  23  40  64  94 117 159 215 264 304 354
#     4  12  23  38  68  94 124 162 211 259 298 361
#     4  12  22  39  63  95 128 163 208 251 305 365
#     4  12  26  39  62  93 134 168 196 247 317 381
#     4  12  17  34  65  95 121 155 203 265 303 351
#
# _framework density 22.580639999999999
#
# number of rings (size 3 to 8) (size 9 to 14) (size 15 to 20)
#    0.000    0.500    6.250    3.000    0.000    4.000 
#    0.000    2.500    0.000    0.000    0.000    0.000 
#    0.000    0.000    0.000    0.000    0.000    0.000 
#
# Total GULP energy -198245.619629 kJ/mol
# GULP energy per Si atom -12390.351227 kJ/mol
# Density = 2.252925 g / cm^3
# Si number density = 22.580640 Si / 1000 Ang^3
#
#
#
# Elastic Constant Matrix: (Units=GPa)
#
#
# Indices 1 2 3 4 5 6 
#
# 1 77.4247 15.6804 28.2064 11.2975 -6.0509 -23.5535
# 2 15.6804 80.3464 41.0369 3.2365 15.5921 -19.8439
# 3 28.2064 41.0369 104.1120 -20.4554 23.4922 -7.8199
# 4 11.2975 3.2365 -20.4554 28.3966 -4.9054 -6.3701
# 5 -6.0509 15.5921 23.4922 -4.9054 43.5253 6.9070
# 6 -23.5535 -19.8439 -7.8199 -6.3701 6.9070 21.0030
#
#
#
# Elastic Compliance Matrix: (Units=1/GPa)
#
#
# Indices 1 2 3 4 5 6 
#
# 1 0.025442 0.007574 -0.010249 -0.011979 0.000553 0.028056
# 2 0.007574 0.024701 -0.009221 -0.007420 -0.008235 0.028856
# 3 -0.010249 -0.009221 0.020560 0.017691 -0.006419 -0.005074
# 4 -0.011979 -0.007420 0.017691 0.053823 -0.003040 0.003467
# 5 0.000553 -0.008235 -0.006419 -0.003040 0.032481 -0.021153
# 6 0.028056 0.028856 -0.005074 0.003467 -0.021153 0.112458
#
#
# Mechanical properties :
#
#
# Convention : Reuss Voigt Hill
#
# Bulk Modulus (GPa) = 21.31695 47.97005 34.64350
# Shear Modulus (GPa) = 16.18678 30.38229 23.28453
#
# Velocity S-wave (km/s) = 2.68030 3.67209 3.21467
# Velocity P-wave (km/s) = 4.36343 6.26650 5.39947
#
# Compressibility (1/GPa) = 0.04691102
#
# Stress axis : x y z
#
# Youngs Moduli (GPa) = 39.30504 40.48387 48.63917
#
# Poissons Ratio (x) = -0.30663 0.49852
# Poissons Ratio (y) = -0.29770 0.44848
# Poissons Ratio (z) = 0.40285 0.37329
#
# Static dielectric constant tensor:
#      x y z
#    x 4.079390 -0.264050 -0.057990 
#    y -0.264050 4.121290 -0.258300 
#    z -0.057990 -0.258300 4.102780 
# 
# 
# High freq. dielectric constant tensor:
#      x y z
#    x 1.887840 -0.019110 -0.005440 
#    y -0.019110 1.881090 -0.019860 
#    z -0.005440 -0.019860 1.883480 
# 
# From -- ./inp_files/306145.got.cif
#   From: 2010.06.25/outbox.cif.g09.slc.cpg/sg2_154_cif.got.tgz:306145.got - 2010.06.27 13:26:56.
