data_PCOD8021157
_publ_section_title
;
Structure prediction by ZEFSAII (Michael W. Deem and Ramdas Pophale) SiO2 
 PCOD8021157
Probable space group: P -1
;
_chemical_formula_sum "Si O2"
_cell_formula_units_Z 16
_cell_length_a 13.096614
_cell_length_b 8.515721
_cell_length_c 11.328497
_cell_angle_alpha 110.588007
_cell_angle_beta 145.779809
_cell_angle_gamma 77.767036
_cell_volume 657.635891
_symmetry_space_group_name_H-M "P -1"
_symmetry_group_IT_number 2
_symmetry_cell_setting 'triclinic'
loop_
_space_group_symop_operation_xyz
x,y,z
-x,-y,-z
loop_
_atom_site_type_symbol
_atom_site_label
_atom_site_fract_x
_atom_site_fract_y
_atom_site_fract_z
Si Si1 0.926670 0.166793 0.520028
Si Si2 0.264594 0.432798 0.865524
Si Si3 0.839526 0.787394 0.750313
Si Si4 0.640089 0.013605 0.873838
Si Si5 0.602029 0.266411 0.093924
Si Si6 0.792065 0.306848 0.937295
Si Si7 0.516337 0.310966 0.496048
Si Si8 0.995313 0.069733 0.809023
O O1 0.724302 0.188138 0.286735
O O2 0.908031 0.169905 0.647431
O O3 0.063895 0.325517 0.641924
O O4 0.000000 0.000000 0.500000
O O5 0.289455 0.558799 0.810357
O O6 0.415005 0.306078 0.984042
O O7 0.290689 0.544413 0.037752
O O8 0.624930 0.718464 0.534952
O O9 0.846028 0.928827 0.691156
O O10 0.986632 0.662945 0.822758
O O11 0.904081 0.829730 0.957663
O O12 0.699154 0.119034 0.838864
O O13 0.524523 0.829956 0.683259
O O14 0.536449 0.123303 0.893745
O O15 0.837130 0.998835 0.119059
O O16 0.726352 0.307503 0.738335
O O17 0.500000 0.500000 0.500000
#
# Coordination Sequence:
#
# PCOD8021157 Si02
#       8
#     2   2   2   2   2   2   2   2
#     4  12  24  42  69 104 136 177 235 291 346 403
#     4  10  25  45  68  98 144 182 236 283 339 412
#     4   9  21  44  67  92 135 178 221 273 349 409
#     4   9  19  42  69  93 139 176 227 275 337 419
#     4  10  22  48  69  99 137 193 227 284 345 403
#     4  10  22  43  68  94 131 185 225 279 338 405
#     4  11  24  40  67 107 135 168 224 286 351 412
#     4   9  19  41  68  98 129 174 228 285 332 411
#
# _framework density 24.329571999999999
#
# number of rings (size 3 to 8) (size 9 to 14) (size 15 to 20)
#    0.000    2.000    1.250    1.500    3.500    2.000 
#   11.250    1.250    0.000    0.000    0.000    0.000 
#    0.000    0.000    0.000    0.000    0.000    0.000 
#
# Total GULP energy -198209.730969 kJ/mol
# GULP energy per Si atom -12388.108186 kJ/mol
# Density = 2.427420 g / cm^3
# Si number density = 24.329572 Si / 1000 Ang^3
#
#
#
# Elastic Constant Matrix: (Units=GPa)
#
#
# Indices 1 2 3 4 5 6 
#
# 1 85.0634 22.2999 9.2321 -2.9605 -3.7203 -8.0167
# 2 22.2999 110.3616 31.3370 -0.4074 -8.3621 -12.8387
# 3 9.2321 31.3370 63.9524 -11.8453 -3.9939 0.4061
# 4 -2.9605 -0.4074 -11.8453 47.8330 5.1638 -2.1384
# 5 -3.7203 -8.3621 -3.9939 5.1638 31.6011 -3.0270
# 6 -8.0167 -12.8387 0.4061 -2.1384 -3.0270 35.1434
#
#
#
# Elastic Compliance Matrix: (Units=1/GPa)
#
#
# Indices 1 2 3 4 5 6 
#
# 1 0.012637 -0.002019 -0.000678 0.000592 0.000989 0.002274
# 2 -0.002019 0.011733 -0.005592 -0.001531 0.002797 0.004038
# 3 -0.000678 -0.005592 0.019338 0.004611 -0.000075 -0.002147
# 4 0.000592 -0.001531 0.004611 0.022462 -0.003366 0.000599
# 5 0.000989 0.002797 -0.000075 -0.003366 0.033417 0.003922
# 6 0.002274 0.004038 -0.002147 0.000599 0.003922 0.030848
#
#
# Mechanical properties :
#
#
# Convention : Reuss Voigt Hill
#
# Bulk Modulus (GPa) = 36.86101 42.79060 39.82581
# Shear Modulus (GPa) = 32.03956 36.01605 34.02781
#
# Velocity S-wave (km/s) = 3.63285 3.85169 3.74387
# Velocity P-wave (km/s) = 5.72541 6.11611 5.92398
#
# Compressibility (1/GPa) = 0.02712893
#
# Stress axis : x y z
#
# Youngs Moduli (GPa) = 79.13241 85.22839 51.71206
#
# Poissons Ratio (x) = 0.17211 0.03505
# Poissons Ratio (y) = 0.15980 0.28919
# Poissons Ratio (z) = 0.05364 0.47663
#
# Static dielectric constant tensor:
#      x y z
#    x 4.724220 -0.271650 0.352010 
#    y -0.271650 4.586160 -0.244440 
#    z 0.352010 -0.244440 4.216600 
# 
# 
# High freq. dielectric constant tensor:
#      x y z
#    x 1.966330 -0.009390 0.005490 
#    y -0.009390 1.967910 -0.013170 
#    z 0.005490 -0.013170 1.951010 
# 
# From -- ./inp_files/447967.got.cif
#   From: 2010.06.25/outbox.cif.g09.slc.cpg/sg2_224_cif.got.tgz:447967.got - 2010.06.27 13:26:56.
