data_PCOD8021720
_publ_section_title
;
Structure prediction by ZEFSAII (Michael W. Deem and Ramdas Pophale) SiO2 
 PCOD8021720
Probable space group: P -1
;
_chemical_formula_sum "Si O2"
_cell_formula_units_Z 14
_cell_length_a 6.509904
_cell_length_b 12.156107
_cell_length_c 13.620076
_cell_angle_alpha 135.505983
_cell_angle_beta 119.915051
_cell_angle_gamma 61.734272
_cell_volume 642.303387
_symmetry_space_group_name_H-M "P -1"
_symmetry_group_IT_number 2
_symmetry_cell_setting 'triclinic'
loop_
_space_group_symop_operation_xyz
x,y,z
-x,-y,-z
loop_
_atom_site_type_symbol
_atom_site_label
_atom_site_fract_x
_atom_site_fract_y
_atom_site_fract_z
Si Si1 0.983528 0.751986 0.411499
Si Si2 0.839073 0.137575 0.111533
Si Si3 0.472987 0.791370 0.233147
Si Si4 0.976785 0.001636 0.265220
Si Si5 0.347645 0.584275 0.239482
Si Si6 0.880423 0.487434 0.359024
Si Si7 0.357740 0.245423 0.964969
O O1 0.714219 0.831815 0.364399
O O2 0.083748 0.883838 0.582510
O O3 0.997493 0.589113 0.372597
O O4 0.149395 0.712055 0.330106
O O5 0.925683 0.304264 0.215993
O O6 0.860309 0.102022 0.208717
O O7 0.560880 0.147663 0.022478
O O8 0.000000 0.000000 0.000000
O O9 0.388539 0.651140 0.184521
O O10 0.519824 0.731631 0.095375
O O11 0.265033 0.950710 0.286329
O O12 0.862869 0.845635 0.155551
O O13 0.593983 0.555056 0.342921
O O14 0.252851 0.419426 0.096321
O O15 0.000000 0.500000 0.500000
#
# Coordination Sequence:
#
# PCOD8021720 Si02
#       7
#     2   2   2   2   2   2   2
#     4  11  25  44  67 100 130 174 218 268 322 390
#     4  11  23  44  68  97 131 171 216 269 328 384
#     4  11  24  44  69  94 132 173 223 268 321 381
#     4  12  25  42  68  98 135 170 218 269 327 385
#     4  10  25  43  67  98 132 169 222 266 325 388
#     4  10  22  44  67  94 131 173 214 264 324 385
#     4  11  25  43  68  99 130 173 216 272 325 387
#
# _framework density 21.796552999999999
#
# number of rings (size 3 to 8) (size 9 to 14) (size 15 to 20)
#    0.000    1.143    2.857    2.143    2.000    9.714 
#    0.000    0.000    0.000    0.000    0.000    0.000 
#    0.000    0.000    0.000    0.000    0.000    0.000 
#
# Total GULP energy -173687.454923 kJ/mol
# GULP energy per Si atom -12406.246780 kJ/mol
# Density = 2.174694 g / cm^3
# Si number density = 21.796553 Si / 1000 Ang^3
#
#
#
# Elastic Constant Matrix: (Units=GPa)
#
#
# Indices 1 2 3 4 5 6 
#
# 1 97.2614 38.5509 51.9330 -5.1843 -1.4617 -7.4286
# 2 38.5509 95.7552 48.4009 -23.9937 7.9509 -9.3917
# 3 51.9330 48.4009 137.9288 1.5097 0.2860 -11.0039
# 4 -5.1843 -23.9937 1.5097 37.7417 3.7276 -1.9353
# 5 -1.4617 7.9509 0.2860 3.7276 34.7621 5.5281
# 6 -7.4286 -9.3917 -11.0039 -1.9353 5.5281 28.0382
#
#
#
# Elastic Compliance Matrix: (Units=1/GPa)
#
#
# Indices 1 2 3 4 5 6 
#
# 1 0.013891 -0.003845 -0.003833 -0.000498 0.001459 0.000566
# 2 -0.003845 0.018594 -0.004761 0.012415 -0.006581 0.005495
# 3 -0.003833 -0.004761 0.010486 -0.004031 0.001114 0.001007
# 4 -0.000498 0.012415 -0.004031 0.035567 -0.007661 0.006410
# 5 0.001459 -0.006581 0.001114 -0.007661 0.032467 -0.008311
# 6 0.000566 0.005495 0.001007 0.006410 -0.008311 0.040133
#
#
# Mechanical properties :
#
#
# Convention : Reuss Voigt Hill
#
# Bulk Modulus (GPa) = 55.27179 67.63499 61.45339
# Shear Modulus (GPa) = 27.46523 32.91244 30.18883
#
# Velocity S-wave (km/s) = 3.55360 3.89007 3.72563
# Velocity P-wave (km/s) = 6.50004 7.16061 6.83831
#
# Compressibility (1/GPa) = 0.01809241
#
# Stress axis : x y z
#
# Youngs Moduli (GPa) = 71.98828 53.78035 95.36288
#
# Poissons Ratio (x) = 0.20681 0.36556
# Poissons Ratio (y) = 0.27682 0.45401
# Poissons Ratio (z) = 0.27595 0.25604
#
# Static dielectric constant tensor:
#      x y z
#    x 3.844080 -0.072250 0.103230 
#    y -0.072250 4.185600 -0.162790 
#    z 0.103230 -0.162790 3.930550 
# 
# 
# High freq. dielectric constant tensor:
#      x y z
#    x 1.845370 -0.003810 0.005340 
#    y -0.003810 1.875010 -0.009350 
#    z 0.005340 -0.009350 1.865580 
# 
# From -- ./inp_files/34128.got.cif
#   From: 2010.06.25/outbox.cif.g09.slc.cpg/sg2_18_cif.got.tgz:34128.got - 2010.06.27 13:26:56.
