data_PCOD8021681
_publ_section_title
;
Structure prediction by ZEFSAII (Michael W. Deem and Ramdas Pophale) SiO2 
 PCOD8021681
Probable space group: P -1
;
_chemical_formula_sum "Si O2"
_cell_formula_units_Z 16
_cell_length_a 14.429797
_cell_length_b 13.959593
_cell_length_c 14.572016
_cell_angle_alpha 147.714942
_cell_angle_beta 128.161318
_cell_angle_gamma 29.591688
_cell_volume 693.514551
_symmetry_space_group_name_H-M "P -1"
_symmetry_group_IT_number 2
_symmetry_cell_setting 'triclinic'
loop_
_space_group_symop_operation_xyz
x,y,z
-x,-y,-z
loop_
_atom_site_type_symbol
_atom_site_label
_atom_site_fract_x
_atom_site_fract_y
_atom_site_fract_z
Si Si1 0.147443 0.731808 0.796323
Si Si2 0.096300 0.445906 0.817061
Si Si3 0.218868 0.688963 0.465109
Si Si4 0.428292 0.664603 0.185643
Si Si5 0.078875 0.865561 0.197496
Si Si6 0.740028 0.755886 0.447759
Si Si7 0.747108 0.705396 0.917441
Si Si8 0.342658 0.929022 0.685513
O O1 0.381963 0.509337 0.775889
O O2 0.143377 0.518787 0.629638
O O3 0.074565 0.882096 0.773887
O O4 0.000000 0.000000 0.000000
O O5 0.139982 0.428599 0.723798
O O6 0.864437 0.652504 0.859745
O O7 0.281111 0.080138 0.669835
O O8 0.106831 0.618426 0.017691
O O9 0.171816 0.605099 0.285474
O O10 0.271038 0.814250 0.555752
O O11 0.411048 0.370107 0.385930
O O12 0.017301 0.947188 0.614772
O O13 0.308983 0.659771 0.163558
O O14 0.258749 0.034915 0.359075
O O15 0.500000 0.500000 0.000000
O O16 0.500000 0.000000 0.500000
O O17 0.500000 0.000000 0.000000
O O18 0.794998 0.768175 0.086216
#
# Coordination Sequence:
#
# PCOD8021681 Si02
#       8
#     2   2   2   2   2   2   2   2
#     4  11  22  45  68  93 138 183 220 290 344 392
#     4  12  23  43  68  98 135 176 223 285 346 403
#     4  10  23  44  67  97 132 176 226 280 345 413
#     4  11  23  44  65  99 135 178 235 278 338 415
#     4  12  24  43  68 100 137 179 229 279 345 413
#     4  10  23  42  68  96 135 176 226 282 341 410
#     4  10  22  44  66  96 134 174 227 280 343 414
#     4  10  23  44  68  93 137 173 220 288 342 405
#
# _framework density 23.070893000000002
#
# number of rings (size 3 to 8) (size 9 to 14) (size 15 to 20)
#    0.000    1.250    3.750    1.875    3.500    1.000 
#    6.750    0.000    0.000    0.000    0.000    0.000 
#    0.000    0.000    0.000    0.000    0.000    0.000 
#
# Total GULP energy -198304.278673 kJ/mol
# GULP energy per Si atom -12394.017417 kJ/mol
# Density = 2.301838 g / cm^3
# Si number density = 23.070893 Si / 1000 Ang^3
#
#
#
# Elastic Constant Matrix: (Units=GPa)
#
#
# Indices 1 2 3 4 5 6 
#
# 1 118.3723 21.8480 36.4381 13.7587 12.2879 -21.5537
# 2 21.8480 68.6801 -10.7651 27.3138 8.3665 -2.6803
# 3 36.4381 -10.7651 146.8861 0.3009 21.0654 -12.1986
# 4 13.7587 27.3138 0.3009 27.9650 -5.4626 2.9219
# 5 12.2879 8.3665 21.0654 -5.4626 48.8431 8.2312
# 6 -21.5537 -2.6803 -12.1986 2.9219 8.2312 42.3982
#
#
#
# Elastic Compliance Matrix: (Units=1/GPa)
#
#
# Indices 1 2 3 4 5 6 
#
# 1 0.011424 -0.000685 -0.001797 -0.006340 -0.003772 0.006417
# 2 -0.000685 0.030056 0.004761 -0.032169 -0.011882 0.007446
# 3 -0.001797 0.004761 0.008631 -0.005216 -0.005215 0.003242
# 4 -0.006340 -0.032169 -0.005216 0.076040 0.020554 -0.015988
# 5 -0.003772 -0.011882 -0.005215 0.020554 0.029927 -0.011396
# 6 0.006417 0.007446 0.003242 -0.015988 -0.011396 0.031566
#
#
# Mechanical properties :
#
#
# Convention : Reuss Voigt Hill
#
# Bulk Modulus (GPa) = 18.29199 47.66448 32.97824
# Shear Modulus (GPa) = 24.83748 42.93578 33.88663
#
# Velocity S-wave (km/s) = 3.28468 4.31865 3.83666
# Velocity P-wave (km/s) = 4.72560 6.75074 5.82683
#
# Compressibility (1/GPa) = 0.05466873
#
# Stress axis : x y z
#
# Youngs Moduli (GPa) = 87.53174 33.27131 115.86511
#
# Poissons Ratio (x) = 0.02278 0.20826
# Poissons Ratio (y) = 0.05993 -0.55162
# Poissons Ratio (z) = 0.15733 -0.15840
#
# Static dielectric constant tensor:
#      x y z
#    x 4.355300 -0.067610 0.335260 
#    y -0.067610 4.197510 0.213320 
#    z 0.335260 0.213320 4.779550 
# 
# 
# High freq. dielectric constant tensor:
#      x y z
#    x 1.918480 -0.015200 0.010560 
#    y -0.015200 1.897110 0.012430 
#    z 0.010560 0.012430 1.934780 
# 
# From -- ./inp_files/534582.got.cif
#   From: 2010.06.25/outbox.cif.g09.slc.cpg/sg2_268_cif.got.tgz:534582.got - 2010.06.27 13:26:56.
