data_PCOD8021390
_publ_section_title
;
Structure prediction by ZEFSAII (Michael W. Deem and Ramdas Pophale) SiO2 
 PCOD8021390
Probable space group: P -1
;
_chemical_formula_sum "Si O2"
_cell_formula_units_Z 16
_cell_length_a 6.652101
_cell_length_b 12.812003
_cell_length_c 13.646172
_cell_angle_alpha 128.081730
_cell_angle_beta 61.806860
_cell_angle_gamma 86.142666
_cell_volume 690.641581
_symmetry_space_group_name_H-M "P -1"
_symmetry_group_IT_number 2
_symmetry_cell_setting 'triclinic'
loop_
_space_group_symop_operation_xyz
x,y,z
-x,-y,-z
loop_
_atom_site_type_symbol
_atom_site_label
_atom_site_fract_x
_atom_site_fract_y
_atom_site_fract_z
Si Si1 0.194392 0.536956 0.361179
Si Si2 0.846278 0.143791 0.855964
Si Si3 0.346991 0.725197 0.218615
Si Si4 0.917602 0.636569 0.284656
Si Si5 0.382240 0.897132 0.498421
Si Si6 0.786425 0.755642 0.727434
Si Si7 0.270333 0.531116 0.893862
Si Si8 0.779840 0.006842 0.986386
O O1 0.253723 0.384185 0.315021
O O2 0.471137 0.527339 0.269897
O O3 0.031368 0.546014 0.307024
O O4 0.013763 0.693784 0.556020
O O5 0.633056 0.202554 0.848145
O O6 0.730352 0.102882 0.952503
O O7 0.894401 0.284193 0.951642
O O8 0.119818 0.990626 0.677366
O O9 0.315215 0.833812 0.379782
O O10 0.605397 0.553455 0.078389
O O11 0.075687 0.721245 0.266427
O O12 0.602658 0.761426 0.437790
O O13 0.935959 0.516036 0.127355
O O14 0.500000 0.000000 0.500000
O O15 0.868070 0.828911 0.840367
O O16 0.502836 0.898915 0.836783
O O17 0.000000 0.000000 0.000000
#
# Coordination Sequence:
#
# PCOD8021390 Si02
#       8
#     2   2   2   2   2   2   2   2
#     4  10  22  43  71  92 128 177 221 274 327 382
#     4  12  24  43  69  93 136 179 210 276 332 385
#     4  10  23  45  67  97 137 170 223 265 322 403
#     4  10  23  41  67  98 133 170 222 264 320 403
#     4  11  24  43  64 103 134 171 219 264 329 403
#     4  10  24  46  67  94 128 173 227 278 325 385
#     4  10  23  43  64 103 132 169 223 262 329 402
#     4  11  27  45  64 100 135 167 225 273 332 387
#
# _framework density 23.166865000000001
#
# number of rings (size 3 to 8) (size 9 to 14) (size 15 to 20)
#    0.000    1.500    2.500    0.750    8.750    0.500 
#    6.750    2.500    0.000    0.000    0.000    0.000 
#    0.000    0.000    0.000    0.000    0.000    0.000 
#
# Total GULP energy -198352.298465 kJ/mol
# GULP energy per Si atom -12397.018654 kJ/mol
# Density = 2.311414 g / cm^3
# Si number density = 23.166865 Si / 1000 Ang^3
#
#
#
# Elastic Constant Matrix: (Units=GPa)
#
#
# Indices 1 2 3 4 5 6 
#
# 1 137.1232 16.6689 36.0982 0.8127 23.5830 7.1141
# 2 16.6689 58.1603 13.0336 1.6728 1.2964 -4.2935
# 3 36.0982 13.0336 104.9668 13.0306 11.7200 0.4590
# 4 0.8127 1.6728 13.0306 33.0988 4.6250 8.1443
# 5 23.5830 1.2964 11.7200 4.6250 28.3001 7.3119
# 6 7.1141 -4.2935 0.4590 8.1443 7.3119 27.9390
#
#
#
# Elastic Compliance Matrix: (Units=1/GPa)
#
#
# Indices 1 2 3 4 5 6 
#
# 1 0.009430 -0.002175 -0.002492 0.002182 -0.006674 -0.001584
# 2 -0.002175 0.018432 -0.001494 -0.001288 0.000879 0.003556
# 3 -0.002492 -0.001494 0.011391 -0.004548 -0.002390 0.002169
# 4 0.002182 -0.001288 -0.004548 0.034910 -0.002978 -0.010076
# 5 -0.006674 0.000879 -0.002390 -0.002978 0.044644 -0.008942
# 6 -0.001584 0.003556 0.002169 -0.010076 -0.008942 0.041984
#
#
# Mechanical properties :
#
#
# Convention : Reuss Voigt Hill
#
# Bulk Modulus (GPa) = 37.13220 47.98351 42.55786
# Shear Modulus (GPa) = 27.45890 33.49754 30.47822
#
# Velocity S-wave (km/s) = 3.44650 3.80666 3.63105
# Velocity P-wave (km/s) = 5.64808 6.33071 5.99911
#
# Compressibility (1/GPa) = 0.02693080
#
# Stress axis : x y z
#
# Youngs Moduli (GPa) = 106.04269 54.25291 87.78741
#
# Poissons Ratio (x) = 0.11801 0.21874
# Poissons Ratio (y) = 0.23067 0.13120
# Poissons Ratio (z) = 0.26422 0.08108
#
# Static dielectric constant tensor:
#      x y z
#    x 4.165440 -0.004980 -0.066410 
#    y -0.004980 4.200730 0.150750 
#    z -0.066410 0.150750 4.642580 
# 
# 
# High freq. dielectric constant tensor:
#      x y z
#    x 1.914300 0.007590 -0.000780 
#    y 0.007590 1.906610 0.013210 
#    z -0.000780 0.013210 1.934560 
# 
# From -- ./inp_files/405498.got.cif
#   From: 2010.06.25/outbox.cif.g09.slc.cpg/sg2_203_cif.got.tgz:405498.got - 2010.06.27 13:26:56.
