data_PCOD8021556
_publ_section_title
;
Structure prediction by ZEFSAII (Michael W. Deem and Ramdas Pophale) SiO2 
 PCOD8021556
Probable space group: P -1
;
_chemical_formula_sum "Si O2"
_cell_formula_units_Z 14
_cell_length_a 20.621628
_cell_length_b 7.115267
_cell_length_c 9.043903
_cell_angle_alpha 90.240434
_cell_angle_beta 145.306986
_cell_angle_gamma 76.154835
_cell_volume 687.398415
_symmetry_space_group_name_H-M "P -1"
_symmetry_group_IT_number 2
_symmetry_cell_setting 'triclinic'
loop_
_space_group_symop_operation_xyz
x,y,z
-x,-y,-z
loop_
_atom_site_type_symbol
_atom_site_label
_atom_site_fract_x
_atom_site_fract_y
_atom_site_fract_z
Si Si1 0.508272 0.847530 0.208090
Si Si2 0.411034 0.535364 0.470921
Si Si3 0.972115 0.581521 0.782576
Si Si4 0.569957 0.199596 0.241622
Si Si5 0.124967 0.765767 0.895346
Si Si6 0.938585 0.211435 0.559929
Si Si7 0.760365 0.036162 0.364398
O O1 0.585923 0.683428 0.476569
O O2 0.563279 0.017113 0.326752
O O3 0.530670 0.749609 0.082069
O O4 0.358387 0.944248 0.959683
O O5 0.500000 0.500000 0.500000
O O6 0.465616 0.607014 0.716422
O O7 0.272888 0.696971 0.172699
O O8 0.947894 0.410630 0.644945
O O9 0.088927 0.619600 0.936742
O O10 0.851414 0.796768 0.546499
O O11 0.000000 0.500000 0.000000
O O12 0.710006 0.125848 0.434692
O O13 0.076399 0.747294 0.642088
O O14 0.062861 0.005473 0.829362
O O15 0.821514 0.178049 0.407354
#
# Coordination Sequence:
#
# PCOD8021556 Si02
#       7
#     2   2   2   2   2   2   2
#     4   9  21  40  62  88 124 160 199 252 304 353
#     4  12  25  39  63  94 121 164 207 247 306 363
#     4  11  25  37  68  98 117 158 208 252 309 359
#     4   9  22  40  62  88 126 161 201 254 302 359
#     4  10  25  42  60  90 128 163 202 249 304 363
#     4  10  22  44  64  85 127 165 199 250 306 366
#     4   9  21  38  64  93 119 160 203 247 311 359
#
# _framework density 20.366644999999998
#
# number of rings (size 3 to 8) (size 9 to 14) (size 15 to 20)
#    0.857    1.143    0.000    1.714    6.000    4.000 
#    0.000    0.000    0.000    0.000    0.000    0.000 
#    0.000    0.000    0.000    0.000    0.000    0.000 
#
# Total GULP energy -173549.665949 kJ/mol
# GULP energy per Si atom -12396.404711 kJ/mol
# Density = 2.032029 g / cm^3
# Si number density = 20.366645 Si / 1000 Ang^3
#
#
#
# Elastic Constant Matrix: (Units=GPa)
#
#
# Indices 1 2 3 4 5 6 
#
# 1 127.4741 43.3100 23.9283 -12.4484 3.5874 11.1706
# 2 43.3100 83.0511 6.5481 -9.1298 -10.3748 2.6906
# 3 23.9283 6.5481 58.2305 -15.1421 2.8136 5.3449
# 4 -12.4484 -9.1298 -15.1421 22.0691 3.2298 -4.6912
# 5 3.5874 -10.3748 2.8136 3.2298 35.8666 -6.8167
# 6 11.1706 2.6906 5.3449 -4.6912 -6.8167 32.8257
#
#
#
# Elastic Compliance Matrix: (Units=1/GPa)
#
#
# Indices 1 2 3 4 5 6 
#
# 1 0.010798 -0.005521 -0.002964 0.001565 -0.003189 -0.003178
# 2 -0.005521 0.015829 0.001058 0.003844 0.005085 0.002014
# 3 -0.002964 0.001058 0.022181 0.014112 -0.002641 -0.001221
# 4 0.001565 0.003844 0.014112 0.059068 -0.004647 0.004331
# 5 -0.003189 0.005085 -0.002641 -0.004647 0.031627 0.007002
# 6 -0.003178 0.002014 -0.001221 0.004331 0.007002 0.033652
#
#
# Mechanical properties :
#
#
# Convention : Reuss Voigt Hill
#
# Bulk Modulus (GPa) = 29.45110 46.25871 37.85491
# Shear Modulus (GPa) = 25.08438 31.15024 28.11731
#
# Velocity S-wave (km/s) = 3.51328 3.91509 3.71962
# Velocity P-wave (km/s) = 5.56322 6.57264 6.08888
#
# Compressibility (1/GPa) = 0.03395459
#
# Stress axis : x y z
#
# Youngs Moduli (GPa) = 92.61189 63.17587 45.08302
#
# Poissons Ratio (x) = 0.34877 0.13361
# Poissons Ratio (y) = 0.51128 -0.04768
# Poissons Ratio (z) = 0.27446 -0.06682
#
# Static dielectric constant tensor:
#      x y z
#    x 3.845750 0.099590 -0.051710 
#    y 0.099590 3.731880 -0.245660 
#    z -0.051710 -0.245660 3.540060 
# 
# 
# High freq. dielectric constant tensor:
#      x y z
#    x 1.807340 0.011500 -0.003660 
#    y 0.011500 1.794010 -0.013180 
#    z -0.003660 -0.013180 1.782910 
# 
# From -- ./inp_files/340421.got.cif
#   From: 2010.06.25/outbox.cif.g09.slc.cpg/sg2_171_cif.got.tgz:340421.got - 2010.06.27 13:26:56.
