data_PCOD8021244
_publ_section_title
;
Structure prediction by ZEFSAII (Michael W. Deem and Ramdas Pophale) SiO2 
 PCOD8021244
Probable space group: P -1
;
_chemical_formula_sum "Si O2"
_cell_formula_units_Z 16
_cell_length_a 8.171044
_cell_length_b 11.087838
_cell_length_c 15.615289
_cell_angle_alpha 64.994851
_cell_angle_beta 82.151740
_cell_angle_gamma 37.321748
_cell_volume 724.240059
_symmetry_space_group_name_H-M "P -1"
_symmetry_group_IT_number 2
_symmetry_cell_setting 'triclinic'
loop_
_space_group_symop_operation_xyz
x,y,z
-x,-y,-z
loop_
_atom_site_type_symbol
_atom_site_label
_atom_site_fract_x
_atom_site_fract_y
_atom_site_fract_z
Si Si1 0.764411 0.286429 0.217791
Si Si2 0.941883 0.168440 0.729632
Si Si3 0.320816 0.950566 0.483146
Si Si4 0.198021 0.225637 0.992986
Si Si5 0.584958 0.008047 0.354270
Si Si6 0.680332 0.337404 0.396581
Si Si7 0.865337 0.229445 0.914152
Si Si8 0.885846 0.693238 0.834186
O O1 0.685865 0.275594 0.318065
O O2 0.481722 0.537888 0.118038
O O3 0.980315 0.264137 0.230481
O O4 0.911091 0.073941 0.214691
O O5 0.607715 0.381639 0.655704
O O6 0.954388 0.203024 0.817737
O O7 0.103043 0.172955 0.658094
O O8 0.457185 0.884670 0.586737
O O9 0.978178 0.220966 0.429983
O O10 0.513719 0.900593 0.413535
O O11 0.338566 0.782667 0.506990
O O12 0.967788 0.274827 0.957994
O O13 0.125503 0.424213 0.914791
O O14 0.243511 0.175767 0.105442
O O15 0.500000 0.000000 0.000000
O O16 0.353348 0.212198 0.239626
O O17 0.000000 0.000000 0.000000
#
# Coordination Sequence:
#
# PCOD8021244 Si02
#       8
#     2   2   2   2   2   2   2   2
#     4  11  22  43  65  94 134 173 221 272 325 394
#     4  11  24  40  69  98 132 178 220 271 335 395
#     4  10  22  43  69  92 136 170 219 284 330 391
#     4  11  24  42  64  95 131 170 218 272 326 394
#     4  11  22  41  66 100 130 174 217 277 339 385
#     4  10  22  44  66  95 129 177 220 274 330 392
#     4  11  24  42  68  99 133 174 224 274 326 394
#     4  11  24  41  66  92 132 177 212 268 335 391
#
# _framework density 22.092120999999999
#
# number of rings (size 3 to 8) (size 9 to 14) (size 15 to 20)
#    0.000    1.250    2.500    3.000    1.750    6.000 
#    0.000    1.250    0.000    0.000    0.000    0.000 
#    0.000    0.000    0.000    0.000    0.000    0.000 
#
# Total GULP energy -198353.302478 kJ/mol
# GULP energy per Si atom -12397.081405 kJ/mol
# Density = 2.204184 g / cm^3
# Si number density = 22.092121 Si / 1000 Ang^3
#
#
#
# Elastic Constant Matrix: (Units=GPa)
#
#
# Indices 1 2 3 4 5 6 
#
# 1 102.5735 34.2529 35.4584 -5.1268 -5.3799 -9.2532
# 2 34.2529 121.5127 40.0712 -12.7943 1.2343 -7.9143
# 3 35.4584 40.0712 96.7887 -0.6885 6.0249 -6.7289
# 4 -5.1268 -12.7943 -0.6885 33.5081 -2.8063 2.5212
# 5 -5.3799 1.2343 6.0249 -2.8063 48.7048 -1.8539
# 6 -9.2532 -7.9143 -6.7289 2.5212 -1.8539 28.9127
#
#
#
# Elastic Compliance Matrix: (Units=1/GPa)
#
#
# Indices 1 2 3 4 5 6 
#
# 1 0.012005 -0.001975 -0.003520 0.000985 0.001964 0.002522
# 2 -0.001975 0.010375 -0.003482 0.003521 0.000195 0.001103
# 3 -0.003520 -0.003482 0.013247 -0.001842 -0.002006 0.001035
# 4 0.000985 0.003521 -0.001842 0.031602 0.002001 -0.001777
# 5 0.001964 0.000195 -0.002006 0.002001 0.021161 0.001397
# 6 0.002522 0.001103 0.001035 -0.001777 0.001397 0.036181
#
#
# Mechanical properties :
#
#
# Convention : Reuss Voigt Hill
#
# Bulk Modulus (GPa) = 56.58658 60.04887 58.31772
# Shear Modulus (GPa) = 33.68863 36.29794 34.99328
#
# Velocity S-wave (km/s) = 3.90925 4.05782 3.98423
# Velocity P-wave (km/s) = 6.78571 7.01389 6.90075
#
# Compressibility (1/GPa) = 0.01767204
#
# Stress axis : x y z
#
# Youngs Moduli (GPa) = 83.29554 96.38256 75.48967
#
# Poissons Ratio (x) = 0.19038 0.26575
# Poissons Ratio (y) = 0.16453 0.26287
# Poissons Ratio (z) = 0.29323 0.33562
#
# Static dielectric constant tensor:
#      x y z
#    x 3.904950 -0.221350 -0.047110 
#    y -0.221350 3.845240 0.014090 
#    z -0.047110 0.014090 4.108350 
# 
# 
# High freq. dielectric constant tensor:
#      x y z
#    x 1.871090 -0.012590 0.002900 
#    y -0.012590 1.853680 0.000330 
#    z 0.002900 0.000330 1.885630 
# 
# From -- ./inp_files/56547.got.cif
#   From: 2010.06.25/outbox.cif.g09.slc.cpg/sg2_29_cif.got.tgz:56547.got - 2010.06.27 13:26:56.
