data_PCOD8021317
_publ_section_title
;
Structure prediction by ZEFSAII (Michael W. Deem and Ramdas Pophale) SiO2 
 PCOD8021317
Probable space group: P -1
;
_chemical_formula_sum "Si O2"
_cell_formula_units_Z 12
_cell_length_a 5.598892
_cell_length_b 17.350507
_cell_length_c 19.202901
_cell_angle_alpha 158.867000
_cell_angle_beta 132.072308
_cell_angle_gamma 48.506507
_cell_volume 494.303284
_symmetry_space_group_name_H-M "P -1"
_symmetry_group_IT_number 2
_symmetry_cell_setting 'triclinic'
loop_
_space_group_symop_operation_xyz
x,y,z
-x,-y,-z
loop_
_atom_site_type_symbol
_atom_site_label
_atom_site_fract_x
_atom_site_fract_y
_atom_site_fract_z
Si Si1 0.768116 0.374835 0.896804
Si Si2 0.845483 0.145642 0.848232
Si Si3 0.364883 0.593552 0.844483
Si Si4 0.520796 0.090452 0.985142
Si Si5 0.318909 0.341892 0.287059
Si Si6 0.347214 0.854963 0.446735
O O1 0.993727 0.238182 0.884217
O O2 0.583223 0.213074 0.677648
O O3 0.500000 0.500000 0.000000
O O4 0.000000 0.500000 0.000000
O O5 0.146435 0.037601 0.862684
O O6 0.612098 0.977398 0.637307
O O7 0.634992 0.334112 0.012849
O O8 0.632262 0.378898 0.706017
O O9 0.012811 0.530257 0.700868
O O10 0.410293 0.796131 0.976884
O O11 0.749493 0.861545 0.848613
O O12 0.550840 0.246956 0.188655
O O13 0.500000 0.500000 0.500000
O O14 0.000000 0.000000 0.500000
#
# Coordination Sequence:
#
# PCOD8021317 Si02
#       6
#     2   2   2   2   2   2
#     4  12  25  48  74 101 149 199 251 315 377 438
#     4  11  25  44  68 102 143 188 246 303 372 444
#     4  11  24  46  70 102 145 188 240 304 375 438
#     4  10  23  42  70 101 141 185 233 303 371 447
#     4  10  22  43  70 104 139 179 236 299 372 450
#     4  12  27  45  72 106 145 199 254 306 369 441
#
# _framework density 24.276595
#
# number of rings (size 3 to 8) (size 9 to 14) (size 15 to 20)
#    0.000    1.000    1.667    4.000    2.333    2.000 
#    6.000    0.000    0.000    0.000    0.000    0.000 
#    0.000    0.000    0.000    0.000    0.000    0.000 
#
# Total GULP energy -148690.884616 kJ/mol
# GULP energy per Si atom -12390.907051 kJ/mol
# Density = 2.422134 g / cm^3
# Si number density = 24.276595 Si / 1000 Ang^3
#
#
#
# Elastic Constant Matrix: (Units=GPa)
#
#
# Indices 1 2 3 4 5 6 
#
# 1 92.6664 40.4851 49.8188 -0.6564 -8.0926 23.2921
# 2 40.4851 138.6618 71.7915 6.1235 -10.2527 9.0748
# 3 49.8188 71.7915 186.3932 -26.5794 -12.2715 3.4691
# 4 -0.6564 6.1235 -26.5794 56.0588 -1.5602 -1.7349
# 5 -8.0926 -10.2527 -12.2715 -1.5602 27.4033 6.6966
# 6 23.2921 9.0748 3.4691 -1.7349 6.6966 49.3742
#
#
#
# Elastic Compliance Matrix: (Units=1/GPa)
#
#
# Indices 1 2 3 4 5 6 
#
# 1 0.015585 -0.002097 -0.003115 -0.001178 0.004152 -0.007352
# 2 -0.002097 0.009962 -0.003552 -0.002781 0.001580 -0.000904
# 3 -0.003115 -0.003552 0.008244 0.004344 0.001319 0.001517
# 4 -0.001178 -0.002781 0.004344 0.020267 0.001397 0.001284
# 5 0.004152 0.001580 0.001319 0.001397 0.040895 -0.007839
# 6 -0.007352 -0.000904 0.001517 0.001284 -0.007839 0.024890
#
#
# Mechanical properties :
#
#
# Convention : Reuss Voigt Hill
#
# Bulk Modulus (GPa) = 61.49588 82.43469 71.96529
# Shear Modulus (GPa) = 35.01583 43.60898 39.31241
#
# Velocity S-wave (km/s) = 3.80197 4.24292 4.02849
# Velocity P-wave (km/s) = 6.68279 7.61796 7.16565
#
# Compressibility (1/GPa) = 0.01626125
#
# Stress axis : x y z
#
# Youngs Moduli (GPa) = 64.16491 100.38137 121.30129
#
# Poissons Ratio (x) = 0.21051 0.37791
# Poissons Ratio (y) = 0.13456 0.43089
# Poissons Ratio (z) = 0.19990 0.35658
#
# Static dielectric constant tensor:
#      x y z
#    x 4.200010 0.206030 -0.135430 
#    y 0.206030 5.553440 -0.208940 
#    z -0.135430 -0.208940 4.505610 
# 
# 
# High freq. dielectric constant tensor:
#      x y z
#    x 1.939740 -0.002730 -0.003220 
#    y -0.002730 2.005990 -0.017460 
#    z -0.003220 -0.017460 1.964810 
# 
# From -- ./inp_files/550380.got.cif
#   From: 2010.06.25/outbox.cif.g09.slc.cpg/sg2_276_cif.got.tgz:550380.got - 2010.06.27 13:26:56.
