data_PCOD8021969
_publ_section_title
;
Structure prediction by ZEFSAII (Michael W. Deem and Ramdas Pophale) SiO2 
 PCOD8021969
Probable space group: P -1
;
_chemical_formula_sum "Si O2"
_cell_formula_units_Z 16
_cell_length_a 9.759488
_cell_length_b 16.399995
_cell_length_c 5.453370
_cell_angle_alpha 65.693120
_cell_angle_beta 84.351425
_cell_angle_gamma 60.147137
_cell_volume 683.627183
_symmetry_space_group_name_H-M "P -1"
_symmetry_group_IT_number 2
_symmetry_cell_setting 'triclinic'
loop_
_space_group_symop_operation_xyz
x,y,z
-x,-y,-z
loop_
_atom_site_type_symbol
_atom_site_label
_atom_site_fract_x
_atom_site_fract_y
_atom_site_fract_z
Si Si1 0.355080 0.108190 0.470583
Si Si2 0.224405 0.085632 0.037245
Si Si3 0.143435 0.794830 0.088065
Si Si4 0.602898 0.732008 0.955655
Si Si5 0.370666 0.695294 0.784970
Si Si6 0.103011 0.473181 0.763778
Si Si7 0.667652 0.430354 0.419507
Si Si8 0.640225 0.145929 0.776521
O O1 0.303441 0.101730 0.761734
O O2 0.393998 0.201668 0.361435
O O3 0.500000 0.000000 0.500000
O O4 0.230241 0.138459 0.226797
O O5 0.042487 0.139407 0.924668
O O6 0.308189 0.962620 0.229698
O O7 0.226363 0.683881 0.344766
O O8 0.209310 0.868806 0.074750
O O9 0.191858 0.768899 0.826503
O O10 0.506322 0.669944 0.000700
O O11 0.781292 0.650198 0.108457
O O12 0.513775 0.820331 0.067787
O O13 0.384709 0.589487 0.814819
O O14 0.412005 0.758044 0.509586
O O15 0.214465 0.524295 0.676670
O O16 0.000000 0.500000 0.500000
O O17 0.000000 0.500000 0.000000
O O18 0.500000 0.500000 0.500000
#
# Coordination Sequence:
#
# PCOD8021969 Si02
#       8
#     2   2   2   2   2   2   2   2
#     4  12  27  46  72 105 148 200 247 296 364 457
#     4  12  27  43  73 106 149 195 241 305 375 442
#     4  10  25  42  70 108 141 185 243 314 372 429
#     4  11  26  46  74 105 147 198 252 304 372 448
#     4  10  23  44  79 105 141 195 251 310 362 453
#     4  12  32  50  76 114 153 195 246 323 388 440
#     4  11  26  50  79 106 147 199 263 303 379 461
#     4  10  22  44  71 105 145 189 249 303 363 445
#
# _framework density 23.404572000000002
#
# number of rings (size 3 to 8) (size 9 to 14) (size 15 to 20)
#    0.000    1.000    1.250    3.750   15.750    1.500 
#    0.000    0.000    0.000    0.000    0.000    0.000 
#    0.000    0.000    0.000    0.000    0.000    0.000 
#
# Total GULP energy -198243.773584 kJ/mol
# GULP energy per Si atom -12390.235849 kJ/mol
# Density = 2.335130 g / cm^3
# Si number density = 23.404572 Si / 1000 Ang^3
#
#
#
# Elastic Constant Matrix: (Units=GPa)
#
#
# Indices 1 2 3 4 5 6 
#
# 1 119.5427 61.2078 34.4439 4.9613 -8.6620 1.4261
# 2 61.2078 91.5899 13.9502 -0.6411 10.7541 4.3678
# 3 34.4439 13.9502 90.4569 3.5736 -4.1825 2.6382
# 4 4.9613 -0.6411 3.5736 45.6605 2.3143 7.6464
# 5 -8.6620 10.7541 -4.1825 2.3143 35.0615 -3.8284
# 6 1.4261 4.3678 2.6382 7.6464 -3.8284 47.8205
#
#
#
# Elastic Compliance Matrix: (Units=1/GPa)
#
#
# Indices 1 2 3 4 5 6 
#
# 1 0.015552 -0.010710 -0.003909 -0.002162 0.006982 0.001635
# 2 -0.010710 0.019146 0.000701 0.002252 -0.008861 -0.002537
# 3 -0.003909 0.000701 0.012483 -0.000466 0.000280 -0.000539
# 4 -0.002162 0.002252 -0.000466 0.023048 -0.003245 -0.004061
# 5 0.006982 -0.008861 0.000280 -0.003245 0.033626 0.003797
# 6 0.001635 -0.002537 -0.000539 -0.004061 0.003797 0.022078
#
#
# Mechanical properties :
#
#
# Convention : Reuss Voigt Hill
#
# Bulk Modulus (GPa) = 51.69903 57.86591 54.78247
# Shear Modulus (GPa) = 31.20758 38.50766 34.85762
#
# Velocity S-wave (km/s) = 3.65553 4.06064 3.86340
# Velocity P-wave (km/s) = 6.32095 6.83834 6.58473
#
# Compressibility (1/GPa) = 0.01934272
#
# Stress axis : x y z
#
# Youngs Moduli (GPa) = 64.30206 52.22989 80.11149
#
# Poissons Ratio (x) = 0.55940 0.31319
# Poissons Ratio (y) = 0.68869 -0.05615
# Poissons Ratio (z) = 0.25138 -0.03661
#
# Static dielectric constant tensor:
#      x y z
#    x 4.556730 0.257190 0.184000 
#    y 0.257190 4.456130 0.295710 
#    z 0.184000 0.295710 4.505260 
# 
# 
# High freq. dielectric constant tensor:
#      x y z
#    x 1.939050 0.007320 -0.001260 
#    y 0.007320 1.929890 0.001100 
#    z -0.001260 0.001100 1.936540 
# 
# From -- ./inp_files/46655.got.cif
#   From: 2010.06.25/outbox.cif.g09.slc.cpg/sg2_24_cif.got.tgz:46655.got - 2010.06.27 13:26:56.
