data_PCOD8021857
_publ_section_title
;
Structure prediction by ZEFSAII (Michael W. Deem and Ramdas Pophale) SiO2 
 PCOD8021857
Probable space group: P -1
;
_chemical_formula_sum "Si O2"
_cell_formula_units_Z 14
_cell_length_a 14.150598
_cell_length_b 12.369563
_cell_length_c 6.886014
_cell_angle_alpha 131.119645
_cell_angle_beta 52.424191
_cell_angle_gamma 133.856239
_cell_volume 627.820793
_symmetry_space_group_name_H-M "P -1"
_symmetry_group_IT_number 2
_symmetry_cell_setting 'triclinic'
loop_
_space_group_symop_operation_xyz
x,y,z
-x,-y,-z
loop_
_atom_site_type_symbol
_atom_site_label
_atom_site_fract_x
_atom_site_fract_y
_atom_site_fract_z
Si Si1 0.547816 0.086046 0.744759
Si Si2 0.361743 0.289869 0.748026
Si Si3 0.694680 0.998498 0.765324
Si Si4 0.025306 0.719422 0.086263
Si Si5 0.398540 0.617481 0.185826
Si Si6 0.065860 0.183242 0.060707
Si Si7 0.118157 0.462594 0.578906
O O1 0.621996 0.281215 0.841863
O O2 0.500000 0.000000 0.500000
O O3 0.662959 0.060203 0.675703
O O4 0.409798 0.014470 0.956200
O O5 0.326910 0.184285 0.467498
O O6 0.466500 0.260259 0.714664
O O7 0.222437 0.239782 0.974992
O O8 0.426178 0.486621 0.876200
O O9 0.848053 0.127722 0.786395
O O10 0.966113 0.799960 0.103534
O O11 0.903693 0.606543 0.254786
O O12 0.071125 0.599914 0.780678
O O13 0.274627 0.544993 0.409929
O O14 0.025222 0.301776 0.373239
O O15 0.000000 0.000000 0.000000
#
# Coordination Sequence:
#
# PCOD8021857 Si02
#       7
#     2   2   2   2   2   2   2
#     4  11  23  42  67  97 134 171 220 276 332 392
#     4  10  23  43  62 101 131 173 222 263 337 394
#     4  11  25  41  68 102 129 173 224 276 334 394
#     4  11  25  44  68 100 134 174 228 279 325 400
#     4  10  22  44  69  94 135 175 217 278 330 399
#     4  11  25  44  68  98 137 181 222 271 337 400
#     4  10  24  45  69  95 132 178 226 275 338 388
#
# _framework density 22.299358999999999
#
# number of rings (size 3 to 8) (size 9 to 14) (size 15 to 20)
#    0.000    1.429    1.429    2.143    4.000   10.857 
#    5.143    0.000    0.000    0.000    0.000    0.000 
#    0.000    0.000    0.000    0.000    0.000    0.000 
#
# Total GULP energy -173495.695653 kJ/mol
# GULP energy per Si atom -12392.549689 kJ/mol
# Density = 2.224860 g / cm^3
# Si number density = 22.299359 Si / 1000 Ang^3
#
#
#
# Elastic Constant Matrix: (Units=GPa)
#
#
# Indices 1 2 3 4 5 6 
#
# 1 112.0345 72.2554 45.1075 -7.3414 3.8739 -4.0087
# 2 72.2554 115.0168 34.0392 6.7118 12.9098 -11.1934
# 3 45.1075 34.0392 108.7678 18.3202 9.5593 -4.0382
# 4 -7.3414 6.7118 18.3202 42.2479 4.6559 4.9943
# 5 3.8739 12.9098 9.5593 4.6559 24.6521 -2.3803
# 6 -4.0087 -11.1934 -4.0382 4.9943 -2.3803 35.8877
#
#
#
# Elastic Compliance Matrix: (Units=1/GPa)
#
#
# Indices 1 2 3 4 5 6 
#
# 1 0.018815 -0.011159 -0.006005 0.007601 0.003502 -0.002880
# 2 -0.011159 0.016836 0.000870 -0.004840 -0.006064 0.004374
# 3 -0.006005 0.000870 0.012865 -0.006630 -0.003078 0.001767
# 4 0.007601 -0.004840 -0.006630 0.029549 -0.002217 -0.005666
# 5 0.003502 -0.006064 -0.003078 -0.002217 0.044941 0.001443
# 6 -0.002880 0.004374 0.001767 -0.005666 0.001443 0.029990
#
#
# Mechanical properties :
#
#
# Convention : Reuss Voigt Hill
#
# Bulk Modulus (GPa) = 62.79206 70.95816 66.87511
# Shear Modulus (GPa) = 26.19237 32.85199 29.52218
#
# Velocity S-wave (km/s) = 3.43093 3.84243 3.64249
# Velocity P-wave (km/s) = 6.62683 7.18160 6.90979
#
# Compressibility (1/GPa) = 0.01592558
#
# Stress axis : x y z
#
# Youngs Moduli (GPa) = 53.14964 59.39544 77.72960
#
# Poissons Ratio (x) = 0.66282 0.46680
# Poissons Ratio (y) = 0.59312 -0.06759
# Poissons Ratio (z) = 0.31918 -0.05165
#
# Static dielectric constant tensor:
#      x y z
#    x 4.106180 0.009300 0.094960 
#    y 0.009300 4.734840 0.591780 
#    z 0.094960 0.591780 4.471220 
# 
# 
# High freq. dielectric constant tensor:
#      x y z
#    x 1.869080 0.001400 -0.007190 
#    y 0.001400 1.886930 0.019900 
#    z -0.007190 0.019900 1.888760 
# 
# From -- ./inp_files/95599.got.cif
#   From: 2010.06.25/outbox.cif.g09.slc.cpg/sg2_48_cif.got.tgz:95599.got - 2010.06.27 13:26:56.
