data_PCOD8021852
_publ_section_title
;
Structure prediction by ZEFSAII (Michael W. Deem and Ramdas Pophale) SiO2 
 PCOD8021852
Probable space group: P -1
;
_chemical_formula_sum "Si O2"
_cell_formula_units_Z 16
_cell_length_a 13.705197
_cell_length_b 11.134762
_cell_length_c 11.540410
_cell_angle_alpha 87.650755
_cell_angle_beta 148.059188
_cell_angle_gamma 112.770452
_cell_volume 694.093532
_symmetry_space_group_name_H-M "P -1"
_symmetry_group_IT_number 2
_symmetry_cell_setting 'triclinic'
loop_
_space_group_symop_operation_xyz
x,y,z
-x,-y,-z
loop_
_atom_site_type_symbol
_atom_site_label
_atom_site_fract_x
_atom_site_fract_y
_atom_site_fract_z
Si Si1 0.520875 0.136587 0.313034
Si Si2 0.997278 0.517042 0.134130
Si Si3 0.505876 0.614603 0.417236
Si Si4 0.657331 0.717831 0.001135
Si Si5 0.210745 0.954879 0.485017
Si Si6 0.262454 0.056370 0.278689
Si Si7 0.806397 0.837915 0.381898
Si Si8 0.810455 0.628085 0.546417
O O1 0.350086 0.156715 0.073334
O O2 0.585907 0.061222 0.286566
O O3 0.357479 0.020901 0.264344
O O4 0.778862 0.305197 0.606154
O O5 0.003838 0.392712 0.217257
O O6 0.743155 0.477639 0.907220
O O7 0.000000 0.500000 0.000000
O O8 0.500000 0.500000 0.500000
O O9 0.537998 0.749467 0.518199
O O10 0.744743 0.696668 0.575675
O O11 0.452182 0.540754 0.750998
O O12 0.605254 0.710311 0.087409
O O13 0.937727 0.793751 0.256427
O O14 0.238694 0.967221 0.372986
O O15 0.299876 0.119188 0.626849
O O16 0.000000 0.000000 0.000000
O O17 0.922963 0.764056 0.554498
O O18 0.000000 0.000000 0.500000
#
# Coordination Sequence:
#
# PCOD8021852 Si02
#       8
#     2   2   2   2   2   2   2   2
#     4  11  23  41  65  97 134 179 219 277 333 405
#     4  11  22  39  65 100 133 175 222 266 332 401
#     4  12  23  41  65  97 137 174 217 268 332 406
#     4  10  22  44  69  93 129 172 231 277 333 388
#     4  11  23  42  62  97 135 176 220 273 343 400
#     4  12  24  40  62  98 137 175 217 266 342 407
#     4  10  23  45  68  95 132 180 231 280 331 388
#     4  11  22  42  69  98 131 175 224 280 332 394
#
# _framework density 23.051648
#
# number of rings (size 3 to 8) (size 9 to 14) (size 15 to 20)
#    0.000    1.000    5.000    2.250    1.750    0.500 
#    6.750    2.500    0.000    9.000    0.000    0.000 
#    0.000    0.000    0.000    0.000    0.000    0.000 
#
# Total GULP energy -198253.293292 kJ/mol
# GULP energy per Si atom -12390.830831 kJ/mol
# Density = 2.299918 g / cm^3
# Si number density = 23.051648 Si / 1000 Ang^3
#
#
#
# Elastic Constant Matrix: (Units=GPa)
#
#
# Indices 1 2 3 4 5 6 
#
# 1 102.0727 37.9524 29.7501 -23.1687 6.6672 -6.8878
# 2 37.9524 119.6946 17.1098 -13.4698 0.1428 13.4397
# 3 29.7501 17.1098 71.8343 -13.9152 12.4930 2.0324
# 4 -23.1687 -13.4698 -13.9152 26.9775 1.3922 -4.3351
# 5 6.6672 0.1428 12.4930 1.3922 35.6748 -6.0850
# 6 -6.8878 13.4397 2.0324 -4.3351 -6.0850 34.7483
#
#
#
# Elastic Compliance Matrix: (Units=1/GPa)
#
#
# Indices 1 2 3 4 5 6 
#
# 1 0.014920 -0.003749 -0.003285 0.010215 -0.001051 0.005690
# 2 -0.003749 0.010236 -0.000604 0.000845 0.000062 -0.004550
# 3 -0.003285 -0.000604 0.017711 0.006044 -0.006124 -0.001772
# 4 0.010215 0.000845 0.006044 0.050727 -0.004845 0.006825
# 5 -0.001051 0.000062 -0.006124 -0.004845 0.031418 0.005023
# 6 0.005690 -0.004550 -0.001772 0.006825 0.005023 0.033501
#
#
# Mechanical properties :
#
#
# Convention : Reuss Voigt Hill
#
# Bulk Modulus (GPa) = 36.24442 51.46957 43.85700
# Shear Modulus (GPa) = 27.32458 33.39943 30.36200
#
# Velocity S-wave (km/s) = 3.44665 3.81057 3.63317
# Velocity P-wave (km/s) = 5.62107 6.46041 6.05530
#
# Compressibility (1/GPa) = 0.02759045
#
# Stress axis : x y z
#
# Youngs Moduli (GPa) = 67.02502 97.69822 56.46098
#
# Poissons Ratio (x) = 0.36628 0.18550
# Poissons Ratio (y) = 0.25129 0.03408
# Poissons Ratio (z) = 0.22021 0.05897
#
# Static dielectric constant tensor:
#      x y z
#    x 5.382840 -0.119770 -0.417060 
#    y -0.119770 4.171740 -0.402690 
#    z -0.417060 -0.402690 4.422810 
# 
# 
# High freq. dielectric constant tensor:
#      x y z
#    x 1.906290 -0.005560 -0.005000 
#    y -0.005560 1.916490 -0.006850 
#    z -0.005000 -0.006850 1.902850 
# 
# From -- ./inp_files/452313.got.cif
#   From: 2010.06.25/outbox.cif.g09.slc.cpg/sg2_227_cif.got.tgz:452313.got - 2010.06.27 13:26:56.
