data_PCOD8021952
_publ_section_title
;
Structure prediction by ZEFSAII (Michael W. Deem and Ramdas Pophale) SiO2 
 PCOD8021952
Probable space group: P -1
;
_chemical_formula_sum "Si O2"
_cell_formula_units_Z 16
_cell_length_a 16.677888
_cell_length_b 8.396667
_cell_length_c 10.268911
_cell_angle_alpha 121.025941
_cell_angle_beta 147.928058
_cell_angle_gamma 65.027307
_cell_volume 654.000332
_symmetry_space_group_name_H-M "P -1"
_symmetry_group_IT_number 2
_symmetry_cell_setting 'triclinic'
loop_
_space_group_symop_operation_xyz
x,y,z
-x,-y,-z
loop_
_atom_site_type_symbol
_atom_site_label
_atom_site_fract_x
_atom_site_fract_y
_atom_site_fract_z
Si Si1 0.422026 0.377225 0.232112
Si Si2 0.159141 0.615533 0.992459
Si Si3 0.560993 0.395855 0.163546
Si Si4 0.122196 0.591382 0.477248
Si Si5 0.866868 0.057940 0.742499
Si Si6 0.525818 0.961769 0.240830
Si Si7 0.271128 0.847438 0.011098
Si Si8 0.973678 0.906370 0.285243
O O1 0.500000 0.500000 0.500000
O O2 0.243754 0.418363 0.019630
O O3 0.475332 0.459242 0.200714
O O4 0.462790 0.163605 0.208872
O O5 0.161016 0.721039 0.179212
O O6 0.250135 0.765959 0.091031
O O7 0.982604 0.584389 0.691909
O O8 0.737678 0.457632 0.442560
O O9 0.500000 0.500000 0.000000
O O10 0.534346 0.172785 0.015467
O O11 0.184640 0.705864 0.734081
O O12 0.003367 0.690936 0.259716
O O13 0.910045 0.019718 0.636110
O O14 0.706040 0.949310 0.499738
O O15 0.000000 0.000000 0.000000
O O16 0.447339 0.881306 0.231977
O O17 0.193672 0.048802 0.976576
O O18 0.000000 0.000000 0.500000
#
# Coordination Sequence:
#
# PCOD8021952 Si02
#       8
#     2   2   2   2   2   2   2   2
#     4  12  25  48  72 111 150 188 245 304 368 434
#     4  12  25  45  69 107 150 188 239 306 366 431
#     4  11  26  48  74 109 143 196 249 298 363 438
#     4  10  23  42  69 101 140 186 238 297 359 428
#     4  12  26  46  70 107 145 190 243 301 369 430
#     4  11  25  48  77 104 149 198 244 302 362 440
#     4  10  22  45  70 107 136 190 244 295 364 427
#     4  10  22  44  71 100 139 184 243 291 358 437
#
# _framework density 24.464821000000001
#
# number of rings (size 3 to 8) (size 9 to 14) (size 15 to 20)
#    0.000    1.000    2.500    3.750    1.750    6.000 
#    4.500    0.000    0.000    0.000    0.000    0.000 
#    0.000    0.000    0.000    0.000    0.000    0.000 
#
# Total GULP energy -198260.635163 kJ/mol
# GULP energy per Si atom -12391.289698 kJ/mol
# Density = 2.440914 g / cm^3
# Si number density = 24.464821 Si / 1000 Ang^3
#
#
#
# Elastic Constant Matrix: (Units=GPa)
#
#
# Indices 1 2 3 4 5 6 
#
# 1 173.9637 39.3125 83.6748 4.0065 16.5032 -7.3689
# 2 39.3125 76.6806 20.8621 -6.2242 -2.5045 -7.6334
# 3 83.6748 20.8621 123.0700 -5.2146 39.7767 -1.9459
# 4 4.0065 -6.2242 -5.2146 29.3325 -4.8413 3.5893
# 5 16.5032 -2.5045 39.7767 -4.8413 47.6215 -4.9843
# 6 -7.3689 -7.6334 -1.9459 3.5893 -4.9843 37.4855
#
#
#
# Elastic Compliance Matrix: (Units=1/GPa)
#
#
# Indices 1 2 3 4 5 6 
#
# 1 0.009669 -0.003145 -0.006794 -0.003045 0.002002 0.001465
# 2 -0.003145 0.015794 -0.001605 0.003817 0.003929 0.002672
# 3 -0.006794 -0.001605 0.016913 0.001938 -0.011928 -0.002556
# 4 -0.003045 0.003817 0.001938 0.036510 0.003054 -0.002810
# 5 0.002002 0.003929 -0.011928 0.003054 0.031249 0.004437
# 6 0.001465 0.002672 -0.002556 -0.002810 0.004437 0.028235
#
#
# Mechanical properties :
#
#
# Convention : Reuss Voigt Hill
#
# Bulk Modulus (GPa) = 51.84211 73.49034 62.66622
# Shear Modulus (GPa) = 29.78167 38.21224 33.99695
#
# Velocity S-wave (km/s) = 3.49281 3.95641 3.73181
# Velocity P-wave (km/s) = 6.12395 7.13970 6.65124
#
# Compressibility (1/GPa) = 0.01928934
#
# Stress axis : x y z
#
# Youngs Moduli (GPa) = 103.42417 63.31492 59.12450
#
# Poissons Ratio (x) = 0.19910 0.40168
# Poissons Ratio (y) = 0.32522 0.09491
# Poissons Ratio (z) = 0.70265 0.10163
#
# Static dielectric constant tensor:
#      x y z
#    x 5.135950 -0.770150 0.497020 
#    y -0.770150 5.296200 -0.340860 
#    z 0.497020 -0.340860 4.406500 
# 
# 
# High freq. dielectric constant tensor:
#      x y z
#    x 1.989040 -0.013580 0.020920 
#    y -0.013580 1.972720 -0.007770 
#    z 0.020920 -0.007770 1.956020 
# 
# From -- ./inp_files/461592.got.cif
#   From: 2010.06.25/outbox.cif.g09.slc.cpg/sg2_231_cif.got.tgz:461592.got - 2010.06.27 13:26:56.
