data_PCOD8021114
_publ_section_title
;
Structure prediction by ZEFSAII (Michael W. Deem and Ramdas Pophale) SiO2 
 PCOD8021114
Probable space group: P -1
;
_chemical_formula_sum "Si O2"
_cell_formula_units_Z 16
_cell_length_a 15.992888
_cell_length_b 9.380711
_cell_length_c 7.975614
_cell_angle_alpha 51.666374
_cell_angle_beta 80.691906
_cell_angle_gamma 115.758045
_cell_volume 669.524600
_symmetry_space_group_name_H-M "P -1"
_symmetry_group_IT_number 2
_symmetry_cell_setting 'triclinic'
loop_
_space_group_symop_operation_xyz
x,y,z
-x,-y,-z
loop_
_atom_site_type_symbol
_atom_site_label
_atom_site_fract_x
_atom_site_fract_y
_atom_site_fract_z
Si Si1 0.903862 0.627407 0.182045
Si Si2 0.813777 0.446557 0.683354
Si Si3 0.035676 0.958882 0.350579
Si Si4 0.571182 0.786443 0.731910
Si Si5 0.149090 0.880966 0.941485
Si Si6 0.835414 0.157349 0.420959
Si Si7 0.435441 0.793340 0.023999
Si Si8 0.600379 0.650895 0.492713
O O1 0.803095 0.433940 0.493153
O O2 0.896646 0.446402 0.188429
O O3 0.034522 0.821812 0.085655
O O4 0.884076 0.786341 0.973963
O O5 0.686750 0.290742 0.920154
O O6 0.909179 0.743448 0.464982
O O7 0.866133 0.343772 0.821661
O O8 0.109067 0.885598 0.419497
O O9 0.000000 0.000000 0.500000
O O10 0.583576 0.801962 0.512500
O O11 0.697851 0.965168 0.647294
O O12 0.500000 0.500000 0.000000
O O13 0.509761 0.876720 0.765719
O O14 0.147367 0.899024 0.727864
O O15 0.270682 0.142673 0.783973
O O16 0.404833 0.545751 0.268296
O O17 0.500000 0.000000 0.000000
O O18 0.500000 0.500000 0.500000
#
# Coordination Sequence:
#
# PCOD8021114 Si02
#       8
#     2   2   2   2   2   2   2   2
#     4  12  24  45  65 106 142 177 230 282 363 419
#     4  12  26  43  66 102 142 179 229 295 344 416
#     4  12  25  42  71 102 138 180 227 289 352 422
#     4   9  22  44  71  97 135 187 232 288 351 424
#     4  11  22  43  70  96 142 183 224 285 354 431
#     4  11  23  45  72 101 136 181 232 284 358 423
#     4  11  23  45  67  98 142 181 241 296 346 420
#     4  10  22  43  68 100 132 186 236 287 360 420
#
# _framework density 23.897556000000002
#
# number of rings (size 3 to 8) (size 9 to 14) (size 15 to 20)
#    0.000    1.000    2.500    4.125    3.500    1.000 
#    4.500    5.625    0.000    0.000    0.000    0.000 
#    0.000    0.000    0.000    0.000    0.000    0.000 
#
# Total GULP energy -198334.618488 kJ/mol
# GULP energy per Si atom -12395.913655 kJ/mol
# Density = 2.384316 g / cm^3
# Si number density = 23.897556 Si / 1000 Ang^3
#
#
#
# Elastic Constant Matrix: (Units=GPa)
#
#
# Indices 1 2 3 4 5 6 
#
# 1 104.2581 42.0043 49.4211 2.6472 -12.3528 11.8105
# 2 42.0043 99.5090 18.0202 -10.3945 -13.2407 -1.0122
# 3 49.4211 18.0202 99.2356 -9.4957 -0.0148 0.2885
# 4 2.6472 -10.3945 -9.4957 38.1589 0.3743 -7.6377
# 5 -12.3528 -13.2407 -0.0148 0.3743 54.2800 -1.6818
# 6 11.8105 -1.0122 0.2885 -7.6377 -1.6818 37.6590
#
#
#
# Elastic Compliance Matrix: (Units=1/GPa)
#
#
# Indices 1 2 3 4 5 6 
#
# 1 0.016984 -0.006155 -0.007911 -0.006163 0.002200 -0.006583
# 2 -0.006155 0.013250 0.001125 0.004972 0.001902 0.003371
# 3 -0.007911 0.001125 0.014291 0.005101 -0.001453 0.003371
# 4 -0.006163 0.004972 0.005101 0.030918 -0.000144 0.008291
# 5 0.002200 0.001902 -0.001453 -0.000144 0.019395 0.000209
# 6 -0.006583 0.003371 0.003371 0.008291 0.000209 0.030374
#
#
# Mechanical properties :
#
#
# Convention : Reuss Voigt Hill
#
# Bulk Modulus (GPa) = 53.63564 57.98823 55.81193
# Shear Modulus (GPa) = 31.78482 38.92338 35.35410
#
# Velocity S-wave (km/s) = 3.65093 4.04017 3.85047
# Velocity P-wave (km/s) = 6.34548 6.78837 6.57066
#
# Compressibility (1/GPa) = 0.01864432
#
# Stress axis : x y z
#
# Youngs Moduli (GPa) = 58.87864 75.47003 69.97631
#
# Poissons Ratio (x) = 0.46448 0.55358
# Poissons Ratio (y) = 0.36237 -0.07874
# Poissons Ratio (z) = 0.46579 -0.08492
#
# Static dielectric constant tensor:
#      x y z
#    x 4.425880 -0.010640 -0.273790 
#    y -0.010640 4.400250 0.078560 
#    z -0.273790 0.078560 4.446370 
# 
# 
# High freq. dielectric constant tensor:
#      x y z
#    x 1.937570 -0.003160 -0.011610 
#    y -0.003160 1.953290 -0.006790 
#    z -0.011610 -0.006790 1.955190 
# 
# From -- ./inp_files/297442.got.cif
#   From: 2010.06.25/outbox.cif.g09.slc.cpg/sg2_149_cif.got.tgz:297442.got - 2010.06.27 13:26:56.
