data_PCOD8021957
_publ_section_title
;
Structure prediction by ZEFSAII (Michael W. Deem and Ramdas Pophale) SiO2 
 PCOD8021957
Probable space group: P -1
;
_chemical_formula_sum "Si O2"
_cell_formula_units_Z 14
_cell_length_a 10.939625
_cell_length_b 9.520563
_cell_length_c 10.261640
_cell_angle_alpha 111.289396
_cell_angle_beta 100.368153
_cell_angle_gamma 136.292903
_cell_volume 499.872936
_symmetry_space_group_name_H-M "P -1"
_symmetry_group_IT_number 2
_symmetry_cell_setting 'triclinic'
loop_
_space_group_symop_operation_xyz
x,y,z
-x,-y,-z
loop_
_atom_site_type_symbol
_atom_site_label
_atom_site_fract_x
_atom_site_fract_y
_atom_site_fract_z
Si Si1 0.207360 0.389843 0.279878
Si Si2 0.613570 0.987960 0.664995
Si Si3 0.729972 0.884613 0.868158
Si Si4 0.065684 0.897923 0.609576
Si Si5 0.366271 0.483549 0.880449
Si Si6 0.095674 0.470788 0.785700
Si Si7 0.732241 0.174556 0.284280
O O1 0.427543 0.742456 0.430966
O O2 0.286689 0.312003 0.215148
O O3 0.151524 0.322500 0.400952
O O4 0.980950 0.206266 0.087661
O O5 0.692797 0.921586 0.734912
O O6 0.493370 0.984065 0.737003
O O7 0.865128 0.310256 0.757213
O O8 0.513232 0.700925 0.860232
O O9 0.142483 0.147263 0.673349
O O10 0.988635 0.733521 0.409872
O O11 0.285602 0.026500 0.766680
O O12 0.257070 0.529633 0.933765
O O13 0.500000 0.500000 0.000000
O O14 0.260600 0.772820 0.850637
O O15 0.000000 0.500000 0.500000
#
# Coordination Sequence:
#
# PCOD8021957 Si02
#       7
#     2   2   2   2   2   2   2
#     4  11  22  41  66 103 139 180 227 293 351 405
#     4  12  23  45  73 100 143 185 231 294 346 421
#     4  11  24  41  68 105 144 179 232 295 352 415
#     4  11  22  43  69 102 138 179 237 284 346 420
#     4  12  23  42  67 101 139 182 229 295 348 409
#     4  11  24  43  72 102 134 183 237 282 355 418
#     4  10  22  44  71 101 138 185 237 281 352 421
#
# _framework density 28.007118999999999
#
# number of rings (size 3 to 8) (size 9 to 14) (size 15 to 20)
#    0.000    0.857    5.714    2.571    2.000    2.286 
#    2.571    2.857    0.000    1.714    0.000    0.000 
#    0.000    0.000    0.000    0.000    0.000    0.000 
#
# Total GULP energy -173505.242761 kJ/mol
# GULP energy per Si atom -12393.231626 kJ/mol
# Density = 2.794337 g / cm^3
# Si number density = 28.007119 Si / 1000 Ang^3
#
#
#
# Elastic Constant Matrix: (Units=GPa)
#
#
# Indices 1 2 3 4 5 6 
#
# 1 130.0553 61.9307 16.1683 24.0716 14.4947 1.1677
# 2 61.9307 104.4241 15.0888 9.6060 12.0623 22.5897
# 3 16.1683 15.0888 42.1035 -6.3106 11.3791 8.8306
# 4 24.0716 9.6060 -6.3106 21.4981 2.2432 10.8585
# 5 14.4947 12.0623 11.3791 2.2432 41.8052 5.4437
# 6 1.1677 22.5897 8.8306 10.8585 5.4437 60.0277
#
#
#
# Elastic Compliance Matrix: (Units=1/GPa)
#
#
# Indices 1 2 3 4 5 6 
#
# 1 0.016582 -0.008339 -0.007886 -0.021021 -0.001095 0.007877
# 2 -0.008339 0.015513 0.000238 0.005969 -0.001099 -0.006691
# 3 -0.007886 0.000238 0.033863 0.023707 -0.006704 -0.008598
# 4 -0.021021 0.005969 0.023707 0.084959 -0.002784 -0.020441
# 5 -0.001095 -0.001099 -0.006704 -0.002784 0.026655 -0.000493
# 6 0.007877 -0.006691 -0.008598 -0.020441 -0.000493 0.024031
#
#
# Mechanical properties :
#
#
# Convention : Reuss Voigt Hill
#
# Bulk Modulus (GPa) = 29.42691 51.43984 40.43338
# Shear Modulus (GPa) = 20.41607 36.89254 28.65430
#
# Velocity S-wave (km/s) = 2.70285 3.63334 3.20208
# Velocity P-wave (km/s) = 4.50226 6.00068 5.30464
#
# Compressibility (1/GPa) = 0.03398250
#
# Stress axis : x y z
#
# Youngs Moduli (GPa) = 60.30547 64.46362 29.53112
#
# Poissons Ratio (x) = 0.53755 0.23289
# Poissons Ratio (y) = 0.50288 -0.00702
# Poissons Ratio (z) = 0.47559 -0.01533
#
# Static dielectric constant tensor:
#      x y z
#    x 5.730850 -0.590260 0.266000 
#    y -0.590260 5.624090 0.173180 
#    z 0.266000 0.173180 5.482970 
# 
# 
# High freq. dielectric constant tensor:
#      x y z
#    x 2.151880 -0.012170 0.012380 
#    y -0.012170 2.119040 0.010660 
#    z 0.012380 0.010660 2.146040 
# 
# From -- ./inp_files/270164.got.cif
#   From: 2010.06.25/outbox.cif.g09.slc.cpg/sg2_136_cif.got.tgz:270164.got - 2010.06.27 13:26:56.
