data_PCOD8021014
_publ_section_title
;
Structure prediction by ZEFSAII (Michael W. Deem and Ramdas Pophale) SiO2 
 PCOD8021014
Probable space group: P -1
;
_chemical_formula_sum "Si O2"
_cell_formula_units_Z 14
_cell_length_a 12.823756
_cell_length_b 14.936621
_cell_length_c 19.416999
_cell_angle_alpha 20.842701
_cell_angle_beta 148.370558
_cell_angle_gamma 150.035433
_cell_volume 642.386338
_symmetry_space_group_name_H-M "P -1"
_symmetry_group_IT_number 2
_symmetry_cell_setting 'triclinic'
loop_
_space_group_symop_operation_xyz
x,y,z
-x,-y,-z
loop_
_atom_site_type_symbol
_atom_site_label
_atom_site_fract_x
_atom_site_fract_y
_atom_site_fract_z
Si Si1 0.307912 0.974500 0.959915
Si Si2 0.957731 0.686847 0.475692
Si Si3 0.671104 0.227043 0.478202
Si Si4 0.374517 0.872935 0.320933
Si Si5 0.038602 0.617335 0.826251
Si Si6 0.146883 0.014570 0.478277
Si Si7 0.476223 0.275253 0.971581
O O1 0.126422 0.681423 0.063894
O O2 0.387497 0.031804 0.042004
O O3 0.500000 0.000000 0.000000
O O4 0.219680 0.198248 0.726342
O O5 0.818382 0.377278 0.642912
O O6 0.095100 0.683060 0.488517
O O7 0.116365 0.864316 0.496027
O O8 0.682291 0.101628 0.649552
O O9 0.500000 0.000000 0.500000
O O10 0.607991 0.487987 0.261532
O O11 0.600835 0.831375 0.474483
O O12 0.400393 0.148142 0.096315
O O13 0.032644 0.784629 0.634914
O O14 0.266976 0.599416 0.981369
O O15 0.964417 0.762002 0.744221
#
# Coordination Sequence:
#
# PCOD8021014 Si02
#       7
#     2   2   2   2   2   2   2
#     4  12  25  41  69 102 132 174 222 269 330 395
#     4  12  24  42  68  96 135 175 216 275 330 381
#     4  12  25  46  68  97 135 173 223 272 327 394
#     4  11  24  45  68  96 135 173 220 273 326 392
#     4  10  23  42  67  97 134 172 220 271 330 390
#     4  10  22  43  66  97 132 174 219 273 328 389
#     4  11  26  46  67 100 133 175 222 269 329 393
#
# _framework density 21.79374
#
# number of rings (size 3 to 8) (size 9 to 14) (size 15 to 20)
#    0.000    0.857    2.857    3.857    0.000    2.286 
#    2.571    5.714    0.000    0.000    0.000    0.000 
#    0.000    0.000    0.000    0.000    0.000    0.000 
#
# Total GULP energy -173660.717993 kJ/mol
# GULP energy per Si atom -12404.336999 kJ/mol
# Density = 2.174414 g / cm^3
# Si number density = 21.793740 Si / 1000 Ang^3
#
#
#
# Elastic Constant Matrix: (Units=GPa)
#
#
# Indices 1 2 3 4 5 6 
#
# 1 104.4034 27.3958 17.6438 -10.2827 -0.2193 -8.9442
# 2 27.3958 119.5494 12.3811 -24.3836 -3.8829 -2.1648
# 3 17.6438 12.3811 50.2558 -4.4225 7.3438 -4.5106
# 4 -10.2827 -24.3836 -4.4225 35.1956 1.6465 1.3521
# 5 -0.2193 -3.8829 7.3438 1.6465 29.9887 1.2335
# 6 -8.9442 -2.1648 -4.5106 1.3521 1.2335 42.6169
#
#
#
# Elastic Compliance Matrix: (Units=1/GPa)
#
#
# Indices 1 2 3 4 5 6 
#
# 1 0.010887 -0.001830 -0.003152 0.001426 0.000462 0.001800
# 2 -0.001830 0.010277 -0.001555 0.006336 0.001361 -0.000267
# 3 -0.003152 -0.001555 0.022495 0.001035 -0.005863 0.001777
# 4 0.001426 0.006336 0.001035 0.033419 -0.001245 -0.000294
# 5 0.000462 0.001361 -0.005863 -0.001245 0.035088 -0.001430
# 6 0.001800 -0.000267 0.001777 -0.000294 -0.001430 0.024068
#
#
# Mechanical properties :
#
#
# Convention : Reuss Voigt Hill
#
# Bulk Modulus (GPa) = 32.69475 43.22778 37.96126
# Shear Modulus (GPa) = 31.34767 36.01278 33.68023
#
# Velocity S-wave (km/s) = 3.79671 4.06943 3.93543
# Velocity P-wave (km/s) = 5.85273 6.47753 6.17304
#
# Compressibility (1/GPa) = 0.03058595
#
# Stress axis : x y z
#
# Youngs Moduli (GPa) = 91.85569 97.30613 44.45423
#
# Poissons Ratio (x) = 0.17806 0.14011
# Poissons Ratio (y) = 0.16809 0.06911
# Poissons Ratio (z) = 0.28951 0.15127
#
# Static dielectric constant tensor:
#      x y z
#    x 4.091190 0.126590 0.178850 
#    y 0.126590 3.986490 -0.159840 
#    z 0.178850 -0.159840 3.792010 
# 
# 
# High freq. dielectric constant tensor:
#      x y z
#    x 1.869030 0.007050 -0.000790 
#    y 0.007050 1.875800 -0.003230 
#    z -0.000790 -0.003230 1.848940 
# 
# From -- ./inp_files/314705.got.cif
#   From: 2010.06.25/outbox.cif.g09.slc.cpg/sg2_158_cif.got.tgz:314705.got - 2010.06.27 13:26:56.
