data_PCOD8021433
_publ_section_title
;
Structure prediction by ZEFSAII (Michael W. Deem and Ramdas Pophale) SiO2 
 PCOD8021433
Probable space group: P -1
;
_chemical_formula_sum "Si O2"
_cell_formula_units_Z 14
_cell_length_a 24.985697
_cell_length_b 5.159690
_cell_length_c 8.685142
_cell_angle_alpha 102.430656
_cell_angle_beta 137.006188
_cell_angle_gamma 58.573538
_cell_volume 624.414897
_symmetry_space_group_name_H-M "P -1"
_symmetry_group_IT_number 2
_symmetry_cell_setting 'triclinic'
loop_
_space_group_symop_operation_xyz
x,y,z
-x,-y,-z
loop_
_atom_site_type_symbol
_atom_site_label
_atom_site_fract_x
_atom_site_fract_y
_atom_site_fract_z
Si Si1 0.259407 0.872355 0.426371
Si Si2 0.357282 0.280762 0.341827
Si Si3 0.037852 0.210673 0.659771
Si Si4 0.930854 0.039586 0.993444
Si Si5 0.554327 0.783026 0.782892
Si Si6 0.190906 0.279043 0.054186
Si Si7 0.585769 0.301351 0.040547
O O1 0.325087 0.531587 0.442585
O O2 0.313737 0.890152 0.688557
O O3 0.241916 0.146662 0.308314
O O4 0.158561 0.937161 0.270809
O O5 0.388554 0.395192 0.274505
O O6 0.270143 0.251954 0.104911
O O7 0.443796 0.942557 0.541578
O O8 0.000000 0.500000 0.500000
O O9 0.016901 0.253115 0.808140
O O10 0.150581 0.070366 0.877592
O O11 0.000000 0.000000 0.500000
O O12 0.896296 0.357510 0.061018
O O13 0.000000 0.000000 0.000000
O O14 0.589858 0.538971 0.963908
O O15 0.572861 0.056870 0.889342
O O16 0.500000 0.500000 0.000000
#
# Coordination Sequence:
#
# PCOD8021433 Si02
#       7
#     2   2   2   2   2   2   2
#     4  10  23  40  70  93 137 179 223 272 340 406
#     4  10  23  43  66  97 133 184 227 270 332 404
#     4  11  22  44  68  99 129 170 220 277 342 397
#     4  10  23  45  70  99 132 179 226 276 343 414
#     4  11  26  41  68  98 139 178 228 277 325 396
#     4  10  22  43  72  94 134 179 223 269 348 401
#     4  12  24  43  65 103 137 177 223 280 338 385
#
# _framework density 22.420991000000001
#
# number of rings (size 3 to 8) (size 9 to 14) (size 15 to 20)
#    0.000    1.429    2.857    1.286    6.000    3.429 
#    5.143    0.000    0.000    0.000    0.000    0.000 
#    0.000    0.000    0.000    0.000    0.000    0.000 
#
# Total GULP energy -173462.701516 kJ/mol
# GULP energy per Si atom -12390.192965 kJ/mol
# Density = 2.236996 g / cm^3
# Si number density = 22.420991 Si / 1000 Ang^3
#
#
#
# Elastic Constant Matrix: (Units=GPa)
#
#
# Indices 1 2 3 4 5 6 
#
# 1 146.3427 33.9156 71.3381 -17.4483 7.6610 6.1448
# 2 33.9156 53.7387 22.6985 -2.7140 8.9596 16.2686
# 3 71.3381 22.6985 146.9651 -5.8780 0.5941 7.0051
# 4 -17.4483 -2.7140 -5.8780 37.1498 17.4724 -4.9832
# 5 7.6610 8.9596 0.5941 17.4724 42.8252 -9.6706
# 6 6.1448 16.2686 7.0051 -4.9832 -9.6706 29.3508
#
#
#
# Elastic Compliance Matrix: (Units=1/GPa)
#
#
# Indices 1 2 3 4 5 6 
#
# 1 0.010781 -0.004610 -0.004350 0.005569 -0.002875 0.001335
# 2 -0.004610 0.029333 -0.001307 0.002176 -0.010244 -0.017987
# 3 -0.004350 -0.001307 0.009069 -0.001420 0.001438 -0.000297
# 4 0.005569 0.002176 -0.001420 0.037254 -0.016921 -0.001283
# 5 -0.002875 -0.010244 0.001438 -0.016921 0.036283 0.015018
# 6 0.001335 -0.017987 -0.000297 -0.001283 0.015018 0.048562
#
#
# Mechanical properties :
#
#
# Convention : Reuss Voigt Hill
#
# Bulk Modulus (GPa) = 34.90540 66.99455 50.94997
# Shear Modulus (GPa) = 24.83019 36.47145 30.65082
#
# Velocity S-wave (km/s) = 3.33145 4.03757 3.70139
# Velocity P-wave (km/s) = 5.51363 7.18896 6.40629
#
# Compressibility (1/GPa) = 0.02864887
#
# Stress axis : x y z
#
# Youngs Moduli (GPa) = 92.75730 34.09098 110.26076
#
# Poissons Ratio (x) = 0.15716 0.47967
# Poissons Ratio (y) = 0.42762 0.14410
# Poissons Ratio (z) = 0.40353 0.04455
#
# Static dielectric constant tensor:
#      x y z
#    x 4.201110 0.370610 0.170730 
#    y 0.370610 4.062360 0.013390 
#    z 0.170730 0.013390 4.528140 
# 
# 
# High freq. dielectric constant tensor:
#      x y z
#    x 1.887850 0.032950 0.008400 
#    y 0.032950 1.859130 -0.002020 
#    z 0.008400 -0.002020 1.900150 
# 
# From -- ./inp_files/105167.got.cif
#   From: 2010.06.25/outbox.cif.g09.slc.cpg/sg2_53_cif.got.tgz:105167.got - 2010.06.27 13:26:56.
