data_PCOD8022970
_publ_section_title
;
Structure prediction by ZEFSAII (Michael W. Deem and Ramdas Pophale) SiO2 
 PCOD8022970
Probable space group: P -1
;
_chemical_formula_sum "Si O2"
_cell_formula_units_Z 16
_cell_length_a 11.162295
_cell_length_b 8.099514
_cell_length_c 9.411022
_cell_angle_alpha 106.464940
_cell_angle_beta 117.620465
_cell_angle_gamma 60.706562
_cell_volume 655.711415
_symmetry_space_group_name_H-M "P -1"
_symmetry_group_IT_number 2
_symmetry_cell_setting 'triclinic'
loop_
_space_group_symop_operation_xyz
x,y,z
-x,-y,-z
loop_
_atom_site_type_symbol
_atom_site_label
_atom_site_fract_x
_atom_site_fract_y
_atom_site_fract_z
Si Si1 0.609713 0.403797 0.414717
Si Si2 0.564611 0.911587 0.211079
Si Si3 0.222201 0.377530 0.543368
Si Si4 0.166504 0.877906 0.324933
Si Si5 0.608119 0.195076 0.115083
Si Si6 0.100987 0.728678 0.746467
Si Si7 0.011441 0.687566 0.998350
Si Si8 0.728093 0.895337 0.743925
O O1 0.500000 0.500000 0.500000
O O2 0.645215 0.565185 0.404339
O O3 0.756212 0.224477 0.511315
O O4 0.524133 0.336468 0.232793
O O5 0.710441 0.798309 0.355419
O O6 0.631118 0.989593 0.138097
O O7 0.435220 0.068955 0.277802
O O8 0.493799 0.771891 0.073224
O O9 0.095921 0.564229 0.596827
O O10 0.187887 0.294256 0.357003
O O11 0.285806 0.914283 0.299090
O O12 0.099918 0.747248 0.178991
O O13 0.037916 0.084863 0.336806
O O14 0.755329 0.226817 0.175750
O O15 0.095765 0.662859 0.888395
O O16 0.843123 0.854633 0.929401
O O17 0.000000 0.500000 0.000000
#
# Coordination Sequence:
#
# PCOD8022970 Si02
#       8
#     2   2   2   2   2   2   2   2
#     4  11  23  40  63  94 129 168 217 263 321 386
#     4  11  22  40  65  93 129 171 219 267 322 379
#     4  11  24  38  62  96 129 170 214 272 319 372
#     4  11  23  42  67  91 128 174 209 265 325 381
#     4  10  23  40  63  93 128 173 213 265 325 380
#     4  10  24  43  62  94 131 168 220 262 320 388
#     4  11  24  42  69  96 125 169 215 267 321 384
#     4  11  22  42  66  94 130 171 221 264 321 385
#
# _framework density 24.400979
#
# number of rings (size 3 to 8) (size 9 to 14) (size 15 to 20)
#    0.000    1.250    0.000    6.375    0.000   10.000 
#    0.000    1.250    0.000    0.000    0.000    0.000 
#    0.000    0.000    0.000    0.000    0.000    0.000 
#
# Total GULP energy -198266.872944 kJ/mol
# GULP energy per Si atom -12391.679559 kJ/mol
# Density = 2.434544 g / cm^3
# Si number density = 24.400979 Si / 1000 Ang^3
#
#
#
# Elastic Constant Matrix: (Units=GPa)
#
#
# Indices 1 2 3 4 5 6 
#
# 1 80.6846 33.1047 9.4994 5.9010 -12.5079 11.1519
# 2 33.1047 80.7733 27.2202 17.0011 -7.7069 2.7708
# 3 9.4994 27.2202 103.7044 24.7754 -2.2569 -3.1495
# 4 5.9010 17.0011 24.7754 42.3265 1.9295 -5.3686
# 5 -12.5079 -7.7069 -2.2569 1.9295 33.6270 10.1706
# 6 11.1519 2.7708 -3.1495 -5.3686 10.1706 45.3981
#
#
#
# Elastic Compliance Matrix: (Units=1/GPa)
#
#
# Indices 1 2 3 4 5 6 
#
# 1 0.016583 -0.005854 0.000256 -0.001077 0.006503 -0.005283
# 2 -0.005854 0.016891 -0.002797 -0.004519 0.001998 -0.000769
# 3 0.000256 -0.002797 0.011755 -0.005803 0.000541 0.000116
# 4 -0.001077 -0.004519 -0.005803 0.029821 -0.004983 0.004781
# 5 0.006503 0.001998 0.000541 -0.004983 0.036068 -0.010351
# 6 -0.005283 -0.000769 0.000116 0.004781 -0.010351 0.026264
#
#
# Mechanical properties :
#
#
# Convention : Reuss Voigt Hill
#
# Bulk Modulus (GPa) = 35.16519 44.97900 40.07210
# Shear Modulus (GPa) = 30.55248 37.29285 33.92266
#
# Velocity S-wave (km/s) = 3.54234 3.91363 3.73261
# Velocity P-wave (km/s) = 5.58333 6.23661 5.91899
#
# Compressibility (1/GPa) = 0.02843721
#
# Stress axis : x y z
#
# Youngs Moduli (GPa) = 60.30321 59.20446 85.06871
#
# Poissons Ratio (x) = 0.34660 -0.02178
# Poissons Ratio (y) = 0.35304 0.23797
# Poissons Ratio (z) = -0.01544 0.16562
#
# Static dielectric constant tensor:
#      x y z
#    x 4.556360 0.243140 -0.039480 
#    y 0.243140 4.833730 -0.231100 
#    z -0.039480 -0.231100 5.089450 
# 
# 
# High freq. dielectric constant tensor:
#      x y z
#    x 1.980870 0.019830 -0.001280 
#    y 0.019830 1.958280 0.013720 
#    z -0.001280 0.013720 1.982630 
# 
# From -- ./inp_files/245224.got.cif
#   From: 2010.06.25/outbox.cif.g09.slc.cpg/sg2_123_cif.got.tgz:245224.got - 2010.06.27 13:26:56.
