data_PCOD8022132
_publ_section_title
;
Structure prediction by ZEFSAII (Michael W. Deem and Ramdas Pophale) SiO2 
 PCOD8022132
Probable space group: P -1
;
_chemical_formula_sum "Si O2"
_cell_formula_units_Z 14
_cell_length_a 7.000209
_cell_length_b 16.244070
_cell_length_c 14.724104
_cell_angle_alpha 152.967913
_cell_angle_beta 46.086112
_cell_angle_gamma 126.373542
_cell_volume 546.608986
_symmetry_space_group_name_H-M "P -1"
_symmetry_group_IT_number 2
_symmetry_cell_setting 'triclinic'
loop_
_space_group_symop_operation_xyz
x,y,z
-x,-y,-z
loop_
_atom_site_type_symbol
_atom_site_label
_atom_site_fract_x
_atom_site_fract_y
_atom_site_fract_z
Si Si1 0.084515 0.014017 0.805759
Si Si2 0.735480 0.789302 0.588659
Si Si3 0.601271 0.659601 0.028992
Si Si4 0.556243 0.833479 0.387166
Si Si5 0.011149 0.439059 0.575163
Si Si6 0.980991 0.294313 0.773931
Si Si7 0.870930 0.213673 0.237524
O O1 0.170770 0.201018 0.920617
O O2 0.315881 0.849422 0.554886
O O3 0.826468 0.966439 0.786440
O O4 0.032490 0.046319 0.964138
O O5 0.769683 0.616488 0.475377
O O6 0.924681 0.740851 0.393810
O O7 0.434726 0.828047 0.694827
O O8 0.560386 0.646831 0.140933
O O9 0.329519 0.743221 0.153178
O O10 0.720625 0.480631 0.761016
O O11 0.840153 0.839245 0.349572
O O12 0.500000 0.000000 0.500000
O O13 0.110030 0.604960 0.649677
O O14 0.989774 0.259320 0.342226
O O15 0.000000 0.500000 0.000000
#
# Coordination Sequence:
#
# PCOD8022132 Si02
#       7
#     2   2   2   2   2   2   2
#     4  10  23  43  64  95 133 182 216 280 335 398
#     4  12  24  40  67 100 133 172 232 283 332 400
#     4  10  22  45  65  95 141 173 221 278 340 405
#     4  10  23  45  66  98 139 178 218 272 347 404
#     4  10  23  43  70  94 132 183 223 282 341 395
#     4  12  26  40  71 107 133 179 230 282 337 403
#     4  10  23  45  64  94 133 178 233 273 336 405
#
# _framework density 25.612459999999999
#
# number of rings (size 3 to 8) (size 9 to 14) (size 15 to 20)
#    0.000    1.429    1.429    2.571    4.000    4.000 
#    2.571    5.714    0.000    0.000    0.000    0.000 
#    0.000    0.000    0.000    0.000    0.000    0.000 
#
# Total GULP energy -173591.396755 kJ/mol
# GULP energy per Si atom -12399.385483 kJ/mol
# Density = 2.555416 g / cm^3
# Si number density = 25.612460 Si / 1000 Ang^3
#
#
#
# Elastic Constant Matrix: (Units=GPa)
#
#
# Indices 1 2 3 4 5 6 
#
# 1 142.6626 27.9172 31.6509 -4.2129 4.9259 -0.7383
# 2 27.9172 65.7510 37.6703 -13.5762 12.9081 0.5643
# 3 31.6509 37.6703 161.1240 -10.7030 30.7759 3.4075
# 4 -4.2129 -13.5762 -10.7030 35.1615 -0.4719 -0.3659
# 5 4.9259 12.9081 30.7759 -0.4719 54.4412 -6.2309
# 6 -0.7383 0.5643 3.4075 -0.3659 -6.2309 45.9750
#
#
#
# Elastic Compliance Matrix: (Units=1/GPa)
#
#
# Indices 1 2 3 4 5 6 
#
# 1 0.007774 -0.002956 -0.000988 -0.000499 0.000587 0.000310
# 2 -0.002956 0.020143 -0.003179 0.006415 -0.002698 -0.000374
# 3 -0.000988 -0.003179 0.007953 0.001013 -0.003766 -0.001069
# 4 -0.000499 0.006415 0.001013 0.031140 -0.001797 -0.000158
# 5 0.000587 -0.002698 -0.003766 -0.001797 0.021436 0.003213
# 6 0.000310 -0.000374 -0.001069 -0.000158 0.003213 0.022274
#
#
# Mechanical properties :
#
#
# Convention : Reuss Voigt Hill
#
# Bulk Modulus (GPa) = 46.24490 62.66826 54.45658
# Shear Modulus (GPa) = 37.82905 45.26882 41.54894
#
# Velocity S-wave (km/s) = 3.84732 4.20867 4.03204
# Velocity P-wave (km/s) = 6.15066 6.93817 6.55625
#
# Compressibility (1/GPa) = 0.02162401
#
# Stress axis : x y z
#
# Youngs Moduli (GPa) = 128.63908 49.64528 125.73792
#
# Poissons Ratio (x) = 0.14674 0.12421
# Poissons Ratio (y) = 0.38022 0.39975
# Poissons Ratio (z) = 0.12708 0.15784
#
# Static dielectric constant tensor:
#      x y z
#    x 4.721210 -0.088900 0.568660 
#    y -0.088900 4.692690 -0.367790 
#    z 0.568660 -0.367790 5.843660 
# 
# 
# High freq. dielectric constant tensor:
#      x y z
#    x 2.019350 -0.010580 0.023210 
#    y -0.010580 2.045830 0.003130 
#    z 0.023210 0.003130 2.055310 
# 
# From -- ./inp_files/37506.got.cif
#   From: 2010.06.25/outbox.cif.g09.slc.cpg/sg2_19_cif.got.tgz:37506.got - 2010.06.27 13:26:56.
