data_PCOD8022631
_publ_section_title
;
Structure prediction by ZEFSAII (Michael W. Deem and Ramdas Pophale) SiO2 
 PCOD8022631
Probable space group: P -1
;
_chemical_formula_sum "Si O2"
_cell_formula_units_Z 14
_cell_length_a 7.806773
_cell_length_b 15.408253
_cell_length_c 9.005892
_cell_angle_alpha 132.741018
_cell_angle_beta 109.612699
_cell_angle_gamma 65.275817
_cell_volume 720.497913
_symmetry_space_group_name_H-M "P -1"
_symmetry_group_IT_number 2
_symmetry_cell_setting 'triclinic'
loop_
_space_group_symop_operation_xyz
x,y,z
-x,-y,-z
loop_
_atom_site_type_symbol
_atom_site_label
_atom_site_fract_x
_atom_site_fract_y
_atom_site_fract_z
Si Si1 0.109196 0.484504 0.813399
Si Si2 0.288270 0.370805 0.445781
Si Si3 0.961206 0.733514 0.925531
Si Si4 0.554998 0.867013 0.931338
Si Si5 0.739210 0.424455 0.552062
Si Si6 0.420073 0.460961 0.081672
Si Si7 0.686553 0.245614 0.086511
O O1 0.272727 0.437109 0.677365
O O2 0.040215 0.633949 0.962692
O O3 0.948681 0.416297 0.663238
O O4 0.211656 0.446492 0.958388
O O5 0.080054 0.352665 0.322335
O O6 0.438818 0.235173 0.315574
O O7 0.345105 0.452708 0.427358
O O8 0.765605 0.834785 0.030297
O O9 0.115472 0.803975 0.002192
O O10 0.403185 0.862243 0.010768
O O11 0.500000 0.000000 0.000000
O O12 0.605842 0.436838 0.675482
O O13 0.735527 0.306233 0.321682
O O14 0.542810 0.332553 0.032119
O O15 0.500000 0.500000 0.000000
#
# Coordination Sequence:
#
# PCOD8022631 Si02
#       7
#     2   2   2   2   2   2   2
#     4  11  18  35  54  89 121 143 174 230 296 344
#     4   9  17  35  58  77 115 142 180 231 277 333
#     4   9  18  34  56  81 113 146 175 232 279 331
#     4  10  23  36  55  85 109 146 202 239 265 318
#     4  11  19  34  54  83 114 152 178 223 295 338
#     4  12  23  28  50  92 125 141 177 223 288 359
#     4  12  20  37  60  81 114 153 184 229 286 339
#
# _framework density 19.431007999999999
#
# number of rings (size 3 to 8) (size 9 to 14) (size 15 to 20)
#    0.857    0.571    5.714    1.714    2.000    0.571 
#    0.000    0.000    0.000    0.857    0.000    5.000 
#    0.000    0.000    0.000    0.000    0.000    0.000 
#
# Total GULP energy -173455.316007 kJ/mol
# GULP energy per Si atom -12389.665429 kJ/mol
# Density = 1.938678 g / cm^3
# Si number density = 19.431008 Si / 1000 Ang^3
#
#
#
# Elastic Constant Matrix: (Units=GPa)
#
#
# Indices 1 2 3 4 5 6 
#
# 1 114.5607 48.9964 8.3698 -5.2376 7.1601 13.0866
# 2 48.9964 95.5750 22.3748 0.3952 8.0881 11.0950
# 3 8.3698 22.3748 54.7438 -20.5933 3.2781 -3.9824
# 4 -5.2376 0.3952 -20.5933 24.6704 -2.7956 -1.1749
# 5 7.1601 8.0881 3.2781 -2.7956 22.3399 -5.1171
# 6 13.0866 11.0950 -3.9824 -1.1749 -5.1171 28.3373
#
#
#
# Elastic Compliance Matrix: (Units=1/GPa)
#
#
# Indices 1 2 3 4 5 6 
#
# 1 0.011811 -0.006016 0.002032 0.003917 -0.002110 -0.003032
# 2 -0.006016 0.017411 -0.010673 -0.011467 -0.005864 -0.007073
# 3 0.002032 -0.010673 0.034085 0.030017 0.004269 0.010046
# 4 0.003917 -0.011467 0.030017 0.068247 0.009660 0.011473
# 5 -0.002110 -0.005864 0.004269 0.009660 0.051242 0.013524
# 6 -0.003032 -0.007073 0.010046 0.011473 0.013524 0.043788
#
#
# Mechanical properties :
#
#
# Convention : Reuss Voigt Hill
#
# Bulk Modulus (GPa) = 29.41791 47.15128 38.28459
# Shear Modulus (GPa) = 18.71051 27.41208 23.06130
#
# Velocity S-wave (km/s) = 3.10646 3.76006 3.44878
# Velocity P-wave (km/s) = 5.29522 6.57034 5.96694
#
# Compressibility (1/GPa) = 0.03399290
#
# Stress axis : x y z
#
# Youngs Moduli (GPa) = 84.66742 57.43620 29.33818
#
# Poissons Ratio (x) = 0.34556 -0.05963
# Poissons Ratio (y) = 0.50939 0.31313
# Poissons Ratio (z) = -0.17208 0.61302
#
# Static dielectric constant tensor:
#      x y z
#    x 4.118980 0.014680 0.297260 
#    y 0.014680 3.136900 -0.388700 
#    z 0.297260 -0.388700 3.500810 
# 
# 
# High freq. dielectric constant tensor:
#      x y z
#    x 1.798590 0.008340 0.015400 
#    y 0.008340 1.705810 -0.031780 
#    z 0.015400 -0.031780 1.718610 
# 
# From -- ./inp_files/181782.got.cif
#   From: 2010.06.25/outbox.cif.g09.slc.cpg/sg2_91_cif.got.tgz:181782.got - 2010.06.27 13:26:56.
