data_PCOD8022664
_publ_section_title
;
Structure prediction by ZEFSAII (Michael W. Deem and Ramdas Pophale) SiO2 
 PCOD8022664
Probable space group: P -1
;
_chemical_formula_sum "Si O2"
_cell_formula_units_Z 14
_cell_length_a 19.857976
_cell_length_b 11.936235
_cell_length_c 13.738433
_cell_angle_alpha 147.543466
_cell_angle_beta 159.761216
_cell_angle_gamma 34.907887
_cell_volume 597.447031
_symmetry_space_group_name_H-M "P -1"
_symmetry_group_IT_number 2
_symmetry_cell_setting 'triclinic'
loop_
_space_group_symop_operation_xyz
x,y,z
-x,-y,-z
loop_
_atom_site_type_symbol
_atom_site_label
_atom_site_fract_x
_atom_site_fract_y
_atom_site_fract_z
Si Si1 0.865605 0.703057 0.711382
Si Si2 0.068903 0.901411 0.804296
Si Si3 0.437449 0.024623 0.045165
Si Si4 0.166436 0.422422 0.034171
Si Si5 0.756050 0.721710 0.352034
Si Si6 0.460485 0.618092 0.133527
Si Si7 0.879979 0.205402 0.615651
O O1 0.817268 0.705463 0.534941
O O2 0.668895 0.686228 0.498362
O O3 0.029938 0.504728 0.817023
O O4 0.949941 0.915908 0.006329
O O5 0.953447 0.712501 0.547437
O O6 0.298970 0.820834 0.042450
O O7 0.975805 0.991807 0.643639
O O8 0.274473 0.868907 0.724023
O O9 0.359390 0.269135 0.145293
O O10 0.619816 0.944708 0.305276
O O11 0.500000 0.000000 0.000000
O O12 0.051416 0.288454 0.851309
O O13 0.222829 0.620515 0.317955
O O14 0.629834 0.531194 0.019064
O O15 0.500000 0.500000 0.000000
#
# Coordination Sequence:
#
# PCOD8022664 Si02
#       7
#     2   2   2   2   2   2   2
#     4  10  23  44  67  97 127 173 224 271 333 389
#     4  11  22  42  67  97 132 172 216 278 328 397
#     4  12  25  42  67  99 135 177 218 274 337 398
#     4  10  24  44  71  96 135 174 224 280 325 403
#     4  11  24  42  64  99 133 170 218 268 340 392
#     4  10  23  37  64  95 130 167 220 268 325 390
#     4  10  23  44  69  97 132 177 228 266 341 388
#
# _framework density 23.433040999999999
#
# number of rings (size 3 to 8) (size 9 to 14) (size 15 to 20)
#    0.000    1.429    1.429    2.571    8.000    1.714 
#    5.143    0.000    0.000    0.000    0.000    0.000 
#    0.000    0.000    0.000    0.000    0.000    0.000 
#
# Total GULP energy -173572.047385 kJ/mol
# GULP energy per Si atom -12398.003385 kJ/mol
# Density = 2.337971 g / cm^3
# Si number density = 23.433041 Si / 1000 Ang^3
#
#
#
# Elastic Constant Matrix: (Units=GPa)
#
#
# Indices 1 2 3 4 5 6 
#
# 1 77.0874 37.6653 -0.2072 -4.8505 -3.3752 10.1744
# 2 37.6653 104.0683 10.1693 -10.5828 -4.3312 -6.2902
# 3 -0.2072 10.1693 51.4394 -4.4345 -0.5215 8.9711
# 4 -4.8505 -10.5828 -4.4345 38.7160 7.3735 3.9314
# 5 -3.3752 -4.3312 -0.5215 7.3735 32.3233 -1.9668
# 6 10.1744 -6.2902 8.9711 3.9314 -1.9668 41.8106
#
#
#
# Elastic Compliance Matrix: (Units=1/GPa)
#
#
# Indices 1 2 3 4 5 6 
#
# 1 0.017073 -0.006643 0.002491 0.001134 0.000322 -0.005780
# 2 -0.006643 0.012774 -0.003106 0.001733 0.000821 0.004081
# 3 0.002491 -0.003106 0.021321 0.002656 -0.000779 -0.005935
# 4 0.001134 0.001733 0.002656 0.028305 -0.006279 -0.003542
# 5 0.000322 0.000821 -0.000779 -0.006279 0.032643 0.002338
# 6 -0.005780 0.004081 -0.005935 -0.003542 0.002338 0.027654
#
#
# Mechanical properties :
#
#
# Convention : Reuss Voigt Hill
#
# Bulk Modulus (GPa) = 27.28401 36.42775 31.85588
# Shear Modulus (GPa) = 30.02939 34.90116 32.46528
#
# Velocity S-wave (km/s) = 3.58369 3.86346 3.72620
# Velocity P-wave (km/s) = 5.36586 5.95659 5.66892
#
# Compressibility (1/GPa) = 0.03665150
#
# Stress axis : x y z
#
# Youngs Moduli (GPa) = 58.57076 78.28354 46.90310
#
# Poissons Ratio (x) = 0.52007 -0.11685
# Poissons Ratio (y) = 0.38911 0.14568
# Poissons Ratio (z) = -0.14592 0.24315
#
# Static dielectric constant tensor:
#      x y z
#    x 4.050020 0.116800 0.356480 
#    y 0.116800 4.680600 -0.140020 
#    z 0.356480 -0.140020 5.130920 
# 
# 
# High freq. dielectric constant tensor:
#      x y z
#    x 1.908070 0.010070 0.013270 
#    y 0.010070 1.938940 -0.001750 
#    z 0.013270 -0.001750 1.932550 
# 
# From -- ./inp_files/154344.got.cif
#   From: 2010.06.25/outbox.cif.g09.slc.cpg/sg2_78_cif.got.tgz:154344.got - 2010.06.27 13:26:56.
