data_PCOD8022904
_publ_section_title
;
Structure prediction by ZEFSAII (Michael W. Deem and Ramdas Pophale) SiO2 
 PCOD8022904
Probable space group: P -1
;
_chemical_formula_sum "Si O2"
_cell_formula_units_Z 16
_cell_length_a 11.729347
_cell_length_b 14.733323
_cell_length_c 18.798904
_cell_angle_alpha 29.666390
_cell_angle_beta 135.695920
_cell_angle_gamma 152.557594
_cell_volume 718.753973
_symmetry_space_group_name_H-M "P -1"
_symmetry_group_IT_number 2
_symmetry_cell_setting 'triclinic'
loop_
_space_group_symop_operation_xyz
x,y,z
-x,-y,-z
loop_
_atom_site_type_symbol
_atom_site_label
_atom_site_fract_x
_atom_site_fract_y
_atom_site_fract_z
Si Si1 0.934301 0.517765 0.036905
Si Si2 0.258961 0.763706 0.503283
Si Si3 0.820314 0.495467 0.586616
Si Si4 0.363086 0.050014 0.102836
Si Si5 0.081211 0.853965 0.249236
Si Si6 0.570710 0.597624 0.589065
Si Si7 0.042821 0.773231 0.637859
Si Si8 0.190294 0.045885 0.880190
O O1 0.654848 0.366885 0.016687
O O2 0.958547 0.367323 0.202330
O O3 0.000000 0.500000 0.000000
O O4 0.117749 0.840341 0.925161
O O5 0.291025 0.903862 0.348358
O O6 0.999919 0.633405 0.504891
O O7 0.190236 0.488944 0.649222
O O8 0.500000 0.000000 0.500000
O O9 0.651599 0.533958 0.476006
O O10 0.017120 0.654265 0.631830
O O11 0.629094 0.160408 0.736823
O O12 0.203355 0.012920 0.119196
O O13 0.233878 0.976698 0.019720
O O14 0.029363 0.993192 0.176379
O O15 0.793450 0.685748 0.587922
O O16 0.452586 0.368583 0.753626
O O17 0.694560 0.886956 0.481258
#
# Coordination Sequence:
#
# PCOD8022904 Si02
#       8
#     2   2   2   2   2   2   2   2
#     4  12  28  46  71 104 143 191 237 289 363 421
#     4  10  23  39  71 107 145 180 231 292 355 419
#     4  11  22  42  71 100 136 187 227 288 350 418
#     4  11  25  44  72  98 145 186 234 285 352 429
#     4  10  24  44  68 106 141 188 233 292 352 422
#     4  11  25  43  70 103 138 178 243 295 341 420
#     4  11  25  44  71 100 137 188 235 286 357 419
#     4  12  26  46  71 106 144 185 234 300 352 416
#
# _framework density 22.260746999999999
#
# number of rings (size 3 to 8) (size 9 to 14) (size 15 to 20)
#    0.000    1.000    3.750    1.500    5.250    5.500 
#    0.000    0.000    0.000    0.000    0.000    0.000 
#    0.000    0.000    0.000    0.000    0.000    0.000 
#
# Total GULP energy -198381.907057 kJ/mol
# GULP energy per Si atom -12398.869191 kJ/mol
# Density = 2.221008 g / cm^3
# Si number density = 22.260747 Si / 1000 Ang^3
#
#
#
# Elastic Constant Matrix: (Units=GPa)
#
#
# Indices 1 2 3 4 5 6 
#
# 1 90.3040 34.8135 45.4879 -5.0140 1.8937 -17.7384
# 2 34.8135 124.4843 44.0398 -0.0417 0.3726 -11.5954
# 3 45.4879 44.0398 109.9065 -4.7907 -7.7489 -5.9938
# 4 -5.0140 -0.0417 -4.7907 37.1944 -2.7954 -0.0549
# 5 1.8937 0.3726 -7.7489 -2.7954 32.9478 3.9636
# 6 -17.7384 -11.5954 -5.9938 -0.0549 3.9636 36.9260
#
#
#
# Elastic Compliance Matrix: (Units=1/GPa)
#
#
# Indices 1 2 3 4 5 6 
#
# 1 0.016076 -0.001860 -0.005705 0.001220 -0.002927 0.006528
# 2 -0.001860 0.009849 -0.003183 -0.000724 -0.001030 0.001792
# 3 -0.005705 -0.003183 0.012940 0.001173 0.003752 -0.002041
# 4 0.001220 -0.000724 0.001173 0.027389 0.002499 0.000321
# 5 -0.002927 -0.001030 0.003752 0.002499 0.032175 -0.004570
# 6 0.006528 0.001792 -0.002041 0.000321 -0.004570 0.030940
#
#
# Mechanical properties :
#
#
# Convention : Reuss Voigt Hill
#
# Bulk Modulus (GPa) = 57.57775 63.70858 60.64317
# Shear Modulus (GPa) = 31.91710 34.77057 33.34383
#
# Velocity S-wave (km/s) = 3.79064 3.95646 3.87444
# Velocity P-wave (km/s) = 6.71416 7.03938 6.87869
#
# Compressibility (1/GPa) = 0.01736782
#
# Stress axis : x y z
#
# Youngs Moduli (GPa) = 62.20372 101.53025 77.28060
#
# Poissons Ratio (x) = 0.18887 0.44091
# Poissons Ratio (y) = 0.11571 0.24600
# Poissons Ratio (z) = 0.35489 0.32319
#
# Static dielectric constant tensor:
#      x y z
#    x 3.972190 -0.110690 -0.002190 
#    y -0.110690 3.918410 -0.008540 
#    z -0.002190 -0.008540 4.066510 
# 
# 
# High freq. dielectric constant tensor:
#      x y z
#    x 1.876230 -0.004220 -0.006760 
#    y -0.004220 1.877990 0.007670 
#    z -0.006760 0.007670 1.881080 
# 
# From -- ./inp_files/569941.got.cif
#   From: 2010.06.25/outbox.cif.g09.slc.cpg/sg2_285_cif.got.tgz:569941.got - 2010.06.27 13:26:56.
