data_PCOD8022894
_publ_section_title
;
Structure prediction by ZEFSAII (Michael W. Deem and Ramdas Pophale) SiO2 
 PCOD8022894
Probable space group: P -1
;
_chemical_formula_sum "Si O2"
_cell_formula_units_Z 16
_cell_length_a 14.858987
_cell_length_b 10.963679
_cell_length_c 8.075706
_cell_angle_alpha 54.580741
_cell_angle_beta 100.299779
_cell_angle_gamma 134.853862
_cell_volume 697.233120
_symmetry_space_group_name_H-M "P -1"
_symmetry_group_IT_number 2
_symmetry_cell_setting 'triclinic'
loop_
_space_group_symop_operation_xyz
x,y,z
-x,-y,-z
loop_
_atom_site_type_symbol
_atom_site_label
_atom_site_fract_x
_atom_site_fract_y
_atom_site_fract_z
Si Si1 0.512029 0.689549 0.400521
Si Si2 0.526547 0.854630 0.637176
Si Si3 0.781414 0.005758 0.729119
Si Si4 0.948982 0.531511 0.611190
Si Si5 0.975569 0.052020 0.280461
Si Si6 0.224521 0.417505 0.569881
Si Si7 0.195091 0.905563 0.953836
Si Si8 0.734849 0.611977 0.020915
O O1 0.500000 0.500000 0.500000
O O2 0.533912 0.768858 0.535827
O O3 0.362311 0.566515 0.384335
O O4 0.642355 0.918842 0.165218
O O5 0.670389 0.000119 0.664206
O O6 0.405148 0.641542 0.886729
O O7 0.500000 0.000000 0.500000
O O8 0.822594 0.050107 0.901707
O O9 0.725077 0.774243 0.840844
O O10 0.917693 0.204481 0.502118
O O11 0.818632 0.464801 0.555332
O O12 0.890459 0.355676 0.878520
O O13 0.000000 0.500000 0.500000
O O14 0.908995 0.845435 0.305627
O O15 0.871890 0.066706 0.228455
O O16 0.000000 0.000000 0.500000
O O17 0.125698 0.291345 0.079566
O O18 0.271093 0.426192 0.757717
#
# Coordination Sequence:
#
# PCOD8022894 Si02
#       8
#     2   2   2   2   2   2   2   2
#     4  11  24  46  74  98 151 185 234 287 350 432
#     4  11  28  45  70 109 142 184 239 298 351 413
#     4  11  22  43  72 100 138 186 244 286 345 429
#     4  10  23  39  70 100 138 178 234 289 349 417
#     4  12  25  41  68 103 133 175 240 295 342 417
#     4  11  22  44  70 101 130 185 238 284 345 426
#     4  11  24  43  68 103 138 188 228 290 368 404
#     4  11  22  43  72  93 136 186 236 285 346 425
#
# _framework density 22.947849000000001
#
# number of rings (size 3 to 8) (size 9 to 14) (size 15 to 20)
#    0.000    1.000    3.750    3.000   10.500    1.500 
#    2.250    1.250    0.000    0.000    0.000    0.000 
#    0.000    0.000    0.000    0.000    0.000    0.000 
#
# Total GULP energy -198224.070763 kJ/mol
# GULP energy per Si atom -12389.004423 kJ/mol
# Density = 2.289562 g / cm^3
# Si number density = 22.947849 Si / 1000 Ang^3
#
#
#
# Elastic Constant Matrix: (Units=GPa)
#
#
# Indices 1 2 3 4 5 6 
#
# 1 154.6971 41.5035 57.5880 -19.5080 17.0992 26.8985
# 2 41.5035 66.8190 49.3629 -19.5883 3.6018 19.9008
# 3 57.5880 49.3629 141.9109 -41.9928 7.4707 16.1783
# 4 -19.5080 -19.5883 -41.9928 46.3835 12.4790 -8.2409
# 5 17.0992 3.6018 7.4707 12.4790 51.1923 -4.0713
# 6 26.8985 19.9008 16.1783 -8.2409 -4.0713 41.6692
#
#
#
# Elastic Compliance Matrix: (Units=1/GPa)
#
#
# Indices 1 2 3 4 5 6 
#
# 1 0.009014 -0.002567 -0.001773 0.001256 -0.003193 -0.003968
# 2 -0.002567 0.023621 -0.005370 0.003145 -0.001348 -0.007049
# 3 -0.001773 -0.005370 0.012460 0.009156 -0.003050 0.000384
# 4 0.001256 0.003145 0.009156 0.034489 -0.010389 -0.000062
# 5 -0.003193 -0.001348 -0.003050 -0.010389 0.024006 0.004180
# 6 -0.003968 -0.007049 0.000384 -0.000062 0.004180 0.030174
#
#
# Mechanical properties :
#
#
# Convention : Reuss Voigt Hill
#
# Bulk Modulus (GPa) = 38.94628 73.37064 56.15846
# Shear Modulus (GPa) = 30.91337 42.18048 36.54693
#
# Velocity S-wave (km/s) = 3.67429 4.29196 3.99508
# Velocity P-wave (km/s) = 5.91684 7.52352 6.76803
#
# Compressibility (1/GPa) = 0.02567640
#
# Stress axis : x y z
#
# Youngs Moduli (GPa) = 110.93454 42.33495 80.25675
#
# Poissons Ratio (x) = 0.10868 0.14228
# Poissons Ratio (y) = 0.28478 0.43094
# Poissons Ratio (z) = 0.19667 0.22732
#
# Static dielectric constant tensor:
#      x y z
#    x 8.104570 1.403290 -2.426730 
#    y 1.403290 4.809030 -1.879670 
#    z -2.426730 -1.879670 6.783180 
# 
# 
# High freq. dielectric constant tensor:
#      x y z
#    x 1.913430 0.022620 0.000180 
#    y 0.022620 1.900050 -0.027470 
#    z 0.000180 -0.027470 1.903900 
# 
# From -- ./inp_files/306541.got.cif
#   From: 2010.06.25/outbox.cif.g09.slc.cpg/sg2_154_cif.got.tgz:306541.got - 2010.06.27 13:26:56.
