data_PCOD8022156
_publ_section_title
;
Structure prediction by ZEFSAII (Michael W. Deem and Ramdas Pophale) SiO2 
 PCOD8022156
Probable space group: P -1
;
_chemical_formula_sum "Si O2"
_cell_formula_units_Z 16
_cell_length_a 6.157175
_cell_length_b 10.527461
_cell_length_c 11.363750
_cell_angle_alpha 98.013939
_cell_angle_beta 74.573430
_cell_angle_gamma 82.448514
_cell_volume 692.078163
_symmetry_space_group_name_H-M "P -1"
_symmetry_group_IT_number 2
_symmetry_cell_setting 'triclinic'
loop_
_space_group_symop_operation_xyz
x,y,z
-x,-y,-z
loop_
_atom_site_type_symbol
_atom_site_label
_atom_site_fract_x
_atom_site_fract_y
_atom_site_fract_z
Si Si1 0.338634 0.892077 0.512715
Si Si2 0.490058 0.500139 0.307207
Si Si3 0.050860 0.087761 0.246077
Si Si4 0.696706 0.648470 0.489132
Si Si5 0.541926 0.025697 0.132496
Si Si6 0.053029 0.157823 0.862807
Si Si7 0.874781 0.264291 0.656613
Si Si8 0.195763 0.736835 0.868479
O O1 0.480831 0.764803 0.535660
O O2 0.238471 0.854025 0.396244
O O3 0.118522 0.943161 0.631457
O O4 0.500000 0.000000 0.500000
O O5 0.672265 0.555199 0.370253
O O6 0.317745 0.428781 0.397985
O O7 0.329393 0.614439 0.273295
O O8 0.641174 0.402695 0.181978
O O9 0.312008 0.071111 0.249145
O O10 0.979303 0.229819 0.212731
O O11 0.061705 0.971826 0.131906
O O12 0.939495 0.697942 0.457871
O O13 0.665554 0.146865 0.143100
O O14 0.677310 0.892462 0.155728
O O15 0.500000 0.000000 0.000000
O O16 0.014272 0.225355 0.750426
O O17 0.942727 0.261824 0.989673
#
# Coordination Sequence:
#
# PCOD8022156 Si02
#       8
#     2   2   2   2   2   2   2   2
#     4  11  25  44  70 105 141 180 228 284 358 423
#     4  10  23  43  69  96 135 187 243 280 338 407
#     4  11  22  40  67  99 135 177 231 284 344 409
#     4  10  22  45  66  99 137 182 238 290 332 412
#     4  11  21  41  68 100 135 184 232 286 342 414
#     4  11  24  41  63 100 144 174 229 285 353 411
#     4  11  26  44  68 101 143 184 224 292 354 404
#     4  11  22  41  68  99 133 181 238 283 338 413
#
# _framework density 23.118777999999999
#
# number of rings (size 3 to 8) (size 9 to 14) (size 15 to 20)
#    0.000    1.250    3.750    1.875    1.750    7.500 
#    0.000    1.250    0.000    0.000    0.000    0.000 
#    0.000    0.000    0.000    0.000    0.000    0.000 
#
# Total GULP energy -198363.861086 kJ/mol
# GULP energy per Si atom -12397.741318 kJ/mol
# Density = 2.306616 g / cm^3
# Si number density = 23.118778 Si / 1000 Ang^3
#
#
#
# Elastic Constant Matrix: (Units=GPa)
#
#
# Indices 1 2 3 4 5 6 
#
# 1 135.3353 52.0457 63.9741 1.4303 -14.9616 -16.7540
# 2 52.0457 97.6972 51.3534 9.8775 0.5618 -12.8134
# 3 63.9741 51.3534 116.4859 11.9406 -13.4682 -15.9476
# 4 1.4303 9.8775 11.9406 34.5790 -10.2719 -6.1176
# 5 -14.9616 0.5618 -13.4682 -10.2719 40.1181 -3.9267
# 6 -16.7540 -12.8134 -15.9476 -6.1176 -3.9267 45.7958
#
#
#
# Elastic Compliance Matrix: (Units=1/GPa)
#
#
# Indices 1 2 3 4 5 6 
#
# 1 0.011681 -0.004118 -0.004152 0.003842 0.004254 0.002553
# 2 -0.004118 0.015256 -0.004515 -0.003824 -0.004213 0.000317
# 3 -0.004152 -0.004515 0.013652 -0.002095 0.002750 0.001928
# 4 0.003842 -0.003824 -0.002095 0.034477 0.010108 0.005079
# 5 0.004254 -0.004213 0.002750 0.010108 0.030603 0.005309
# 6 0.002553 0.000317 0.001928 0.005079 0.005309 0.024664
#
#
# Mechanical properties :
#
#
# Convention : Reuss Voigt Hill
#
# Bulk Modulus (GPa) = 66.59041 76.02942 71.30991
# Shear Modulus (GPa) = 31.07295 36.24159 33.65727
#
# Velocity S-wave (km/s) = 3.67012 3.96362 3.81969
# Velocity P-wave (km/s) = 6.84294 7.34199 7.09685
#
# Compressibility (1/GPa) = 0.01501718
#
# Stress axis : x y z
#
# Youngs Moduli (GPa) = 85.60563 65.54957 73.24680
#
# Poissons Ratio (x) = 0.26996 0.30414
# Poissons Ratio (y) = 0.35256 0.33074
# Poissons Ratio (z) = 0.35546 0.29598
#
# Static dielectric constant tensor:
#      x y z
#    x 4.838430 -0.215100 0.299390 
#    y -0.215100 4.142890 0.218810 
#    z 0.299390 0.218810 4.409450 
# 
# 
# High freq. dielectric constant tensor:
#      x y z
#    x 1.925600 -0.014450 -0.008010 
#    y -0.014450 1.899680 0.010150 
#    z -0.008010 0.010150 1.904890 
# 
# From -- ./inp_files/364949.got.cif
#   From: 2010.06.25/outbox.cif.g09.slc.cpg/sg2_183_cif.got.tgz:364949.got - 2010.06.27 13:26:56.
