data_PCOD8022839
_publ_section_title
;
Structure prediction by ZEFSAII (Michael W. Deem and Ramdas Pophale) SiO2 
 PCOD8022839
Probable space group: P -1
;
_chemical_formula_sum "Si O2"
_cell_formula_units_Z 16
_cell_length_a 13.387007
_cell_length_b 7.693079
_cell_length_c 20.961991
_cell_angle_alpha 62.288393
_cell_angle_beta 157.367511
_cell_angle_gamma 119.654964
_cell_volume 721.717489
_symmetry_space_group_name_H-M "P -1"
_symmetry_group_IT_number 2
_symmetry_cell_setting 'triclinic'
loop_
_space_group_symop_operation_xyz
x,y,z
-x,-y,-z
loop_
_atom_site_type_symbol
_atom_site_label
_atom_site_fract_x
_atom_site_fract_y
_atom_site_fract_z
Si Si1 0.983659 0.742355 0.391615
Si Si2 0.736037 0.706933 0.652643
Si Si3 0.698156 0.592481 0.367797
Si Si4 0.244505 0.026585 0.883764
Si Si5 0.269116 0.727611 0.299640
Si Si6 0.805966 0.935621 0.007049
Si Si7 0.814793 0.653186 0.851321
Si Si8 0.583265 0.933130 0.335754
O O1 0.073327 0.533821 0.463933
O O2 0.742571 0.700332 0.307105
O O3 0.875946 0.799436 0.250655
O O4 0.199908 0.923453 0.518456
O O5 0.502942 0.823102 0.471426
O O6 0.741447 0.503961 0.653200
O O7 0.689906 0.649756 0.708586
O O8 0.022773 0.829580 0.785040
O O9 0.431878 0.422691 0.234723
O O10 0.700575 0.767727 0.391920
O O11 0.311259 0.068710 0.990165
O O12 0.500000 0.000000 0.000000
O O13 0.357046 0.804274 0.268021
O O14 0.972254 0.759636 0.131697
O O15 0.022970 0.126202 0.079026
O O16 0.553804 0.921207 0.814753
O O17 0.000000 0.500000 0.000000
#
# Coordination Sequence:
#
# PCOD8022839 Si02
#       8
#     2   2   2   2   2   2   2   2
#     4  11  26  44  70  98 132 185 225 271 328 410
#     4  10  23  39  65  94 127 174 211 275 332 391
#     4  11  24  43  69 100 132 175 231 269 333 398
#     4  11  25  46  65  92 137 177 220 271 337 400
#     4  11  22  41  65 101 131 165 227 275 337 395
#     4  11  25  40  70 100 133 171 221 282 335 398
#     4  11  21  39  65  94 129 171 214 274 331 387
#     4  12  22  46  68 101 139 173 221 282 337 393
#
# _framework density 22.169339000000001
#
# number of rings (size 3 to 8) (size 9 to 14) (size 15 to 20)
#    0.000    1.000    3.750    2.250    3.500    2.000 
#    2.250    0.625    0.000    0.000    0.000    0.000 
#    0.000    0.000    0.000    0.000    0.000    0.000 
#
# Total GULP energy -198259.051112 kJ/mol
# GULP energy per Si atom -12391.190694 kJ/mol
# Density = 2.211888 g / cm^3
# Si number density = 22.169339 Si / 1000 Ang^3
#
#
#
# Elastic Constant Matrix: (Units=GPa)
#
#
# Indices 1 2 3 4 5 6 
#
# 1 98.5229 23.4761 48.8129 -10.4296 9.1285 18.9593
# 2 23.4761 54.4840 9.1364 -14.5447 0.6839 10.5764
# 3 48.8129 9.1364 107.1890 -26.5630 -11.2689 7.9781
# 4 -10.4296 -14.5447 -26.5630 35.7503 5.1450 6.6101
# 5 9.1285 0.6839 -11.2689 5.1450 42.9300 -2.8913
# 6 18.9593 10.5764 7.9781 6.6101 -2.8913 40.4675
#
#
#
# Elastic Compliance Matrix: (Units=1/GPa)
#
#
# Indices 1 2 3 4 5 6 
#
# 1 0.016498 -0.005070 -0.007566 -0.001113 -0.005626 -0.005133
# 2 -0.005070 0.024638 0.003846 0.012725 -0.000296 -0.006922
# 3 -0.007566 0.003846 0.015720 0.010801 0.004243 -0.002021
# 4 -0.001113 0.012725 0.010801 0.043578 -0.003181 -0.012279
# 5 -0.005626 -0.000296 0.004243 -0.003181 0.026278 0.004273
# 6 -0.005133 -0.006922 -0.002021 -0.012279 0.004273 0.031635
#
#
# Mechanical properties :
#
#
# Convention : Reuss Voigt Hill
#
# Bulk Modulus (GPa) = 25.46036 47.00517 36.23276
# Shear Modulus (GPa) = 26.45274 35.74759 31.10017
#
# Velocity S-wave (km/s) = 3.45804 4.01992 3.74952
# Velocity P-wave (km/s) = 5.23961 6.54180 5.92658
#
# Compressibility (1/GPa) = 0.03927674
#
# Stress axis : x y z
#
# Youngs Moduli (GPa) = 60.61470 40.58783 63.61322
#
# Poissons Ratio (x) = 0.20577 0.48129
# Poissons Ratio (y) = 0.30730 -0.24467
# Poissons Ratio (z) = 0.45860 -0.15611
#
# Static dielectric constant tensor:
#      x y z
#    x 4.050000 0.212820 -0.155340 
#    y 0.212820 4.042970 -0.173290 
#    z -0.155340 -0.173290 4.015720 
# 
# 
# High freq. dielectric constant tensor:
#      x y z
#    x 1.871810 0.015590 -0.001260 
#    y 0.015590 1.872040 -0.013590 
#    z -0.001260 -0.013590 1.880380 
# 
# From -- ./inp_files/611622.got.cif
#   From: 2010.06.25/outbox.cif.g09.slc.cpg/sg2_306_cif.got.tgz:611622.got - 2010.06.27 13:26:56.
