data_PCOD8022640
_publ_section_title
;
Structure prediction by ZEFSAII (Michael W. Deem and Ramdas Pophale) SiO2 
 PCOD8022640
Probable space group: P -1
;
_chemical_formula_sum "Si O2"
_cell_formula_units_Z 16
_cell_length_a 13.496438
_cell_length_b 11.911425
_cell_length_c 12.167216
_cell_angle_alpha 73.080566
_cell_angle_beta 65.908953
_cell_angle_gamma 128.620658
_cell_volume 898.102661
_symmetry_space_group_name_H-M "P -1"
_symmetry_group_IT_number 2
_symmetry_cell_setting 'triclinic'
loop_
_space_group_symop_operation_xyz
x,y,z
-x,-y,-z
loop_
_atom_site_type_symbol
_atom_site_label
_atom_site_fract_x
_atom_site_fract_y
_atom_site_fract_z
Si Si1 0.806808 0.252072 0.789051
Si Si2 0.280051 0.688205 0.385648
Si Si3 0.556793 0.309538 0.149135
Si Si4 0.825081 0.625951 0.590783
Si Si5 0.757629 0.958543 0.833037
Si Si6 0.915905 0.556728 0.780897
Si Si7 0.614959 0.062878 0.536912
Si Si8 0.511824 0.524578 0.117723
O O1 0.658054 0.169774 0.785023
O O2 0.748485 0.062619 0.889253
O O3 0.798776 0.323390 0.882480
O O4 0.038078 0.474220 0.576928
O O5 0.321296 0.590026 0.360217
O O6 0.401148 0.845855 0.392904
O O7 0.552175 0.432969 0.176308
O O8 0.405191 0.167489 0.154219
O O9 0.495916 0.156124 0.308109
O O10 0.792791 0.509335 0.945912
O O11 0.914060 0.627486 0.647911
O O12 0.700607 0.621865 0.694595
O O13 0.016485 0.855012 0.371735
O O14 0.694644 0.786963 0.982693
O O15 0.151063 0.753630 0.654024
O O16 0.500000 0.000000 0.500000
O O17 0.500000 0.500000 0.000000
#
# Coordination Sequence:
#
# PCOD8022640 Si02
#       8
#     2   2   2   2   2   2   2   2
#     4   8  14  27  49  75 104 126 154 199 258 312
#     4   8  15  29  49  76  98 126 166 205 250 298
#     4  11  21  33  47  74 108 134 168 201 243 307
#     4  10  17  31  54  76 109 133 154 204 255 306
#     4  10  17  29  47  74 106 137 157 189 250 311
#     4  10  19  32  51  78 105 131 158 209 258 298
#     4  11  22  37  54  71  98 137 175 211 248 288
#     4  10  21  30  44  79 110 136 163 191 245 317
#
# _framework density 17.815335000000001
#
# number of rings (size 3 to 8) (size 9 to 14) (size 15 to 20)
#    0.000    2.250    5.000    1.500    0.000    5.000 
#    0.000    0.000    0.000    0.750    0.000    8.750 
#    0.000    0.000    0.000    0.000    0.000    0.000 
#
# Total GULP energy -198278.537255 kJ/mol
# GULP energy per Si atom -12392.408578 kJ/mol
# Density = 1.777479 g / cm^3
# Si number density = 17.815335 Si / 1000 Ang^3
#
#
#
# Elastic Constant Matrix: (Units=GPa)
#
#
# Indices 1 2 3 4 5 6 
#
# 1 83.0289 55.9464 35.9722 -0.7460 -1.4550 -12.4725
# 2 55.9464 75.4623 20.7583 -7.1752 0.7789 -9.5544
# 3 35.9722 20.7583 63.8943 -11.4884 -12.0881 -4.0202
# 4 -0.7460 -7.1752 -11.4884 24.3542 -12.3199 2.9635
# 5 -1.4550 0.7789 -12.0881 -12.3199 28.7148 4.1981
# 6 -12.4725 -9.5544 -4.0202 2.9635 4.1981 27.5789
#
#
#
# Elastic Compliance Matrix: (Units=1/GPa)
#
#
# Indices 1 2 3 4 5 6 
#
# 1 0.038976 -0.023609 -0.022581 -0.028516 -0.020939 0.012408
# 2 -0.023609 0.029699 0.008196 0.016713 0.008963 -0.002354
# 3 -0.022581 0.008196 0.037720 0.036978 0.031944 -0.010711
# 4 -0.028516 0.016713 0.036978 0.093839 0.056921 -0.020464
# 5 -0.020939 0.008963 0.031944 0.056921 0.074185 -0.019117
# 6 0.012408 -0.002354 -0.010711 -0.020464 -0.019117 0.044603
#
#
# Mechanical properties :
#
#
# Convention : Reuss Voigt Hill
#
# Bulk Modulus (GPa) = 32.88852 49.74881 41.31867
# Shear Modulus (GPa) = 12.34120 23.44345 17.89233
#
# Velocity S-wave (km/s) = 2.63483 3.63149 3.17254
# Velocity P-wave (km/s) = 5.26852 6.75048 6.05501
#
# Compressibility (1/GPa) = 0.03040575
#
# Stress axis : x y z
#
# Youngs Moduli (GPa) = 25.65675 33.67122 26.51138
#
# Poissons Ratio (x) = 0.79494 0.59866
# Poissons Ratio (y) = 0.60572 -0.21728
# Poissons Ratio (z) = 0.57936 -0.27595
#
# Static dielectric constant tensor:
#      x y z
#    x 3.172210 -0.700910 -0.050140 
#    y -0.700910 3.739820 -0.138270 
#    z -0.050140 -0.138270 3.344690 
# 
# 
# High freq. dielectric constant tensor:
#      x y z
#    x 1.639970 -0.045920 -0.017690 
#    y -0.045920 1.677620 -0.013210 
#    z -0.017690 -0.013210 1.695650 
# 
# From -- ./inp_files/266715.got.cif
#   From: 2010.06.25/outbox.cif.g09.slc.cpg/sg2_134_cif.got.tgz:266715.got - 2010.06.27 13:26:56.
