data_PCOD8022962
_publ_section_title
;
Structure prediction by ZEFSAII (Michael W. Deem and Ramdas Pophale) SiO2 
 PCOD8022962
Probable space group: P -1
;
_chemical_formula_sum "Si O2"
_cell_formula_units_Z 10
_cell_length_a 11.754086
_cell_length_b 8.529288
_cell_length_c 6.101969
_cell_angle_alpha 52.593657
_cell_angle_beta 66.106252
_cell_angle_gamma 74.463014
_cell_volume 444.093072
_symmetry_space_group_name_H-M "P -1"
_symmetry_group_IT_number 2
_symmetry_cell_setting 'triclinic'
loop_
_space_group_symop_operation_xyz
x,y,z
-x,-y,-z
loop_
_atom_site_type_symbol
_atom_site_label
_atom_site_fract_x
_atom_site_fract_y
_atom_site_fract_z
Si Si1 0.293099 0.812799 0.710107
Si Si2 0.285387 0.112692 0.104955
Si Si3 0.126529 0.108010 0.846681
Si Si4 0.454249 0.342712 0.491993
Si Si5 0.754347 0.583788 0.748797
O O1 0.247844 0.983698 0.766341
O O2 0.436090 0.736363 0.689058
O O3 0.283617 0.893488 0.398511
O O4 0.207093 0.625720 0.990677
O O5 0.299888 0.276842 0.138001
O O6 0.399676 0.149813 0.819093
O O7 0.153272 0.138914 0.056713
O O8 0.124592 0.316925 0.540579
O O9 0.000000 0.000000 0.000000
O O10 0.500000 0.500000 0.500000
O O11 0.348639 0.446266 0.334532
#
# Coordination Sequence:
#
# PCOD8022962 Si02
#       5
#     2   2   2   2   2
#     4  11  23  38  65  94 121 163 202 241 309 365
#     4  10  23  40  63  91 126 158 202 249 306 358
#     4  10  25  45  62  86 123 161 209 258 298 351
#     4  11  22  38  64  92 133 158 191 248 305 369
#     4  10  23  41  62  95 124 157 207 244 300 373
#
# _framework density 22.517802
#
# number of rings (size 3 to 8) (size 9 to 14) (size 15 to 20)
#    0.000    1.600    2.000    1.200    2.800   11.200 
#    0.000    2.000    0.000    0.000    0.000    0.000 
#    0.000    0.000    0.000    0.000    0.000    0.000 
#
# Total GULP energy -123907.444005 kJ/mol
# GULP energy per Si atom -12390.744400 kJ/mol
# Density = 2.246655 g / cm^3
# Si number density = 22.517802 Si / 1000 Ang^3
#
#
#
# Elastic Constant Matrix: (Units=GPa)
#
#
# Indices 1 2 3 4 5 6 
#
# 1 82.8174 27.6022 42.7991 1.6245 -11.6172 34.3295
# 2 27.6022 67.1825 31.9554 -2.8945 5.6052 15.5885
# 3 42.7991 31.9554 202.6547 -42.0962 -1.5011 17.6068
# 4 1.6245 -2.8945 -42.0962 41.5904 -0.6576 -0.3515
# 5 -11.6172 5.6052 -1.5011 -0.6576 21.4289 -6.0078
# 6 34.3295 15.5885 17.6068 -0.3515 -6.0078 27.8299
#
#
#
# Elastic Compliance Matrix: (Units=1/GPa)
#
#
# Indices 1 2 3 4 5 6 
#
# 1 0.028775 -0.004106 -0.004013 -0.005588 0.008096 -0.028980
# 2 -0.004106 0.019824 -0.001836 -0.000527 -0.009501 -0.006936
# 3 -0.004013 -0.001836 0.007562 0.007683 -0.000604 0.001161
# 4 -0.005588 -0.000527 0.007683 0.032014 -0.000644 0.002593
# 5 0.008096 -0.009501 -0.000604 -0.000644 0.055643 0.007720
# 6 -0.028980 -0.006936 0.001161 0.002593 0.007720 0.076530
#
#
# Mechanical properties :
#
#
# Convention : Reuss Voigt Hill
#
# Bulk Modulus (GPa) = 27.58454 61.92978 44.75716
# Shear Modulus (GPa) = 19.81442 34.85636 27.33539
#
# Velocity S-wave (km/s) = 2.96960 3.93866 3.48795
# Velocity P-wave (km/s) = 4.90253 6.94596 6.01170
#
# Compressibility (1/GPa) = 0.03625219
#
# Stress axis : x y z
#
# Youngs Moduli (GPa) = 34.75266 50.44311 132.23695
#
# Poissons Ratio (x) = 0.20710 0.53062
# Poissons Ratio (y) = 0.14268 0.24282
# Poissons Ratio (z) = 0.13945 0.09263
#
# Static dielectric constant tensor:
#      x y z
#    x 3.639340 0.168910 0.033600 
#    y 0.168910 3.860330 -0.141440 
#    z 0.033600 -0.141440 4.839830 
# 
# 
# High freq. dielectric constant tensor:
#      x y z
#    x 1.850850 0.021600 -0.001920 
#    y 0.021600 1.868200 -0.005130 
#    z -0.001920 -0.005130 1.925100 
# 
# From -- ./inp_files/3889.got.cif
#   From: 2010.06.25/outbox.cif.g09.slc.cpg/sg2_2_cif.got.tgz:3889.got - 2010.06.27 13:26:56.
