data_PCOD8022338
_publ_section_title
;
Structure prediction by ZEFSAII (Michael W. Deem and Ramdas Pophale) SiO2 
 PCOD8022338
Probable space group: P -1
;
_chemical_formula_sum "Si O2"
_cell_formula_units_Z 12
_cell_length_a 11.750895
_cell_length_b 18.520860
_cell_length_c 14.333462
_cell_angle_alpha 157.999741
_cell_angle_beta 154.407245
_cell_angle_gamma 27.579512
_cell_volume 479.940421
_symmetry_space_group_name_H-M "P -1"
_symmetry_group_IT_number 2
_symmetry_cell_setting 'triclinic'
loop_
_space_group_symop_operation_xyz
x,y,z
-x,-y,-z
loop_
_atom_site_type_symbol
_atom_site_label
_atom_site_fract_x
_atom_site_fract_y
_atom_site_fract_z
Si Si1 0.464453 0.664579 0.430735
Si Si2 0.288637 0.410473 0.657946
Si Si3 0.022394 0.744573 0.989498
Si Si4 0.391623 0.994981 0.517291
Si Si5 0.294574 0.338932 0.005489
Si Si6 0.265972 0.079036 0.843496
O O1 0.465294 0.587518 0.231723
O O2 0.733331 0.740878 0.728448
O O3 0.207178 0.871686 0.512747
O O4 0.489642 0.481638 0.302768
O O5 0.272706 0.545877 0.902497
O O6 0.000000 0.500000 0.500000
O O7 0.351698 0.174556 0.447235
O O8 0.996092 0.766773 0.110369
O O9 0.109078 0.932598 0.236410
O O10 0.315657 0.208257 0.770577
O O11 0.500000 0.000000 0.500000
O O12 0.379957 0.195016 0.986137
O O13 0.000000 0.500000 0.000000
O O14 0.500000 0.000000 0.000000
#
# Coordination Sequence:
#
# PCOD8022338 Si02
#       6
#     2   2   2   2   2   2
#     4  10  22  47  69 100 143 187 233 286 352 417
#     4  10  22  45  71  98 135 190 231 289 351 411
#     4  10  23  42  70  97 140 184 227 284 354 408
#     4  12  26  45  69 108 142 180 239 294 348 418
#     4  12  27  43  73 110 141 183 238 291 347 422
#     4  10  23  45  71 101 140 187 233 286 350 418
#
# _framework density 25.003104
#
# number of rings (size 3 to 8) (size 9 to 14) (size 15 to 20)
#    0.000    1.333    1.667    2.500    4.667    4.000 
#   12.000    5.000    0.000    0.000    0.000    0.000 
#    0.000    0.000    0.000    0.000    0.000    0.000 
#
# Total GULP energy -148677.433923 kJ/mol
# GULP energy per Si atom -12389.786160 kJ/mol
# Density = 2.494620 g / cm^3
# Si number density = 25.003104 Si / 1000 Ang^3
#
#
#
# Elastic Constant Matrix: (Units=GPa)
#
#
# Indices 1 2 3 4 5 6 
#
# 1 259.8244 67.8992 97.0475 27.2888 -20.4161 1.0369
# 2 67.8992 102.3963 51.2068 28.1120 -7.9850 -3.4574
# 3 97.0475 51.2068 153.1644 27.0877 -2.8599 -2.4143
# 4 27.2888 28.1120 27.0877 42.8709 -0.9579 0.5335
# 5 -20.4161 -7.9850 -2.8599 -0.9579 63.8215 18.5332
# 6 1.0369 -3.4574 -2.4143 0.5335 18.5332 54.8077
#
#
#
# Elastic Compliance Matrix: (Units=1/GPa)
#
#
# Indices 1 2 3 4 5 6 
#
# 1 0.005612 -0.002140 -0.002757 -0.000378 0.001666 -0.000922
# 2 -0.002140 0.014152 -0.002199 -0.006521 0.000697 0.000664
# 3 -0.002757 -0.002199 0.009506 -0.002840 -0.000974 0.000689
# 4 -0.000378 -0.006521 -0.002840 0.029636 -0.000423 -0.000675
# 5 0.001666 0.000697 -0.000974 -0.000423 0.018016 -0.006118
# 6 -0.000922 0.000664 0.000689 -0.000675 -0.006118 0.020411
#
#
# Mechanical properties :
#
#
# Convention : Reuss Voigt Hill
#
# Bulk Modulus (GPa) = 66.32024 105.29910 85.80967
# Shear Modulus (GPa) = 42.90044 52.24881 47.57462
#
# Velocity S-wave (km/s) = 4.14672 4.57628 4.36678
# Velocity P-wave (km/s) = 7.03629 8.37430 7.73429
#
# Compressibility (1/GPa) = 0.01507835
#
# Stress axis : x y z
#
# Youngs Moduli (GPa) = 178.18646 70.66373 105.19950
#
# Poissons Ratio (x) = 0.15122 0.29003
# Poissons Ratio (y) = 0.38132 0.23128
# Poissons Ratio (z) = 0.49126 0.15536
#
# Static dielectric constant tensor:
#      x y z
#    x 6.691300 -0.954590 -0.933040 
#    y -0.954590 5.036700 0.508510 
#    z -0.933040 0.508510 5.114130 
# 
# 
# High freq. dielectric constant tensor:
#      x y z
#    x 2.038080 -0.023440 -0.032680 
#    y -0.023440 2.009810 -0.004000 
#    z -0.032680 -0.004000 1.999780 
# 
# From -- ./inp_files/71946.got.cif
#   From: 2010.06.25/outbox.cif.g09.slc.cpg/sg2_36_cif.got.tgz:71946.got - 2010.06.27 13:26:56.
