data_PCOD8022299
_publ_section_title
;
Structure prediction by ZEFSAII (Michael W. Deem and Ramdas Pophale) SiO2 
 PCOD8022299
Probable space group: P -1
;
_chemical_formula_sum "Si O2"
_cell_formula_units_Z 16
_cell_length_a 8.741714
_cell_length_b 13.784036
_cell_length_c 14.623895
_cell_angle_alpha 139.919461
_cell_angle_beta 108.389802
_cell_angle_gamma 101.997553
_cell_volume 729.673883
_symmetry_space_group_name_H-M "P -1"
_symmetry_group_IT_number 2
_symmetry_cell_setting 'triclinic'
loop_
_space_group_symop_operation_xyz
x,y,z
-x,-y,-z
loop_
_atom_site_type_symbol
_atom_site_label
_atom_site_fract_x
_atom_site_fract_y
_atom_site_fract_z
Si Si1 0.181859 0.118936 0.339088
Si Si2 0.568133 0.183373 0.970099
Si Si3 0.730031 0.621937 0.902669
Si Si4 0.397241 0.558260 0.673929
Si Si5 0.904038 0.450292 0.729015
Si Si6 0.199029 0.956115 0.580151
Si Si7 0.536546 0.225308 0.343583
Si Si8 0.690566 0.757333 0.354945
O O1 0.162994 0.288652 0.440129
O O2 0.303259 0.116117 0.276047
O O3 0.325951 0.174347 0.498932
O O4 0.918711 0.882595 0.139273
O O5 0.354120 0.090822 0.797303
O O6 0.511506 0.976775 0.845705
O O7 0.599333 0.309528 0.155001
O O8 0.812872 0.357324 0.086421
O O9 0.599383 0.572482 0.746213
O O10 0.845407 0.535814 0.855483
O O11 0.553079 0.510347 0.878587
O O12 0.432847 0.646145 0.644168
O O13 0.803048 0.219846 0.576922
O O14 0.780259 0.404065 0.575567
O O15 0.925815 0.816992 0.441437
O O16 0.321702 0.132855 0.649264
#
# Coordination Sequence:
#
# PCOD8022299 Si02
#       8
#     2   2   2   2   2   2   2   2
#     4  11  22  41  64  97 132 169 216 270 319 381
#     4  11  24  44  65 100 133 172 215 273 327 386
#     4  11  23  40  66  97 133 171 217 267 323 387
#     4  11  24  41  67  96 131 178 225 264 319 383
#     4  11  22  41  65  95 139 169 211 270 327 387
#     4  10  24  44  70  96 132 169 215 273 330 385
#     4  11  23  42  66  95 135 176 215 273 324 379
#     4  10  22  45  70  97 128 169 222 267 325 392
#
# _framework density 21.927605
#
# number of rings (size 3 to 8) (size 9 to 14) (size 15 to 20)
#    0.000    1.250    3.750    3.000    0.000    4.500 
#    0.000    7.500    0.000    0.000    0.000    0.000 
#    0.000    0.000    0.000    0.000    0.000    0.000 
#
# Total GULP energy -198327.423601 kJ/mol
# GULP energy per Si atom -12395.463975 kJ/mol
# Density = 2.187770 g / cm^3
# Si number density = 21.927605 Si / 1000 Ang^3
#
#
#
# Elastic Constant Matrix: (Units=GPa)
#
#
# Indices 1 2 3 4 5 6 
#
# 1 100.3769 49.1973 45.7424 11.3105 -10.2763 0.9289
# 2 49.1973 158.3676 46.7514 21.4780 -2.5827 -4.8063
# 3 45.7424 46.7514 104.0782 36.1138 -6.8081 3.4599
# 4 11.3105 21.4780 36.1138 30.7102 3.4745 1.7849
# 5 -10.2763 -2.5827 -6.8081 3.4745 38.7708 4.8682
# 6 0.9289 -4.8063 3.4599 1.7849 4.8682 31.6770
#
#
#
# Elastic Compliance Matrix: (Units=1/GPa)
#
#
# Indices 1 2 3 4 5 6 
#
# 1 0.013972 -0.003100 -0.005863 0.003710 0.002234 -0.000792
# 2 -0.003100 0.008123 -0.001320 -0.003035 -0.000455 0.001709
# 3 -0.005863 -0.001320 0.020541 -0.021438 0.004099 -0.001694
# 4 0.003710 -0.003035 -0.021438 0.059483 -0.008275 -0.000308
# 5 0.002234 -0.000455 0.004099 -0.008275 0.028378 -0.004477
# 6 -0.000792 0.001709 -0.001694 -0.000308 -0.004477 0.032741
#
#
# Mechanical properties :
#
#
# Convention : Reuss Voigt Hill
#
# Bulk Modulus (GPa) = 45.31007 71.80053 58.55530
# Shear Modulus (GPa) = 26.15594 34.97371 30.56483
#
# Velocity S-wave (km/s) = 3.45749 3.99803 3.73754
# Velocity P-wave (km/s) = 6.05370 7.35716 6.73703
#
# Compressibility (1/GPa) = 0.02207015
#
# Stress axis : x y z
#
# Youngs Moduli (GPa) = 71.57296 123.10393 48.68343
#
# Poissons Ratio (x) = 0.38167 0.28542
# Poissons Ratio (y) = 0.22190 0.06424
# Poissons Ratio (z) = 0.41962 0.16245
#
# Static dielectric constant tensor:
#      x y z
#    x 4.005330 -0.097750 0.004380 
#    y -0.097750 3.893250 0.324010 
#    z 0.004380 0.324010 4.504670 
# 
# 
# High freq. dielectric constant tensor:
#      x y z
#    x 1.863740 -0.002640 -0.004930 
#    y -0.002640 1.852480 0.021250 
#    z -0.004930 0.021250 1.876040 
# 
# From -- ./inp_files/505610.got.cif
#   From: 2010.06.25/outbox.cif.g09.slc.cpg/sg2_253_cif.got.tgz:505610.got - 2010.06.27 13:26:56.
