data_PCOD8022268
_publ_section_title
;
Structure prediction by ZEFSAII (Michael W. Deem and Ramdas Pophale) SiO2 
 PCOD8022268
Probable space group: P -1
;
_chemical_formula_sum "Si O2"
_cell_formula_units_Z 16
_cell_length_a 8.570452
_cell_length_b 9.349473
_cell_length_c 13.694134
_cell_angle_alpha 73.556035
_cell_angle_beta 129.293557
_cell_angle_gamma 78.540971
_cell_volume 700.990833
_symmetry_space_group_name_H-M "P -1"
_symmetry_group_IT_number 2
_symmetry_cell_setting 'triclinic'
loop_
_space_group_symop_operation_xyz
x,y,z
-x,-y,-z
loop_
_atom_site_type_symbol
_atom_site_label
_atom_site_fract_x
_atom_site_fract_y
_atom_site_fract_z
Si Si1 0.232353 0.086307 0.850962
Si Si2 0.063386 0.550453 0.252125
Si Si3 0.382790 0.524415 0.228278
Si Si4 0.053948 0.615176 0.924892
Si Si5 0.613229 0.676415 0.408501
Si Si6 0.158545 0.988101 0.252677
Si Si7 0.301938 0.856348 0.553296
Si Si8 0.155758 0.128554 0.594651
O O1 0.119660 0.291181 0.784865
O O2 0.236165 0.041146 0.748244
O O3 0.083222 0.013717 0.861968
O O4 0.500000 0.000000 0.000000
O O5 0.939268 0.453010 0.169897
O O6 0.158958 0.627062 0.191833
O O7 0.288325 0.423681 0.431628
O O8 0.585372 0.558852 0.338012
O O9 0.454129 0.323787 0.311755
O O10 0.305401 0.581093 0.073374
O O11 0.877046 0.822424 0.817316
O O12 0.000000 0.500000 0.000000
O O13 0.810617 0.708154 0.434700
O O14 0.363483 0.852072 0.289681
O O15 0.238771 0.932343 0.405936
O O16 0.114957 0.813351 0.537113
O O17 0.319192 0.994076 0.601992
#
# Coordination Sequence:
#
# PCOD8022268 Si02
#       8
#     2   2   2   2   2   2   2   2
#     4  11  26  45  68  95 145 185 224 276 351 422
#     4  11  23  45  68 102 137 184 228 283 346 408
#     4  11  23  41  69 103 140 174 227 292 343 397
#     4  10  26  42  63 106 142 172 223 293 348 402
#     4  12  23  40  76 104 132 177 238 289 333 410
#     4  11  23  45  73 101 134 185 232 277 349 412
#     4  10  22  45  69  96 141 180 229 279 344 413
#     4  10  25  40  65 103 133 180 227 284 337 411
#
# _framework density 22.824833999999999
#
# number of rings (size 3 to 8) (size 9 to 14) (size 15 to 20)
#    0.000    1.250    2.500    2.625    7.000    4.500 
#    0.000    0.625    0.000    0.000    0.000    0.000 
#    0.000    0.000    0.000    0.000    0.000    0.000 
#
# Total GULP energy -198323.502110 kJ/mol
# GULP energy per Si atom -12395.218882 kJ/mol
# Density = 2.277288 g / cm^3
# Si number density = 22.824834 Si / 1000 Ang^3
#
#
#
# Elastic Constant Matrix: (Units=GPa)
#
#
# Indices 1 2 3 4 5 6 
#
# 1 41.3068 1.4216 -1.5720 -6.3418 4.3040 9.3885
# 2 1.4216 110.1864 44.3732 1.7442 -4.1092 7.8354
# 3 -1.5720 44.3732 110.7247 3.4048 6.9011 0.3880
# 4 -6.3418 1.7442 3.4048 52.1374 1.0657 1.0204
# 5 4.3040 -4.1092 6.9011 1.0657 19.4693 -1.2470
# 6 9.3885 7.8354 0.3880 1.0204 -1.2470 27.8876
#
#
#
# Elastic Compliance Matrix: (Units=1/GPa)
#
#
# Indices 1 2 3 4 5 6 
#
# 1 0.027802 -0.000372 0.000925 0.003675 -0.007377 -0.009732
# 2 -0.000372 0.011363 -0.004795 -0.000139 0.004007 -0.002816
# 3 0.000925 -0.004795 0.011297 -0.000372 -0.005158 0.000662
# 4 0.003675 -0.000139 -0.000372 0.019734 -0.001918 -0.002001
# 5 -0.007377 0.004007 -0.005158 -0.001918 0.056029 0.004005
# 6 -0.009732 -0.002816 0.000662 -0.002001 0.004005 0.040169
#
#
# Mechanical properties :
#
#
# Convention : Reuss Voigt Hill
#
# Bulk Modulus (GPa) = 23.82243 38.96262 31.39252
# Shear Modulus (GPa) = 26.47304 34.43188 30.45246
#
# Velocity S-wave (km/s) = 3.40933 3.88819 3.65661
# Velocity P-wave (km/s) = 5.09488 6.10448 5.62239
#
# Compressibility (1/GPa) = 0.04197725
#
# Stress axis : x y z
#
# Youngs Moduli (GPa) = 35.96865 88.00389 88.52199
#
# Poissons Ratio (x) = 0.03277 -0.08187
# Poissons Ratio (y) = 0.01339 0.42444
# Poissons Ratio (z) = -0.03326 0.42195
#
# Static dielectric constant tensor:
#      x y z
#    x 3.889200 0.067330 0.115830 
#    y 0.067330 4.524230 0.375500 
#    z 0.115830 0.375500 4.212530 
# 
# 
# High freq. dielectric constant tensor:
#      x y z
#    x 1.876990 0.002620 0.006060 
#    y 0.002620 1.920050 0.014000 
#    z 0.006060 0.014000 1.897700 
# 
# From -- ./inp_files/278644.got.cif
#   From: 2010.06.25/outbox.cif.g09.slc.cpg/sg2_140_cif.got.tgz:278644.got - 2010.06.27 13:26:56.
