data_PCOD8022693
_publ_section_title
;
Structure prediction by ZEFSAII (Michael W. Deem and Ramdas Pophale) SiO2 
 PCOD8022693
Probable space group: P -1
;
_chemical_formula_sum "Si O2"
_cell_formula_units_Z 12
_cell_length_a 8.855151
_cell_length_b 16.160111
_cell_length_c 13.571919
_cell_angle_alpha 25.828565
_cell_angle_beta 109.885198
_cell_angle_gamma 91.632323
_cell_volume 585.081396
_symmetry_space_group_name_H-M "P -1"
_symmetry_group_IT_number 2
_symmetry_cell_setting 'triclinic'
loop_
_space_group_symop_operation_xyz
x,y,z
-x,-y,-z
loop_
_atom_site_type_symbol
_atom_site_label
_atom_site_fract_x
_atom_site_fract_y
_atom_site_fract_z
Si Si1 0.353900 0.135404 0.727223
Si Si2 0.147342 0.213323 0.240814
Si Si3 0.660699 0.520174 0.785737
Si Si4 0.132243 0.556864 0.725719
Si Si5 0.663933 0.244333 0.373982
Si Si6 0.444126 0.830759 0.884240
O O1 0.371381 0.335893 0.475818
O O2 0.104581 0.293060 0.533068
O O3 0.435775 0.918824 0.897270
O O4 0.500000 0.000000 0.000000
O O5 0.224440 0.006293 0.396137
O O6 0.290869 0.082913 0.510462
O O7 0.173842 0.402808 0.999744
O O8 0.897269 0.373263 0.043123
O O9 0.472245 0.739074 0.584586
O O10 0.645431 0.310627 0.983730
O O11 0.148588 0.766174 0.531966
O O12 0.308148 0.359715 0.893696
O O13 0.500000 0.500000 0.000000
#
# Coordination Sequence:
#
# PCOD8022693 Si02
#       6
#     2   2   2   2   2   2
#     4  11  26  43  59  80 115 161 210 245 274 326
#     4  11  21  34  60  92 126 150 179 233 301 364
#     4  10  23  38  60  90 119 154 190 236 295 351
#     4  10  23  38  60  90 119 154 190 236 295 351
#     4  11  21  35  60  92 127 147 180 230 300 365
#     4  11  22  36  61  87 119 150 193 237 297 348
#
# _framework density 20.509967
#
# number of rings (size 3 to 8) (size 9 to 14) (size 15 to 20)
#    0.000    1.333    3.333    3.000    4.667    2.667 
#    0.000    3.333    0.000    0.000    0.000    0.000 
#    0.000    0.000    0.000    0.000    0.000    0.000 
#
# Total GULP energy -148862.406560 kJ/mol
# GULP energy per Si atom -12405.200547 kJ/mol
# Density = 2.046329 g / cm^3
# Si number density = 20.509967 Si / 1000 Ang^3
#
#
#
# Elastic Constant Matrix: (Units=GPa)
#
#
# Indices 1 2 3 4 5 6 
#
# 1 133.7179 26.0684 33.7209 6.2438 10.8284 -16.4430
# 2 26.0684 86.8936 26.6892 5.2417 2.4973 -17.3520
# 3 33.7209 26.6892 78.8700 23.3123 12.2742 -11.7577
# 4 6.2438 5.2417 23.3123 37.1659 1.5249 0.2168
# 5 10.8284 2.4973 12.2742 1.5249 8.3897 -4.1245
# 6 -16.4430 -17.3520 -11.7577 0.2168 -4.1245 15.1130
#
#
#
# Elastic Compliance Matrix: (Units=1/GPa)
#
#
# Indices 1 2 3 4 5 6 
#
# 1 0.009356 -0.000843 -0.001819 -0.000096 -0.006136 0.006123
# 2 -0.000843 0.016229 -0.004237 -0.000044 0.011034 0.017432
# 3 -0.001819 -0.004237 0.023363 -0.012706 -0.026104 0.004391
# 4 -0.000096 -0.000044 -0.012706 0.034603 0.008381 -0.008249
# 5 -0.006136 0.011034 -0.026104 0.008381 0.177170 0.033915
# 6 0.006123 0.017432 0.004391 -0.008249 0.033915 0.105635
#
#
# Mechanical properties :
#
#
# Convention : Reuss Voigt Hill
#
# Bulk Modulus (GPa) = 28.44902 52.49317 40.47109
# Shear Modulus (GPa) = 12.75934 26.33391 19.54662
#
# Velocity S-wave (km/s) = 2.49691 3.58712 3.09047
# Velocity P-wave (km/s) = 4.71314 6.54264 5.70175
#
# Compressibility (1/GPa) = 0.03515060
#
# Stress axis : x y z
#
# Youngs Moduli (GPa) = 106.88625 61.61737 42.80275
#
# Poissons Ratio (x) = 0.05197 0.07784
# Poissons Ratio (y) = 0.09015 0.18134
# Poissons Ratio (z) = 0.19438 0.26105
#
# Static dielectric constant tensor:
#      x y z
#    x 4.213750 -0.113300 0.063290 
#    y -0.113300 5.005110 -1.700650 
#    z 0.063290 -1.700650 5.003250 
# 
# 
# High freq. dielectric constant tensor:
#      x y z
#    x 1.831340 -0.001560 0.000010 
#    y -0.001560 1.794750 -0.029650 
#    z 0.000010 -0.029650 1.779280 
# 
# From -- ./inp_files/152441.got.cif
#   From: 2010.06.25/outbox.cif.g09.slc.cpg/sg2_77_cif.got.tgz:152441.got - 2010.06.27 13:26:56.
