data_PCOD8022229
_publ_section_title
;
Structure prediction by ZEFSAII (Michael W. Deem and Ramdas Pophale) SiO2 
 PCOD8022229
Probable space group: P -1
;
_chemical_formula_sum "Si O2"
_cell_formula_units_Z 16
_cell_length_a 10.972602
_cell_length_b 9.320943
_cell_length_c 13.772316
_cell_angle_alpha 88.260321
_cell_angle_beta 148.342497
_cell_angle_gamma 100.732166
_cell_volume 703.552930
_symmetry_space_group_name_H-M "P -1"
_symmetry_group_IT_number 2
_symmetry_cell_setting 'triclinic'
loop_
_space_group_symop_operation_xyz
x,y,z
-x,-y,-z
loop_
_atom_site_type_symbol
_atom_site_label
_atom_site_fract_x
_atom_site_fract_y
_atom_site_fract_z
Si Si1 0.849880 0.652605 0.744271
Si Si2 0.547856 0.488819 0.370540
Si Si3 0.699870 0.435229 0.970303
Si Si4 0.358415 0.818564 0.587850
Si Si5 0.091092 0.234129 0.834666
Si Si6 0.751902 0.037220 0.303050
Si Si7 0.824356 0.962375 0.790161
Si Si8 0.541250 0.215078 0.026113
O O1 0.776499 0.584140 0.587675
O O2 0.686298 0.546707 0.717529
O O3 0.843856 0.822416 0.742345
O O4 0.125843 0.656540 0.949387
O O5 0.518580 0.589094 0.255797
O O6 0.568135 0.332941 0.343224
O O7 0.616724 0.381342 0.025574
O O8 0.845327 0.611740 0.066416
O O9 0.073134 0.761013 0.369551
O O10 0.380334 0.917971 0.696034
O O11 0.542002 0.925330 0.632088
O O12 0.909163 0.108609 0.779345
O O13 0.334618 0.197952 0.967957
O O14 0.560412 0.889373 0.133222
O O15 0.768717 0.170538 0.230808
O O16 0.000000 0.000000 0.500000
O O17 0.000000 0.000000 0.000000
#
# Coordination Sequence:
#
# PCOD8022229 Si02
#       8
#     2   2   2   2   2   2   2   2
#     4  10  23  43  68 104 135 179 235 286 341 413
#     4  10  22  45  68  98 144 178 228 289 345 410
#     4  12  25  43  72  99 139 189 228 284 347 406
#     4  11  23  45  69 102 136 185 230 286 355 409
#     4  12  24  47  68 100 144 180 233 290 343 415
#     4  11  24  47  72  99 140 180 231 293 342 407
#     4  11  25  43  72 101 139 180 229 290 351 413
#     4  11  27  44  69 102 137 185 237 279 344 421
#
# _framework density 22.741713000000001
#
# number of rings (size 3 to 8) (size 9 to 14) (size 15 to 20)
#    0.000    1.000    2.500    4.125    5.250    2.000 
#    0.000    1.250    0.000    0.000    0.000    0.000 
#    0.000    0.000    0.000    0.000    0.000    0.000 
#
# Total GULP energy -198348.397429 kJ/mol
# GULP energy per Si atom -12396.774839 kJ/mol
# Density = 2.268995 g / cm^3
# Si number density = 22.741713 Si / 1000 Ang^3
#
#
#
# Elastic Constant Matrix: (Units=GPa)
#
#
# Indices 1 2 3 4 5 6 
#
# 1 105.8682 61.6841 38.5770 -10.5314 -2.7764 -16.2866
# 2 61.6841 115.8694 37.4532 -8.4595 -3.7327 5.9391
# 3 38.5770 37.4532 102.3842 -27.7756 -0.8869 0.3511
# 4 -10.5314 -8.4595 -27.7756 42.6888 -3.5318 -12.4688
# 5 -2.7764 -3.7327 -0.8869 -3.5318 29.6589 -0.1996
# 6 -16.2866 5.9391 0.3511 -12.4688 -0.1996 41.8439
#
#
#
# Elastic Compliance Matrix: (Units=1/GPa)
#
#
# Indices 1 2 3 4 5 6 
#
# 1 0.016981 -0.008444 -0.002331 0.003686 0.000956 0.008930
# 2 -0.008444 0.014131 -0.002719 -0.002789 0.000534 -0.006098
# 3 -0.002331 -0.002719 0.013980 0.008622 0.000897 0.001934
# 4 0.003686 -0.002789 0.008622 0.033151 0.004278 0.011657
# 5 0.000956 0.000534 0.000897 0.004278 0.034421 0.001728
# 6 0.008930 -0.006098 0.001934 0.011657 0.001728 0.031706
#
#
# Mechanical properties :
#
#
# Convention : Reuss Voigt Hill
#
# Bulk Modulus (GPa) = 55.23818 66.61670 60.92744
# Shear Modulus (GPa) = 28.18624 35.26549 31.72586
#
# Velocity S-wave (km/s) = 3.52434 3.94216 3.73909
# Velocity P-wave (km/s) = 6.39558 7.07652 6.74465
#
# Compressibility (1/GPa) = 0.01810342
#
# Stress axis : x y z
#
# Youngs Moduli (GPa) = 58.88986 70.76861 71.53008
#
# Poissons Ratio (x) = 0.59758 0.16677
# Poissons Ratio (y) = 0.49727 0.19446
# Poissons Ratio (z) = 0.13730 0.19239
#
# Static dielectric constant tensor:
#      x y z
#    x 4.189100 0.424310 -0.853590 
#    y 0.424310 5.082500 -1.610350 
#    z -0.853590 -1.610350 6.637240 
# 
# 
# High freq. dielectric constant tensor:
#      x y z
#    x 1.893000 -0.009760 -0.008310 
#    y -0.009760 1.899690 -0.006560 
#    z -0.008310 -0.006560 1.904830 
# 
# From -- ./inp_files/515714.got.cif
#   From: 2010.06.25/outbox.cif.g09.slc.cpg/sg2_258_cif.got.tgz:515714.got - 2010.06.27 13:26:56.
