data_PCOD8022812
_publ_section_title
;
Structure prediction by ZEFSAII (Michael W. Deem and Ramdas Pophale) SiO2 
 PCOD8022812
Probable space group: P -1
;
_chemical_formula_sum "Si O2"
_cell_formula_units_Z 16
_cell_length_a 16.465629
_cell_length_b 25.694484
_cell_length_c 18.770252
_cell_angle_alpha 18.017196
_cell_angle_beta 28.535121
_cell_angle_gamma 18.307991
_cell_volume 747.040046
_symmetry_space_group_name_H-M "P -1"
_symmetry_group_IT_number 2
_symmetry_cell_setting 'triclinic'
loop_
_space_group_symop_operation_xyz
x,y,z
-x,-y,-z
loop_
_atom_site_type_symbol
_atom_site_label
_atom_site_fract_x
_atom_site_fract_y
_atom_site_fract_z
Si Si1 0.110928 0.166221 0.807229
Si Si2 0.807517 0.235997 0.519042
Si Si3 0.571444 0.773654 0.458284
Si Si4 0.688512 0.319678 0.152924
Si Si5 0.722152 0.590639 0.872265
Si Si6 0.191994 0.148826 0.605347
Si Si7 0.203190 0.721413 0.366825
Si Si8 0.056065 0.141595 0.305453
O O1 0.347526 0.108302 0.726561
O O2 0.100731 0.157265 0.741755
O O3 0.824872 0.459358 0.665435
O O4 0.165536 0.949633 0.086273
O O5 0.494886 0.435870 0.488248
O O6 0.838884 0.297971 0.492530
O O7 0.906888 0.270233 0.330034
O O8 0.988798 0.924983 0.789103
O O9 0.369527 0.831794 0.590691
O O10 0.377472 0.935465 0.327983
O O11 0.500000 0.500000 0.000000
O O12 0.610104 0.504967 0.035536
O O13 0.828174 0.632974 0.672407
O O14 0.494139 0.858435 0.742824
O O15 0.951265 0.369799 0.038968
O O16 0.014709 0.205886 0.605999
O O17 0.000000 0.000000 0.500000
#
# Coordination Sequence:
#
# PCOD8022812 Si02
#       8
#     2   2   2   2   2   2   2   2
#     4  11  23  42  64  93 130 170 213 259 318 382
#     4  10  23  40  64  94 123 163 221 254 322 380
#     4  10  23  39  63  95 122 160 222 255 319 374
#     4  11  20  39  66  85 123 165 204 272 311 365
#     4  11  23  41  61  96 123 161 221 260 317 376
#     4  11  25  40  64  93 129 170 216 256 320 384
#     4  11  24  41  63  92 133 171 208 260 321 382
#     4  11  22  41  67  94 124 165 215 265 317 370
#
# _framework density 21.417860000000001
#
# number of rings (size 3 to 8) (size 9 to 14) (size 15 to 20)
#    0.000    1.250    2.500    4.125    1.750    6.000 
#    0.000    5.000    0.000    0.000    0.000    0.000 
#    0.000    0.000    0.000    0.000    0.000    0.000 
#
# Total GULP energy -198234.484269 kJ/mol
# GULP energy per Si atom -12389.655267 kJ/mol
# Density = 2.136911 g / cm^3
# Si number density = 21.417860 Si / 1000 Ang^3
#
#
#
# Elastic Constant Matrix: (Units=GPa)
#
#
# Indices 1 2 3 4 5 6 
#
# 1 105.5084 29.8397 31.7753 -0.6971 11.9545 -16.0751
# 2 29.8397 74.4745 36.5145 -14.4202 2.3044 -9.5686
# 3 31.7753 36.5145 90.4609 -19.2053 16.8073 -17.5448
# 4 -0.6971 -14.4202 -19.2053 35.8274 -8.6006 6.6362
# 5 11.9545 2.3044 16.8073 -8.6006 38.4554 2.0397
# 6 -16.0751 -9.5686 -17.5448 6.6362 2.0397 44.2908
#
#
#
# Elastic Compliance Matrix: (Units=1/GPa)
#
#
# Indices 1 2 3 4 5 6 
#
# 1 0.012197 -0.004063 -0.002147 -0.004084 -0.003708 0.003481
# 2 -0.004063 0.018768 -0.005879 0.005411 0.003957 -0.000742
# 3 -0.002147 -0.005879 0.017027 0.004578 -0.005624 0.004268
# 4 -0.004084 0.005411 0.004578 0.034885 0.006961 -0.004047
# 5 -0.003708 0.003957 -0.005624 0.006961 0.031210 -0.005199
# 6 0.003481 -0.000742 0.004268 -0.004047 -0.005199 0.026218
#
#
# Mechanical properties :
#
#
# Convention : Reuss Voigt Hill
#
# Bulk Modulus (GPa) = 41.99354 51.85587 46.92471
# Shear Modulus (GPa) = 28.99892 35.20234 32.10063
#
# Velocity S-wave (km/s) = 3.68361 4.05853 3.87561
# Velocity P-wave (km/s) = 6.14340 6.79899 6.47949
#
# Compressibility (1/GPa) = 0.02381319
#
# Stress axis : x y z
#
# Youngs Moduli (GPa) = 81.98596 53.28346 58.73179
#
# Poissons Ratio (x) = 0.21649 0.12612
# Poissons Ratio (y) = 0.33311 0.34527
# Poissons Ratio (z) = 0.17605 0.31324
#
# Static dielectric constant tensor:
#      x y z
#    x 4.275710 -0.002300 0.286150 
#    y -0.002300 4.006650 -0.004230 
#    z 0.286150 -0.004230 3.834200 
# 
# 
# High freq. dielectric constant tensor:
#      x y z
#    x 1.846360 -0.010490 0.020900 
#    y -0.010490 1.843670 -0.018990 
#    z 0.020900 -0.018990 1.839530 
# 
# From -- ./inp_files/574402.got.cif
#   From: 2010.06.25/outbox.cif.g09.slc.cpg/sg2_288_cif.got.tgz:574402.got - 2010.06.27 13:26:56.
