data_PCOD8022427
_publ_section_title
;
Structure prediction by ZEFSAII (Michael W. Deem and Ramdas Pophale) SiO2 
 PCOD8022427
Probable space group: P -1
;
_chemical_formula_sum "Si O2"
_cell_formula_units_Z 16
_cell_length_a 14.748291
_cell_length_b 6.857763
_cell_length_c 8.084394
_cell_angle_alpha 94.001753
_cell_angle_beta 71.788627
_cell_angle_gamma 71.762339
_cell_volume 724.845325
_symmetry_space_group_name_H-M "P -1"
_symmetry_group_IT_number 2
_symmetry_cell_setting 'triclinic'
loop_
_space_group_symop_operation_xyz
x,y,z
-x,-y,-z
loop_
_atom_site_type_symbol
_atom_site_label
_atom_site_fract_x
_atom_site_fract_y
_atom_site_fract_z
Si Si1 0.423044 0.957497 0.914120
Si Si2 0.235421 0.160432 0.220386
Si Si3 0.712210 0.574330 0.542644
Si Si4 0.060007 0.997955 0.302437
Si Si5 0.439037 0.214409 0.638186
Si Si6 0.535235 0.498919 0.789353
Si Si7 0.898398 0.449359 0.875108
Si Si8 0.076895 0.605155 0.760691
O O1 0.385420 0.147947 0.818676
O O2 0.473602 0.736557 0.777085
O O3 0.321265 0.967556 0.069504
O O4 0.500000 0.000000 0.000000
O O5 0.286762 0.215697 0.357437
O O6 0.147710 0.078584 0.317989
O O7 0.194996 0.364653 0.138972
O O8 0.647911 0.628505 0.414740
O O9 0.656479 0.457325 0.690517
O O10 0.829476 0.438623 0.423969
O O11 0.991029 0.150172 0.208506
O O12 0.108246 0.766919 0.192468
O O13 0.000000 0.000000 0.500000
O O14 0.510595 0.334264 0.676900
O O15 0.500000 0.000000 0.500000
O O16 0.500000 0.500000 0.000000
O O17 0.005809 0.467544 0.755373
O O18 0.883377 0.452906 0.080538
#
# Coordination Sequence:
#
# PCOD8022427 Si02
#       8
#     2   2   2   2   2   2   2   2
#     4  12  23  46  67  98 135 180 228 279 340 408
#     4  11  24  42  68  97 134 182 222 279 340 410
#     4  12  24  43  66 101 134 176 231 279 345 404
#     4  11  23  42  67  99 135 173 227 277 340 408
#     4  12  25  46  67  96 140 177 226 291 340 398
#     4  12  26  45  70  95 138 183 229 282 342 413
#     4  10  22  46  66  97 136 175 221 281 347 404
#     4  10  23  42  68  96 135 171 223 285 340 403
#
# _framework density 22.073671999999998
#
# number of rings (size 3 to 8) (size 9 to 14) (size 15 to 20)
#    0.000    0.750    3.750    3.000    0.000    6.000 
#    2.250    0.000    0.000    0.000    0.000    0.000 
#    0.000    0.000    0.000    0.000    0.000    0.000 
#
# Total GULP energy -198360.947582 kJ/mol
# GULP energy per Si atom -12397.559224 kJ/mol
# Density = 2.202343 g / cm^3
# Si number density = 22.073672 Si / 1000 Ang^3
#
#
#
# Elastic Constant Matrix: (Units=GPa)
#
#
# Indices 1 2 3 4 5 6 
#
# 1 103.0749 34.1468 53.3128 1.5544 -9.1271 21.3102
# 2 34.1468 102.6775 28.8418 6.9069 -0.2532 23.0418
# 3 53.3128 28.8418 99.7163 -3.2292 -15.7306 18.1619
# 4 1.5544 6.9069 -3.2292 49.1634 2.6924 5.2705
# 5 -9.1271 -0.2532 -15.7306 2.6924 47.4546 0.3876
# 6 21.3102 23.0418 18.1619 5.2705 0.3876 33.5542
#
#
#
# Elastic Compliance Matrix: (Units=1/GPa)
#
#
# Indices 1 2 3 4 5 6 
#
# 1 0.014639 -0.002092 -0.006298 -0.000149 0.000761 -0.004437
# 2 -0.002092 0.012295 -0.001465 -0.001059 -0.000712 -0.006147
# 3 -0.006298 -0.001465 0.015085 0.001562 0.003721 -0.003447
# 4 -0.000149 -0.001059 0.001562 0.020989 -0.000680 -0.003312
# 5 0.000761 -0.000712 0.003721 -0.000680 0.022505 -0.002162
# 6 -0.004437 -0.006147 -0.003447 -0.003312 -0.002162 0.039253
#
#
# Mechanical properties :
#
#
# Convention : Reuss Voigt Hill
#
# Bulk Modulus (GPa) = 44.82367 59.78574 52.30471
# Shear Modulus (GPa) = 32.91352 38.64560 35.77956
#
# Velocity S-wave (km/s) = 3.86563 4.18874 4.03043
# Velocity P-wave (km/s) = 6.34623 7.10897 6.73840
#
# Compressibility (1/GPa) = 0.02230964
#
# Stress axis : x y z
#
# Youngs Moduli (GPa) = 68.30906 81.33145 66.29110
#
# Poissons Ratio (x) = 0.17012 0.41753
# Poissons Ratio (y) = 0.14288 0.09712
# Poissons Ratio (z) = 0.43024 0.11915
#
# Static dielectric constant tensor:
#      x y z
#    x 4.371470 0.234080 0.205340 
#    y 0.234080 4.504410 0.053640 
#    z 0.205340 0.053640 4.644470 
# 
# 
# High freq. dielectric constant tensor:
#      x y z
#    x 1.869560 0.004110 -0.003520 
#    y 0.004110 1.871990 -0.009200 
#    z -0.003520 -0.009200 1.878700 
# 
# From -- ./inp_files/288992.got.cif
#   From: 2010.06.25/outbox.cif.g09.slc.cpg/sg2_145_cif.got.tgz:288992.got - 2010.06.27 13:26:56.
