data_PCOD8022030
_publ_section_title
;
Structure prediction by ZEFSAII (Michael W. Deem and Ramdas Pophale) SiO2 
 PCOD8022030
Probable space group: P -1
;
_chemical_formula_sum "Si O2"
_cell_formula_units_Z 14
_cell_length_a 23.503902
_cell_length_b 8.732841
_cell_length_c 8.677684
_cell_angle_alpha 53.700999
_cell_angle_beta 149.047277
_cell_angle_gamma 138.936631
_cell_volume 593.865064
_symmetry_space_group_name_H-M "P -1"
_symmetry_group_IT_number 2
_symmetry_cell_setting 'triclinic'
loop_
_space_group_symop_operation_xyz
x,y,z
-x,-y,-z
loop_
_atom_site_type_symbol
_atom_site_label
_atom_site_fract_x
_atom_site_fract_y
_atom_site_fract_z
Si Si1 0.679973 0.360919 0.217374
Si Si2 0.741311 0.188280 0.184884
Si Si3 0.159700 0.778812 0.142533
Si Si4 0.999652 0.326957 0.879283
Si Si5 0.513430 0.292456 0.152611
Si Si6 0.664864 0.684171 0.778234
Si Si7 0.244770 0.457797 0.206506
O O1 0.648774 0.191147 0.102775
O O2 0.795572 0.373470 0.579539
O O3 0.548418 0.261258 0.078868
O O4 0.725564 0.610233 0.098237
O O5 0.871834 0.205781 0.538334
O O6 0.798013 0.404317 0.074309
O O7 0.634080 0.939419 0.999994
O O8 0.057403 0.787012 0.015833
O O9 0.285252 0.048782 0.229558
O O10 0.076900 0.614696 0.899222
O O11 0.109085 0.279411 0.102406
O O12 0.628364 0.348346 0.508163
O O13 0.500000 0.500000 0.000000
O O14 0.500000 0.500000 0.500000
O O15 0.719922 0.684432 0.735378
#
# Coordination Sequence:
#
# PCOD8022030 Si02
#       7
#     2   2   2   2   2   2   2
#     4  10  23  43  69  97 132 184 223 277 347 394
#     4  10  24  43  69  97 134 180 229 280 339 413
#     4  10  23  45  72  98 139 181 231 281 338 417
#     4  10  22  44  72  98 137 187 223 279 348 406
#     4  12  25  41  66 100 139 175 228 287 340 397
#     4  11  26  42  70 107 137 177 235 285 339 407
#     4  11  24  43  67 104 135 178 227 279 351 399
#
# _framework density 23.574379
#
# number of rings (size 3 to 8) (size 9 to 14) (size 15 to 20)
#    0.000    1.429    1.429    2.143   12.000    2.857 
#    0.000   11.429    0.000    0.000    0.000    0.000 
#    0.000    0.000    0.000    0.000    0.000    0.000 
#
# Total GULP energy -173497.023838 kJ/mol
# GULP energy per Si atom -12392.644560 kJ/mol
# Density = 2.352072 g / cm^3
# Si number density = 23.574379 Si / 1000 Ang^3
#
#
#
# Elastic Constant Matrix: (Units=GPa)
#
#
# Indices 1 2 3 4 5 6 
#
# 1 98.0359 0.1816 24.8717 4.7014 21.3709 3.7307
# 2 0.1816 96.5365 32.8763 14.7981 6.7383 2.6529
# 3 24.8717 32.8763 107.2924 10.1624 4.8851 0.7704
# 4 4.7014 14.7981 10.1624 36.1084 3.9998 1.9446
# 5 21.3709 6.7383 4.8851 3.9998 36.1970 1.4259
# 6 3.7307 2.6529 0.7704 1.9446 1.4259 15.8867
#
#
#
# Elastic Compliance Matrix: (Units=1/GPa)
#
#
# Indices 1 2 3 4 5 6 
#
# 1 0.012662 0.001668 -0.003049 -0.000546 -0.007220 -0.002389
# 2 0.001668 0.012424 -0.003705 -0.003925 -0.002301 -0.001600
# 3 -0.003049 -0.003705 0.011240 -0.001416 0.001095 0.000865
# 4 -0.000546 -0.003925 -0.001416 0.030135 -0.001981 -0.002659
# 5 -0.007220 -0.002301 0.001095 -0.001981 0.032414 -0.000640
# 6 -0.002389 -0.001600 0.000865 -0.002659 -0.000640 0.064115
#
#
# Mechanical properties :
#
#
# Convention : Reuss Voigt Hill
#
# Bulk Modulus (GPa) = 38.23628 46.41378 42.32503
# Shear Modulus (GPa) = 27.49058 33.90075 30.69567
#
# Velocity S-wave (km/s) = 3.41856 3.79626 3.61235
# Velocity P-wave (km/s) = 5.64240 6.24070 5.94908
#
# Compressibility (1/GPa) = 0.02615317
#
# Stress axis : x y z
#
# Youngs Moduli (GPa) = 78.97841 80.49106 88.96424
#
# Poissons Ratio (x) = -0.13423 0.27121
# Poissons Ratio (y) = -0.13171 0.32965
# Poissons Ratio (z) = 0.24077 0.29826
#
# Static dielectric constant tensor:
#      x y z
#    x 7.468640 -1.139530 -4.550300 
#    y -1.139530 4.395990 1.823940 
#    z -4.550300 1.823940 11.296410 
# 
# 
# High freq. dielectric constant tensor:
#      x y z
#    x 1.944520 0.000070 0.004320 
#    y 0.000070 1.914980 0.009820 
#    z 0.004320 0.009820 1.924590 
# 
# From -- ./inp_files/352089.got.cif
#   From: 2010.06.25/outbox.cif.g09.slc.cpg/sg2_177_cif.got.tgz:352089.got - 2010.06.27 13:26:56.
