data_PCOD8022173
_publ_section_title
;
Structure prediction by ZEFSAII (Michael W. Deem and Ramdas Pophale) SiO2 
 PCOD8022173
Probable space group: P -1
;
_chemical_formula_sum "Si O2"
_cell_formula_units_Z 16
_cell_length_a 16.940946
_cell_length_b 8.802242
_cell_length_c 10.660020
_cell_angle_alpha 97.466234
_cell_angle_beta 85.000239
_cell_angle_gamma 151.975457
_cell_volume 739.246344
_symmetry_space_group_name_H-M "P -1"
_symmetry_group_IT_number 2
_symmetry_cell_setting 'triclinic'
loop_
_space_group_symop_operation_xyz
x,y,z
-x,-y,-z
loop_
_atom_site_type_symbol
_atom_site_label
_atom_site_fract_x
_atom_site_fract_y
_atom_site_fract_z
Si Si1 0.141129 0.218371 0.608122
Si Si2 0.947721 0.383238 0.635136
Si Si3 0.644184 0.647942 0.559337
Si Si4 0.506863 0.379620 0.814091
Si Si5 0.216335 0.652390 0.773790
Si Si6 0.829484 0.619715 0.015984
Si Si7 0.039856 0.288244 0.210472
Si Si8 0.706516 0.720218 0.068170
O O1 0.289058 0.363135 0.549911
O O2 0.228923 0.529610 0.663641
O O3 0.049032 0.990234 0.718175
O O4 0.000000 0.000000 0.500000
O O5 0.000000 0.500000 0.500000
O O6 0.098534 0.578636 0.719859
O O7 0.888569 0.448141 0.695079
O O8 0.794159 0.008072 0.624980
O O9 0.500000 0.500000 0.500000
O O10 0.572768 0.451537 0.674497
O O11 0.409879 0.378190 0.833035
O O12 0.390517 0.034570 0.824600
O O13 0.658204 0.658750 0.922298
O O14 0.144017 0.468138 0.895590
O O15 0.796193 0.490198 0.867955
O O16 0.690989 0.507987 0.070995
O O17 0.000000 0.000000 0.000000
O O18 0.897410 0.099947 0.109298
#
# Coordination Sequence:
#
# PCOD8022173 Si02
#       8
#     2   2   2   2   2   2   2   2
#     4  12  24  43  73 101 139 184 230 294 342 407
#     4  12  24  45  74 101 135 182 238 280 341 419
#     4  12  27  44  71 101 143 183 228 288 352 409
#     4  11  26  43  70 100 140 185 227 280 355 415
#     4  12  24  44  71 102 137 185 234 282 342 421
#     4  10  23  40  71  97 135 176 230 284 344 398
#     4  11  22  43  71 102 138 171 234 290 339 411
#     4  10  22  45  67  92 148 175 222 290 346 400
#
# _framework density 21.643664999999999
#
# number of rings (size 3 to 8) (size 9 to 14) (size 15 to 20)
#    0.000    0.750    6.250    1.500    5.250    3.500 
#    2.250    0.000    0.000    0.000    0.000    0.000 
#    0.000    0.000    0.000    0.000    0.000    0.000 
#
# Total GULP energy -198250.853034 kJ/mol
# GULP energy per Si atom -12390.678315 kJ/mol
# Density = 2.159440 g / cm^3
# Si number density = 21.643665 Si / 1000 Ang^3
#
#
#
# Elastic Constant Matrix: (Units=GPa)
#
#
# Indices 1 2 3 4 5 6 
#
# 1 108.5131 18.9345 45.0718 -3.2694 -15.9676 -13.4706
# 2 18.9345 77.9948 34.7652 -2.0964 -2.3827 -14.1837
# 3 45.0718 34.7652 133.6032 -14.9943 -7.9479 -8.7255
# 4 -3.2694 -2.0964 -14.9943 39.2557 -9.3435 -0.2950
# 5 -15.9676 -2.3827 -7.9479 -9.3435 45.7131 9.7878
# 6 -13.4706 -14.1837 -8.7255 -0.2950 9.7878 33.8363
#
#
#
# Elastic Compliance Matrix: (Units=1/GPa)
#
#
# Indices 1 2 3 4 5 6 
#
# 1 0.011473 -0.000753 -0.003292 0.000373 0.002924 0.002561
# 2 -0.000753 0.015589 -0.003621 -0.000926 -0.001495 0.005725
# 3 -0.003292 -0.003621 0.009983 0.003643 0.001268 -0.000589
# 4 0.000373 -0.000926 0.003643 0.028445 0.006744 -0.001003
# 5 0.002924 -0.001495 0.001268 0.006744 0.025820 -0.006546
# 6 0.002561 0.005725 -0.000589 -0.001003 -0.006546 0.034706
#
#
# Mechanical properties :
#
#
# Convention : Reuss Voigt Hill
#
# Bulk Modulus (GPa) = 46.05385 57.51712 51.78548
# Shear Modulus (GPa) = 33.65039 38.51702 36.08371
#
# Velocity S-wave (km/s) = 3.94730 4.22310 4.08753
# Velocity P-wave (km/s) = 6.48840 7.10012 6.80114
#
# Compressibility (1/GPa) = 0.02171371
#
# Stress axis : x y z
#
# Youngs Moduli (GPa) = 87.15748 64.14778 100.16594
#
# Poissons Ratio (x) = 0.04831 0.32970
# Poissons Ratio (y) = 0.06565 0.36274
# Poissons Ratio (z) = 0.28688 0.23230
#
# Static dielectric constant tensor:
#      x y z
#    x 4.738420 0.059370 -0.563640 
#    y 0.059370 3.780290 0.089500 
#    z -0.563640 0.089500 4.553510 
# 
# 
# High freq. dielectric constant tensor:
#      x y z
#    x 1.861680 -0.013230 -0.009710 
#    y -0.013230 1.823750 0.013540 
#    z -0.009710 0.013540 1.871180 
# 
# From -- ./inp_files/329030.got.cif
#   From: 2010.06.25/outbox.cif.g09.slc.cpg/sg2_165_cif.got.tgz:329030.got - 2010.06.27 13:26:56.
