data_PCOD8022449
_publ_section_title
;
Structure prediction by ZEFSAII (Michael W. Deem and Ramdas Pophale) SiO2 
 PCOD8022449
Probable space group: P -1
;
_chemical_formula_sum "Si O2"
_cell_formula_units_Z 10
_cell_length_a 13.642675
_cell_length_b 4.683361
_cell_length_c 11.502472
_cell_angle_alpha 74.804082
_cell_angle_beta 149.392147
_cell_angle_gamma 113.936288
_cell_volume 335.976542
_symmetry_space_group_name_H-M "P -1"
_symmetry_group_IT_number 2
_symmetry_cell_setting 'triclinic'
loop_
_space_group_symop_operation_xyz
x,y,z
-x,-y,-z
loop_
_atom_site_type_symbol
_atom_site_label
_atom_site_fract_x
_atom_site_fract_y
_atom_site_fract_z
Si Si1 0.311110 0.911670 0.024167
Si Si2 0.961549 0.380593 0.647196
Si Si3 0.335725 0.644616 0.849457
Si Si4 0.421424 0.357356 0.285177
Si Si5 0.171053 0.745789 0.228559
O O1 0.382925 0.689112 0.211789
O O2 0.385786 0.253143 0.124171
O O3 0.419771 0.936122 0.003142
O O4 0.062190 0.749414 0.761610
O O5 0.754273 0.280012 0.371711
O O6 0.912517 0.183296 0.738379
O O7 0.147039 0.362072 0.754738
O O8 0.500000 0.500000 0.000000
O O9 0.649224 0.401619 0.556661
O O10 0.250076 0.092466 0.214403
O O11 0.000000 0.500000 0.000000
#
# Coordination Sequence:
#
# PCOD8022449 Si02
#       5
#     2   2   2   2   2
#     4  10  22  46  68 103 137 178 234 280 347 416
#     4   9  20  40  68 103 135 184 231 281 350 412
#     4   9  18  40  72  97 140 178 231 286 346 408
#     4  11  25  44  71 102 139 186 225 288 352 409
#     4  11  22  44  70 100 142 180 234 284 345 416
#
# _framework density 29.763985000000002
#
# number of rings (size 3 to 8) (size 9 to 14) (size 15 to 20)
#    1.200    0.800    2.000    1.200    0.000    4.000 
#    3.600    8.000    0.000    0.000    0.000    0.000 
#    0.000    0.000    0.000    0.000    0.000    0.000 
#
# Total GULP energy -123915.466573 kJ/mol
# GULP energy per Si atom -12391.546657 kJ/mol
# Density = 2.969624 g / cm^3
# Si number density = 29.763985 Si / 1000 Ang^3
#
#
#
# Elastic Constant Matrix: (Units=GPa)
#
#
# Indices 1 2 3 4 5 6 
#
# 1 203.8829 17.8457 58.8507 2.8847 -15.5994 39.2493
# 2 17.8457 81.0975 32.2943 -0.7144 -4.0629 4.6076
# 3 58.8507 32.2943 235.4988 9.6366 -32.5569 -2.0507
# 4 2.8847 -0.7144 9.6366 42.8980 1.1648 -6.9968
# 5 -15.5994 -4.0629 -32.5569 1.1648 53.4064 -1.2924
# 6 39.2493 4.6076 -2.0507 -6.9968 -1.2924 41.7921
#
#
#
# Elastic Compliance Matrix: (Units=1/GPa)
#
#
# Indices 1 2 3 4 5 6 
#
# 1 0.006715 -0.000478 -0.001498 -0.001208 0.000881 -0.006502
# 2 -0.000478 0.013183 -0.001750 0.000486 -0.000239 -0.001016
# 3 -0.001498 -0.001750 0.005288 -0.000898 0.002716 0.001793
# 4 -0.001208 0.000486 -0.000898 0.024467 -0.001273 0.005093
# 5 0.000881 -0.000239 0.002716 -0.001273 0.020641 -0.000243
# 6 -0.006502 -0.001016 0.001793 0.005093 -0.000243 0.031080
#
#
# Mechanical properties :
#
#
# Convention : Reuss Voigt Hill
#
# Bulk Modulus (GPa) = 56.38807 82.05117 69.21962
# Shear Modulus (GPa) = 43.57704 55.05186 49.31445
#
# Velocity S-wave (km/s) = 3.83049 4.30538 4.07486
# Velocity P-wave (km/s) = 6.20884 7.23479 6.74136
#
# Compressibility (1/GPa) = 0.01773425
#
# Stress axis : x y z
#
# Youngs Moduli (GPa) = 148.91403 75.85513 189.09009
#
# Poissons Ratio (x) = 0.03628 0.28325
# Poissons Ratio (y) = 0.07122 0.33091
# Poissons Ratio (z) = 0.22307 0.13275
#
# Static dielectric constant tensor:
#      x y z
#    x 4.165300 -4.332920 -4.149140 
#    y -4.332920 -6.131300 -8.855350 
#    z -4.149140 -8.855350 -1.088320 
# 
# 
# High freq. dielectric constant tensor:
#      x y z
#    x 2.255840 0.035610 -0.012880 
#    y 0.035610 2.206170 0.013570 
#    z -0.012880 0.013570 2.241920 
# 
# From -- ./inp_files/439953.got.cif
#   From: 2010.06.25/outbox.cif.g09.slc.cpg/sg2_220_cif.got.tgz:439953.got - 2010.06.27 13:26:56.
