data_PCOD8022547
_publ_section_title
;
Structure prediction by ZEFSAII (Michael W. Deem and Ramdas Pophale) SiO2 
 PCOD8022547
Probable space group: P -1
;
_chemical_formula_sum "Si O2"
_cell_formula_units_Z 16
_cell_length_a 9.205236
_cell_length_b 16.847987
_cell_length_c 6.542201
_cell_angle_alpha 103.803850
_cell_angle_beta 129.309856
_cell_angle_gamma 70.230990
_cell_volume 738.369162
_symmetry_space_group_name_H-M "P -1"
_symmetry_group_IT_number 2
_symmetry_cell_setting 'triclinic'
loop_
_space_group_symop_operation_xyz
x,y,z
-x,-y,-z
loop_
_atom_site_type_symbol
_atom_site_label
_atom_site_fract_x
_atom_site_fract_y
_atom_site_fract_z
Si Si1 0.550119 0.572845 0.453698
Si Si2 0.848764 0.360415 0.942357
Si Si3 0.672697 0.836553 0.163923
Si Si4 0.063575 0.080859 0.806911
Si Si5 0.796407 0.655094 0.005384
Si Si6 0.787157 0.524932 0.242303
Si Si7 0.969743 0.803512 0.758894
Si Si8 0.784035 0.107644 0.222966
O O1 0.500000 0.500000 0.500000
O O2 0.359952 0.653027 0.318796
O O3 0.713010 0.613331 0.716669
O O4 0.626767 0.532904 0.279169
O O5 0.772224 0.453710 0.024626
O O6 0.975029 0.361413 0.851419
O O7 0.963798 0.292800 0.165122
O O8 0.770751 0.904555 0.189758
O O9 0.770070 0.814297 0.460928
O O10 0.705915 0.754633 0.999820
O O11 0.444645 0.876078 0.999832
O O12 0.853541 0.106648 0.521609
O O13 0.115427 0.982054 0.847174
O O14 0.062593 0.133771 0.041507
O O15 0.755745 0.614563 0.156515
O O16 0.000000 0.500000 0.500000
O O17 0.141673 0.819645 0.781491
#
# Coordination Sequence:
#
# PCOD8022547 Si02
#       8
#     2   2   2   2   2   2   2   2
#     4  12  27  44  69  98 125 181 227 268 339 396
#     4  12  25  45  66  94 137 174 222 280 328 391
#     4  11  25  41  68 100 135 175 223 273 333 396
#     4  10  22  47  66 100 135 174 221 272 335 398
#     4  12  26  44  64  97 133 174 224 276 329 392
#     4  12  24  44  68  92 133 172 218 275 329 393
#     4  11  25  42  66 101 134 175 221 275 333 393
#     4  10  24  42  72  98 134 175 219 275 333 400
#
# _framework density 21.669377999999998
#
# number of rings (size 3 to 8) (size 9 to 14) (size 15 to 20)
#    0.000    0.750    3.750    3.000    3.500    1.500 
#    0.000    0.000    0.000    0.000    0.000    0.000 
#    0.000    0.000    0.000    0.000    0.000    0.000 
#
# Total GULP energy -198427.572710 kJ/mol
# GULP energy per Si atom -12401.723294 kJ/mol
# Density = 2.162006 g / cm^3
# Si number density = 21.669378 Si / 1000 Ang^3
#
#
#
# Elastic Constant Matrix: (Units=GPa)
#
#
# Indices 1 2 3 4 5 6 
#
# 1 111.1143 31.0478 29.5574 -22.4705 0.9967 -8.2996
# 2 31.0478 84.5449 29.0399 -2.8229 -1.8235 0.4415
# 3 29.5574 29.0399 95.0139 -10.4940 7.8163 -15.9431
# 4 -22.4705 -2.8229 -10.4940 37.2781 -7.6537 3.1426
# 5 0.9967 -1.8235 7.8163 -7.6537 39.8946 -4.8148
# 6 -8.2996 0.4415 -15.9431 3.1426 -4.8148 36.0578
#
#
#
# Elastic Compliance Matrix: (Units=1/GPa)
#
#
# Indices 1 2 3 4 5 6 
#
# 1 0.011878 -0.003529 -0.001732 0.006542 0.001332 0.001619
# 2 -0.003529 0.014476 -0.004013 -0.001767 0.000897 -0.002490
# 3 -0.001732 -0.004013 0.013500 0.001633 -0.001840 0.005231
# 4 0.006542 -0.001767 0.001633 0.032237 0.005644 0.000194
# 5 0.001332 0.000897 -0.001840 0.005644 0.026828 0.002572
# 6 0.001619 -0.002490 0.005231 0.000194 0.002572 0.030776
#
#
# Mechanical properties :
#
#
# Convention : Reuss Voigt Hill
#
# Bulk Modulus (GPa) = 46.93493 52.21813 49.57653
# Shear Modulus (GPa) = 32.18640 36.04797 34.11719
#
# Velocity S-wave (km/s) = 3.85819 4.08308 3.97223
# Velocity P-wave (km/s) = 6.44625 6.81019 6.63072
#
# Compressibility (1/GPa) = 0.02130609
#
# Stress axis : x y z
#
# Youngs Moduli (GPa) = 84.18599 69.08104 74.07479
#
# Poissons Ratio (x) = 0.24375 0.12830
# Poissons Ratio (y) = 0.29705 0.29729
# Poissons Ratio (z) = 0.14581 0.27725
#
# Static dielectric constant tensor:
#      x y z
#    x 3.798520 0.050800 -0.197190 
#    y 0.050800 3.878430 -0.247730 
#    z -0.197190 -0.247730 4.067930 
# 
# 
# High freq. dielectric constant tensor:
#      x y z
#    x 1.855840 0.007280 0.008240 
#    y 0.007280 1.851560 -0.001470 
#    z 0.008240 -0.001470 1.863260 
# 
# From -- ./inp_files/48750.got.cif
#   From: 2010.06.25/outbox.cif.g09.slc.cpg/sg2_25_cif.got.tgz:48750.got - 2010.06.27 13:26:56.
