data_PCOD8022889
_publ_section_title
;
Structure prediction by ZEFSAII (Michael W. Deem and Ramdas Pophale) SiO2 
 PCOD8022889
Probable space group: P -1
;
_chemical_formula_sum "Si O2"
_cell_formula_units_Z 16
_cell_length_a 14.440990
_cell_length_b 8.274356
_cell_length_c 11.902202
_cell_angle_alpha 64.316112
_cell_angle_beta 57.036770
_cell_angle_gamma 109.880520
_cell_volume 696.859863
_symmetry_space_group_name_H-M "P -1"
_symmetry_group_IT_number 2
_symmetry_cell_setting 'triclinic'
loop_
_space_group_symop_operation_xyz
x,y,z
-x,-y,-z
loop_
_atom_site_type_symbol
_atom_site_label
_atom_site_fract_x
_atom_site_fract_y
_atom_site_fract_z
Si Si1 0.296203 0.692457 0.503513
Si Si2 0.750663 0.666670 0.761335
Si Si3 0.413333 0.198317 0.657505
Si Si4 0.807517 0.297718 0.196673
Si Si5 0.782269 0.713491 0.478613
Si Si6 0.387303 0.271695 0.883576
Si Si7 0.142677 0.298251 0.089874
Si Si8 0.629258 0.884885 0.819348
O O1 0.459918 0.811084 0.418526
O O2 0.209986 0.688675 0.663716
O O3 0.191856 0.402957 0.600475
O O4 0.325925 0.864672 0.330026
O O5 0.797481 0.645996 0.614345
O O6 0.873665 0.729156 0.754644
O O7 0.759822 0.896371 0.681511
O O8 0.560928 0.391052 0.014154
O O9 0.500000 0.500000 0.500000
O O10 0.315852 0.082685 0.876790
O O11 0.292635 0.003542 0.690095
O O12 0.765389 0.412921 0.107961
O O13 0.000000 0.500000 0.000000
O O14 0.592300 0.569343 0.640715
O O15 0.947256 0.045138 0.249786
O O16 0.272259 0.303394 0.965051
O O17 0.364987 0.107704 0.050976
#
# Coordination Sequence:
#
# PCOD8022889 Si02
#       8
#     2   2   2   2   2   2   2   2
#     4  11  25  43  68  97 133 177 231 278 339 402
#     4   9  19  38  67 100 132 172 220 275 344 402
#     4  11  25  45  72  98 132 182 231 280 337 410
#     4  12  30  44  66 100 136 178 230 288 339 402
#     4  10  23  39  69 104 132 181 220 275 340 410
#     4   9  22  43  70 100 135 177 224 278 340 405
#     4  11  23  44  67  97 140 180 224 278 340 400
#     4   9  19  38  68  99 132 171 220 282 336 405
#
# _framework density 22.960137
#
# number of rings (size 3 to 8) (size 9 to 14) (size 15 to 20)
#    0.000    1.750    0.000    3.000    7.000    9.000 
#    0.000    2.500    0.000    0.000    0.000    0.000 
#    0.000    0.000    0.000    0.000    0.000    0.000 
#
# Total GULP energy -198221.725382 kJ/mol
# GULP energy per Si atom -12388.857836 kJ/mol
# Density = 2.290788 g / cm^3
# Si number density = 22.960137 Si / 1000 Ang^3
#
#
#
# Elastic Constant Matrix: (Units=GPa)
#
#
# Indices 1 2 3 4 5 6 
#
# 1 82.7082 25.3737 41.6645 2.5598 5.4910 0.9326
# 2 25.3737 140.5595 60.0587 19.0645 -0.7193 26.1755
# 3 41.6645 60.0587 87.1898 4.2818 -1.7119 0.5465
# 4 2.5598 19.0645 4.2818 36.4882 -5.6773 4.7841
# 5 5.4910 -0.7193 -1.7119 -5.6773 31.9571 -0.6148
# 6 0.9326 26.1755 0.5465 4.7841 -0.6148 31.2766
#
#
#
# Elastic Compliance Matrix: (Units=1/GPa)
#
#
# Indices 1 2 3 4 5 6 
#
# 1 0.016346 0.001025 -0.008525 -0.001075 -0.003454 -0.001100
# 2 0.001025 0.013676 -0.009630 -0.004927 -0.001463 -0.010583
# 3 -0.008525 -0.009630 0.022065 0.002514 0.003023 0.007603
# 4 -0.001075 -0.004927 0.002514 0.030703 0.005654 -0.000473
# 5 -0.003454 -0.001463 0.003023 0.005654 0.033039 0.001059
# 6 -0.001100 -0.010583 0.007603 -0.000473 0.001059 0.040823
#
#
# Mechanical properties :
#
#
# Convention : Reuss Voigt Hill
#
# Bulk Modulus (GPa) = 56.10017 62.73904 59.41960
# Shear Modulus (GPa) = 25.39947 32.16845 28.78396
#
# Velocity S-wave (km/s) = 3.32963 3.74713 3.54453
# Velocity P-wave (km/s) = 6.26647 6.79013 6.53355
#
# Compressibility (1/GPa) = 0.01782526
#
# Stress axis : x y z
#
# Youngs Moduli (GPa) = 61.17770 73.12107 45.32077
#
# Poissons Ratio (x) = -0.07493 0.38636
# Poissons Ratio (y) = -0.06269 0.43646
# Poissons Ratio (z) = 0.52154 0.70419
#
# Static dielectric constant tensor:
#      x y z
#    x 3.620290 0.978530 -0.242220 
#    y 0.978530 5.135610 0.895690 
#    z -0.242220 0.895690 3.879640 
# 
# 
# High freq. dielectric constant tensor:
#      x y z
#    x 1.915000 0.013930 0.007250 
#    y 0.013930 1.904540 0.018840 
#    z 0.007250 0.018840 1.894400 
# 
# From -- ./inp_files/446944.got.cif
#   From: 2010.06.25/outbox.cif.g09.slc.cpg/sg2_224_cif.got.tgz:446944.got - 2010.06.27 13:26:56.
