data_PCOD8023282
_publ_section_title
;
Structure prediction by ZEFSAII (Michael W. Deem and Ramdas Pophale) SiO2 
 PCOD8023282
Probable space group: P -1
;
_chemical_formula_sum "Si O2"
_cell_formula_units_Z 16
_cell_length_a 9.407264
_cell_length_b 17.602666
_cell_length_c 11.763237
_cell_angle_alpha 149.437530
_cell_angle_beta 63.415083
_cell_angle_gamma 128.516787
_cell_volume 755.458833
_symmetry_space_group_name_H-M "P -1"
_symmetry_group_IT_number 2
_symmetry_cell_setting 'triclinic'
loop_
_space_group_symop_operation_xyz
x,y,z
-x,-y,-z
loop_
_atom_site_type_symbol
_atom_site_label
_atom_site_fract_x
_atom_site_fract_y
_atom_site_fract_z
Si Si1 0.482021 0.407306 0.270126
Si Si2 0.713142 0.651719 0.123061
Si Si3 0.830719 0.595971 0.769339
Si Si4 0.824999 0.562393 0.197753
Si Si5 0.398926 0.075291 0.489886
Si Si6 0.765933 0.233129 0.683069
Si Si7 0.232484 0.760834 0.744832
Si Si8 0.490476 0.899914 0.042218
O O1 0.500000 0.500000 0.500000
O O2 0.306333 0.373335 0.217952
O O3 0.667651 0.547901 0.317882
O O4 0.459349 0.218701 0.052365
O O5 0.820677 0.638014 0.174083
O O6 0.717801 0.832192 0.367192
O O7 0.500000 0.500000 0.000000
O O8 0.822334 0.649691 0.970307
O O9 0.780647 0.396006 0.527062
O O10 0.034525 0.722656 0.808875
O O11 0.028357 0.691338 0.347478
O O12 0.787351 0.367669 0.946867
O O13 0.618989 0.214740 0.616074
O O14 0.307905 0.954767 0.477270
O O15 0.381078 0.967025 0.244063
O O16 0.320691 0.935019 0.861639
O O17 0.358649 0.783192 0.836987
#
# Coordination Sequence:
#
# PCOD8023282 Si02
#       8
#     2   2   2   2   2   2   2   2
#     4  12  24  43  67  96 133 173 221 270 322 390
#     4  12  23  41  68  98 134 171 215 274 324 386
#     4  11  24  45  68  98 130 174 226 267 326 390
#     4  11  24  43  66  98 129 173 223 266 325 392
#     4  11  23  42  65  96 134 171 209 272 332 384
#     4  10  23  41  64  95 129 170 215 266 329 387
#     4  10  25  45  68  95 129 176 223 268 326 391
#     4  11  24  45  66  94 133 173 217 271 328 389
#
# _framework density 21.179182000000001
#
# number of rings (size 3 to 8) (size 9 to 14) (size 15 to 20)
#    0.000    1.000    5.000    0.750    3.500    2.000 
#    2.250    0.000    0.000    0.000    0.000    0.000 
#    0.000    0.000    0.000    0.000    0.000    0.000 
#
# Total GULP energy -198472.628673 kJ/mol
# GULP energy per Si atom -12404.539292 kJ/mol
# Density = 2.113098 g / cm^3
# Si number density = 21.179182 Si / 1000 Ang^3
#
#
#
# Elastic Constant Matrix: (Units=GPa)
#
#
# Indices 1 2 3 4 5 6 
#
# 1 108.5427 64.8196 31.2584 4.8152 -13.0097 8.2210
# 2 64.8196 123.3822 54.7790 -11.1657 -10.1032 7.4056
# 3 31.2584 54.7790 106.6484 -12.2936 -17.6559 1.7264
# 4 4.8152 -11.1657 -12.2936 38.4570 2.1814 2.5053
# 5 -13.0097 -10.1032 -17.6559 2.1814 32.3997 0.1157
# 6 8.2210 7.4056 1.7264 2.5053 0.1157 33.9444
#
#
#
# Elastic Compliance Matrix: (Units=1/GPa)
#
#
# Indices 1 2 3 4 5 6 
#
# 1 0.014499 -0.007489 -0.000257 -0.004176 0.003633 -0.001569
# 2 -0.007489 0.014602 -0.005098 0.003721 -0.001478 -0.001382
# 3 -0.000257 -0.005098 0.013236 0.002460 0.005353 0.000302
# 4 -0.004176 0.003721 0.002460 0.028587 -0.001093 -0.002032
# 5 0.003633 -0.001478 0.005353 -0.001093 0.034856 -0.000868
# 6 -0.001569 -0.001382 0.000302 -0.002032 -0.000868 0.030279
#
#
# Mechanical properties :
#
#
# Convention : Reuss Voigt Hill
#
# Bulk Modulus (GPa) = 60.07258 71.14302 65.60780
# Shear Modulus (GPa) = 29.88705 33.47464 31.68084
#
# Velocity S-wave (km/s) = 3.76061 3.97992 3.87182
# Velocity P-wave (km/s) = 6.87617 7.40160 7.14372
#
# Compressibility (1/GPa) = 0.01664653
#
# Stress axis : x y z
#
# Youngs Moduli (GPa) = 68.97053 68.48587 75.55410
#
# Poissons Ratio (x) = 0.51290 0.01945
# Poissons Ratio (y) = 0.51653 0.38519
# Poissons Ratio (z) = 0.01776 0.34916
#
# Static dielectric constant tensor:
#      x y z
#    x 4.358150 -0.267630 0.037080 
#    y -0.267630 4.116360 -0.015510 
#    z 0.037080 -0.015510 3.899670 
# 
# 
# High freq. dielectric constant tensor:
#      x y z
#    x 1.832640 0.000580 -0.004850 
#    y 0.000580 1.837130 0.002470 
#    z -0.004850 0.002470 1.831020 
# 
# From -- ./inp_files/338692.got.cif
#   From: 2010.06.25/outbox.cif.g09.slc.cpg/sg2_170_cif.got.tgz:338692.got - 2010.06.27 13:26:56.
