data_PCOD8023079
_publ_section_title
;
Structure prediction by ZEFSAII (Michael W. Deem and Ramdas Pophale) SiO2 
 PCOD8023079
Probable space group: P -1
;
_chemical_formula_sum "Si O2"
_cell_formula_units_Z 14
_cell_length_a 20.861216
_cell_length_b 9.408512
_cell_length_c 8.445692
_cell_angle_alpha 67.675347
_cell_angle_beta 53.974852
_cell_angle_gamma 31.092009
_cell_volume 661.218584
_symmetry_space_group_name_H-M "P -1"
_symmetry_group_IT_number 2
_symmetry_cell_setting 'triclinic'
loop_
_space_group_symop_operation_xyz
x,y,z
-x,-y,-z
loop_
_atom_site_type_symbol
_atom_site_label
_atom_site_fract_x
_atom_site_fract_y
_atom_site_fract_z
Si Si1 0.374587 0.682483 0.232453
Si Si2 0.133446 0.957795 0.254257
Si Si3 0.465867 0.712752 0.546167
Si Si4 0.821401 0.459919 0.631217
Si Si5 0.166142 0.201837 0.942241
Si Si6 0.284447 0.155164 0.104303
Si Si7 0.519860 0.983843 0.666663
O O1 0.441314 0.456459 0.357534
O O2 0.230856 0.824769 0.325590
O O3 0.333136 0.926666 0.236169
O O4 0.500000 0.500000 0.000000
O O5 0.963828 0.280055 0.401622
O O6 0.151134 0.756540 0.250588
O O7 0.191027 0.979392 0.027326
O O8 0.500000 0.500000 0.500000
O O9 0.291687 0.035516 0.700075
O O10 0.523068 0.766733 0.340600
O O11 0.807539 0.588749 0.751035
O O12 0.686680 0.682816 0.609613
O O13 0.186439 0.262053 0.051578
O O14 0.000000 0.500000 0.000000
O O15 0.421808 0.028422 0.892289
O O16 0.500000 0.000000 0.500000
#
# Coordination Sequence:
#
# PCOD8023079 Si02
#       7
#     2   2   2   2   2   2   2
#     4  11  20  43  65  91 124 171 216 260 318 387
#     4  10  23  40  67  87 131 167 215 263 325 386
#     4  12  25  39  66  99 129 168 217 268 328 380
#     4  11  24  41  64  99 125 171 217 267 322 389
#     4  11  24  44  64  93 133 174 211 273 331 389
#     4  11  24  41  70  93 127 171 222 265 321 383
#     4  12  23  41  65  98 133 165 210 272 319 383
#
# _framework density 21.173029
#
# number of rings (size 3 to 8) (size 9 to 14) (size 15 to 20)
#    0.000    0.857    4.286    3.857    2.000    3.429 
#    0.000    0.714    0.000    0.000    0.000    0.000 
#    0.000    0.000    0.000    0.000    0.000    0.000 
#
# Total GULP energy -173525.054228 kJ/mol
# GULP energy per Si atom -12394.646731 kJ/mol
# Density = 2.112484 g / cm^3
# Si number density = 21.173029 Si / 1000 Ang^3
#
#
#
# Elastic Constant Matrix: (Units=GPa)
#
#
# Indices 1 2 3 4 5 6 
#
# 1 94.5296 49.7421 17.2283 17.4689 -8.9021 6.1285
# 2 49.7421 117.5059 24.9712 14.1438 -7.2771 -4.6926
# 3 17.2283 24.9712 43.2577 -2.6988 -13.3049 5.5789
# 4 17.4689 14.1438 -2.6988 25.1927 9.3677 -0.5019
# 5 -8.9021 -7.2771 -13.3049 9.3677 34.7828 2.1044
# 6 6.1285 -4.6926 5.5789 -0.5019 2.1044 54.1940
#
#
#
# Elastic Compliance Matrix: (Units=1/GPa)
#
#
# Indices 1 2 3 4 5 6 
#
# 1 0.016187 -0.004803 -0.002436 -0.010787 0.005250 -0.002299
# 2 -0.004803 0.012366 -0.005711 -0.004251 0.000188 0.002155
# 3 -0.002436 -0.005711 0.030910 0.004811 0.008933 -0.003703
# 4 -0.010787 -0.004251 0.004811 0.056469 -0.017111 0.001544
# 5 0.005250 0.000188 0.008933 -0.017111 0.038349 -0.003145
# 6 -0.002299 0.002155 -0.003703 0.001544 -0.003145 0.019417
#
#
# Mechanical properties :
#
#
# Convention : Reuss Voigt Hill
#
# Bulk Modulus (GPa) = 29.79449 48.79739 39.29594
# Shear Modulus (GPa) = 23.72086 33.72401 28.72244
#
# Velocity S-wave (km/s) = 3.35077 3.99530 3.68714
# Velocity P-wave (km/s) = 5.39191 6.66185 6.06023
#
# Compressibility (1/GPa) = 0.03356325
#
# Stress axis : x y z
#
# Youngs Moduli (GPa) = 61.77886 80.86405 32.35223
#
# Poissons Ratio (x) = 0.38837 0.07880
# Poissons Ratio (y) = 0.29671 0.18477
# Poissons Ratio (z) = 0.15048 0.46184
#
# Static dielectric constant tensor:
#      x y z
#    x 4.030690 0.220270 -0.306590 
#    y 0.220270 4.022300 -0.099460 
#    z -0.306590 -0.099460 3.809120 
# 
# 
# High freq. dielectric constant tensor:
#      x y z
#    x 1.838480 0.004920 -0.021460 
#    y 0.004920 1.845530 -0.013590 
#    z -0.021460 -0.013590 1.821100 
# 
# From -- ./inp_files/157131.got.cif
#   From: 2010.06.25/outbox.cif.g09.slc.cpg/sg2_79_cif.got.tgz:157131.got - 2010.06.27 13:26:56.
