data_PCOD8023091
_publ_section_title
;
Structure prediction by ZEFSAII (Michael W. Deem and Ramdas Pophale) SiO2 
 PCOD8023091
Probable space group: P -1
;
_chemical_formula_sum "Si O2"
_cell_formula_units_Z 16
_cell_length_a 19.345152
_cell_length_b 12.520654
_cell_length_c 22.086048
_cell_angle_alpha 35.288709
_cell_angle_beta 16.879858
_cell_angle_gamma 28.456333
_cell_volume 727.910085
_symmetry_space_group_name_H-M "P -1"
_symmetry_group_IT_number 2
_symmetry_cell_setting 'triclinic'
loop_
_space_group_symop_operation_xyz
x,y,z
-x,-y,-z
loop_
_atom_site_type_symbol
_atom_site_label
_atom_site_fract_x
_atom_site_fract_y
_atom_site_fract_z
Si Si1 0.734857 0.324287 0.338787
Si Si2 0.199826 0.909278 0.203101
Si Si3 0.840632 0.730921 0.563554
Si Si4 0.358841 0.149461 0.714109
Si Si5 0.834253 0.708073 0.723439
Si Si6 0.687266 0.065886 0.775517
Si Si7 0.617241 0.769857 0.474172
Si Si8 0.731692 0.438300 0.159552
O O1 0.500000 0.500000 0.500000
O O2 0.618277 0.178955 0.484735
O O3 0.741008 0.458947 0.214521
O O4 0.053475 0.160899 0.179953
O O5 0.123177 0.929829 0.330359
O O6 0.059390 0.800881 0.337214
O O7 0.545125 0.749590 0.975418
O O8 0.789832 0.738552 0.674673
O O9 0.000000 0.500000 0.500000
O O10 0.517348 0.897544 0.726650
O O11 0.270035 0.183665 0.702903
O O12 0.063468 0.330526 0.912940
O O13 0.104761 0.448884 0.625706
O O14 0.880365 0.880219 0.645276
O O15 0.481612 0.314161 0.804373
O O16 0.500000 0.000000 0.000000
O O17 0.366769 0.725287 0.699846
O O18 0.500000 0.000000 0.500000
#
# Coordination Sequence:
#
# PCOD8023091 Si02
#       8
#     2   2   2   2   2   2   2   2
#     4  10  24  38  62  93 132 167 210 260 316 394
#     4  10  23  42  62  96 130 166 211 268 324 387
#     4  11  24  41  63  92 124 169 224 264 316 384
#     4  10  23  41  61  92 129 166 217 265 321 385
#     4  11  24  41  66  93 129 171 210 269 331 383
#     4  10  23  40  67  98 133 165 217 263 329 407
#     4  11  25  43  65  96 128 171 227 271 319 387
#     4  11  24  42  67  96 132 176 212 268 337 386
#
# _framework density 21.980737000000001
#
# number of rings (size 3 to 8) (size 9 to 14) (size 15 to 20)
#    0.000    1.500    0.000    3.750   10.500    3.500 
#    0.000    0.000    0.000    0.000    0.000    0.000 
#    0.000    0.000    0.000    0.000    0.000    0.000 
#
# Total GULP energy -198231.532554 kJ/mol
# GULP energy per Si atom -12389.470785 kJ/mol
# Density = 2.193071 g / cm^3
# Si number density = 21.980737 Si / 1000 Ang^3
#
#
#
# Elastic Constant Matrix: (Units=GPa)
#
#
# Indices 1 2 3 4 5 6 
#
# 1 111.6816 65.0534 21.1098 0.3733 23.5461 -20.7946
# 2 65.0534 148.4898 18.5127 23.8812 4.1663 -14.6869
# 3 21.1098 18.5127 62.6151 16.2803 6.9537 -7.4416
# 4 0.3733 23.8812 16.2803 28.8842 -2.6025 -3.1584
# 5 23.5461 4.1663 6.9537 -2.6025 39.4962 3.9988
# 6 -20.7946 -14.6869 -7.4416 -3.1584 3.9988 50.3035
#
#
#
# Elastic Compliance Matrix: (Units=1/GPa)
#
#
# Indices 1 2 3 4 5 6 
#
# 1 0.016754 -0.007348 -0.003942 0.007898 -0.008542 0.005372
# 2 -0.007348 0.011260 0.001405 -0.009835 0.002332 -0.000345
# 3 -0.003942 0.001405 0.020629 -0.012821 -0.002398 0.001218
# 4 0.007898 -0.009835 -0.012821 0.050198 0.001741 0.001510
# 5 -0.008542 0.002332 -0.002398 0.001741 0.031267 -0.005581
# 6 0.005372 -0.000345 0.001218 0.001510 -0.005581 0.022718
#
#
# Mechanical properties :
#
#
# Convention : Reuss Voigt Hill
#
# Bulk Modulus (GPa) = 34.63429 59.12646 46.88037
# Shear Modulus (GPa) = 27.43906 38.27750 32.85828
#
# Velocity S-wave (km/s) = 3.53699 4.17755 3.87055
# Velocity P-wave (km/s) = 5.69836 7.08709 6.43032
#
# Compressibility (1/GPa) = 0.02887312
#
# Stress axis : x y z
#
# Youngs Moduli (GPa) = 59.68698 88.80648 48.47581
#
# Poissons Ratio (x) = 0.65252 0.19111
# Poissons Ratio (y) = 0.43856 -0.06811
# Poissons Ratio (z) = 0.23531 -0.12477
#
# Static dielectric constant tensor:
#      x y z
#    x 4.595170 -0.135940 0.009370 
#    y -0.135940 3.899250 -0.083290 
#    z 0.009370 -0.083290 3.929860 
# 
# 
# High freq. dielectric constant tensor:
#      x y z
#    x 1.884970 -0.016010 0.003540 
#    y -0.016010 1.863730 0.003640 
#    z 0.003540 0.003640 1.868160 
# 
# From -- ./inp_files/599764.got.cif
#   From: 2010.06.25/outbox.cif.g09.slc.cpg/sg2_300_cif.got.tgz:599764.got - 2010.06.27 13:26:56.
