data_PCOD8023683
_publ_section_title
;
Structure prediction by ZEFSAII (Michael W. Deem and Ramdas Pophale) SiO2 
 PCOD8023683
Probable space group: P -1
;
_chemical_formula_sum "Si O2"
_cell_formula_units_Z 12
_cell_length_a 9.639795
_cell_length_b 12.242552
_cell_length_c 5.030236
_cell_angle_alpha 101.907592
_cell_angle_beta 89.589972
_cell_angle_gamma 101.464804
_cell_volume 568.927431
_symmetry_space_group_name_H-M "P -1"
_symmetry_group_IT_number 2
_symmetry_cell_setting 'triclinic'
loop_
_space_group_symop_operation_xyz
x,y,z
-x,-y,-z
loop_
_atom_site_type_symbol
_atom_site_label
_atom_site_fract_x
_atom_site_fract_y
_atom_site_fract_z
Si Si1 0.572661 0.246312 0.657296
Si Si2 0.890692 0.600838 0.327719
Si Si3 0.751900 0.810703 0.432428
Si Si4 0.185618 0.545189 0.246884
Si Si5 0.165689 0.039463 0.991923
Si Si6 0.378855 0.889920 0.911273
O O1 0.409593 0.254725 0.632361
O O2 0.664848 0.371232 0.665353
O O3 0.614447 0.155418 0.409001
O O4 0.603275 0.208479 0.934435
O O5 0.854523 0.723122 0.335313
O O6 0.833402 0.558088 0.596372
O O7 0.060499 0.615889 0.317593
O O8 0.815836 0.507450 0.071613
O O9 0.791698 0.914183 0.278938
O O10 0.772326 0.861256 0.752539
O O11 0.229470 0.926668 0.979469
O O12 0.000000 0.000000 0.000000
O O13 0.500000 0.000000 0.000000
#
# Coordination Sequence:
#
# PCOD8023683 Si02
#       6
#     2   2   2   2   2   2
#     4  12  24  40  68  94 123 169 208 251 314 369
#     4  10  23  42  63  89 128 158 205 262 305 370
#     4  12  24  43  64  95 127 163 208 260 309 365
#     4  10  23  42  63  92 120 165 207 251 317 368
#     4  12  27  41  63  95 128 167 209 253 310 365
#     4  12  23  43  63  91 132 165 203 256 305 373
#
# _framework density 21.092320999999998
#
# number of rings (size 3 to 8) (size 9 to 14) (size 15 to 20)
#    0.000    0.667    3.333    4.000    4.667    1.333 
#    0.000    0.000    0.000    0.000    0.000    0.000 
#    0.000    0.000    0.000    0.000    0.000    0.000 
#
# Total GULP energy -148912.472535 kJ/mol
# GULP energy per Si atom -12409.372711 kJ/mol
# Density = 2.104431 g / cm^3
# Si number density = 21.092321 Si / 1000 Ang^3
#
#
#
# Elastic Constant Matrix: (Units=GPa)
#
#
# Indices 1 2 3 4 5 6 
#
# 1 108.0436 16.9909 23.0740 -2.6652 11.0540 0.0155
# 2 16.9909 55.8513 10.8896 -6.5170 4.7230 -7.5838
# 3 23.0740 10.8896 76.3898 -9.7971 -0.3916 2.8148
# 4 -2.6652 -6.5170 -9.7971 22.9835 -1.4489 5.7944
# 5 11.0540 4.7230 -0.3916 -1.4489 30.2413 2.7080
# 6 0.0155 -7.5838 2.8148 5.7944 2.7080 40.7714
#
#
#
# Elastic Compliance Matrix: (Units=1/GPa)
#
#
# Indices 1 2 3 4 5 6 
#
# 1 0.010627 -0.002440 -0.003014 -0.001005 -0.003602 0.000132
# 2 -0.002440 0.020101 -0.001807 0.003609 -0.002413 0.003512
# 3 -0.003014 -0.001807 0.015173 0.006350 0.002102 -0.002425
# 4 -0.001005 0.003609 0.006350 0.049049 0.002856 -0.006927
# 5 -0.003602 -0.002413 0.002102 0.002856 0.035224 -0.003338
# 6 0.000132 0.003512 -0.002425 -0.006927 -0.003338 0.026554
#
#
# Mechanical properties :
#
#
# Convention : Reuss Voigt Hill
#
# Bulk Modulus (GPa) = 31.86915 38.02152 34.94533
# Shear Modulus (GPa) = 27.51626 31.42127 29.46877
#
# Velocity S-wave (km/s) = 3.61579 3.86385 3.74188
# Velocity P-wave (km/s) = 5.70737 6.16208 5.93908
#
# Compressibility (1/GPa) = 0.03137831
#
# Stress axis : x y z
#
# Youngs Moduli (GPa) = 94.10277 49.74801 65.90492
#
# Poissons Ratio (x) = 0.12137 0.19866
# Poissons Ratio (y) = 0.22959 0.11912
# Poissons Ratio (z) = 0.28365 0.08992
#
# Static dielectric constant tensor:
#      x y z
#    x 4.029350 -0.267300 0.121540 
#    y -0.267300 4.090010 -0.349930 
#    z 0.121540 -0.349930 4.132750 
# 
# 
# High freq. dielectric constant tensor:
#      x y z
#    x 1.835010 -0.002180 -0.000940 
#    y -0.002180 1.817550 -0.004600 
#    z -0.000940 -0.004600 1.844880 
# 
# From -- ./inp_files/25348.got.cif
#   From: 2010.06.25/outbox.cif.g09.slc.cpg/sg2_13_cif.got.tgz:25348.got - 2010.06.27 13:26:56.
