data_PCOD8023389
_publ_section_title
;
Structure prediction by ZEFSAII (Michael W. Deem and Ramdas Pophale) SiO2 
 PCOD8023389
Probable space group: P -1
;
_chemical_formula_sum "Si O2"
_cell_formula_units_Z 14
_cell_length_a 9.997227
_cell_length_b 11.439454
_cell_length_c 14.249120
_cell_angle_alpha 49.353301
_cell_angle_beta 149.016904
_cell_angle_gamma 124.398087
_cell_volume 636.403179
_symmetry_space_group_name_H-M "P -1"
_symmetry_group_IT_number 2
_symmetry_cell_setting 'triclinic'
loop_
_space_group_symop_operation_xyz
x,y,z
-x,-y,-z
loop_
_atom_site_type_symbol
_atom_site_label
_atom_site_fract_x
_atom_site_fract_y
_atom_site_fract_z
Si Si1 0.200009 0.248369 0.007663
Si Si2 0.369318 0.725789 0.374330
Si Si3 0.577837 0.012288 0.435021
Si Si4 0.650335 0.581256 0.174005
Si Si5 0.723882 0.608311 0.509833
Si Si6 0.103663 0.506908 0.951780
Si Si7 0.959484 0.278509 0.523644
O O1 0.345268 0.363455 0.960748
O O2 0.368784 0.098230 0.200243
O O3 0.911267 0.195587 0.828328
O O4 0.164183 0.336254 0.039093
O O5 0.587848 0.836794 0.494862
O O6 0.458634 0.691077 0.338703
O O7 0.341779 0.555771 0.495783
O O8 0.500000 0.000000 0.500000
O O9 0.851306 0.103671 0.550161
O O10 0.726586 0.400925 0.317334
O O11 0.862680 0.690467 0.295547
O O12 0.374976 0.603766 0.049664
O O13 0.887124 0.583240 0.716295
O O14 0.873690 0.717104 0.472336
O O15 0.000000 0.500000 0.000000
#
# Coordination Sequence:
#
# PCOD8023389 Si02
#       7
#     2   2   2   2   2   2   2
#     4  11  22  43  67  95 130 178 219 268 326 391
#     4  10  23  41  66  95 133 168 218 266 331 380
#     4  12  26  40  65  98 134 172 218 273 332 387
#     4  11  22  40  68  96 129 173 228 267 314 394
#     4  10  23  42  68  95 131 174 221 267 328 386
#     4  11  23  35  66 100 129 165 221 278 320 377
#     4  11  23  40  68  95 132 173 224 267 324 388
#
# _framework density 21.998632000000001
#
# number of rings (size 3 to 8) (size 9 to 14) (size 15 to 20)
#    0.000    1.143    4.286    2.571   10.000    0.571 
#    0.000    0.000    0.000    2.571    0.000    0.000 
#    0.000    0.000    0.000    0.000    0.000    0.000 
#
# Total GULP energy -173534.921673 kJ/mol
# GULP energy per Si atom -12395.351548 kJ/mol
# Density = 2.194856 g / cm^3
# Si number density = 21.998632 Si / 1000 Ang^3
#
#
#
# Elastic Constant Matrix: (Units=GPa)
#
#
# Indices 1 2 3 4 5 6 
#
# 1 146.5309 42.3616 18.4518 3.1845 -0.9886 24.1102
# 2 42.3616 164.2617 15.7037 16.0955 -4.3401 12.4913
# 3 18.4518 15.7037 38.3454 2.1766 4.3208 7.5762
# 4 3.1845 16.0955 2.1766 18.4182 5.9349 2.8331
# 5 -0.9886 -4.3401 4.3208 5.9349 32.3318 6.5344
# 6 24.1102 12.4913 7.5762 2.8331 6.5344 38.9241
#
#
#
# Elastic Compliance Matrix: (Units=1/GPa)
#
#
# Indices 1 2 3 4 5 6 
#
# 1 0.008333 -0.001585 -0.002661 0.000551 0.001180 -0.004374
# 2 -0.001585 0.007497 -0.002030 -0.006745 0.002667 -0.000986
# 3 -0.002661 -0.002030 0.029138 0.000431 -0.003767 -0.002770
# 4 0.000551 -0.006745 0.000431 0.064219 -0.012568 -0.000825
# 5 0.001180 0.002667 -0.003767 -0.012568 0.035320 -0.005868
# 6 -0.004374 -0.000986 -0.002770 -0.000825 -0.005868 0.030301
#
#
# Mechanical properties :
#
#
# Convention : Reuss Voigt Hill
#
# Bulk Modulus (GPa) = 30.84931 55.79690 43.32311
# Shear Modulus (GPa) = 25.23131 36.10956 30.67044
#
# Velocity S-wave (km/s) = 3.39034 4.05587 3.73795
# Velocity P-wave (km/s) = 5.42029 6.88130 6.19403
#
# Compressibility (1/GPa) = 0.03241563
#
# Stress axis : x y z
#
# Youngs Moduli (GPa) = 119.99895 133.38561 34.31919
#
# Poissons Ratio (x) = 0.21141 0.09133
# Poissons Ratio (y) = 0.19019 0.06968
# Poissons Ratio (z) = 0.31933 0.27083
#
# Static dielectric constant tensor:
#      x y z
#    x 3.603850 0.166360 -0.533670 
#    y 0.166360 5.354860 0.304460 
#    z -0.533670 0.304460 2.665930 
# 
# 
# High freq. dielectric constant tensor:
#      x y z
#    x 1.871120 0.012770 0.004540 
#    y 0.012770 1.862330 0.028520 
#    z 0.004540 0.028520 1.847170 
# 
# From -- ./inp_files/567293.got.cif
#   From: 2010.06.25/outbox.cif.g09.slc.cpg/sg2_284_cif.got.tgz:567293.got - 2010.06.27 13:26:56.
