data_PCOD8023385
_publ_section_title
;
Structure prediction by ZEFSAII (Michael W. Deem and Ramdas Pophale) SiO2 
 PCOD8023385
Probable space group: P -1
;
_chemical_formula_sum "Si O2"
_cell_formula_units_Z 14
_cell_length_a 15.289655
_cell_length_b 6.890116
_cell_length_c 10.235759
_cell_angle_alpha 68.373162
_cell_angle_beta 56.806752
_cell_angle_gamma 45.482977
_cell_volume 643.211353
_symmetry_space_group_name_H-M "P -1"
_symmetry_group_IT_number 2
_symmetry_cell_setting 'triclinic'
loop_
_space_group_symop_operation_xyz
x,y,z
-x,-y,-z
loop_
_atom_site_type_symbol
_atom_site_label
_atom_site_fract_x
_atom_site_fract_y
_atom_site_fract_z
Si Si1 0.072338 0.627554 0.901838
Si Si2 0.654234 0.241796 0.959247
Si Si3 0.478099 0.322496 0.480381
Si Si4 0.347108 0.111542 0.751202
Si Si5 0.139094 0.756717 0.085538
Si Si6 0.028798 0.701006 0.424911
Si Si7 0.779725 0.255177 0.592606
O O1 0.204903 0.410880 0.759398
O O2 0.124774 0.674382 0.977526
O O3 0.964751 0.927199 0.858530
O O4 0.000000 0.500000 0.000000
O O5 0.712132 0.330762 0.997814
O O6 0.737848 0.164117 0.774734
O O7 0.500000 0.500000 0.000000
O O8 0.661980 0.994211 0.073573
O O9 0.500000 0.500000 0.500000
O O10 0.459180 0.153616 0.639658
O O11 0.353286 0.504157 0.436708
O O12 0.614831 0.106529 0.337050
O O13 0.106251 0.615993 0.245621
O O14 0.135098 0.648471 0.459084
O O15 0.000000 0.500000 0.500000
O O16 0.880556 0.998865 0.479810
#
# Coordination Sequence:
#
# PCOD8023385 Si02
#       7
#     2   2   2   2   2   2   2
#     4  11  23  41  69  95 133 166 220 273 325 386
#     4  11  22  45  69  93 138 169 218 278 321 388
#     4  11  26  46  66  96 135 173 219 271 331 391
#     4  11  25  42  70  98 125 180 222 264 333 390
#     4  10  24  41  65 102 127 175 217 269 333 379
#     4  10  23  41  66  94 131 170 217 262 328 392
#     4  10  23  44  66  95 133 172 215 275 322 385
#
# _framework density 21.765785000000001
#
# number of rings (size 3 to 8) (size 9 to 14) (size 15 to 20)
#    0.000    1.429    2.857    0.857    4.000    5.714 
#    0.000    1.429    0.000    0.000    0.000    0.000 
#    0.000    0.000    0.000    0.000    0.000    0.000 
#
# Total GULP energy -173453.091836 kJ/mol
# GULP energy per Si atom -12389.506560 kJ/mol
# Density = 2.171625 g / cm^3
# Si number density = 21.765785 Si / 1000 Ang^3
#
#
#
# Elastic Constant Matrix: (Units=GPa)
#
#
# Indices 1 2 3 4 5 6 
#
# 1 99.9570 54.2610 41.5953 1.3066 -13.3879 2.7770
# 2 54.2610 110.3065 38.9943 10.8722 -13.8659 13.5848
# 3 41.5953 38.9943 107.0120 -8.4041 -13.0904 11.0527
# 4 1.3066 10.8722 -8.4041 53.8783 -1.5976 -8.6899
# 5 -13.3879 -13.8659 -13.0904 -1.5976 24.1784 0.3005
# 6 2.7770 13.5848 11.0527 -8.6899 0.3005 36.4712
#
#
#
# Elastic Compliance Matrix: (Units=1/GPa)
#
#
# Indices 1 2 3 4 5 6 
#
# 1 0.015137 -0.006235 -0.003429 0.000829 0.002975 0.002382
# 2 -0.006235 0.014330 -0.002148 -0.003804 0.003415 -0.005147
# 3 -0.003429 -0.002148 0.012311 0.002196 0.003707 -0.002177
# 4 0.000829 -0.003804 0.002196 0.020573 0.000756 0.005584
# 5 0.002975 0.003415 0.003707 0.000756 0.047057 -0.002830
# 6 0.002382 -0.005147 -0.002177 0.005584 -0.002830 0.031168
#
#
# Mechanical properties :
#
#
# Convention : Reuss Voigt Hill
#
# Bulk Modulus (GPa) = 55.08094 65.21965 60.15029
# Shear Modulus (GPa) = 29.36823 35.06725 32.21774
#
# Velocity S-wave (km/s) = 3.67725 4.01823 3.85151
# Velocity P-wave (km/s) = 6.58716 7.18036 6.89015
#
# Compressibility (1/GPa) = 0.01815510
#
# Stress axis : x y z
#
# Youngs Moduli (GPa) = 66.06204 69.78310 81.22905
#
# Poissons Ratio (x) = 0.43511 0.27852
# Poissons Ratio (y) = 0.41191 0.17445
# Poissons Ratio (z) = 0.22652 0.14987
#
# Static dielectric constant tensor:
#      x y z
#    x 3.781910 -0.050160 -0.127860 
#    y -0.050160 4.423900 0.290670 
#    z -0.127860 0.290670 4.606120 
# 
# 
# High freq. dielectric constant tensor:
#      x y z
#    x 1.844150 0.000170 -0.015990 
#    y 0.000170 1.859370 0.000460 
#    z -0.015990 0.000460 1.873010 
# 
# From -- ./inp_files/94532.got.cif
#   From: 2010.06.25/outbox.cif.g09.slc.cpg/sg2_48_cif.got.tgz:94532.got - 2010.06.27 13:26:56.
