data_PCOD8023524
_publ_section_title
;
Structure prediction by ZEFSAII (Michael W. Deem and Ramdas Pophale) SiO2 
 PCOD8023524
Probable space group: P -1
;
_chemical_formula_sum "Si O2"
_cell_formula_units_Z 16
_cell_length_a 13.598326
_cell_length_b 6.684842
_cell_length_c 8.793489
_cell_angle_alpha 80.400271
_cell_angle_beta 84.265628
_cell_angle_gamma 105.095586
_cell_volume 752.284392
_symmetry_space_group_name_H-M "P -1"
_symmetry_group_IT_number 2
_symmetry_cell_setting 'triclinic'
loop_
_space_group_symop_operation_xyz
x,y,z
-x,-y,-z
loop_
_atom_site_type_symbol
_atom_site_label
_atom_site_fract_x
_atom_site_fract_y
_atom_site_fract_z
Si Si1 0.928175 0.126641 0.919451
Si Si2 0.978064 0.023377 0.329486
Si Si3 0.756888 0.752766 0.043396
Si Si4 0.745120 0.775168 0.380042
Si Si5 0.288190 0.598841 0.336573
Si Si6 0.415750 0.388187 0.147788
Si Si7 0.402044 0.034190 0.424517
Si Si8 0.110291 0.460517 0.136438
O O1 0.945931 0.368044 0.937170
O O2 0.955290 0.118918 0.738662
O O3 0.812448 0.002559 0.998333
O O4 0.000000 0.000000 0.000000
O O5 0.020854 0.266337 0.240603
O O6 0.857210 0.940926 0.322184
O O7 0.000000 0.000000 0.500000
O O8 0.707233 0.690420 0.226099
O O9 0.678988 0.736163 0.921658
O O10 0.834346 0.613771 0.006190
O O11 0.751108 0.577145 0.505087
O O12 0.667068 0.890521 0.450031
O O13 0.385413 0.560419 0.236636
O O14 0.192555 0.576863 0.239216
O O15 0.329203 0.827541 0.379256
O O16 0.447984 0.217160 0.269764
O O17 0.500000 0.500000 0.000000
O O18 0.500000 0.000000 0.500000
#
# Coordination Sequence:
#
# PCOD8023524 Si02
#       8
#     2   2   2   2   2   2   2   2
#     4  11  23  42  60  94 136 173 216 272 321 385
#     4  11  23  41  64  99 131 174 222 264 328 393
#     4  10  23  43  64  96 131 175 221 275 328 392
#     4  11  24  44  67  99 137 171 220 278 326 398
#     4  10  23  44  67  97 130 176 217 270 340 391
#     4  10  24  45  70  93 130 171 222 282 331 396
#     4  11  27  45  68 100 134 174 221 277 337 401
#     4  10  23  41  69  92 135 179 219 267 331 394
#
# _framework density 21.268552
#
# number of rings (size 3 to 8) (size 9 to 14) (size 15 to 20)
#    0.000    1.500    2.500    0.750    7.000    6.000 
#    2.250    0.000    0.000    0.000    0.000    0.000 
#    0.000    0.000    0.000    0.000    0.000    0.000 
#
# Total GULP energy -198318.108938 kJ/mol
# GULP energy per Si atom -12394.881809 kJ/mol
# Density = 2.122014 g / cm^3
# Si number density = 21.268552 Si / 1000 Ang^3
#
#
#
# Elastic Constant Matrix: (Units=GPa)
#
#
# Indices 1 2 3 4 5 6 
#
# 1 66.1320 41.5027 34.3638 -14.8494 -8.6963 -12.2217
# 2 41.5027 142.2577 57.1683 -6.5015 -6.3012 -14.7979
# 3 34.3638 57.1683 154.3616 5.7742 -13.6579 -19.0816
# 4 -14.8494 -6.5015 5.7742 35.5880 6.5230 3.5863
# 5 -8.6963 -6.3012 -13.6579 6.5230 32.3897 -4.8686
# 6 -12.2217 -14.7979 -19.0816 3.5863 -4.8686 29.7618
#
#
#
# Elastic Compliance Matrix: (Units=1/GPa)
#
#
# Indices 1 2 3 4 5 6 
#
# 1 0.022420 -0.004424 -0.002786 0.007950 0.003100 0.004770
# 2 -0.004424 0.009402 -0.002360 0.000159 -0.000191 0.001294
# 3 -0.002786 -0.002360 0.009089 -0.004314 0.004203 0.004717
# 4 0.007950 0.000159 -0.004314 0.033936 -0.007193 -0.004688
# 5 0.003100 -0.000191 0.004203 -0.007193 0.036500 0.010710
# 6 0.004770 0.001294 0.004717 -0.004688 0.010710 0.041544
#
#
# Mechanical properties :
#
#
# Convention : Reuss Voigt Hill
#
# Bulk Modulus (GPa) = 45.93467 69.86898 57.90182
# Shear Modulus (GPa) = 27.88799 34.86232 31.37516
#
# Velocity S-wave (km/s) = 3.62502 4.05303 3.84499
# Velocity P-wave (km/s) = 6.25823 7.40439 6.85530
#
# Compressibility (1/GPa) = 0.02177005
#
# Stress axis : x y z
#
# Youngs Moduli (GPa) = 44.60358 106.35868 110.02357
#
# Poissons Ratio (x) = 0.47058 0.30652
# Poissons Ratio (y) = 0.19735 0.25966
# Poissons Ratio (z) = 0.12426 0.25101
#
# Static dielectric constant tensor:
#      x y z
#    x 3.160170 0.139730 0.311110 
#    y 0.139730 3.580650 0.327840 
#    z 0.311110 0.327840 4.201090 
# 
# 
# High freq. dielectric constant tensor:
#      x y z
#    x 1.830390 0.007450 0.005260 
#    y 0.007450 1.840210 0.008880 
#    z 0.005260 0.008880 1.853780 
# 
# From -- ./inp_files/208101.got.cif
#   From: 2010.06.25/outbox.cif.g09.slc.cpg/sg2_105_cif.got.tgz:208101.got - 2010.06.27 13:26:56.
