data_PCOD8023416
_publ_section_title
;
Structure prediction by ZEFSAII (Michael W. Deem and Ramdas Pophale) SiO2 
 PCOD8023416
Probable space group: P -1
;
_chemical_formula_sum "Si O2"
_cell_formula_units_Z 16
_cell_length_a 11.932790
_cell_length_b 9.673318
_cell_length_c 8.982265
_cell_angle_alpha 68.991137
_cell_angle_beta 53.865319
_cell_angle_gamma 58.011748
_cell_volume 708.608824
_symmetry_space_group_name_H-M "P -1"
_symmetry_group_IT_number 2
_symmetry_cell_setting 'triclinic'
loop_
_space_group_symop_operation_xyz
x,y,z
-x,-y,-z
loop_
_atom_site_type_symbol
_atom_site_label
_atom_site_fract_x
_atom_site_fract_y
_atom_site_fract_z
Si Si1 0.687936 0.211428 0.315095
Si Si2 0.596631 0.834522 0.399315
Si Si3 0.119347 0.630800 0.732442
Si Si4 0.152782 0.634274 0.354052
Si Si5 0.177909 0.160475 0.569092
Si Si6 0.685776 0.708206 0.805391
Si Si7 0.205877 0.296235 0.955609
Si Si8 0.606828 0.310510 0.008850
O O1 0.510911 0.263304 0.485778
O O2 0.763843 0.301438 0.322488
O O3 0.685935 0.265382 0.125548
O O4 0.789860 0.018681 0.328711
O O5 0.750629 0.747735 0.410630
O O6 0.657324 0.854723 0.178664
O O7 0.500000 0.000000 0.500000
O O8 0.117276 0.639417 0.553221
O O9 0.173170 0.445969 0.811996
O O10 0.945491 0.735613 0.888184
O O11 0.228203 0.452641 0.299831
O O12 0.000553 0.730560 0.341847
O O13 0.259525 0.730191 0.202547
O O14 0.260384 0.153726 0.346951
O O15 0.501331 0.782204 0.902087
O O16 0.730818 0.665425 0.956658
O O17 0.500000 0.500000 0.000000
#
# Coordination Sequence:
#
# PCOD8023416 Si02
#       8
#     2   2   2   2   2   2   2   2
#     4  11  25  46  65 102 141 182 229 282 354 405
#     4  10  24  46  69  98 133 185 225 275 347 410
#     4  11  25  42  68 108 138 175 231 289 349 402
#     4  11  24  42  71 101 139 184 231 288 339 408
#     4  11  23  44  71  92 141 190 227 277 346 416
#     4  11  22  44  70 103 136 181 238 282 342 406
#     4  11  25  43  73 102 135 177 233 292 340 411
#     4  10  23  41  66  99 133 177 229 286 337 403
#
# _framework density 22.579453000000001
#
# number of rings (size 3 to 8) (size 9 to 14) (size 15 to 20)
#    0.000    1.250    2.500    2.625    8.750    1.500 
#    2.250    2.500    0.000    0.000    0.000    0.000 
#    0.000    0.000    0.000    0.000    0.000    0.000 
#
# Total GULP energy -198286.265945 kJ/mol
# GULP energy per Si atom -12392.891622 kJ/mol
# Density = 2.252806 g / cm^3
# Si number density = 22.579453 Si / 1000 Ang^3
#
#
#
# Elastic Constant Matrix: (Units=GPa)
#
#
# Indices 1 2 3 4 5 6 
#
# 1 161.2388 45.5033 67.2659 7.2486 -16.7624 -12.1864
# 2 45.5033 63.6019 51.5407 -9.5473 3.9752 -1.7898
# 3 67.2659 51.5407 182.6846 9.6183 -4.9051 -3.1844
# 4 7.2486 -9.5473 9.6183 28.8046 -4.6531 9.6432
# 5 -16.7624 3.9752 -4.9051 -4.6531 46.6186 -7.2865
# 6 -12.1864 -1.7898 -3.1844 9.6432 -7.2865 18.4685
#
#
#
# Elastic Compliance Matrix: (Units=1/GPa)
#
#
# Indices 1 2 3 4 5 6 
#
# 1 0.010887 -0.008454 -0.000783 -0.008722 0.005721 0.013040
# 2 -0.008454 0.030108 -0.006843 0.018748 -0.007019 -0.016399
# 3 -0.000783 -0.006843 0.008096 -0.005832 0.001152 0.003715
# 4 -0.008722 0.018748 -0.005832 0.056432 -0.005429 -0.036551
# 5 0.005721 -0.007019 0.001152 -0.005429 0.026263 0.016489
# 6 0.013040 -0.016399 0.003715 -0.036551 0.016489 0.087393
#
#
# Mechanical properties :
#
#
# Convention : Reuss Voigt Hill
#
# Bulk Modulus (GPa) = 59.06681 81.79389 70.43035
# Shear Modulus (GPa) = 19.45656 34.99271 27.22464
#
# Velocity S-wave (km/s) = 2.93865 3.94097 3.47612
# Velocity P-wave (km/s) = 6.14252 7.55062 6.88267
#
# Compressibility (1/GPa) = 0.01692998
#
# Stress axis : x y z
#
# Youngs Moduli (GPa) = 91.85242 33.21414 123.52219
#
# Poissons Ratio (x) = 0.28079 0.09678
# Poissons Ratio (y) = 0.77651 0.84524
# Poissons Ratio (z) = 0.07197 0.22728
#
# Static dielectric constant tensor:
#      x y z
#    x 4.616870 -0.196280 -0.499330 
#    y -0.196280 3.736660 -0.125710 
#    z -0.499330 -0.125710 4.735820 
# 
# 
# High freq. dielectric constant tensor:
#      x y z
#    x 1.905830 -0.021000 -0.009570 
#    y -0.021000 1.859380 -0.010750 
#    z -0.009570 -0.010750 1.910740 
# 
# From -- ./inp_files/262283.got.cif
#   From: 2010.06.25/outbox.cif.g09.slc.cpg/sg2_132_cif.got.tgz:262283.got - 2010.06.27 13:26:56.
