data_PCOD8023339
_publ_section_title
;
Structure prediction by ZEFSAII (Michael W. Deem and Ramdas Pophale) SiO2 
 PCOD8023339
Probable space group: P -1
;
_chemical_formula_sum "Si O2"
_cell_formula_units_Z 16
_cell_length_a 9.178504
_cell_length_b 11.848455
_cell_length_c 16.314111
_cell_angle_alpha 48.081090
_cell_angle_beta 136.907121
_cell_angle_gamma 141.432660
_cell_volume 735.751246
_symmetry_space_group_name_H-M "P -1"
_symmetry_group_IT_number 2
_symmetry_cell_setting 'triclinic'
loop_
_space_group_symop_operation_xyz
x,y,z
-x,-y,-z
loop_
_atom_site_type_symbol
_atom_site_label
_atom_site_fract_x
_atom_site_fract_y
_atom_site_fract_z
Si Si1 0.473269 0.459642 0.700483
Si Si2 0.217974 0.503095 0.038649
Si Si3 0.900651 0.293442 0.541657
Si Si4 0.239056 0.826659 0.637269
Si Si5 0.786118 0.447313 0.693012
Si Si6 0.580349 0.829732 0.913000
Si Si7 0.501346 0.776959 0.472967
Si Si8 0.000045 0.229209 0.944239
O O1 0.555569 0.463603 0.825385
O O2 0.614785 0.400072 0.726790
O O3 0.561674 0.668939 0.615232
O O4 0.161243 0.296593 0.646359
O O5 0.333303 0.670892 0.940023
O O6 0.000000 0.500000 0.000000
O O7 0.084732 0.304767 0.034870
O O8 0.751561 0.228290 0.425496
O O9 0.698305 0.180465 0.588062
O O10 0.000000 0.500000 0.500000
O O11 0.482715 0.858476 0.772822
O O12 0.967600 0.668575 0.645368
O O13 0.252552 0.016814 0.550644
O O14 0.602635 0.355473 0.583854
O O15 0.960886 0.368950 0.810491
O O16 0.733827 0.021901 0.934293
O O17 0.767267 0.763763 0.007628
#
# Coordination Sequence:
#
# PCOD8023339 Si02
#       8
#     2   2   2   2   2   2   2   2
#     4  11  25  45  67  98 141 178 214 276 340 395
#     4  12  25  46  69  99 140 178 220 276 343 398
#     4  10  23  41  65  97 130 175 214 274 331 386
#     4  12  23  42  73  98 133 169 229 274 331 393
#     4  12  23  46  68  97 139 174 224 276 332 399
#     4  11  26  43  73 102 128 182 229 278 333 393
#     4  11  25  43  70  98 134 176 225 275 327 398
#     4  11  25  44  69 102 131 179 229 277 330 397
#
# _framework density 21.746478
#
# number of rings (size 3 to 8) (size 9 to 14) (size 15 to 20)
#    0.000    0.750    6.250    1.125    5.250    1.000 
#    2.250    0.000    0.000    0.000    0.000    0.000 
#    0.000    0.000    0.000    0.000    0.000    0.000 
#
# Total GULP energy -198401.726869 kJ/mol
# GULP energy per Si atom -12400.107929 kJ/mol
# Density = 2.169698 g / cm^3
# Si number density = 21.746478 Si / 1000 Ang^3
#
#
#
# Elastic Constant Matrix: (Units=GPa)
#
#
# Indices 1 2 3 4 5 6 
#
# 1 90.4895 46.0465 16.1323 6.3260 -8.8146 -5.5405
# 2 46.0465 139.6644 46.3491 8.5279 -11.9463 -10.6716
# 3 16.1323 46.3491 110.5475 11.0382 -10.9465 -15.5446
# 4 6.3260 8.5279 11.0382 39.9660 -9.1598 -4.7880
# 5 -8.8146 -11.9463 -10.9465 -9.1598 28.3516 6.3829
# 6 -5.5405 -10.6716 -15.5446 -4.7880 6.3829 18.3418
#
#
#
# Elastic Compliance Matrix: (Units=1/GPa)
#
#
# Indices 1 2 3 4 5 6 
#
# 1 0.013467 -0.004220 0.000203 -0.000709 0.002059 0.000883
# 2 -0.004220 0.009821 -0.003187 -0.000103 0.001277 0.001267
# 3 0.000203 -0.003187 0.011633 -0.001437 0.001102 0.007307
# 4 -0.000709 -0.000103 -0.001437 0.027625 0.007398 0.003145
# 5 0.002059 0.001277 0.001102 0.007398 0.041570 -0.010236
# 6 0.000883 0.001267 0.007307 0.003145 -0.010236 0.066100
#
#
# Mechanical properties :
#
#
# Convention : Reuss Voigt Hill
#
# Bulk Modulus (GPa) = 48.75181 61.97303 55.36242
# Shear Modulus (GPa) = 26.11502 32.81012 29.46257
#
# Velocity S-wave (km/s) = 3.46914 3.88848 3.68478
# Velocity P-wave (km/s) = 6.20592 6.97999 6.60431
#
# Compressibility (1/GPa) = 0.02051206
#
# Stress axis : x y z
#
# Youngs Moduli (GPa) = 74.25789 101.81795 85.96578
#
# Poissons Ratio (x) = 0.42971 -0.01746
# Poissons Ratio (y) = 0.31340 0.27397
# Poissons Ratio (z) = -0.01508 0.32450
#
# Static dielectric constant tensor:
#      x y z
#    x 4.736260 0.292750 -0.122490 
#    y 0.292750 4.291040 0.183600 
#    z -0.122490 0.183600 4.067860 
# 
# 
# High freq. dielectric constant tensor:
#      x y z
#    x 1.851450 -0.002760 -0.005270 
#    y -0.002760 1.861860 0.011480 
#    z -0.005270 0.011480 1.855390 
# 
# From -- ./inp_files/500103.got.cif
#   From: 2010.06.25/outbox.cif.g09.slc.cpg/sg2_251_cif.got.tgz:500103.got - 2010.06.27 13:26:56.
