data_PCOD8023326
_publ_section_title
;
Structure prediction by ZEFSAII (Michael W. Deem and Ramdas Pophale) SiO2 
 PCOD8023326
Probable space group: P -1
;
_chemical_formula_sum "Si O2"
_cell_formula_units_Z 16
_cell_length_a 7.349059
_cell_length_b 6.754861
_cell_length_c 20.505045
_cell_angle_alpha 57.260049
_cell_angle_beta 120.640588
_cell_angle_gamma 94.515466
_cell_volume 708.865212
_symmetry_space_group_name_H-M "P -1"
_symmetry_group_IT_number 2
_symmetry_cell_setting 'triclinic'
loop_
_space_group_symop_operation_xyz
x,y,z
-x,-y,-z
loop_
_atom_site_type_symbol
_atom_site_label
_atom_site_fract_x
_atom_site_fract_y
_atom_site_fract_z
Si Si1 0.734144 0.721438 0.294325
Si Si2 0.807542 0.383902 0.898142
Si Si3 0.300875 0.104495 0.006711
Si Si4 0.511645 0.754239 0.861346
Si Si5 0.432623 0.571944 0.578924
Si Si6 0.770595 0.667923 0.714646
Si Si7 0.791366 0.198518 0.627706
Si Si8 0.751334 0.590512 0.178059
O O1 0.719911 0.532488 0.381815
O O2 0.659506 0.635776 0.226331
O O3 0.981938 0.737482 0.329898
O O4 0.566523 0.982673 0.235429
O O5 0.747273 0.594851 0.905056
O O6 0.706180 0.518524 0.789326
O O7 0.064434 0.264087 0.960791
O O8 0.678116 0.182856 0.928878
O O9 0.328483 0.159377 0.925000
O O10 0.472133 0.195686 0.067214
O O11 0.326050 0.617272 0.837570
O O12 0.570071 0.723612 0.617227
O O13 0.599035 0.354559 0.609787
O O14 0.271312 0.757319 0.467734
O O15 0.986911 0.492368 0.753063
O O16 0.817412 0.918464 0.701090
#
# Coordination Sequence:
#
# PCOD8023326 Si02
#       8
#     2   2   2   2   2   2   2   2
#     4  12  25  44  67  99 136 175 216 272 329 392
#     4  10  23  41  65  95 129 171 225 268 327 388
#     4  10  23  42  62  93 131 173 220 276 322 380
#     4  12  22  39  63  94 127 174 222 265 327 386
#     4  11  24  43  72  97 135 170 216 275 329 392
#     4  11  21  44  66  95 133 174 215 271 329 390
#     4  11  24  45  69 102 129 172 221 268 334 394
#     4  11  24  40  64  91 135 172 218 270 324 388
#
# _framework density 22.571287000000002
#
# number of rings (size 3 to 8) (size 9 to 14) (size 15 to 20)
#    0.000    1.000    2.500    4.500    0.000    3.000 
#    2.250    0.625    0.000    0.000    0.000    0.000 
#    0.000    0.000    0.000    0.000    0.000    0.000 
#
# Total GULP energy -198436.968200 kJ/mol
# GULP energy per Si atom -12402.310512 kJ/mol
# Density = 2.251991 g / cm^3
# Si number density = 22.571287 Si / 1000 Ang^3
#
#
#
# Elastic Constant Matrix: (Units=GPa)
#
#
# Indices 1 2 3 4 5 6 
#
# 1 90.7281 31.0858 34.3844 -0.3076 -25.8776 10.8059
# 2 31.0858 98.5750 41.5625 6.7722 -14.3636 7.1439
# 3 34.3844 41.5625 97.5497 4.0597 -10.1326 3.7641
# 4 -0.3076 6.7722 4.0597 40.4086 1.7564 3.2388
# 5 -25.8776 -14.3636 -10.1326 1.7564 35.9256 1.5144
# 6 10.8059 7.1439 3.7641 3.2388 1.5144 37.6251
#
#
#
# Elastic Compliance Matrix: (Units=1/GPa)
#
#
# Indices 1 2 3 4 5 6 
#
# 1 0.016580 -0.001830 -0.003854 0.000734 0.010278 -0.004506
# 2 -0.001830 0.013307 -0.004596 -0.001786 0.002857 -0.001503
# 3 -0.003854 -0.004596 0.013482 -0.000636 -0.000810 0.000718
# 4 0.000734 -0.001786 -0.000636 0.025337 -0.001522 -0.001928
# 5 0.010278 0.002857 -0.000810 -0.001522 0.036427 -0.004748
# 6 -0.004506 -0.001503 0.000718 -0.001928 -0.004748 0.028443
#
#
# Mechanical properties :
#
#
# Convention : Reuss Voigt Hill
#
# Bulk Modulus (GPa) = 43.83836 55.65761 49.74799
# Shear Modulus (GPa) = 30.91413 34.77985 32.84699
#
# Velocity S-wave (km/s) = 3.70486 3.92967 3.81892
# Velocity P-wave (km/s) = 6.14537 6.73067 6.44467
#
# Compressibility (1/GPa) = 0.02281107
#
# Stress axis : x y z
#
# Youngs Moduli (GPa) = 60.31311 75.14733 74.17192
#
# Poissons Ratio (x) = 0.13752 0.28583
# Poissons Ratio (y) = 0.11037 0.34087
# Poissons Ratio (z) = 0.23242 0.34535
#
# Static dielectric constant tensor:
#      x y z
#    x 4.034740 -0.064350 0.017960 
#    y -0.064350 3.915290 -0.027110 
#    z 0.017960 -0.027110 4.175340 
# 
# 
# High freq. dielectric constant tensor:
#      x y z
#    x 1.901150 -0.002930 0.008520 
#    y -0.002930 1.889670 -0.000010 
#    z 0.008520 -0.000010 1.899970 
# 
# From -- ./inp_files/357117.got.cif
#   From: 2010.06.25/outbox.cif.g09.slc.cpg/sg2_179_cif.got.tgz:357117.got - 2010.06.27 13:26:56.
