data_PCOD8023766
_publ_section_title
;
Structure prediction by ZEFSAII (Michael W. Deem and Ramdas Pophale) SiO2 
 PCOD8023766
Probable space group: P -1
;
_chemical_formula_sum "Si O2"
_cell_formula_units_Z 14
_cell_length_a 9.334522
_cell_length_b 9.534986
_cell_length_c 13.014374
_cell_angle_alpha 84.578137
_cell_angle_beta 70.446256
_cell_angle_gamma 136.020545
_cell_volume 650.871554
_symmetry_space_group_name_H-M "P -1"
_symmetry_group_IT_number 2
_symmetry_cell_setting 'triclinic'
loop_
_space_group_symop_operation_xyz
x,y,z
-x,-y,-z
loop_
_atom_site_type_symbol
_atom_site_label
_atom_site_fract_x
_atom_site_fract_y
_atom_site_fract_z
Si Si1 0.613205 0.708215 0.834973
Si Si2 0.873113 0.821922 0.367203
Si Si3 0.258560 0.685164 0.863163
Si Si4 0.089360 0.441109 0.707125
Si Si5 0.279730 0.206494 0.963876
Si Si6 0.567045 0.185316 0.788552
Si Si7 0.386932 0.605526 0.436305
O O1 0.446169 0.724456 0.878254
O O2 0.446719 0.453469 0.852815
O O3 0.730946 0.767590 0.915021
O O4 0.856738 0.907423 0.687354
O O5 0.926644 0.741918 0.271566
O O6 0.686244 0.804166 0.370891
O O7 0.751052 0.651608 0.507617
O O8 0.223633 0.598158 0.764559
O O9 0.381509 0.929768 0.804899
O O10 0.000000 0.500000 0.000000
O O11 0.262849 0.612107 0.554672
O O12 0.810422 0.299260 0.776141
O O13 0.412782 0.156152 0.913728
O O14 0.000000 0.000000 0.000000
O O15 0.657854 0.355654 0.664328
#
# Coordination Sequence:
#
# PCOD8023766 Si02
#       7
#     2   2   2   2   2   2   2
#     4  11  24  43  66  98 127 174 226 257 329 397
#     4   9  20  42  68  93 130 169 218 266 324 387
#     4  12  26  40  65  96 131 173 220 264 330 390
#     4  10  23  42  65  93 132 172 210 274 322 380
#     4  11  26  42  67  96 136 172 214 277 323 384
#     4  12  24  41  66  97 132 169 218 274 325 383
#     4   9  21  41  69  94 132 172 216 271 330 380
#
# _framework density 21.509623000000001
#
# number of rings (size 3 to 8) (size 9 to 14) (size 15 to 20)
#    0.857    0.571    1.429    3.000    6.000    5.143 
#    0.000    4.286    0.000    0.000    0.000    0.000 
#    0.000    0.000    0.000    0.000    0.000    0.000 
#
# Total GULP energy -173585.936092 kJ/mol
# GULP energy per Si atom -12398.995435 kJ/mol
# Density = 2.146067 g / cm^3
# Si number density = 21.509623 Si / 1000 Ang^3
#
#
#
# Elastic Constant Matrix: (Units=GPa)
#
#
# Indices 1 2 3 4 5 6 
#
# 1 101.3955 32.4835 30.7239 -14.0985 -28.4610 8.3336
# 2 32.4835 114.9505 31.9652 -21.4649 -4.7708 4.4311
# 3 30.7239 31.9652 62.3339 -18.8538 -16.1280 13.4999
# 4 -14.0985 -21.4649 -18.8538 41.5068 2.5417 -4.5913
# 5 -28.4610 -4.7708 -16.1280 2.5417 47.4567 -2.3438
# 6 8.3336 4.4311 13.4999 -4.5913 -2.3438 32.6300
#
#
#
# Elastic Compliance Matrix: (Units=1/GPa)
#
#
# Indices 1 2 3 4 5 6 
#
# 1 0.013802 -0.002440 -0.003067 0.001478 0.006850 -0.001225
# 2 -0.002440 0.011042 -0.004243 0.003203 -0.001908 0.001193
# 3 -0.003067 -0.004243 0.024859 0.006886 0.005440 -0.007566
# 4 0.001478 0.003203 0.006886 0.029323 0.002008 0.000609
# 5 0.006850 -0.001908 0.005440 0.002008 0.026653 -0.001544
# 6 -0.001225 0.001193 -0.007566 0.000609 -0.001544 0.033902
#
#
# Mechanical properties :
#
#
# Convention : Reuss Voigt Hill
#
# Bulk Modulus (GPa) = 33.10886 52.11389 42.61137
# Shear Modulus (GPa) = 29.55970 36.55250 33.05610
#
# Velocity S-wave (km/s) = 3.71112 4.12680 3.92446
# Velocity P-wave (km/s) = 5.81285 6.85478 6.35520
#
# Compressibility (1/GPa) = 0.03020339
#
# Stress axis : x y z
#
# Youngs Moduli (GPa) = 72.45073 90.56631 40.22711
#
# Poissons Ratio (x) = 0.22098 0.12338
# Poissons Ratio (y) = 0.17677 0.17067
# Poissons Ratio (z) = 0.22221 0.38425
#
# Static dielectric constant tensor:
#      x y z
#    x 3.877360 -0.101230 -0.111120 
#    y -0.101230 3.778600 -0.195800 
#    z -0.111120 -0.195800 3.910090 
# 
# 
# High freq. dielectric constant tensor:
#      x y z
#    x 1.851280 0.000240 -0.012610 
#    y 0.000240 1.830900 -0.014030 
#    z -0.012610 -0.014030 1.847340 
# 
# From -- ./inp_files/119325.got.cif
#   From: 2010.06.25/outbox.cif.g09.slc.cpg/sg2_60_cif.got.tgz:119325.got - 2010.06.27 13:26:56.
