data_PCOD8023532
_publ_section_title
;
Structure prediction by ZEFSAII (Michael W. Deem and Ramdas Pophale) SiO2 
 PCOD8023532
Probable space group: P -1
;
_chemical_formula_sum "Si O2"
_cell_formula_units_Z 14
_cell_length_a 16.734417
_cell_length_b 12.759635
_cell_length_c 6.301474
_cell_angle_alpha 120.434960
_cell_angle_beta 44.219542
_cell_angle_gamma 139.840238
_cell_volume 602.642329
_symmetry_space_group_name_H-M "P -1"
_symmetry_group_IT_number 2
_symmetry_cell_setting 'triclinic'
loop_
_space_group_symop_operation_xyz
x,y,z
-x,-y,-z
loop_
_atom_site_type_symbol
_atom_site_label
_atom_site_fract_x
_atom_site_fract_y
_atom_site_fract_z
Si Si1 0.340327 0.319585 0.578432
Si Si2 0.290922 0.631036 0.616352
Si Si3 0.018244 0.360470 0.146707
Si Si4 0.467431 0.164595 0.305093
Si Si5 0.181562 0.382477 0.244100
Si Si6 0.678175 0.169886 0.582701
Si Si7 0.922395 0.823108 0.386889
O O1 0.500000 0.500000 0.500000
O O2 0.356765 0.186024 0.431807
O O3 0.252070 0.280899 0.481617
O O4 0.238743 0.300035 0.941530
O O5 0.415878 0.681870 0.604809
O O6 0.310306 0.553139 0.299172
O O7 0.329688 0.793425 0.613448
O O8 0.122541 0.503041 0.916534
O O9 0.104527 0.422471 0.270853
O O10 0.858047 0.315287 0.447544
O O11 0.986289 0.194882 0.976861
O O12 0.367257 0.002258 0.473017
O O13 0.566743 0.169734 0.941505
O O14 0.066313 0.254061 0.508976
O O15 0.000000 0.000000 0.500000
#
# Coordination Sequence:
#
# PCOD8023532 Si02
#       7
#     2   2   2   2   2   2   2
#     4  11  23  43  67  98 134 174 216 269 335 398
#     4  11  22  44  66  97 129 173 229 267 324 398
#     4  10  23  42  69  96 130 174 218 274 331 389
#     4  11  26  42  65  97 136 177 218 268 332 393
#     4  10  23  41  69  96 130 165 217 275 327 387
#     4  11  25  44  63  96 136 177 218 274 325 389
#     4  10  24  41  66 101 129 168 221 271 333 392
#
# _framework density 23.231026
#
# number of rings (size 3 to 8) (size 9 to 14) (size 15 to 20)
#    0.000    1.429    0.000    5.143    4.000    9.143 
#    2.571    0.000    0.000    0.000    0.000    0.000 
#    0.000    0.000    0.000    0.000    0.000    0.000 
#
# Total GULP energy -173437.126482 kJ/mol
# GULP energy per Si atom -12388.366177 kJ/mol
# Density = 2.317815 g / cm^3
# Si number density = 23.231026 Si / 1000 Ang^3
#
#
#
# Elastic Constant Matrix: (Units=GPa)
#
#
# Indices 1 2 3 4 5 6 
#
# 1 91.0298 8.2470 24.5221 -13.5224 3.5318 -3.4862
# 2 8.2470 91.7401 10.5532 -12.8658 10.4712 -8.6689
# 3 24.5221 10.5532 58.3633 -10.7312 -6.6970 1.8104
# 4 -13.5224 -12.8658 -10.7312 32.5128 -0.7979 4.7336
# 5 3.5318 10.4712 -6.6970 -0.7979 37.8695 4.0986
# 6 -3.4862 -8.6689 1.8104 4.7336 4.0986 42.4543
#
#
#
# Elastic Compliance Matrix: (Units=1/GPa)
#
#
# Indices 1 2 3 4 5 6 
#
# 1 0.013015 0.000296 -0.005154 0.003604 -0.002257 0.001165
# 2 0.000296 0.012370 -0.002205 0.003811 -0.004040 0.002609
# 3 -0.005154 -0.002205 0.021217 0.004521 0.005240 -0.002788
# 4 0.003604 0.003811 0.004521 0.035727 0.000503 -0.003151
# 5 -0.002257 -0.004040 0.005240 0.000503 0.029115 -0.004101
# 6 0.001165 0.002609 -0.002788 -0.003151 -0.004101 0.025049
#
#
# Mechanical properties :
#
#
# Convention : Reuss Voigt Hill
#
# Bulk Modulus (GPa) = 30.79241 36.41977 33.60609
# Shear Modulus (GPa) = 30.97037 35.75472 33.36254
#
# Velocity S-wave (km/s) = 3.65519 3.92738 3.79373
# Velocity P-wave (km/s) = 5.57651 6.02304 5.80407
#
# Compressibility (1/GPa) = 0.03247553
#
# Stress axis : x y z
#
# Youngs Moduli (GPa) = 76.83656 80.84392 47.13103
#
# Poissons Ratio (x) = -0.02394 0.24293
# Poissons Ratio (y) = -0.02275 0.10391
# Poissons Ratio (z) = 0.39604 0.17824
#
# Static dielectric constant tensor:
#      x y z
#    x 4.434660 -0.312160 -0.047480 
#    y -0.312160 4.673320 0.280630 
#    z -0.047480 0.280630 4.443160 
# 
# 
# High freq. dielectric constant tensor:
#      x y z
#    x 1.924440 -0.011480 0.012770 
#    y -0.011480 1.921740 0.007800 
#    z 0.012770 0.007800 1.909490 
# 
# From -- ./inp_files/47823.got.cif
#   From: 2010.06.25/outbox.cif.g09.slc.cpg/sg2_24_cif.got.tgz:47823.got - 2010.06.27 13:26:56.
