data_PCOD8023384
_publ_section_title
;
Structure prediction by ZEFSAII (Michael W. Deem and Ramdas Pophale) SiO2 
 PCOD8023384
Probable space group: P -1
;
_chemical_formula_sum "Si O2"
_cell_formula_units_Z 16
_cell_length_a 13.299736
_cell_length_b 11.245876
_cell_length_c 11.884012
_cell_angle_alpha 100.205326
_cell_angle_beta 39.187012
_cell_angle_gamma 71.186511
_cell_volume 744.149941
_symmetry_space_group_name_H-M "P -1"
_symmetry_group_IT_number 2
_symmetry_cell_setting 'triclinic'
loop_
_space_group_symop_operation_xyz
x,y,z
-x,-y,-z
loop_
_atom_site_type_symbol
_atom_site_label
_atom_site_fract_x
_atom_site_fract_y
_atom_site_fract_z
Si Si1 0.556111 0.092084 0.709308
Si Si2 0.742843 0.969311 0.979592
Si Si3 0.752871 0.083869 0.765390
Si Si4 0.664559 0.665178 0.498780
Si Si5 0.594151 0.418726 0.024872
Si Si6 0.741704 0.351303 0.443293
Si Si7 0.607233 0.641790 0.301669
Si Si8 0.994820 0.689298 0.231926
O O1 0.610046 0.127943 0.785767
O O2 0.445196 0.247381 0.743518
O O3 0.364320 0.098749 0.905518
O O4 0.791545 0.902165 0.417356
O O5 0.583732 0.167759 0.198756
O O6 0.773333 0.961405 0.815724
O O7 0.994495 0.842010 0.799048
O O8 0.619586 0.260490 0.983665
O O9 0.000000 0.000000 0.500000
O O10 0.737862 0.485386 0.415553
O O11 0.648711 0.702256 0.384730
O O12 0.866677 0.637120 0.373338
O O13 0.398400 0.574112 0.306181
O O14 0.500000 0.500000 0.000000
O O15 0.843448 0.348229 0.814643
O O16 0.609927 0.326794 0.475104
O O17 0.841838 0.429202 0.038228
#
# Coordination Sequence:
#
# PCOD8023384 Si02
#       8
#     2   2   2   2   2   2   2   2
#     4  11  24  42  66  99 132 172 222 266 325 390
#     4  11  25  42  64  98 136 171 215 269 331 387
#     4  12  21  41  67  93 135 168 213 269 323 392
#     4  11  24  45  65  96 135 172 217 276 324 384
#     4  11  22  40  64  95 128 172 219 261 323 391
#     4  11  24  41  63  95 133 168 219 269 324 388
#     4  11  24  42  69  96 128 176 224 267 323 385
#     4  10  23  41  66  94 130 167 221 264 326 381
#
# _framework density 21.501044
#
# number of rings (size 3 to 8) (size 9 to 14) (size 15 to 20)
#    0.000    1.000    2.500    4.875    0.000    3.500 
#    0.000    1.250    0.000    0.000    0.000    0.000 
#    0.000    0.000    0.000    0.000    0.000    0.000 
#
# Total GULP energy -198401.079936 kJ/mol
# GULP energy per Si atom -12400.067496 kJ/mol
# Density = 2.145211 g / cm^3
# Si number density = 21.501044 Si / 1000 Ang^3
#
#
#
# Elastic Constant Matrix: (Units=GPa)
#
#
# Indices 1 2 3 4 5 6 
#
# 1 99.7165 37.2884 38.6461 -3.0504 -3.3434 0.7286
# 2 37.2884 99.2858 27.2628 -7.6629 -6.0241 0.6773
# 3 38.6461 27.2628 123.4634 5.3719 -14.4509 0.0195
# 4 -3.0504 -7.6629 5.3719 25.1343 2.4164 -0.2233
# 5 -3.3434 -6.0241 -14.4509 2.4164 31.7869 -4.3870
# 6 0.7286 0.6773 0.0195 -0.2233 -4.3870 32.3282
#
#
#
# Elastic Compliance Matrix: (Units=1/GPa)
#
#
# Indices 1 2 3 4 5 6 
#
# 1 0.012757 -0.003850 -0.003315 0.001179 -0.001031 -0.000337
# 2 -0.003850 0.012271 -0.001546 0.003513 0.000948 -0.000016
# 3 -0.003315 -0.001546 0.010134 -0.003449 0.004319 0.000663
# 4 0.001179 0.003513 -0.003449 0.042122 -0.004029 -0.000354
# 5 -0.001031 0.000948 0.004319 -0.004029 0.034442 0.004647
# 6 -0.000337 -0.000016 0.000663 -0.000354 0.004647 0.031568
#
#
# Mechanical properties :
#
#
# Convention : Reuss Voigt Hill
#
# Bulk Modulus (GPa) = 56.37116 58.76226 57.56671
# Shear Modulus (GPa) = 30.00655 32.46778 31.23717
#
# Velocity S-wave (km/s) = 3.73981 3.89016 3.81572
# Velocity P-wave (km/s) = 6.70246 6.89689 6.80037
#
# Compressibility (1/GPa) = 0.01773957
#
# Stress axis : x y z
#
# Youngs Moduli (GPa) = 78.38956 81.49077 98.67620
#
# Poissons Ratio (x) = 0.31374 0.32710
# Poissons Ratio (y) = 0.30181 0.15260
# Poissons Ratio (z) = 0.25985 0.12602
#
# Static dielectric constant tensor:
#      x y z
#    x 2.189620 -2.733620 -0.636170 
#    y -2.733620 -0.845470 -0.941540 
#    z -0.636170 -0.941540 3.961310 
# 
# 
# High freq. dielectric constant tensor:
#      x y z
#    x 1.849130 0.011510 -0.005740 
#    y 0.011510 1.841260 0.002540 
#    z -0.005740 0.002540 1.853750 
# 
# From -- ./inp_files/279026.got.cif
#   From: 2010.06.25/outbox.cif.g09.slc.cpg/sg2_140_cif.got.tgz:279026.got - 2010.06.27 13:26:56.
