data_PCOD8023478
_publ_section_title
;
Structure prediction by ZEFSAII (Michael W. Deem and Ramdas Pophale) SiO2 
 PCOD8023478
Probable space group: P -1
;
_chemical_formula_sum "Si O2"
_cell_formula_units_Z 14
_cell_length_a 20.764982
_cell_length_b 13.640412
_cell_length_c 11.592089
_cell_angle_alpha 158.340862
_cell_angle_beta 139.762349
_cell_angle_gamma 33.661197
_cell_volume 670.866698
_symmetry_space_group_name_H-M "P -1"
_symmetry_group_IT_number 2
_symmetry_cell_setting 'triclinic'
loop_
_space_group_symop_operation_xyz
x,y,z
-x,-y,-z
loop_
_atom_site_type_symbol
_atom_site_label
_atom_site_fract_x
_atom_site_fract_y
_atom_site_fract_z
Si Si1 0.604862 0.237129 0.638699
Si Si2 0.475070 0.960502 0.290843
Si Si3 0.579454 0.145263 0.251548
Si Si4 0.092645 0.908746 0.626717
Si Si5 0.028365 0.765480 0.952415
Si Si6 0.859441 0.925112 0.691416
Si Si7 0.746453 0.815404 0.905874
O O1 0.642461 0.122881 0.434032
O O2 0.527113 0.109584 0.441975
O O3 0.722722 0.100482 0.723237
O O4 0.531373 0.604354 0.947376
O O5 0.500000 0.000000 0.500000
O O6 0.337841 0.131245 0.260094
O O7 0.500000 0.500000 0.500000
O O8 0.500000 0.000000 0.000000
O O9 0.674931 0.969455 0.092390
O O10 0.169293 0.543648 0.348205
O O11 0.000000 0.000000 0.500000
O O12 0.177349 0.035845 0.857908
O O13 0.015963 0.056224 0.795354
O O14 0.096581 0.398553 0.667972
O O15 0.917578 0.865406 0.830066
O O16 0.116305 0.851311 0.108223
#
# Coordination Sequence:
#
# PCOD8023478 Si02
#       7
#     2   2   2   2   2   2   2
#     4  12  24  43  70 100 130 176 222 274 335 394
#     4  12  27  44  68 102 139 174 225 266 341 412
#     4  12  23  44  67  96 133 167 222 266 324 396
#     4  12  28  44  69  95 133 175 225 267 334 395
#     4  10  23  44  62  94 126 167 221 266 328 380
#     4  10  23  41  68  91 126 166 215 277 318 379
#     4  12  26  46  68  96 134 179 213 280 329 390
#
# _framework density 20.868525999999999
#
# number of rings (size 3 to 8) (size 9 to 14) (size 15 to 20)
#    0.000    0.571    2.857    4.286    8.000    0.000 
#    0.000    0.000    0.000    0.000    0.000    0.000 
#    0.000    0.000    0.000    0.000    0.000    0.000 
#
# Total GULP energy -173676.811231 kJ/mol
# GULP energy per Si atom -12405.486516 kJ/mol
# Density = 2.082103 g / cm^3
# Si number density = 20.868526 Si / 1000 Ang^3
#
#
#
# Elastic Constant Matrix: (Units=GPa)
#
#
# Indices 1 2 3 4 5 6 
#
# 1 58.9559 41.7475 23.1305 -10.4707 11.3843 9.1065
# 2 41.7475 169.1214 61.5409 -0.7153 11.4593 -3.3819
# 3 23.1305 61.5409 126.4409 7.3821 12.2606 14.9332
# 4 -10.4707 -0.7153 7.3821 34.9873 7.7440 2.8253
# 5 11.3843 11.4593 12.2606 7.7440 57.9673 -10.8303
# 6 9.1065 -3.3819 14.9332 2.8253 -10.8303 33.5302
#
#
#
# Elastic Compliance Matrix: (Units=1/GPa)
#
#
# Indices 1 2 3 4 5 6 
#
# 1 0.026293 -0.005975 -0.000536 0.010330 -0.007252 -0.010718
# 2 -0.005975 0.008759 -0.003771 -0.001489 0.001324 0.004739
# 3 -0.000536 -0.003771 0.010824 -0.001557 -0.002289 -0.005663
# 4 0.010330 -0.001489 -0.001557 0.034214 -0.007383 -0.007530
# 5 -0.007252 0.001324 -0.002289 -0.007383 0.021905 0.010820
# 6 -0.010718 0.004739 -0.005663 -0.007530 0.010820 0.039864
#
#
# Mechanical properties :
#
#
# Convention : Reuss Voigt Hill
#
# Bulk Modulus (GPa) = 39.50640 67.48400 53.49520
# Shear Modulus (GPa) = 29.26353 40.50357 34.88355
#
# Velocity S-wave (km/s) = 3.74877 4.41034 4.09294
# Velocity P-wave (km/s) = 6.14084 7.63824 6.93010
#
# Compressibility (1/GPa) = 0.02531235
#
# Stress axis : x y z
#
# Youngs Moduli (GPa) = 38.03233 114.17103 92.38617
#
# Poissons Ratio (x) = 0.68213 0.04953
# Poissons Ratio (y) = 0.22723 0.34840
# Poissons Ratio (z) = 0.02039 0.43056
#
# Static dielectric constant tensor:
#      x y z
#    x 3.996610 0.088190 0.021550 
#    y 0.088190 4.045590 -0.071430 
#    z 0.021550 -0.071430 4.062860 
# 
# 
# High freq. dielectric constant tensor:
#      x y z
#    x 1.827120 0.003710 0.010150 
#    y 0.003710 1.831680 -0.001080 
#    z 0.010150 -0.001080 1.837950 
# 
# From -- ./inp_files/433867.got.cif
#   From: 2010.06.25/outbox.cif.g09.slc.cpg/sg2_217_cif.got.tgz:433867.got - 2010.06.27 13:26:56.
