data_PCOD8023254
_publ_section_title
;
Structure prediction by ZEFSAII (Michael W. Deem and Ramdas Pophale) SiO2 
 PCOD8023254
Probable space group: P -1
;
_chemical_formula_sum "Si O2"
_cell_formula_units_Z 14
_cell_length_a 11.135776
_cell_length_b 5.503009
_cell_length_c 14.885515
_cell_angle_alpha 56.648848
_cell_angle_beta 118.835728
_cell_angle_gamma 85.780950
_cell_volume 591.667889
_symmetry_space_group_name_H-M "P -1"
_symmetry_group_IT_number 2
_symmetry_cell_setting 'triclinic'
loop_
_space_group_symop_operation_xyz
x,y,z
-x,-y,-z
loop_
_atom_site_type_symbol
_atom_site_label
_atom_site_fract_x
_atom_site_fract_y
_atom_site_fract_z
Si Si1 0.167000 0.959660 0.402754
Si Si2 0.708065 0.787223 0.439162
Si Si3 0.635795 0.740147 0.043921
Si Si4 0.885706 0.850390 0.850851
Si Si5 0.155340 0.964858 0.920953
Si Si6 0.158814 0.960146 0.710962
Si Si7 0.378439 0.227065 0.165346
O O1 0.272951 0.581598 0.484409
O O2 0.240349 0.109588 0.470641
O O3 0.134544 0.177513 0.257403
O O4 0.008732 0.001762 0.381776
O O5 0.810358 0.792066 0.390242
O O6 0.528600 0.051006 0.316502
O O7 0.701994 0.398743 0.189749
O O8 0.785458 0.794914 0.063765
O O9 0.561402 0.761320 0.915550
O O10 0.500000 0.000000 0.000000
O O11 0.721203 0.975272 0.816637
O O12 0.974791 0.072306 0.856345
O O13 0.000000 0.500000 0.000000
O O14 0.171509 0.006113 0.811964
O O15 0.267719 0.604766 0.074621
#
# Coordination Sequence:
#
# PCOD8023254 Si02
#       7
#     2   2   2   2   2   2   2
#     4  11  27  45  68 101 135 182 230 270 337 410
#     4  12  26  43  68  98 146 182 221 273 338 408
#     4  11  22  37  69 103 134 171 229 283 340 397
#     4   9  21  48  69  96 128 172 233 284 340 393
#     4   9  20  39  67  98 130 172 233 283 333 396
#     4  10  23  41  66  97 137 178 227 280 335 398
#     4  10  23  41  63  99 135 179 226 279 341 392
#
# _framework density 23.661923999999999
#
# number of rings (size 3 to 8) (size 9 to 14) (size 15 to 20)
#    0.000    1.714    0.000    3.429   10.000    4.000 
#    5.143    0.000    0.000    0.000    0.000    0.000 
#    0.000    0.000    0.000    0.000    0.000    0.000 
#
# Total GULP energy -173466.763220 kJ/mol
# GULP energy per Si atom -12390.483087 kJ/mol
# Density = 2.360807 g / cm^3
# Si number density = 23.661924 Si / 1000 Ang^3
#
#
#
# Elastic Constant Matrix: (Units=GPa)
#
#
# Indices 1 2 3 4 5 6 
#
# 1 88.0701 -3.2670 31.9527 8.2320 1.1989 3.8759
# 2 -3.2670 84.6440 39.3012 1.2371 3.5094 3.4362
# 3 31.9527 39.3012 127.8788 16.9433 1.0295 1.2800
# 4 8.2320 1.2371 16.9433 17.9460 11.5795 3.9607
# 5 1.1989 3.5094 1.0295 11.5795 36.6323 0.0527
# 6 3.8759 3.4362 1.2800 3.9607 0.0527 25.8042
#
#
#
# Elastic Compliance Matrix: (Units=1/GPa)
#
#
# Indices 1 2 3 4 5 6 
#
# 1 0.013057 0.002276 -0.003612 -0.002527 0.000257 -0.001698
# 2 0.002276 0.014807 -0.005898 0.006300 -0.003314 -0.002981
# 3 -0.003612 -0.005898 0.012178 -0.012870 0.004405 0.002690
# 4 -0.002527 0.006300 -0.012870 0.090055 -0.028606 -0.013585
# 5 0.000257 -0.003314 0.004405 -0.028606 0.036520 0.004500
# 6 -0.001698 -0.002981 0.002690 -0.013585 0.004500 0.041348
#
#
# Mechanical properties :
#
#
# Convention : Reuss Voigt Hill
#
# Bulk Modulus (GPa) = 39.10118 48.50740 43.80429
# Shear Modulus (GPa) = 21.64915 31.58355 26.61635
#
# Velocity S-wave (km/s) = 3.02807 3.65743 3.35753
# Velocity P-wave (km/s) = 5.36530 6.19520 5.79512
#
# Compressibility (1/GPa) = 0.02557467
#
# Stress axis : x y z
#
# Youngs Moduli (GPa) = 76.58678 67.53703 82.11627
#
# Poissons Ratio (x) = -0.15374 0.29664
# Poissons Ratio (y) = -0.17434 0.48428
# Poissons Ratio (z) = 0.27666 0.39830
#
# Static dielectric constant tensor:
#      x y z
#    x 4.711800 0.424120 0.006870 
#    y 0.424120 4.038040 0.021090 
#    z 0.006870 0.021090 4.422820 
# 
# 
# High freq. dielectric constant tensor:
#      x y z
#    x 1.944690 0.015110 0.001410 
#    y 0.015110 1.910650 0.005260 
#    z 0.001410 0.005260 1.950100 
# 
# From -- ./inp_files/67373.got.cif
#   From: 2010.06.25/outbox.cif.g09.slc.cpg/sg2_34_cif.got.tgz:67373.got - 2010.06.27 13:26:56.
