data_PCOD8023710
_publ_section_title
;
Structure prediction by ZEFSAII (Michael W. Deem and Ramdas Pophale) SiO2 
 PCOD8023710
Probable space group: P -1
;
_chemical_formula_sum "Si O2"
_cell_formula_units_Z 16
_cell_length_a 19.107090
_cell_length_b 8.943973
_cell_length_c 12.906263
_cell_angle_alpha 143.454255
_cell_angle_beta 35.828394
_cell_angle_gamma 139.177003
_cell_volume 732.812914
_symmetry_space_group_name_H-M "P -1"
_symmetry_group_IT_number 2
_symmetry_cell_setting 'triclinic'
loop_
_space_group_symop_operation_xyz
x,y,z
-x,-y,-z
loop_
_atom_site_type_symbol
_atom_site_label
_atom_site_fract_x
_atom_site_fract_y
_atom_site_fract_z
Si Si1 0.576028 0.439056 0.090684
Si Si2 0.883186 0.243016 0.492680
Si Si3 0.424150 0.044484 0.710660
Si Si4 0.181545 0.589939 0.748584
Si Si5 0.648168 0.318995 0.727993
Si Si6 0.698707 0.721323 0.714487
Si Si7 0.062057 0.285355 0.924666
Si Si8 0.782691 0.297104 0.870916
O O1 0.632399 0.727035 0.131779
O O2 0.427639 0.358795 0.249744
O O3 0.599526 0.267078 0.873471
O O4 0.656019 0.384919 0.060866
O O5 0.782954 0.269544 0.541043
O O6 0.830307 0.212699 0.657166
O O7 0.000000 0.500000 0.500000
O O8 0.926888 0.006422 0.260487
O O9 0.531930 0.099646 0.697157
O O10 0.500000 0.000000 0.500000
O O11 0.311388 0.796387 0.741622
O O12 0.202094 0.402159 0.527116
O O13 0.129445 0.425782 0.820336
O O14 0.084594 0.738721 0.908690
O O15 0.664126 0.598069 0.803404
O O16 0.755371 0.037125 0.831709
O O17 0.120709 0.452888 0.049929
#
# Coordination Sequence:
#
# PCOD8023710 Si02
#       8
#     2   2   2   2   2   2   2   2
#     4  10  23  42  64 105 136 174 226 280 346 408
#     4  11  27  49  68 101 138 174 230 288 336 411
#     4  11  21  39  68  97 132 176 226 277 338 398
#     4  11  25  44  65 102 139 181 231 284 328 417
#     4  10  24  41  69 101 134 180 224 278 347 404
#     4  11  21  44  68  98 139 178 225 279 342 403
#     4  11  28  46  68  98 140 184 232 273 348 401
#     4  11  26  44  71 100 135 182 223 283 344 402
#
# _framework density 21.833676000000001
#
# number of rings (size 3 to 8) (size 9 to 14) (size 15 to 20)
#    0.000    1.250    3.750    1.875   10.500    2.000 
#    0.000    1.250    0.000    0.000    0.000    0.000 
#    0.000    0.000    0.000    0.000    0.000    0.000 
#
# Total GULP energy -198212.997769 kJ/mol
# GULP energy per Si atom -12388.312361 kJ/mol
# Density = 2.178398 g / cm^3
# Si number density = 21.833676 Si / 1000 Ang^3
#
#
#
# Elastic Constant Matrix: (Units=GPa)
#
#
# Indices 1 2 3 4 5 6 
#
# 1 124.4345 51.6174 42.0291 11.6414 -23.8957 18.8051
# 2 51.6174 117.3543 33.8197 10.3859 -14.1636 24.2746
# 3 42.0291 33.8197 93.0512 8.5798 -18.9267 14.9888
# 4 11.6414 10.3859 8.5798 39.2674 1.5657 3.0956
# 5 -23.8957 -14.1636 -18.9267 1.5657 39.5687 -4.8816
# 6 18.8051 24.2746 14.9888 3.0956 -4.8816 26.9966
#
#
#
# Elastic Compliance Matrix: (Units=1/GPa)
#
#
# Indices 1 2 3 4 5 6 
#
# 1 0.011664 -0.003070 -0.002600 -0.002027 0.004425 -0.002888
# 2 -0.003070 0.012101 -0.001477 -0.001404 0.000889 -0.007601
# 3 -0.002600 -0.001477 0.014085 -0.001793 0.004252 -0.003707
# 4 -0.002027 -0.001404 -0.001793 0.026983 -0.003663 -0.000087
# 5 0.004425 0.000889 0.004252 -0.003663 0.030402 -0.000325
# 6 -0.002888 -0.007601 -0.003707 -0.000087 -0.000325 0.047897
#
#
# Mechanical properties :
#
#
# Convention : Reuss Voigt Hill
#
# Bulk Modulus (GPa) = 42.45293 65.53028 53.99160
# Shear Modulus (GPa) = 30.25198 34.99146 32.62172
#
# Velocity S-wave (km/s) = 3.72636 4.00764 3.86955
# Velocity P-wave (km/s) = 6.16444 7.17589 6.68931
#
# Compressibility (1/GPa) = 0.02355550
#
# Stress axis : x y z
#
# Youngs Moduli (GPa) = 85.73382 82.63860 70.99568
#
# Poissons Ratio (x) = 0.25371 0.18462
# Poissons Ratio (y) = 0.26322 0.10485
# Poissons Ratio (z) = 0.22294 0.12204
#
# Static dielectric constant tensor:
#      x y z
#    x 4.090210 -0.012220 -0.219490 
#    y -0.012220 3.805930 -0.055070 
#    z -0.219490 -0.055070 4.151720 
# 
# 
# High freq. dielectric constant tensor:
#      x y z
#    x 1.858900 0.004590 -0.008540 
#    y 0.004590 1.855850 -0.004460 
#    z -0.008540 -0.004460 1.868480 
# 
# From -- ./inp_files/462554.got.cif
#   From: 2010.06.25/outbox.cif.g09.slc.cpg/sg2_232_cif.got.tgz:462554.got - 2010.06.27 13:26:56.
