data_PCOD8023878
_publ_section_title
;
Structure prediction by ZEFSAII (Michael W. Deem and Ramdas Pophale) SiO2 
 PCOD8023878
Probable space group: P -1
;
_chemical_formula_sum "Si O2"
_cell_formula_units_Z 16
_cell_length_a 26.985795
_cell_length_b 11.498064
_cell_length_c 8.824378
_cell_angle_alpha 140.155872
_cell_angle_beta 29.691548
_cell_angle_gamma 149.397722
_cell_volume 688.240865
_symmetry_space_group_name_H-M "P -1"
_symmetry_group_IT_number 2
_symmetry_cell_setting 'triclinic'
loop_
_space_group_symop_operation_xyz
x,y,z
-x,-y,-z
loop_
_atom_site_type_symbol
_atom_site_label
_atom_site_fract_x
_atom_site_fract_y
_atom_site_fract_z
Si Si1 0.104282 0.700933 0.317564
Si Si2 0.713782 0.425204 0.368600
Si Si3 0.501527 0.639799 0.276741
Si Si4 0.988850 0.295927 0.748785
Si Si5 0.280036 0.019834 0.758596
Si Si6 0.265723 0.579313 0.347656
Si Si7 0.666224 0.629562 0.271203
Si Si8 0.854043 0.874305 0.265037
O O1 0.025849 0.695426 0.381869
O O2 0.000000 0.500000 0.500000
O O3 0.176480 0.946593 0.452163
O O4 0.209109 0.672910 0.961785
O O5 0.584742 0.283932 0.470591
O O6 0.681228 0.408036 0.614714
O O7 0.794242 0.690940 0.375370
O O8 0.640220 0.863955 0.180466
O O9 0.443548 0.481959 0.423189
O O10 0.500000 0.500000 0.000000
O O11 0.120769 0.342296 0.483319
O O12 0.000000 0.500000 0.000000
O O13 0.861865 0.059570 0.915001
O O14 0.341552 0.195739 0.631896
O O15 0.276595 0.804484 0.508126
O O16 0.350292 0.564053 0.986815
O O17 0.799663 0.757615 0.130026
O O18 0.000000 0.000000 0.000000
#
# Coordination Sequence:
#
# PCOD8023878 Si02
#       8
#     2   2   2   2   2   2   2   2
#     4  12  24  42  71 103 151 185 238 291 349 434
#     4  11  25  45  68 102 143 184 238 293 351 416
#     4  11  27  51  73 101 144 185 250 296 345 429
#     4  10  23  42  67 107 144 180 230 284 353 425
#     4  11  25  46  74  99 142 194 232 288 362 407
#     4  11  25  45  71 108 144 177 239 291 356 437
#     4  11  27  44  72 104 136 187 235 300 351 421
#     4  11  25  40  67 105 143 189 228 282 366 412
#
# _framework density 23.247674
#
# number of rings (size 3 to 8) (size 9 to 14) (size 15 to 20)
#    0.000    1.000    3.750    1.875   12.250    1.500 
#    0.000    2.500    0.000    0.000    0.000    0.000 
#    0.000    0.000    0.000    0.000    0.000    0.000 
#
# Total GULP energy -198384.239299 kJ/mol
# GULP energy per Si atom -12399.014956 kJ/mol
# Density = 2.319476 g / cm^3
# Si number density = 23.247674 Si / 1000 Ang^3
#
#
#
# Elastic Constant Matrix: (Units=GPa)
#
#
# Indices 1 2 3 4 5 6 
#
# 1 117.6846 38.8457 34.1741 -1.6283 11.4553 -5.3659
# 2 38.8457 97.7315 50.7085 15.3713 -0.7795 3.9390
# 3 34.1741 50.7085 100.9061 9.2854 22.1583 -0.1210
# 4 -1.6283 15.3713 9.2854 36.7508 5.9034 -9.7630
# 5 11.4553 -0.7795 22.1583 5.9034 43.6908 -6.6773
# 6 -5.3659 3.9390 -0.1210 -9.7630 -6.6773 44.4091
#
#
#
# Elastic Compliance Matrix: (Units=1/GPa)
#
#
# Indices 1 2 3 4 5 6 
#
# 1 0.010633 -0.004211 -0.001283 0.003485 -0.002367 0.002065
# 2 -0.004211 0.017292 -0.007926 -0.007101 0.005975 -0.002727
# 3 -0.001283 -0.007926 0.016071 0.000351 -0.008086 -0.000547
# 4 0.003485 -0.007101 0.000351 0.032997 -0.004511 0.007628
# 5 -0.002367 0.005975 -0.008086 -0.004511 0.028706 0.002486
# 6 0.002065 -0.002727 -0.000547 0.007628 0.002486 0.025059
#
#
# Mechanical properties :
#
#
# Convention : Reuss Voigt Hill
#
# Bulk Modulus (GPa) = 58.28900 62.64211 60.46555
# Shear Modulus (GPa) = 30.61556 37.80974 34.21265
#
# Velocity S-wave (km/s) = 3.63289 4.03723 3.84038
# Velocity P-wave (km/s) = 6.53641 6.98114 6.76243
#
# Compressibility (1/GPa) = 0.01715590
#
# Stress axis : x y z
#
# Youngs Moduli (GPa) = 94.05026 57.82857 62.22540
#
# Poissons Ratio (x) = 0.24349 0.07986
# Poissons Ratio (y) = 0.39600 0.49319
# Poissons Ratio (z) = 0.12071 0.45834
#
# Static dielectric constant tensor:
#      x y z
#    x 4.430820 0.169130 -0.113490 
#    y 0.169130 4.191600 -0.169730 
#    z -0.113490 -0.169730 4.450430 
# 
# 
# High freq. dielectric constant tensor:
#      x y z
#    x 1.933420 0.007910 0.002860 
#    y 0.007910 1.916630 -0.003320 
#    z 0.002860 -0.003320 1.919200 
# 
# From -- ./inp_files/357081.got.cif
#   From: 2010.06.25/outbox.cif.g09.slc.cpg/sg2_179_cif.got.tgz:357081.got - 2010.06.27 13:26:56.
