data_PCOD8023648
_publ_section_title
;
Structure prediction by ZEFSAII (Michael W. Deem and Ramdas Pophale) SiO2 
 PCOD8023648
Probable space group: P -1
;
_chemical_formula_sum "Si O2"
_cell_formula_units_Z 16
_cell_length_a 16.168547
_cell_length_b 8.628280
_cell_length_c 13.323380
_cell_angle_alpha 74.662318
_cell_angle_beta 46.419554
_cell_angle_gamma 112.322550
_cell_volume 770.906900
_symmetry_space_group_name_H-M "P -1"
_symmetry_group_IT_number 2
_symmetry_cell_setting 'triclinic'
loop_
_space_group_symop_operation_xyz
x,y,z
-x,-y,-z
loop_
_atom_site_type_symbol
_atom_site_label
_atom_site_fract_x
_atom_site_fract_y
_atom_site_fract_z
Si Si1 0.414466 0.791379 0.385186
Si Si2 0.399103 0.501522 0.717744
Si Si3 0.523822 0.786353 0.768952
Si Si4 0.794067 0.599552 0.752711
Si Si5 0.783467 0.956885 0.696234
Si Si6 0.506915 0.180575 0.913530
Si Si7 0.099988 0.287303 0.867578
Si Si8 0.699961 0.922098 0.234254
O O1 0.472155 0.799892 0.225488
O O2 0.232146 0.478738 0.627525
O O3 0.598026 0.968545 0.273427
O O4 0.368604 0.929969 0.407163
O O5 0.449673 0.588935 0.775804
O O6 0.239967 0.451467 0.819767
O O7 0.597935 0.739290 0.450159
O O8 0.316017 0.228388 0.816401
O O9 0.663244 0.839736 0.714148
O O10 0.340889 0.640998 0.011283
O O11 0.803067 0.795897 0.743165
O O12 0.697536 0.483881 0.743647
O O13 0.997710 0.737473 0.558484
O O14 0.686934 0.945474 0.869866
O O15 0.500000 0.000000 0.000000
O O16 0.000000 0.000000 0.000000
O O17 0.921966 0.211011 0.029268
#
# Coordination Sequence:
#
# PCOD8023648 Si02
#       8
#     2   2   2   2   2   2   2   2
#     4  11  23  37  61  92 119 163 202 240 312 359
#     4   9  20  38  63  83 115 157 198 252 304 357
#     4  11  22  40  59  90 127 160 198 251 308 361
#     4  10  23  42  60  89 125 163 209 247 298 363
#     4  10  23  42  61  88 126 163 205 252 296 362
#     4  11  21  41  62  90 129 163 195 253 304 359
#     4   9  20  42  58  87 121 147 205 255 292 360
#     4   9  20  38  60  87 114 153 204 251 297 359
#
# _framework density 20.754776
#
# number of rings (size 3 to 8) (size 9 to 14) (size 15 to 20)
#    0.000    2.000    2.500    2.250    3.500    5.500 
#    6.750    1.250    0.000    0.000    0.000    0.000 
#    0.000    0.000    0.000    0.000    0.000    0.000 
#
# Total GULP energy -198307.070210 kJ/mol
# GULP energy per Si atom -12394.191888 kJ/mol
# Density = 2.070754 g / cm^3
# Si number density = 20.754776 Si / 1000 Ang^3
#
#
#
# Elastic Constant Matrix: (Units=GPa)
#
#
# Indices 1 2 3 4 5 6 
#
# 1 79.5272 9.6163 53.7874 1.7174 -11.1097 6.2946
# 2 9.6163 52.6852 17.8040 4.9396 -3.3249 0.5449
# 3 53.7874 17.8040 119.4295 -10.9526 -25.1396 8.2147
# 4 1.7174 4.9396 -10.9526 20.9465 -2.5518 5.2884
# 5 -11.1097 -3.3249 -25.1396 -2.5518 41.7038 -4.9555
# 6 6.2946 0.5449 8.2147 5.2884 -4.9555 24.7936
#
#
#
# Elastic Compliance Matrix: (Units=1/GPa)
#
#
# Indices 1 2 3 4 5 6 
#
# 1 0.018882 0.000247 -0.009312 -0.006464 -0.001023 -0.000540
# 2 0.000247 0.021077 -0.004389 -0.008031 -0.001103 0.002421
# 3 -0.009312 -0.004389 0.016113 0.012113 0.007145 -0.004034
# 4 -0.006464 -0.008031 0.012113 0.060829 0.007026 -0.013766
# 5 -0.001023 -0.001103 0.007145 0.007026 0.028609 0.002136
# 6 -0.000540 0.002421 -0.004034 -0.013766 0.002136 0.045117
#
#
# Mechanical properties :
#
#
# Convention : Reuss Voigt Hill
#
# Bulk Modulus (GPa) = 34.28645 46.00637 40.14641
# Shear Modulus (GPa) = 22.00181 28.85105 25.42643
#
# Velocity S-wave (km/s) = 3.25943 3.73244 3.50392
# Velocity P-wave (km/s) = 5.54263 6.38667 5.97956
#
# Compressibility (1/GPa) = 0.02916604
#
# Stress axis : x y z
#
# Youngs Moduli (GPa) = 52.96173 47.44543 62.06090
#
# Poissons Ratio (x) = -0.01174 0.57788
# Poissons Ratio (y) = -0.01310 0.27236
# Poissons Ratio (z) = 0.49316 0.20822
#
# Static dielectric constant tensor:
#      x y z
#    x 3.984950 0.126150 -0.213320 
#    y 0.126150 3.770750 -0.085650 
#    z -0.213320 -0.085650 4.010670 
# 
# 
# High freq. dielectric constant tensor:
#      x y z
#    x 1.817980 -0.000640 -0.005800 
#    y -0.000640 1.789420 -0.005340 
#    z -0.005800 -0.005340 1.811890 
# 
# From -- ./inp_files/399143.got.cif
#   From: 2010.06.25/outbox.cif.g09.slc.cpg/sg2_200_cif.got.tgz:399143.got - 2010.06.27 13:26:56.
