data_PCOD8023979
_publ_section_title
;
Structure prediction by ZEFSAII (Michael W. Deem and Ramdas Pophale) SiO2 
 PCOD8023979
Probable space group: P -1
;
_chemical_formula_sum "Si O2"
_cell_formula_units_Z 16
_cell_length_a 16.180711
_cell_length_b 9.153516
_cell_length_c 8.876352
_cell_angle_alpha 62.839287
_cell_angle_beta 91.653196
_cell_angle_gamma 44.864587
_cell_volume 682.817174
_symmetry_space_group_name_H-M "P -1"
_symmetry_group_IT_number 2
_symmetry_cell_setting 'triclinic'
loop_
_space_group_symop_operation_xyz
x,y,z
-x,-y,-z
loop_
_atom_site_type_symbol
_atom_site_label
_atom_site_fract_x
_atom_site_fract_y
_atom_site_fract_z
Si Si1 0.951027 0.093218 0.703834
Si Si2 0.413193 0.444093 0.890834
Si Si3 0.637054 0.884069 0.609788
Si Si4 0.579913 0.219640 0.708052
Si Si5 0.947684 0.322591 0.872049
Si Si6 0.819775 0.397694 0.268301
Si Si7 0.319655 0.938570 0.729037
Si Si8 0.156201 0.255848 0.875763
O O1 0.972707 0.211806 0.759099
O O2 0.814344 0.347478 0.468836
O O3 0.074077 0.887875 0.684234
O O4 0.947679 0.935448 0.880855
O O5 0.496065 0.296932 0.810824
O O6 0.329631 0.406330 0.909389
O O7 0.310256 0.769356 0.741194
O O8 0.519127 0.282323 0.111731
O O9 0.784913 0.550446 0.813042
O O10 0.500000 0.000000 0.500000
O O11 0.580410 0.073198 0.658818
O O12 0.706006 0.890059 0.483886
O O13 0.500000 0.500000 0.500000
O O14 0.738390 0.002309 0.877860
O O15 0.001358 0.425245 0.816178
O O16 0.854127 0.534284 0.189548
O O17 0.207302 0.143108 0.760451
#
# Coordination Sequence:
#
# PCOD8023979 Si02
#       8
#     2   2   2   2   2   2   2   2
#     4  10  25  44  70 101 134 189 225 282 354 412
#     4  10  23  42  68  96 143 183 233 277 343 418
#     4  12  28  43  72 104 139 181 235 289 352 408
#     4  11  25  44  67 105 139 188 229 286 345 416
#     4  11  26  48  69 103 143 182 231 294 344 422
#     4  11  24  43  70 107 136 184 233 290 342 417
#     4  10  23  44  67 101 136 190 225 284 345 416
#     4  11  26  44  73 105 141 182 236 289 351 404
#
# _framework density 23.432333
#
# number of rings (size 3 to 8) (size 9 to 14) (size 15 to 20)
#    0.000    1.250    1.250    2.250    8.750    8.000 
#    0.000    0.000    0.000    0.000    0.000    0.000 
#    0.000    0.000    0.000    0.000    0.000    0.000 
#
# Total GULP energy -198279.247971 kJ/mol
# GULP energy per Si atom -12392.452998 kJ/mol
# Density = 2.337900 g / cm^3
# Si number density = 23.432333 Si / 1000 Ang^3
#
#
#
# Elastic Constant Matrix: (Units=GPa)
#
#
# Indices 1 2 3 4 5 6 
#
# 1 142.8211 37.7234 24.7667 -4.7013 27.1640 11.0983
# 2 37.7234 117.7249 26.3472 9.8207 17.5617 21.7575
# 3 24.7667 26.3472 78.1668 4.9839 3.8590 7.0770
# 4 -4.7013 9.8207 4.9839 40.2800 2.3902 4.7818
# 5 27.1640 17.5617 3.8590 2.3902 25.2096 -7.6524
# 6 11.0983 21.7575 7.0770 4.7818 -7.6524 27.2865
#
#
#
# Elastic Compliance Matrix: (Units=1/GPa)
#
#
# Indices 1 2 3 4 5 6 
#
# 1 0.010891 0.000666 -0.002325 0.003367 -0.014936 -0.009137
# 2 0.000666 0.013714 -0.002808 -0.000369 -0.014174 -0.014388
# 3 -0.002325 -0.002808 0.014412 -0.001572 0.002536 0.000433
# 4 0.003367 -0.000369 -0.001572 0.026883 -0.007992 -0.007620
# 5 -0.014936 -0.014174 0.002536 -0.007992 0.078159 0.040040
# 6 -0.009137 -0.014388 0.000433 -0.007620 0.040040 0.064289
#
#
# Mechanical properties :
#
#
# Convention : Reuss Voigt Hill
#
# Bulk Modulus (GPa) = 33.24100 57.37640 45.30870
# Shear Modulus (GPa) = 21.99659 35.21355 28.60507
#
# Velocity S-wave (km/s) = 3.06719 3.88077 3.49772
# Velocity P-wave (km/s) = 5.17304 6.67980 5.97411
#
# Compressibility (1/GPa) = 0.03008333
#
# Stress axis : x y z
#
# Youngs Moduli (GPa) = 91.82247 72.92059 69.38620
#
# Poissons Ratio (x) = -0.04860 0.16135
# Poissons Ratio (y) = -0.06120 0.19481
# Poissons Ratio (z) = 0.21352 0.20473
#
# Static dielectric constant tensor:
#      x y z
#    x 3.913020 0.120200 0.130220 
#    y 0.120200 4.345280 -0.121160 
#    z 0.130220 -0.121160 4.814880 
# 
# 
# High freq. dielectric constant tensor:
#      x y z
#    x 1.911260 0.006420 0.002280 
#    y 0.006420 1.936030 0.010940 
#    z 0.002280 0.010940 1.942970 
# 
# From -- ./inp_files/186151.got.cif
#   From: 2010.06.25/outbox.cif.g09.slc.cpg/sg2_94_cif.got.tgz:186151.got - 2010.06.27 13:26:56.
