data_PCOD8023827
_publ_section_title
;
Structure prediction by ZEFSAII (Michael W. Deem and Ramdas Pophale) SiO2 
 PCOD8023827
Probable space group: P -1
;
_chemical_formula_sum "Si O2"
_cell_formula_units_Z 16
_cell_length_a 9.319537
_cell_length_b 26.153828
_cell_length_c 9.547115
_cell_angle_alpha 44.059422
_cell_angle_beta 45.484595
_cell_angle_gamma 28.824251
_cell_volume 762.229620
_symmetry_space_group_name_H-M "P -1"
_symmetry_group_IT_number 2
_symmetry_cell_setting 'triclinic'
loop_
_space_group_symop_operation_xyz
x,y,z
-x,-y,-z
loop_
_atom_site_type_symbol
_atom_site_label
_atom_site_fract_x
_atom_site_fract_y
_atom_site_fract_z
Si Si1 0.819148 0.950511 0.904618
Si Si2 0.240910 0.743647 0.222127
Si Si3 0.789738 0.211875 0.286398
Si Si4 0.766543 0.498688 0.694227
Si Si5 0.095452 0.735637 0.644041
Si Si6 0.233423 0.305784 0.943171
Si Si7 0.525920 0.815595 0.271142
Si Si8 0.188445 0.663337 0.166927
O O1 0.013635 0.893857 0.741029
O O2 0.763673 0.050773 0.787342
O O3 0.006258 0.863194 0.075142
O O4 0.500000 0.000000 0.000000
O O5 0.102037 0.763073 0.429206
O O6 0.576991 0.686521 0.115516
O O7 0.291188 0.655798 0.268965
O O8 0.997576 0.177797 0.346703
O O9 0.508931 0.240984 0.481397
O O10 0.663156 0.319254 0.079308
O O11 0.429292 0.621209 0.698224
O O12 0.749529 0.439280 0.703985
O O13 0.000000 0.500000 0.500000
O O14 0.898618 0.426684 0.887738
O O15 0.842131 0.741420 0.810680
O O16 0.438907 0.227618 0.822940
O O17 0.827152 0.778859 0.176117
#
# Coordination Sequence:
#
# PCOD8023827 Si02
#       8
#     2   2   2   2   2   2   2   2
#     4  11  22  44  67  91 131 175 214 262 327 389
#     4  11  24  42  63  95 138 160 214 278 320 362
#     4  11  21  39  68  95 124 170 219 262 319 386
#     4  11  21  42  73  93 125 181 214 251 328 398
#     4  12  22  42  66  94 132 170 214 267 322 376
#     4  11  23  41  63  99 130 166 216 269 313 384
#     4  11  20  42  68  92 126 175 219 258 317 394
#     4  10  23  42  66  94 134 167 214 267 316 387
#
# _framework density 20.991049
#
# number of rings (size 3 to 8) (size 9 to 14) (size 15 to 20)
#    0.000    1.000    7.500    1.500    0.000    3.000 
#    2.250    1.875    0.000    0.000    0.000    0.000 
#    0.000    0.000    0.000    0.000    0.000    0.000 
#
# Total GULP energy -198328.128224 kJ/mol
# GULP energy per Si atom -12395.508014 kJ/mol
# Density = 2.094327 g / cm^3
# Si number density = 20.991049 Si / 1000 Ang^3
#
#
#
# Elastic Constant Matrix: (Units=GPa)
#
#
# Indices 1 2 3 4 5 6 
#
# 1 131.4688 32.9687 41.3628 -3.7429 11.9638 3.8528
# 2 32.9687 72.0129 26.2636 -3.0567 0.2067 6.9670
# 3 41.3628 26.2636 139.1686 10.4686 3.7804 4.0336
# 4 -3.7429 -3.0567 10.4686 25.5166 0.7597 -3.8745
# 5 11.9638 0.2067 3.7804 0.7597 38.6396 -1.0289
# 6 3.8528 6.9670 4.0336 -3.8745 -1.0289 27.2654
#
#
#
# Elastic Compliance Matrix: (Units=1/GPa)
#
#
# Indices 1 2 3 4 5 6 
#
# 1 0.009478 -0.003432 -0.002246 0.001989 -0.002734 0.000050
# 2 -0.003432 0.016640 -0.002200 0.001885 0.001069 -0.003133
# 3 -0.002246 -0.002200 0.008622 -0.004281 -0.000079 -0.001007
# 4 0.001989 0.001885 -0.004281 0.042380 -0.000884 0.005859
# 5 -0.002734 0.001069 -0.000079 -0.000884 0.026773 0.001010
# 6 0.000050 -0.003133 -0.001007 0.005859 0.001010 0.038490
#
#
# Mechanical properties :
#
#
# Convention : Reuss Voigt Hill
#
# Bulk Modulus (GPa) = 52.68000 60.42672 56.55336
# Shear Modulus (GPa) = 30.40116 34.42133 32.41125
#
# Velocity S-wave (km/s) = 3.80977 4.05385 3.93370
# Velocity P-wave (km/s) = 6.67108 7.12467 6.90161
#
# Compressibility (1/GPa) = 0.01898254
#
# Stress axis : x y z
#
# Youngs Moduli (GPa) = 105.51001 60.09492 115.98753
#
# Poissons Ratio (x) = 0.20627 0.26050
# Poissons Ratio (y) = 0.36216 0.25519
# Poissons Ratio (z) = 0.23697 0.13222
#
# Static dielectric constant tensor:
#      x y z
#    x 3.955840 0.234650 -0.127440 
#    y 0.234650 3.795680 0.015970 
#    z -0.127440 0.015970 3.849740 
# 
# 
# High freq. dielectric constant tensor:
#      x y z
#    x 1.827830 0.018600 -0.015360 
#    y 0.018600 1.802000 0.010200 
#    z -0.015360 0.010200 1.830120 
# 
# From -- ./inp_files/227359.got.cif
#   From: 2010.06.25/outbox.cif.g09.slc.cpg/sg2_114_cif.got.tgz:227359.got - 2010.06.27 13:26:56.
