data_PCOD8024400
_publ_section_title
;
Structure prediction by ZEFSAII (Michael W. Deem and Ramdas Pophale) SiO2 
 PCOD8024400
Probable space group: P -1
;
_chemical_formula_sum "Si O2"
_cell_formula_units_Z 16
_cell_length_a 12.518105
_cell_length_b 9.125649
_cell_length_c 11.629026
_cell_angle_alpha 111.113898
_cell_angle_beta 46.700505
_cell_angle_gamma 132.198140
_cell_volume 703.708229
_symmetry_space_group_name_H-M "P -1"
_symmetry_group_IT_number 2
_symmetry_cell_setting 'triclinic'
loop_
_space_group_symop_operation_xyz
x,y,z
-x,-y,-z
loop_
_atom_site_type_symbol
_atom_site_label
_atom_site_fract_x
_atom_site_fract_y
_atom_site_fract_z
Si Si1 0.160923 0.375249 0.694119
Si Si2 0.782966 0.811934 0.587226
Si Si3 0.219777 0.145359 0.759290
Si Si4 0.348148 0.273585 0.085646
Si Si5 0.477519 0.191647 0.400523
Si Si6 0.128009 0.272195 0.066651
Si Si7 0.210648 0.691836 0.112742
Si Si8 0.505877 0.044801 0.843694
O O1 0.225456 0.366099 0.515931
O O2 0.126906 0.197132 0.745829
O O3 0.319509 0.589200 0.696902
O O4 0.964327 0.332421 0.816875
O O5 0.671117 0.742098 0.768630
O O6 0.673425 0.854434 0.595477
O O7 0.000000 0.000000 0.500000
O O8 0.399226 0.175103 0.581452
O O9 0.268762 0.292224 0.872211
O O10 0.088145 0.921239 0.848464
O O11 0.159505 0.212741 0.150461
O O12 0.500000 0.500000 0.000000
O O13 0.400751 0.139387 0.958362
O O14 0.491840 0.014661 0.308175
O O15 0.152827 0.473552 0.106476
O O16 0.282439 0.802628 0.215798
O O17 0.388323 0.830700 0.936716
#
# Coordination Sequence:
#
# PCOD8024400 Si02
#       8
#     2   2   2   2   2   2   2   2
#     4  11  24  42  71  97 132 178 227 269 324 397
#     4  11  22  43  71  99 131 177 226 273 326 396
#     4  10  23  43  66  95 136 171 216 269 333 396
#     4  12  25  41  68  97 131 170 217 276 339 391
#     4  11  24  41  71  99 131 176 226 272 324 397
#     4  11  24  43  66  98 134 173 214 276 337 397
#     4  11  23  42  67  99 130 174 226 272 327 391
#     4  11  23  43  67  95 132 173 224 277 324 395
#
# _framework density 22.736696999999999
#
# number of rings (size 3 to 8) (size 9 to 14) (size 15 to 20)
#    0.000    1.000    1.250    7.500    3.500    4.000 
#    2.250    2.500    0.000    0.000    0.000    0.000 
#    0.000    0.000    0.000    0.000    0.000    0.000 
#
# Total GULP energy -198271.223145 kJ/mol
# GULP energy per Si atom -12391.951447 kJ/mol
# Density = 2.268495 g / cm^3
# Si number density = 22.736697 Si / 1000 Ang^3
#
#
#
# Elastic Constant Matrix: (Units=GPa)
#
#
# Indices 1 2 3 4 5 6 
#
# 1 60.3750 28.8220 8.4753 4.9748 -12.6050 -0.5198
# 2 28.8220 162.2179 54.4604 14.0315 -6.0915 1.4357
# 3 8.4753 54.4604 108.2511 17.4625 7.1129 -3.4487
# 4 4.9748 14.0315 17.4625 37.5723 6.7336 3.5775
# 5 -12.6050 -6.0915 7.1129 6.7336 26.2244 -5.7848
# 6 -0.5198 1.4357 -3.4487 3.5775 -5.7848 28.6055
#
#
#
# Elastic Compliance Matrix: (Units=1/GPa)
#
#
# Indices 1 2 3 4 5 6 
#
# 1 0.020599 -0.002891 -0.000156 -0.003844 0.010965 0.003199
# 2 -0.002891 0.008123 -0.003801 -0.001154 0.001731 -0.000424
# 3 -0.000156 -0.003801 0.012009 -0.003763 -0.002915 0.001517
# 4 -0.003844 -0.001154 -0.003763 0.031859 -0.010736 -0.006621
# 5 0.010965 0.001731 -0.002915 -0.010736 0.049818 0.011178
# 6 0.003199 -0.000424 0.001517 -0.006621 0.011178 0.038309
#
#
# Mechanical properties :
#
#
# Convention : Reuss Voigt Hill
#
# Bulk Modulus (GPa) = 36.99208 57.15105 47.07157
# Shear Modulus (GPa) = 27.25885 34.41952 30.83918
#
# Velocity S-wave (km/s) = 3.46626 3.89502 3.68688
# Velocity P-wave (km/s) = 5.68551 6.73935 6.23474
#
# Compressibility (1/GPa) = 0.02703281
#
# Stress axis : x y z
#
# Youngs Moduli (GPa) = 48.54631 123.10648 83.26800
#
# Poissons Ratio (x) = 0.35595 0.01303
# Poissons Ratio (y) = 0.14037 0.31653
# Poissons Ratio (z) = 0.00760 0.46798
#
# Static dielectric constant tensor:
#      x y z
#    x 4.095470 0.282110 -0.045390 
#    y 0.282110 4.237520 0.245340 
#    z -0.045390 0.245340 4.315290 
# 
# 
# High freq. dielectric constant tensor:
#      x y z
#    x 1.886480 0.016650 -0.001610 
#    y 0.016650 1.910340 0.014740 
#    z -0.001610 0.014740 1.896310 
# 
# From -- ./inp_files/333829.got.cif
#   From: 2010.06.25/outbox.cif.g09.slc.cpg/sg2_167_cif.got.tgz:333829.got - 2010.06.27 13:26:56.
