data_PCOD8024679
_publ_section_title
;
Structure prediction by ZEFSAII (Michael W. Deem and Ramdas Pophale) SiO2 
 PCOD8024679
Probable space group: P -1
;
_chemical_formula_sum "Si O2"
_cell_formula_units_Z 16
_cell_length_a 12.000000
_cell_length_b 12.928260
_cell_length_c 11.595319
_cell_angle_alpha 44.496018
_cell_angle_beta 142.596143
_cell_angle_gamma 115.741679
_cell_volume 727.901717
_symmetry_space_group_name_H-M "P -1"
_symmetry_group_IT_number 2
_symmetry_cell_setting 'triclinic'
loop_
_space_group_symop_operation_xyz
x,y,z
-x,-y,-z
loop_
_atom_site_type_symbol
_atom_site_label
_atom_site_fract_x
_atom_site_fract_y
_atom_site_fract_z
Si Si1 0.334306 0.389814 0.032915
Si Si2 0.939550 0.984027 0.590473
Si Si3 0.868570 0.956572 0.087438
Si Si4 0.930586 0.353292 0.032514
Si Si5 0.724655 0.669264 0.226137
Si Si6 0.247676 0.804304 0.387842
Si Si7 0.935597 0.398660 0.747874
Si Si8 0.319085 0.689960 0.923538
O O1 0.542281 0.266621 0.327124
O O2 0.298322 0.411855 0.849118
O O3 0.313818 0.558391 0.932831
O O4 0.168844 0.324289 0.004128
O O5 0.767774 0.143251 0.344948
O O6 0.119997 0.972765 0.833037
O O7 0.000000 0.000000 0.500000
O O8 0.899427 0.815876 0.699396
O O9 0.760981 0.829454 0.103571
O O10 0.092263 0.900561 0.275716
O O11 0.735331 0.084774 0.791119
O O12 0.776593 0.337673 0.012871
O O13 0.841070 0.388378 0.802450
O O14 0.000000 0.500000 0.000000
O O15 0.898677 0.572289 0.529263
O O16 0.535656 0.684488 0.135343
O O17 0.166111 0.673309 0.374962
#
# Coordination Sequence:
#
# PCOD8024679 Si02
#       8
#     2   2   2   2   2   2   2   2
#     4  12  24  44  72 106 140 181 234 284 353 413
#     4  10  23  43  70  95 137 182 228 286 349 403
#     4  11  24  45  67 104 144 182 227 292 346 414
#     4  11  24  46  72  98 136 187 236 285 346 416
#     4  12  26  41  70 105 142 181 233 285 350 423
#     4  11  25  45  72 103 144 183 229 287 352 415
#     4  12  24  44  71 104 138 182 236 285 346 417
#     4  11  24  43  68 103 136 189 228 286 350 406
#
# _framework density 21.980989999999998
#
# number of rings (size 3 to 8) (size 9 to 14) (size 15 to 20)
#    0.000    0.750    5.000    2.250    3.500    2.000 
#    0.000    2.500    0.000    0.000    0.000    0.000 
#    0.000    0.000    0.000    0.000    0.000    0.000 
#
# Total GULP energy -198267.943163 kJ/mol
# GULP energy per Si atom -12391.746448 kJ/mol
# Density = 2.193096 g / cm^3
# Si number density = 21.980990 Si / 1000 Ang^3
#
#
#
# Elastic Constant Matrix: (Units=GPa)
#
#
# Indices 1 2 3 4 5 6 
#
# 1 102.9318 40.3213 54.1100 1.2796 -11.9499 10.3352
# 2 40.3213 95.1810 57.5559 -9.4492 -4.9938 7.6533
# 3 54.1100 57.5559 129.8127 -10.6142 -11.1398 2.6863
# 4 1.2796 -9.4492 -10.6142 37.8320 4.0201 -0.5290
# 5 -11.9499 -4.9938 -11.1398 4.0201 36.2802 4.1932
# 6 10.3352 7.6533 2.6863 -0.5290 4.1932 38.5860
#
#
#
# Elastic Compliance Matrix: (Units=1/GPa)
#
#
# Indices 1 2 3 4 5 6 
#
# 1 0.013985 -0.003172 -0.004288 -0.002891 0.003548 -0.003244
# 2 -0.003172 0.015430 -0.005333 0.002508 -0.000635 -0.001736
# 3 -0.004288 -0.005333 0.012103 0.002100 0.001191 0.001263
# 4 -0.002891 0.002508 0.002100 0.028095 -0.003175 0.000861
# 5 0.003548 -0.000635 0.001191 -0.003175 0.029847 -0.004194
# 6 -0.003244 -0.001736 0.001263 0.000861 -0.004194 0.027509
#
#
# Mechanical properties :
#
#
# Convention : Reuss Voigt Hill
#
# Bulk Modulus (GPa) = 62.76110 70.21110 66.48610
# Shear Modulus (GPa) = 31.67258 34.26886 32.97072
#
# Velocity S-wave (km/s) = 3.80005 3.95273 3.87714
# Velocity P-wave (km/s) = 6.91869 7.26933 7.09618
#
# Compressibility (1/GPa) = 0.01593344
#
# Stress axis : x y z
#
# Youngs Moduli (GPa) = 71.50358 64.80948 82.62422
#
# Poissons Ratio (x) = 0.20555 0.35430
# Poissons Ratio (y) = 0.22678 0.44061
# Poissons Ratio (z) = 0.30661 0.34561
#
# Static dielectric constant tensor:
#      x y z
#    x 4.380690 0.058170 -0.047220 
#    y 0.058170 4.502990 -0.480400 
#    z -0.047220 -0.480400 4.472980 
# 
# 
# High freq. dielectric constant tensor:
#      x y z
#    x 1.864570 -0.006760 -0.022020 
#    y -0.006760 1.870050 -0.013670 
#    z -0.022020 -0.013670 1.868670 
# 
# From -- ./inp_files/433745.got.cif
#   From: 2010.06.25/outbox.cif.g09.slc.cpg/sg2_217_cif.got.tgz:433745.got - 2010.06.27 13:26:56.
