data_PCOD8024264
_publ_section_title
;
Structure prediction by ZEFSAII (Michael W. Deem and Ramdas Pophale) SiO2 
 PCOD8024264
Probable space group: P -1
;
_chemical_formula_sum "Si O2"
_cell_formula_units_Z 16
_cell_length_a 31.892464
_cell_length_b 9.831660
_cell_length_c 12.384051
_cell_angle_alpha 47.154613
_cell_angle_beta 29.347019
_cell_angle_gamma 27.801028
_cell_volume 814.186724
_symmetry_space_group_name_H-M "P -1"
_symmetry_group_IT_number 2
_symmetry_cell_setting 'triclinic'
loop_
_space_group_symop_operation_xyz
x,y,z
-x,-y,-z
loop_
_atom_site_type_symbol
_atom_site_label
_atom_site_fract_x
_atom_site_fract_y
_atom_site_fract_z
Si Si1 0.496032 0.221746 0.419022
Si Si2 0.814562 0.695073 0.063257
Si Si3 0.315707 0.315369 0.458969
Si Si4 0.443956 0.391582 0.681626
Si Si5 0.623615 0.413609 0.721947
Si Si6 0.855554 0.028431 0.857204
Si Si7 0.046214 0.241479 0.605519
Si Si8 0.072160 0.891764 0.563015
O O1 0.412107 0.389466 0.630750
O O2 0.406848 0.502635 0.382043
O O3 0.500000 0.000000 0.500000
O O4 0.663468 0.001590 0.171909
O O5 0.943179 0.405579 0.851825
O O6 0.860828 0.796925 0.970643
O O7 0.791014 0.571104 0.267925
O O8 0.397219 0.354202 0.297414
O O9 0.225091 0.521853 0.444008
O O10 0.433053 0.956004 0.355022
O O11 0.500000 0.500000 0.500000
O O12 0.304345 0.612031 0.951515
O O13 0.784677 0.042698 0.581361
O O14 0.500000 0.500000 0.000000
O O15 0.908637 0.002082 0.636013
O O16 0.959302 0.926311 0.772667
O O17 0.000000 0.500000 0.500000
O O18 0.020462 0.101819 0.668685
#
# Coordination Sequence:
#
# PCOD8024264 Si02
#       8
#     2   2   2   2   2   2   2   2
#     4  11  22  42  66  96 132 163 215 270 316 379
#     4  11  22  42  67  91 133 165 211 268 316 381
#     4  10  23  43  63  97 127 161 219 267 311 381
#     4  11  22  41  67  91 126 172 209 257 326 369
#     4  11  24  41  66 100 131 165 214 268 323 383
#     4  11  23  43  63  89 128 172 210 256 320 383
#     4  11  23  42  69  94 128 171 212 264 327 371
#     4  10  25  42  62  91 129 165 214 265 314 380
#
# _framework density 19.651512
#
# number of rings (size 3 to 8) (size 9 to 14) (size 15 to 20)
#    0.000    1.250    6.250    0.750    3.500    5.000 
#    2.250    0.000    0.000    0.000    0.000    0.000 
#    0.000    0.000    0.000    0.000    0.000    0.000 
#
# Total GULP energy -198427.946026 kJ/mol
# GULP energy per Si atom -12401.746627 kJ/mol
# Density = 1.960678 g / cm^3
# Si number density = 19.651512 Si / 1000 Ang^3
#
#
#
# Elastic Constant Matrix: (Units=GPa)
#
#
# Indices 1 2 3 4 5 6 
#
# 1 103.4986 41.5746 33.0231 0.6349 -18.8872 13.0569
# 2 41.5746 101.3534 19.1448 -2.5911 -13.1747 8.7569
# 3 33.0231 19.1448 97.4183 2.9673 -11.2645 24.7424
# 4 0.6349 -2.5911 2.9673 36.5055 8.1940 1.2143
# 5 -18.8872 -13.1747 -11.2645 8.1940 34.4827 2.8236
# 6 13.0569 8.7569 24.7424 1.2143 2.8236 40.7815
#
#
#
# Elastic Compliance Matrix: (Units=1/GPa)
#
#
# Indices 1 2 3 4 5 6 
#
# 1 0.013420 -0.004168 -0.002485 -0.001483 0.005481 -0.002229
# 2 -0.004168 0.012050 -0.000428 0.000518 0.002153 -0.001158
# 3 -0.002485 -0.000428 0.013635 -0.001732 0.003964 -0.007608
# 4 -0.001483 0.000518 -0.001732 0.029414 -0.008261 0.001111
# 5 0.005481 0.002153 0.003964 -0.008261 0.036649 -0.006914
# 6 -0.002229 -0.001158 -0.007608 0.001111 -0.006914 0.030545
#
#
# Mechanical properties :
#
#
# Convention : Reuss Voigt Hill
#
# Bulk Modulus (GPa) = 40.09145 54.41726 47.25436
# Shear Modulus (GPa) = 31.60797 36.25578 33.93187
#
# Velocity S-wave (km/s) = 4.01487 4.29993 4.15984
# Velocity P-wave (km/s) = 6.47593 7.23905 6.86810
#
# Compressibility (1/GPa) = 0.02494297
#
# Stress axis : x y z
#
# Youngs Moduli (GPa) = 74.51755 82.98627 73.34196
#
# Poissons Ratio (x) = 0.34590 0.18223
# Poissons Ratio (y) = 0.31060 0.03139
# Poissons Ratio (z) = 0.18515 0.03551
#
# Static dielectric constant tensor:
#      x y z
#    x 3.673460 -0.045000 -0.202250 
#    y -0.045000 3.661930 0.025110 
#    z -0.202250 0.025110 3.541110 
# 
# 
# High freq. dielectric constant tensor:
#      x y z
#    x 1.773180 0.004150 -0.006230 
#    y 0.004150 1.770070 -0.004190 
#    z -0.006230 -0.004190 1.766090 
# 
# From -- ./inp_files/186751.got.cif
#   From: 2010.06.25/outbox.cif.g09.slc.cpg/sg2_94_cif.got.tgz:186751.got - 2010.06.27 13:26:56.
