data_PCOD8024154
_publ_section_title
;
Structure prediction by ZEFSAII (Michael W. Deem and Ramdas Pophale) SiO2 
 PCOD8024154
Probable space group: P -1
;
_chemical_formula_sum "Si O2"
_cell_formula_units_Z 14
_cell_length_a 9.050780
_cell_length_b 12.380568
_cell_length_c 8.120125
_cell_angle_alpha 59.910576
_cell_angle_beta 50.350668
_cell_angle_gamma 58.778757
_cell_volume 578.660330
_symmetry_space_group_name_H-M "P -1"
_symmetry_group_IT_number 2
_symmetry_cell_setting 'triclinic'
loop_
_space_group_symop_operation_xyz
x,y,z
-x,-y,-z
loop_
_atom_site_type_symbol
_atom_site_label
_atom_site_fract_x
_atom_site_fract_y
_atom_site_fract_z
Si Si1 0.493870 0.117311 0.033082
Si Si2 0.199683 0.404670 0.515207
Si Si3 0.306369 0.119136 0.501193
Si Si4 0.781350 0.642180 0.080617
Si Si5 0.071692 0.946904 0.239329
Si Si6 0.418569 0.553852 0.693965
Si Si7 0.917211 0.210345 0.317944
O O1 0.323316 0.132833 0.281605
O O2 0.429554 0.243304 0.864815
O O3 0.713728 0.097729 0.973558
O O4 0.500000 0.000000 0.000000
O O5 0.277216 0.258136 0.500088
O O6 0.157808 0.396774 0.744788
O O7 0.387024 0.465686 0.310061
O O8 0.000000 0.500000 0.500000
O O9 0.106763 0.078610 0.721284
O O10 0.500000 0.000000 0.500000
O O11 0.740488 0.525651 0.086571
O O12 0.955426 0.686715 0.832182
O O13 0.105756 0.858087 0.444637
O O14 0.021713 0.100559 0.194302
O O15 0.500000 0.500000 0.500000
O O16 0.303205 0.708571 0.652067
#
# Coordination Sequence:
#
# PCOD8024154 Si02
#       7
#     2   2   2   2   2   2   2
#     4  12  23  45  76 107 137 192 251 294 356 438
#     4  11  27  48  67 106 155 191 236 305 373 430
#     4  12  27  46  71 105 154 188 238 308 372 425
#     4  11  23  44  76 101 139 193 250 292 351 443
#     4  11  23  41  73 102 144 181 243 296 362 424
#     4  10  23  42  71  96 139 189 247 287 355 430
#     4  11  21  42  70 107 131 183 248 306 340 423
#
# _framework density 24.193812000000001
#
# number of rings (size 3 to 8) (size 9 to 14) (size 15 to 20)
#    0.000    0.857    2.857    4.714    6.000    1.714 
#    2.571    1.429    0.000    0.000    0.000    0.000 
#    0.000    0.000    0.000    0.000    0.000    0.000 
#
# Total GULP energy -173486.500595 kJ/mol
# GULP energy per Si atom -12391.892900 kJ/mol
# Density = 2.413875 g / cm^3
# Si number density = 24.193812 Si / 1000 Ang^3
#
#
#
# Elastic Constant Matrix: (Units=GPa)
#
#
# Indices 1 2 3 4 5 6 
#
# 1 153.5513 68.4627 21.8345 -10.9244 -27.3646 -22.4587
# 2 68.4627 160.4237 18.3283 -12.7937 -12.2092 -26.3774
# 3 21.8345 18.3283 53.5868 -6.1521 -24.3702 -2.6740
# 4 -10.9244 -12.7937 -6.1521 33.5161 -1.3045 -5.6222
# 5 -27.3646 -12.2092 -24.3702 -1.3045 40.3964 -7.1032
# 6 -22.4587 -26.3774 -2.6740 -5.6222 -7.1032 53.2782
#
#
#
# Elastic Compliance Matrix: (Units=1/GPa)
#
#
# Indices 1 2 3 4 5 6 
#
# 1 0.009708 -0.002780 0.000742 0.003186 0.006994 0.004022
# 2 -0.002780 0.008337 -0.000899 0.002694 0.000761 0.003296
# 3 0.000742 -0.000899 0.027792 0.006427 0.017967 0.004336
# 4 0.003186 0.002694 0.006427 0.034776 0.009365 0.007918
# 5 0.006994 0.000761 0.017967 0.009365 0.042784 0.010919
# 6 0.004022 0.003296 0.004336 0.007918 0.010919 0.024606
#
#
# Mechanical properties :
#
#
# Convention : Reuss Voigt Hill
#
# Bulk Modulus (GPa) = 25.02292 64.97923 45.00107
# Shear Modulus (GPa) = 29.90496 42.70056 36.30276
#
# Velocity S-wave (km/s) = 3.51958 4.20567 3.87783
# Velocity P-wave (km/s) = 5.18476 7.10631 6.22018
#
# Compressibility (1/GPa) = 0.03996336
#
# Stress axis : x y z
#
# Youngs Moduli (GPa) = 103.01123 119.94142 35.98186
#
# Poissons Ratio (x) = 0.33345 -0.02671
# Poissons Ratio (y) = 0.28638 0.03235
# Poissons Ratio (z) = -0.07648 0.10784
#
# Static dielectric constant tensor:
#      x y z
#    x 4.710270 -0.117430 -0.692350 
#    y -0.117430 4.770090 -0.376160 
#    z -0.692350 -0.376160 4.883780 
# 
# 
# High freq. dielectric constant tensor:
#      x y z
#    x 1.963410 -0.021430 -0.029910 
#    y -0.021430 1.978570 -0.009280 
#    z -0.029910 -0.009280 1.950720 
# 
# From -- ./inp_files/184629.got.cif
#   From: 2010.06.25/outbox.cif.g09.slc.cpg/sg2_93_cif.got.tgz:184629.got - 2010.06.27 13:26:56.
