data_PCOD8024936
_publ_section_title
;
Structure prediction by ZEFSAII (Michael W. Deem and Ramdas Pophale) SiO2 
 PCOD8024936
Probable space group: P -1
;
_chemical_formula_sum "Si O2"
_cell_formula_units_Z 16
_cell_length_a 27.431606
_cell_length_b 15.401503
_cell_length_c 9.827315
_cell_angle_alpha 135.117030
_cell_angle_beta 144.732277
_cell_angle_gamma 18.796592
_cell_volume 724.727262
_symmetry_space_group_name_H-M "P -1"
_symmetry_group_IT_number 2
_symmetry_cell_setting 'triclinic'
loop_
_space_group_symop_operation_xyz
x,y,z
-x,-y,-z
loop_
_atom_site_type_symbol
_atom_site_label
_atom_site_fract_x
_atom_site_fract_y
_atom_site_fract_z
Si Si1 0.140426 0.554758 0.997862
Si Si2 0.081809 0.701701 0.335355
Si Si3 0.705459 0.332877 0.205856
Si Si4 0.646042 0.969282 0.116851
Si Si5 0.455931 0.865506 0.626318
Si Si6 0.747535 0.646067 0.422090
Si Si7 0.426380 0.537048 0.658463
Si Si8 0.888059 0.886582 0.536414
O O1 0.192555 0.344124 0.905559
O O2 0.949640 0.817962 0.758693
O O3 0.099189 0.666652 0.174852
O O4 0.316671 0.394795 0.148453
O O5 0.194690 0.672767 0.618051
O O6 0.167707 0.473579 0.363358
O O7 0.854985 0.020477 0.211031
O O8 0.608460 0.481025 0.295797
O O9 0.549073 0.501067 0.920229
O O10 0.728948 0.987085 0.266104
O O11 0.638937 0.979157 0.273955
O O12 0.430691 0.217443 0.845453
O O13 0.446261 0.731535 0.432328
O O14 0.331484 0.110462 0.506105
O O15 0.918736 0.388363 0.419510
O O16 0.222803 0.841094 0.456436
#
# Coordination Sequence:
#
# PCOD8024936 Si02
#       8
#     2   2   2   2   2   2   2   2
#     4  11  23  44  69 100 135 176 224 279 336 396
#     4  11  23  44  70  99 130 182 222 275 341 398
#     4  10  23  44  66  92 144 171 220 285 332 394
#     4  11  24  43  69 100 139 173 221 287 332 387
#     4  11  23  44  67 100 140 175 217 285 337 388
#     4  11  23  45  71  99 134 178 227 273 335 400
#     4  11  24  44  66  99 133 180 223 274 337 399
#     4  12  24  44  71  98 134 183 227 270 332 405
#
# _framework density 22.077271
#
# number of rings (size 3 to 8) (size 9 to 14) (size 15 to 20)
#    0.000    1.000    5.000    1.875    1.750    3.000 
#    9.000    1.250    0.000    0.000    0.000    0.000 
#    0.000    0.000    0.000    0.000    0.000    0.000 
#
# Total GULP energy -198403.429249 kJ/mol
# GULP energy per Si atom -12400.214328 kJ/mol
# Density = 2.202702 g / cm^3
# Si number density = 22.077271 Si / 1000 Ang^3
#
#
#
# Elastic Constant Matrix: (Units=GPa)
#
#
# Indices 1 2 3 4 5 6 
#
# 1 41.7233 21.2994 33.4271 -9.4293 3.1498 5.5916
# 2 21.2994 115.4800 45.6635 -4.1910 -10.7202 13.0031
# 3 33.4271 45.6635 90.9057 -8.5602 -13.5698 5.7916
# 4 -9.4293 -4.1910 -8.5602 32.1289 4.2040 -2.1531
# 5 3.1498 -10.7202 -13.5698 4.2040 21.6564 -7.8808
# 6 5.5916 13.0031 5.7916 -2.1531 -7.8808 32.0043
#
#
#
# Elastic Compliance Matrix: (Units=1/GPa)
#
#
# Indices 1 2 3 4 5 6 
#
# 1 0.044086 -0.002191 -0.017052 0.010587 -0.023433 -0.008785
# 2 -0.002191 0.011327 -0.004442 -0.000838 0.002242 -0.002920
# 3 -0.017052 -0.004442 0.021395 -0.001625 0.015702 0.004669
# 4 0.010587 -0.000838 -0.001625 0.034939 -0.010262 -0.001391
# 5 -0.023433 0.002242 0.015702 -0.010262 0.068540 0.016529
# 6 -0.008785 -0.002920 0.004669 -0.001391 0.016529 0.037098
#
#
# Mechanical properties :
#
#
# Convention : Reuss Voigt Hill
#
# Bulk Modulus (GPa) = 33.96915 49.87654 41.92285
# Shear Modulus (GPa) = 18.21053 27.00585 22.60819
#
# Velocity S-wave (km/s) = 2.87514 3.50128 3.20355
# Velocity P-wave (km/s) = 5.14216 6.24389 5.71961
#
# Compressibility (1/GPa) = 0.02943848
#
# Stress axis : x y z
#
# Youngs Moduli (GPa) = 22.68308 88.28793 46.73905
#
# Poissons Ratio (x) = 0.19340 0.79699
# Poissons Ratio (y) = 0.04969 0.20763
# Poissons Ratio (z) = 0.38679 0.39220
#
# Static dielectric constant tensor:
#      x y z
#    x 3.796920 -0.012610 0.070110 
#    y -0.012610 4.011780 -0.107780 
#    z 0.070110 -0.107780 4.058140 
# 
# 
# High freq. dielectric constant tensor:
#      x y z
#    x 1.863340 -0.001710 0.001420 
#    y -0.001710 1.872610 -0.010350 
#    z 0.001420 -0.010350 1.866240 
# 
# From -- ./inp_files/357455.got.cif
#   From: 2010.06.25/outbox.cif.g09.slc.cpg/sg2_179_cif.got.tgz:357455.got - 2010.06.27 13:26:56.
