data_PCOD8024722
_publ_section_title
;
Structure prediction by ZEFSAII (Michael W. Deem and Ramdas Pophale) SiO2 
 PCOD8024722
Probable space group: P -1
;
_chemical_formula_sum "Si O2"
_cell_formula_units_Z 16
_cell_length_a 8.706515
_cell_length_b 14.236240
_cell_length_c 12.630613
_cell_angle_alpha 48.076027
_cell_angle_beta 65.853221
_cell_angle_gamma 102.729582
_cell_volume 729.672747
_symmetry_space_group_name_H-M "P -1"
_symmetry_group_IT_number 2
_symmetry_cell_setting 'triclinic'
loop_
_space_group_symop_operation_xyz
x,y,z
-x,-y,-z
loop_
_atom_site_type_symbol
_atom_site_label
_atom_site_fract_x
_atom_site_fract_y
_atom_site_fract_z
Si Si1 0.586421 0.501222 0.321669
Si Si2 0.152295 0.456634 0.970609
Si Si3 0.746200 0.802868 0.187372
Si Si4 0.374303 0.594293 0.158667
Si Si5 0.274613 0.930555 0.550102
Si Si6 0.045971 0.783738 0.514462
Si Si7 0.625441 0.730110 0.768420
Si Si8 0.587219 0.920375 0.980231
O O1 0.742060 0.487591 0.219174
O O2 0.768896 0.683148 0.207049
O O3 0.410993 0.312631 0.577749
O O4 0.426646 0.510026 0.289522
O O5 0.367620 0.553647 0.921183
O O6 0.000000 0.500000 0.000000
O O7 0.973126 0.239865 0.191476
O O8 0.620178 0.839814 0.124931
O O9 0.000000 0.000000 0.000000
O O10 0.094899 0.421405 0.326624
O O11 0.581235 0.698167 0.930594
O O12 0.388642 0.743087 0.092879
O O13 0.254472 0.866844 0.482009
O O14 0.500000 0.000000 0.500000
O O15 0.291633 0.088320 0.427452
O O16 0.841422 0.758518 0.647057
O O17 0.166612 0.917199 0.278412
O O18 0.500000 0.000000 0.000000
#
# Coordination Sequence:
#
# PCOD8024722 Si02
#       8
#     2   2   2   2   2   2   2   2
#     4  10  23  43  71 102 134 181 239 288 346 411
#     4  12  25  43  66 106 152 181 223 290 361 427
#     4  10  23  47  72  98 132 180 242 295 342 407
#     4  11  22  44  75 101 137 182 237 289 344 420
#     4  12  26  42  65 104 149 185 224 279 359 423
#     4  12  24  42  76 102 137 184 235 288 344 422
#     4  12  24  43  72 108 137 180 235 284 351 431
#     4  11  27  47  68 103 141 183 238 294 354 410
#
# _framework density 21.927638999999999
#
# number of rings (size 3 to 8) (size 9 to 14) (size 15 to 20)
#    0.000    0.750    5.000    2.250    3.500    1.500 
#    4.500    0.000    0.000    0.000    0.000    0.000 
#    0.000    0.000    0.000    0.000    0.000    0.000 
#
# Total GULP energy -198340.079597 kJ/mol
# GULP energy per Si atom -12396.254975 kJ/mol
# Density = 2.187773 g / cm^3
# Si number density = 21.927639 Si / 1000 Ang^3
#
#
#
# Elastic Constant Matrix: (Units=GPa)
#
#
# Indices 1 2 3 4 5 6 
#
# 1 79.8162 59.7476 59.5706 1.4973 2.7756 4.7882
# 2 59.7476 169.9505 91.7278 -10.8230 -5.5759 -5.1657
# 3 59.5706 91.7278 169.7013 -5.4370 19.0175 1.4793
# 4 1.4973 -10.8230 -5.4370 56.2547 5.3102 -0.5529
# 5 2.7756 -5.5759 19.0175 5.3102 31.5382 -4.4854
# 6 4.7882 -5.1657 1.4793 -0.5529 -4.4854 35.5265
#
#
#
# Elastic Compliance Matrix: (Units=1/GPa)
#
#
# Indices 1 2 3 4 5 6 
#
# 1 0.019538 -0.004766 -0.004303 -0.001874 -0.000106 -0.003190
# 2 -0.004766 0.010306 -0.004462 0.001221 0.005152 0.002996
# 3 -0.004303 -0.004462 0.010665 0.000953 -0.007201 -0.001407
# 4 -0.001874 0.001221 0.000953 0.018464 -0.003265 0.000266
# 5 -0.000106 0.005152 -0.007201 -0.003265 0.038353 0.005855
# 6 -0.003190 0.002996 -0.001407 0.000266 0.005855 0.029815
#
#
# Mechanical properties :
#
#
# Convention : Reuss Voigt Hill
#
# Bulk Modulus (GPa) = 74.36558 93.50667 83.93612
# Shear Modulus (GPa) = 31.50909 38.55869 35.03389
#
# Velocity S-wave (km/s) = 3.79483 4.19794 4.00147
# Velocity P-wave (km/s) = 7.29306 8.13835 7.72727
#
# Compressibility (1/GPa) = 0.01344708
#
# Stress axis : x y z
#
# Youngs Moduli (GPa) = 51.18209 97.03278 93.76843
#
# Poissons Ratio (x) = 0.46249 0.40344
# Poissons Ratio (y) = 0.24395 0.41837
# Poissons Ratio (z) = 0.22021 0.43294
#
# Static dielectric constant tensor:
#      x y z
#    x 3.620440 0.173040 0.218080 
#    y 0.173040 4.566940 -0.223330 
#    z 0.218080 -0.223330 4.348340 
# 
# 
# High freq. dielectric constant tensor:
#      x y z
#    x 1.837780 0.012380 0.022750 
#    y 0.012380 1.880300 -0.012440 
#    z 0.022750 -0.012440 1.883700 
# 
# From -- ./inp_files/398572.got.cif
#   From: 2010.06.25/outbox.cif.g09.slc.cpg/sg2_200_cif.got.tgz:398572.got - 2010.06.27 13:26:56.
