data_PCOD8024534
_publ_section_title
;
Structure prediction by ZEFSAII (Michael W. Deem and Ramdas Pophale) SiO2 
 PCOD8024534
Probable space group: P -1
;
_chemical_formula_sum "Si O2"
_cell_formula_units_Z 16
_cell_length_a 10.893850
_cell_length_b 14.890366
_cell_length_c 8.907194
_cell_angle_alpha 124.049187
_cell_angle_beta 67.453356
_cell_angle_gamma 69.228669
_cell_volume 738.780987
_symmetry_space_group_name_H-M "P -1"
_symmetry_group_IT_number 2
_symmetry_cell_setting 'triclinic'
loop_
_space_group_symop_operation_xyz
x,y,z
-x,-y,-z
loop_
_atom_site_type_symbol
_atom_site_label
_atom_site_fract_x
_atom_site_fract_y
_atom_site_fract_z
Si Si1 0.923946 0.718859 0.627293
Si Si2 0.712110 0.024026 0.493888
Si Si3 0.280469 0.344648 0.488574
Si Si4 0.704803 0.439677 0.874839
Si Si5 0.325510 0.300616 0.767931
Si Si6 0.047567 0.310592 0.065835
Si Si7 0.308968 0.963265 0.126902
Si Si8 0.075458 0.898403 0.514426
O O1 0.882441 0.622578 0.501786
O O2 0.151515 0.618964 0.390435
O O3 0.740124 0.892374 0.792687
O O4 0.892264 0.747087 0.845403
O O5 0.514379 0.122966 0.583051
O O6 0.670380 0.039682 0.705386
O O7 0.772400 0.109182 0.489427
O O8 0.884413 0.834670 0.196321
O O9 0.303315 0.284418 0.589091
O O10 0.495060 0.213905 0.189312
O O11 0.189566 0.522614 0.690018
O O12 0.831653 0.271858 0.745514
O O13 0.500000 0.500000 0.000000
O O14 0.664802 0.574404 0.108405
O O15 0.141365 0.363658 0.003051
O O16 0.119752 0.004675 0.202095
O O17 0.000000 0.000000 0.500000
#
# Coordination Sequence:
#
# PCOD8024534 Si02
#       8
#     2   2   2   2   2   2   2   2
#     4  11  24  44  69  97 138 179 223 278 342 396
#     4  11  23  44  69  97 139 181 225 275 337 407
#     4  12  25  41  66 101 136 172 225 279 334 398
#     4  11  23  43  70 102 131 180 223 278 335 401
#     4  12  25  42  69 101 140 174 226 277 341 399
#     4  12  26  42  68 104 136 173 226 282 338 394
#     4  10  23  43  68  96 135 183 227 273 337 401
#     4   9  21  40  68  92 133 181 225 265 334 402
#
# _framework density 21.657297
#
# number of rings (size 3 to 8) (size 9 to 14) (size 15 to 20)
#    0.000    1.000    2.500    3.750    7.000    0.000 
#    2.250    2.500    0.000    0.000    0.000    0.000 
#    0.000    0.000    0.000    0.000    0.000    0.000 
#
# Total GULP energy -198217.912353 kJ/mol
# GULP energy per Si atom -12388.619522 kJ/mol
# Density = 2.160800 g / cm^3
# Si number density = 21.657297 Si / 1000 Ang^3
#
#
#
# Elastic Constant Matrix: (Units=GPa)
#
#
# Indices 1 2 3 4 5 6 
#
# 1 52.7526 16.8473 31.0555 -7.5976 -3.8164 2.4403
# 2 16.8473 106.3825 53.0230 2.4093 6.5468 -10.0210
# 3 31.0555 53.0230 156.8651 12.6823 -4.9170 -4.1545
# 4 -7.5976 2.4093 12.6823 44.1461 -3.4057 8.5909
# 5 -3.8164 6.5468 -4.9170 -3.4057 25.2596 4.7176
# 6 2.4403 -10.0210 -4.1545 8.5909 4.7176 38.2880
#
#
#
# Elastic Compliance Matrix: (Units=1/GPa)
#
#
# Indices 1 2 3 4 5 6 
#
# 1 0.023955 -0.002534 -0.004406 0.006877 0.005253 -0.004859
# 2 -0.002534 0.012321 -0.003623 -0.001227 -0.005177 0.003907
# 3 -0.004406 -0.003623 0.008791 -0.003136 0.001409 0.000817
# 4 0.006877 -0.001227 -0.003136 0.026775 0.005818 -0.007824
# 5 0.005253 -0.005177 0.001409 0.005818 0.044334 -0.008305
# 6 -0.004859 0.003907 0.000817 -0.007824 -0.008305 0.030317
#
#
# Mechanical properties :
#
#
# Convention : Reuss Voigt Hill
#
# Bulk Modulus (GPa) = 41.76852 57.53912 49.65382
# Shear Modulus (GPa) = 28.47380 35.87703 32.17542
#
# Velocity S-wave (km/s) = 3.62987 4.07453 3.85861
# Velocity P-wave (km/s) = 6.07420 6.98293 6.54436
#
# Compressibility (1/GPa) = 0.02394148
#
# Stress axis : x y z
#
# Youngs Moduli (GPa) = 41.74527 81.15999 113.75231
#
# Poissons Ratio (x) = 0.20569 0.50118
# Poissons Ratio (y) = 0.10580 0.41208
# Poissons Ratio (z) = 0.18392 0.29401
#
# Static dielectric constant tensor:
#      x y z
#    x 0.813010 -1.353990 -0.033430 
#    y -1.353990 3.214010 0.267090 
#    z -0.033430 0.267090 3.953210 
# 
# 
# High freq. dielectric constant tensor:
#      x y z
#    x 1.836370 0.005560 -0.012640 
#    y 0.005560 1.861290 0.019470 
#    z -0.012640 0.019470 1.859640 
# 
# From -- ./inp_files/245563.got.cif
#   From: 2010.06.25/outbox.cif.g09.slc.cpg/sg2_123_cif.got.tgz:245563.got - 2010.06.27 13:26:56.
