data_PCOD8024838
_publ_section_title
;
Structure prediction by ZEFSAII (Michael W. Deem and Ramdas Pophale) SiO2 
 PCOD8024838
Probable space group: P -1
;
_chemical_formula_sum "Si O2"
_cell_formula_units_Z 16
_cell_length_a 7.652396
_cell_length_b 17.112984
_cell_length_c 9.168997
_cell_angle_alpha 115.941137
_cell_angle_beta 86.645544
_cell_angle_gamma 134.749331
_cell_volume 705.913050
_symmetry_space_group_name_H-M "P -1"
_symmetry_group_IT_number 2
_symmetry_cell_setting 'triclinic'
loop_
_space_group_symop_operation_xyz
x,y,z
-x,-y,-z
loop_
_atom_site_type_symbol
_atom_site_label
_atom_site_fract_x
_atom_site_fract_y
_atom_site_fract_z
Si Si1 0.024655 0.500709 0.670104
Si Si2 0.241064 0.048176 0.113980
Si Si3 0.409898 0.780758 0.012092
Si Si4 0.812038 0.776448 0.036220
Si Si5 0.362327 0.857465 0.372579
Si Si6 0.463886 0.523390 0.682257
Si Si7 0.798431 0.707407 0.301040
Si Si8 0.447428 0.222562 0.515236
O O1 0.146072 0.632596 0.845811
O O2 0.202234 0.483710 0.681445
O O3 0.000000 0.500000 0.500000
O O4 0.730652 0.376672 0.648176
O O5 0.467732 0.111859 0.034575
O O6 0.381090 0.171370 0.311843
O O7 0.120433 0.920837 0.105947
O O8 0.000000 0.000000 0.000000
O O9 0.625524 0.791501 0.067500
O O10 0.328775 0.814764 0.172601
O O11 0.781729 0.708960 0.128948
O O12 0.722400 0.679448 0.830407
O O13 0.548242 0.860798 0.453428
O O14 0.069628 0.760198 0.377195
O O15 0.500000 0.000000 0.500000
O O16 0.500000 0.500000 0.500000
O O17 0.441598 0.437453 0.731598
O O18 0.787640 0.801280 0.441253
#
# Coordination Sequence:
#
# PCOD8024838 Si02
#       8
#     2   2   2   2   2   2   2   2
#     4  11  22  44  73 105 144 189 239 296 366 414
#     4  10  23  43  76 102 136 193 239 286 369 426
#     4  10  23  45  72 103 146 188 243 300 355 431
#     4  10  23  44  68 103 144 190 234 292 369 419
#     4  12  28  46  72 110 145 191 243 292 360 438
#     4  11  25  42  71 110 142 186 246 297 349 432
#     4  12  26  45  73 103 146 188 238 294 359 427
#     4  12  25  48  74 105 144 189 235 302 360 427
#
# _framework density 22.665683000000001
#
# number of rings (size 3 to 8) (size 9 to 14) (size 15 to 20)
#    0.000    1.000    3.750    1.875    7.000    4.500 
#    0.000    1.250    0.000    0.000    0.000    0.000 
#    0.000    0.000    0.000    0.000    0.000    0.000 
#
# Total GULP energy -198387.881260 kJ/mol
# GULP energy per Si atom -12399.242579 kJ/mol
# Density = 2.261409 g / cm^3
# Si number density = 22.665683 Si / 1000 Ang^3
#
#
#
# Elastic Constant Matrix: (Units=GPa)
#
#
# Indices 1 2 3 4 5 6 
#
# 1 86.6477 31.5437 42.1988 2.2448 -20.1023 -1.2520
# 2 31.5437 151.3743 58.8625 5.4268 -6.8378 -4.7844
# 3 42.1988 58.8625 146.7707 8.3569 -13.8781 2.6560
# 4 2.2448 5.4268 8.3569 41.1094 0.0659 4.9657
# 5 -20.1023 -6.8378 -13.8781 0.0659 34.3609 -1.5501
# 6 -1.2520 -4.7844 2.6560 4.9657 -1.5501 32.8573
#
#
#
# Elastic Compliance Matrix: (Units=1/GPa)
#
#
# Indices 1 2 3 4 5 6 
#
# 1 0.015385 -0.001640 -0.003069 -0.000129 0.007479 0.000968
# 2 -0.001640 0.008084 -0.002803 -0.000577 -0.000418 0.001409
# 3 -0.003069 -0.002803 0.009023 -0.001176 0.001248 -0.001018
# 4 -0.000129 -0.000577 -0.001176 0.025112 -0.000886 -0.003831
# 5 0.007479 -0.000418 0.001248 -0.000886 0.033985 0.001861
# 6 0.000968 0.001409 -0.001018 -0.003831 0.001861 0.031426
#
#
# Mechanical properties :
#
#
# Convention : Reuss Voigt Hill
#
# Bulk Modulus (GPa) = 57.24263 72.22253 64.73258
# Shear Modulus (GPa) = 34.75610 38.47803 36.61707
#
# Velocity S-wave (km/s) = 3.92014 4.12471 4.02372
# Velocity P-wave (km/s) = 6.76757 7.39038 7.08582
#
# Compressibility (1/GPa) = 0.01746950
#
# Stress axis : x y z
#
# Youngs Moduli (GPa) = 64.99900 123.70052 110.82668
#
# Poissons Ratio (x) = 0.20281 0.34011
# Poissons Ratio (y) = 0.10657 0.31063
# Poissons Ratio (z) = 0.19947 0.34671
#
# Static dielectric constant tensor:
#      x y z
#    x 4.978000 0.336040 -0.257820 
#    y 0.336040 3.482040 0.568100 
#    z -0.257820 0.568100 3.892040 
# 
# 
# High freq. dielectric constant tensor:
#      x y z
#    x 1.886840 -0.003050 0.001800 
#    y -0.003050 1.905320 0.001050 
#    z 0.001800 0.001050 1.898250 
# 
# From -- ./inp_files/218310.got.cif
#   From: 2010.06.25/outbox.cif.g09.slc.cpg/sg2_110_cif.got.tgz:218310.got - 2010.06.27 13:26:56.
