data_PCOD8024754
_publ_section_title
;
Structure prediction by ZEFSAII (Michael W. Deem and Ramdas Pophale) SiO2 
 PCOD8024754
Probable space group: P -1
;
_chemical_formula_sum "Si O2"
_cell_formula_units_Z 16
_cell_length_a 8.465877
_cell_length_b 12.802290
_cell_length_c 8.566011
_cell_angle_alpha 79.586537
_cell_angle_beta 125.876566
_cell_angle_gamma 102.563838
_cell_volume 732.589464
_symmetry_space_group_name_H-M "P -1"
_symmetry_group_IT_number 2
_symmetry_cell_setting 'triclinic'
loop_
_space_group_symop_operation_xyz
x,y,z
-x,-y,-z
loop_
_atom_site_type_symbol
_atom_site_label
_atom_site_fract_x
_atom_site_fract_y
_atom_site_fract_z
Si Si1 0.303915 0.029237 0.944662
Si Si2 0.693855 0.025242 0.700843
Si Si3 0.499197 0.579267 0.624442
Si Si4 0.288945 0.229705 0.673634
Si Si5 0.308378 0.735874 0.268429
Si Si6 0.050412 0.073842 0.362740
Si Si7 0.814646 0.552051 0.319281
Si Si8 0.909634 0.593001 0.008089
O O1 0.253507 0.139323 0.810304
O O2 0.157873 0.919374 0.843032
O O3 0.500000 0.000000 0.000000
O O4 0.314875 0.048365 0.130394
O O5 0.725111 0.147986 0.730905
O O6 0.500000 0.000000 0.500000
O O7 0.862841 0.997216 0.697032
O O8 0.500000 0.500000 0.500000
O O9 0.379525 0.674518 0.477072
O O10 0.386217 0.520142 0.722628
O O11 0.724137 0.623866 0.792325
O O12 0.521982 0.263002 0.766443
O O13 0.183307 0.184202 0.461328
O O14 0.183990 0.329232 0.640450
O O15 0.092553 0.687420 0.095163
O O16 0.000000 0.000000 0.500000
O O17 0.824252 0.556554 0.137514
O O18 0.000000 0.500000 0.500000
O O19 0.000000 0.500000 0.000000
#
# Coordination Sequence:
#
# PCOD8024754 Si02
#       8
#     2   2   2   2   2   2   2   2
#     4  11  23  45  67 104 145 191 241 296 355 433
#     4  12  24  46  71 106 149 189 239 297 359 428
#     4  12  24  47  73 105 146 188 241 301 363 437
#     4  11  24  47  72 104 145 190 244 298 364 435
#     4  12  25  45  75 106 148 190 245 295 370 426
#     4  10  23  43  71  99 144 190 235 298 355 427
#     4  12  25  48  75 108 145 190 243 304 363 441
#     4  12  26  47  74 105 147 190 241 304 368 432
#
# _framework density 21.840336000000001
#
# number of rings (size 3 to 8) (size 9 to 14) (size 15 to 20)
#    0.000    0.500    6.250    1.500    3.500    2.000 
#    0.000    1.250    0.000    0.000    0.000    0.000 
#    0.000    0.000    0.000    0.000    0.000    0.000 
#
# Total GULP energy -198297.307573 kJ/mol
# GULP energy per Si atom -12393.581723 kJ/mol
# Density = 2.179063 g / cm^3
# Si number density = 21.840336 Si / 1000 Ang^3
#
#
#
# Elastic Constant Matrix: (Units=GPa)
#
#
# Indices 1 2 3 4 5 6 
#
# 1 160.4154 58.5494 61.6069 15.9797 -5.5114 -4.8400
# 2 58.5494 130.1507 53.8448 1.1768 5.3256 -10.9358
# 3 61.6069 53.8448 151.5098 19.5242 14.5052 9.2513
# 4 15.9797 1.1768 19.5242 32.3743 7.1095 5.2241
# 5 -5.5114 5.3256 14.5052 7.1095 55.9832 4.7217
# 6 -4.8400 -10.9358 9.2513 5.2241 4.7217 46.2426
#
#
#
# Elastic Compliance Matrix: (Units=1/GPa)
#
#
# Indices 1 2 3 4 5 6 
#
# 1 0.008602 -0.002911 -0.002281 -0.003354 0.002070 0.000836
# 2 -0.002911 0.010435 -0.002919 0.002641 -0.001074 0.002558
# 3 -0.002281 -0.002919 0.009336 -0.003666 -0.001714 -0.002208
# 4 -0.003354 0.002641 -0.003666 0.035960 -0.003975 -0.002650
# 5 0.002070 -0.001074 -0.001714 -0.003975 0.019219 -0.001208
# 6 0.000836 0.002558 -0.002208 -0.002650 -0.001208 0.023182
#
#
# Mechanical properties :
#
#
# Convention : Reuss Voigt Hill
#
# Bulk Modulus (GPa) = 82.27572 87.78647 85.03109
# Shear Modulus (GPa) = 39.36821 44.79167 42.07994
#
# Velocity S-wave (km/s) = 4.25025 4.53356 4.39419
# Velocity P-wave (km/s) = 7.86380 8.22716 8.04753
#
# Compressibility (1/GPa) = 0.01215425
#
# Stress axis : x y z
#
# Youngs Moduli (GPa) = 116.24602 95.82837 107.11055
#
# Poissons Ratio (x) = 0.27891 0.24427
# Poissons Ratio (y) = 0.33834 0.31263
# Poissons Ratio (z) = 0.26510 0.27970
#
# Static dielectric constant tensor:
#      x y z
#    x 4.044390 -0.076880 0.226640 
#    y -0.076880 3.859120 0.147160 
#    z 0.226640 0.147160 5.297530 
# 
# 
# High freq. dielectric constant tensor:
#      x y z
#    x 1.882120 0.005740 0.005350 
#    y 0.005740 1.851640 0.003210 
#    z 0.005350 0.003210 1.870550 
# 
# From -- ./inp_files/187099.got.cif
#   From: 2010.06.25/outbox.cif.g09.slc.cpg/sg2_94_cif.got.tgz:187099.got - 2010.06.27 13:26:56.
