data_PCOD8024691
_publ_section_title
;
Structure prediction by ZEFSAII (Michael W. Deem and Ramdas Pophale) SiO2 
 PCOD8024691
Probable space group: P -1
;
_chemical_formula_sum "Si O2"
_cell_formula_units_Z 16
_cell_length_a 22.939094
_cell_length_b 13.769477
_cell_length_c 14.434998
_cell_angle_alpha 150.194274
_cell_angle_beta 18.199966
_cell_angle_gamma 149.948973
_cell_volume 682.373919
_symmetry_space_group_name_H-M "P -1"
_symmetry_group_IT_number 2
_symmetry_cell_setting 'triclinic'
loop_
_space_group_symop_operation_xyz
x,y,z
-x,-y,-z
loop_
_atom_site_type_symbol
_atom_site_label
_atom_site_fract_x
_atom_site_fract_y
_atom_site_fract_z
Si Si1 0.256272 0.018145 0.805414
Si Si2 0.870659 0.287077 0.100059
Si Si3 0.111966 0.624642 0.249330
Si Si4 0.869313 0.074855 0.376977
Si Si5 0.735126 0.312034 0.615312
Si Si6 0.530284 0.440412 0.799543
Si Si7 0.384809 0.367226 0.645750
Si Si8 0.773657 0.372919 0.128310
O O1 0.164622 0.914512 0.953387
O O2 0.346800 0.862431 0.482350
O O3 0.419994 0.212256 0.748174
O O4 0.091238 0.061806 0.022745
O O5 0.751798 0.449262 0.447915
O O6 0.822037 0.230007 0.018005
O O7 0.097790 0.398063 0.859256
O O8 0.153346 0.836888 0.414934
O O9 0.887233 0.499927 0.489946
O O10 0.225129 0.479484 0.010475
O O11 0.181586 0.691983 0.095854
O O12 0.835670 0.231090 0.481137
O O13 0.717562 0.858755 0.419852
O O14 0.558206 0.399353 0.991413
O O15 0.500000 0.500000 0.000000
O O16 0.500000 0.500000 0.500000
O O17 0.544574 0.359982 0.476652
#
# Coordination Sequence:
#
# PCOD8024691 Si02
#       8
#     2   2   2   2   2   2   2   2
#     4  12  24  44  72 101 144 176 222 291 356 411
#     4  11  24  45  71  97 134 188 234 278 340 407
#     4  11  22  45  69 103 144 177 227 292 345 417
#     4  12  26  39  75 107 138 179 230 285 362 412
#     4  12  25  43  71 109 142 177 224 291 357 420
#     4  12  26  43  71 103 143 181 228 285 348 412
#     4  10  23  43  70  96 141 182 226 286 344 406
#     4  10  23  44  71  92 134 189 233 278 336 401
#
# _framework density 23.447555000000001
#
# number of rings (size 3 to 8) (size 9 to 14) (size 15 to 20)
#    0.000    0.750    5.000    1.875    3.500    2.000 
#    0.000    0.625    5.500    0.000    0.000    0.000 
#    0.000    0.000    0.000    0.000    0.000    0.000 
#
# Total GULP energy -198348.079568 kJ/mol
# GULP energy per Si atom -12396.754973 kJ/mol
# Density = 2.339419 g / cm^3
# Si number density = 23.447555 Si / 1000 Ang^3
#
#
#
# Elastic Constant Matrix: (Units=GPa)
#
#
# Indices 1 2 3 4 5 6 
#
# 1 84.6289 18.8196 13.1514 2.0337 -2.4454 8.4474
# 2 18.8196 98.0563 32.1808 15.0933 -1.6552 27.0038
# 3 13.1514 32.1808 86.5699 13.7809 -4.3610 20.7850
# 4 2.0337 15.0933 13.7809 28.4201 2.9699 -4.1564
# 5 -2.4454 -1.6552 -4.3610 2.9699 35.4950 -3.3695
# 6 8.4474 27.0038 20.7850 -4.1564 -3.3695 45.6324
#
#
#
# Elastic Compliance Matrix: (Units=1/GPa)
#
#
# Indices 1 2 3 4 5 6 
#
# 1 0.012480 -0.001954 -0.001091 0.000534 0.000536 -0.000569
# 2 -0.001954 0.014675 -0.001928 -0.007932 0.000203 -0.008152
# 3 -0.001091 -0.001928 0.015149 -0.007316 0.001730 -0.006096
# 4 0.000534 -0.007932 -0.007316 0.045032 -0.003885 0.011742
# 5 0.000536 0.000203 0.001730 -0.003885 0.028830 0.000768
# 6 -0.000569 -0.008152 -0.006096 0.011742 0.000768 0.030746
#
#
# Mechanical properties :
#
#
# Convention : Reuss Voigt Hill
#
# Bulk Modulus (GPa) = 30.90406 44.17317 37.53862
# Shear Modulus (GPa) = 29.82499 35.58306 32.70402
#
# Velocity S-wave (km/s) = 3.57036 3.89981 3.73872
# Velocity P-wave (km/s) = 5.49594 6.25764 5.88912
#
# Compressibility (1/GPa) = 0.03235821
#
# Stress axis : x y z
#
# Youngs Moduli (GPa) = 80.12992 68.14113 66.00980
#
# Poissons Ratio (x) = 0.13312 0.07203
# Poissons Ratio (y) = 0.15654 0.12729
# Poissons Ratio (z) = 0.08743 0.13140
#
# Static dielectric constant tensor:
#      x y z
#    x 4.676930 0.082490 -0.484290 
#    y 0.082490 4.044070 -0.024240 
#    z -0.484290 -0.024240 4.771890 
# 
# 
# High freq. dielectric constant tensor:
#      x y z
#    x 1.948920 0.007240 -0.015770 
#    y 0.007240 1.914340 -0.005270 
#    z -0.015770 -0.005270 1.922510 
# 
# From -- ./inp_files/543045.got.cif
#   From: 2010.06.25/outbox.cif.g09.slc.cpg/sg2_272_cif.got.tgz:543045.got - 2010.06.27 13:26:56.
