data_PCOD8024995
_publ_section_title
;
Structure prediction by ZEFSAII (Michael W. Deem and Ramdas Pophale) SiO2 
 PCOD8024995
Probable space group: P -1
;
_chemical_formula_sum "Si O2"
_cell_formula_units_Z 12
_cell_length_a 20.978791
_cell_length_b 17.854730
_cell_length_c 11.433582
_cell_angle_alpha 149.533187
_cell_angle_beta 160.358688
_cell_angle_gamma 21.579559
_cell_volume 526.106350
_symmetry_space_group_name_H-M "P -1"
_symmetry_group_IT_number 2
_symmetry_cell_setting 'triclinic'
loop_
_space_group_symop_operation_xyz
x,y,z
-x,-y,-z
loop_
_atom_site_type_symbol
_atom_site_label
_atom_site_fract_x
_atom_site_fract_y
_atom_site_fract_z
Si Si1 0.672220 0.971331 0.157044
Si Si2 0.906782 0.317572 0.877539
Si Si3 0.221596 0.316373 0.242889
Si Si4 0.384549 0.834118 0.069134
Si Si5 0.550323 0.660370 0.883281
Si Si6 0.767154 0.364200 0.348925
O O1 0.972275 0.829176 0.532224
O O2 0.562693 0.186766 0.215668
O O3 0.662851 0.868257 0.891099
O O4 0.500000 0.000000 0.000000
O O5 0.838415 0.446347 0.052393
O O6 0.645239 0.368276 0.464901
O O7 0.963185 0.397178 0.973486
O O8 0.159714 0.078212 0.009872
O O9 0.438328 0.236232 0.607128
O O10 0.167671 0.498722 0.321580
O O11 0.561763 0.749174 0.143102
O O12 0.255045 0.738616 0.719905
O O13 0.500000 0.500000 0.000000
#
# Coordination Sequence:
#
# PCOD8024995 Si02
#       6
#     2   2   2   2   2   2
#     4  12  24  43  67  98 138 172 228 278 329 398
#     4  11  22  41  67 100 130 171 223 266 334 392
#     4  11  24  42  69  96 133 179 216 273 335 393
#     4  11  22  45  67  97 138 170 217 277 332 391
#     4  11  24  40  70 101 128 176 220 276 331 396
#     4  10  23  44  67  94 133 179 217 270 339 392
#
# _framework density 22.809076999999998
#
# number of rings (size 3 to 8) (size 9 to 14) (size 15 to 20)
#    0.000    1.000    3.333    3.500    0.000    3.333 
#    6.000    1.667    0.000    0.000    0.000    0.000 
#    0.000    0.000    0.000    0.000    0.000    0.000 
#
# Total GULP energy -148710.971452 kJ/mol
# GULP energy per Si atom -12392.580954 kJ/mol
# Density = 2.275716 g / cm^3
# Si number density = 22.809077 Si / 1000 Ang^3
#
#
#
# Elastic Constant Matrix: (Units=GPa)
#
#
# Indices 1 2 3 4 5 6 
#
# 1 159.8814 78.8743 52.6458 -9.4867 29.8386 -22.3522
# 2 78.8743 153.8408 34.0761 0.8138 12.9850 -12.4929
# 3 52.6458 34.0761 81.8788 6.9386 27.1472 -0.3610
# 4 -9.4867 0.8138 6.9386 29.1937 3.9381 6.6479
# 5 29.8386 12.9850 27.1472 3.9381 33.1475 6.5868
# 6 -22.3522 -12.4929 -0.3610 6.6479 6.5868 50.6768
#
#
#
# Elastic Compliance Matrix: (Units=1/GPa)
#
#
# Indices 1 2 3 4 5 6 
#
# 1 0.011940 -0.004311 -0.003823 0.004883 -0.007403 0.004498
# 2 -0.004311 0.008900 -0.001331 -0.001616 0.001619 0.000285
# 3 -0.003823 -0.001331 0.019382 -0.004309 -0.011434 0.000175
# 4 0.004883 -0.001616 -0.004309 0.038100 -0.004218 -0.002725
# 5 -0.007403 0.001619 -0.011434 -0.004218 0.047773 -0.008603
# 6 0.004498 0.000285 0.000175 -0.002725 -0.008603 0.023264
#
#
# Mechanical properties :
#
#
# Convention : Reuss Voigt Hill
#
# Bulk Modulus (GPa) = 46.96339 80.75480 63.85909
# Shear Modulus (GPa) = 28.50866 37.93724 33.22295
#
# Velocity S-wave (km/s) = 3.53920 4.08272 3.82064
# Velocity P-wave (km/s) = 6.11030 7.59647 6.89355
#
# Compressibility (1/GPa) = 0.02129318
#
# Stress axis : x y z
#
# Youngs Moduli (GPa) = 83.75073 112.35756 51.59446
#
# Poissons Ratio (x) = 0.48434 0.19723
# Poissons Ratio (y) = 0.36102 0.06868
# Poissons Ratio (z) = 0.32015 0.14956
#
# Static dielectric constant tensor:
#      x y z
#    x 4.596870 0.135770 0.424890 
#    y 0.135770 4.596050 0.354770 
#    z 0.424890 0.354770 4.420070 
# 
# 
# High freq. dielectric constant tensor:
#      x y z
#    x 1.905210 0.013020 0.018150 
#    y 0.013020 1.913290 0.006350 
#    z 0.018150 0.006350 1.903910 
# 
# From -- ./inp_files/135838.got.cif
#   From: 2010.06.25/outbox.cif.g09.slc.cpg/sg2_68_cif.got.tgz:135838.got - 2010.06.27 13:26:56.
