data_PCOD8024270
_publ_section_title
;
Structure prediction by ZEFSAII (Michael W. Deem and Ramdas Pophale) SiO2 
 PCOD8024270
Probable space group: P -1
;
_chemical_formula_sum "Si O2"
_cell_formula_units_Z 12
_cell_length_a 14.306753
_cell_length_b 6.953887
_cell_length_c 14.209950
_cell_angle_alpha 57.482600
_cell_angle_beta 27.293468
_cell_angle_gamma 59.425185
_cell_volume 544.873073
_symmetry_space_group_name_H-M "P -1"
_symmetry_group_IT_number 2
_symmetry_cell_setting 'triclinic'
loop_
_space_group_symop_operation_xyz
x,y,z
-x,-y,-z
loop_
_atom_site_type_symbol
_atom_site_label
_atom_site_fract_x
_atom_site_fract_y
_atom_site_fract_z
Si Si1 0.266970 0.557095 0.672953
Si Si2 0.084974 0.726664 0.227886
Si Si3 0.597525 0.651425 0.017088
Si Si4 0.768557 0.398810 0.524814
Si Si5 0.797621 0.084124 0.743331
Si Si6 0.026294 0.124885 0.040610
O O1 0.500000 0.500000 0.500000
O O2 0.212161 0.631574 0.595511
O O3 0.190058 0.769135 0.752294
O O4 0.168259 0.327833 0.847686
O O5 0.051287 0.815314 0.341899
O O6 0.882768 0.615150 0.402356
O O7 0.130990 0.942474 0.066920
O O8 0.288518 0.556459 0.086054
O O9 0.473032 0.559915 0.242627
O O10 0.432257 0.795097 0.061270
O O11 0.777625 0.812884 0.844691
O O12 0.863354 0.165216 0.556954
O O13 0.000000 0.000000 0.000000
#
# Coordination Sequence:
#
# PCOD8024270 Si02
#       6
#     2   2   2   2   2   2
#     4  11  27  47  71  93 133 178 221 277 332 395
#     4  12  23  41  69  94 138 172 211 280 325 384
#     4   9  23  42  63  96 138 168 221 261 328 383
#     4  10  23  43  64 102 125 170 230 257 327 399
#     4   9  22  44  63  98 135 175 213 269 323 392
#     4  11  27  46  66 101 132 170 226 275 336 387
#
# _framework density 22.023477
#
# number of rings (size 3 to 8) (size 9 to 14) (size 15 to 20)
#    1.000    0.667    1.667    1.000    7.000    2.667 
#    3.000    0.000    0.000    0.000    0.000    0.000 
#    0.000    0.000    0.000    0.000    0.000    0.000 
#
# Total GULP energy -148754.425056 kJ/mol
# GULP energy per Si atom -12396.202088 kJ/mol
# Density = 2.197335 g / cm^3
# Si number density = 22.023477 Si / 1000 Ang^3
#
#
#
# Elastic Constant Matrix: (Units=GPa)
#
#
# Indices 1 2 3 4 5 6 
#
# 1 133.2905 49.6918 39.6351 -8.0319 18.8498 22.3251
# 2 49.6918 99.8349 28.2884 -16.5999 12.9110 17.4525
# 3 39.6351 28.2884 103.1690 -8.3535 16.0120 14.8517
# 4 -8.0319 -16.5999 -8.3535 23.8994 -4.0164 5.6563
# 5 18.8498 12.9110 16.0120 -4.0164 34.0128 -4.7330
# 6 22.3251 17.4525 14.8517 5.6563 -4.7330 38.3474
#
#
#
# Elastic Compliance Matrix: (Units=1/GPa)
#
#
# Indices 1 2 3 4 5 6 
#
# 1 0.010734 -0.003243 -0.001766 0.001131 -0.004421 -0.004802
# 2 -0.003243 0.015098 -0.000580 0.010207 -0.003385 -0.006682
# 3 -0.001766 -0.000580 0.012212 0.003548 -0.004764 -0.004549
# 4 0.001131 0.010207 0.003548 0.053746 -0.001890 -0.014839
# 5 -0.004421 -0.003385 -0.004764 -0.001890 0.036653 0.010763
# 6 -0.004802 -0.006682 -0.004549 -0.014839 0.010763 0.037193
#
#
# Mechanical properties :
#
#
# Convention : Reuss Voigt Hill
#
# Bulk Modulus (GPa) = 37.22141 63.50276 50.36208
# Shear Modulus (GPa) = 26.91510 33.83054 30.37282
#
# Velocity S-wave (km/s) = 3.49966 3.92358 3.71767
# Velocity P-wave (km/s) = 5.76781 7.03013 6.43002
#
# Compressibility (1/GPa) = 0.02686626
#
# Stress axis : x y z
#
# Youngs Moduli (GPa) = 93.16008 66.23312 81.88852
#
# Poissons Ratio (x) = 0.21481 0.14457
# Poissons Ratio (y) = 0.30214 0.04751
# Poissons Ratio (z) = 0.16447 0.03842
#
# Static dielectric constant tensor:
#      x y z
#    x 3.852060 -0.001200 0.075300 
#    y -0.001200 4.046120 -0.085100 
#    z 0.075300 -0.085100 4.058790 
# 
# 
# High freq. dielectric constant tensor:
#      x y z
#    x 1.853860 -0.000170 0.003860 
#    y -0.000170 1.874210 -0.003590 
#    z 0.003860 -0.003590 1.874530 
# 
# From -- ./inp_files/525191.got.cif
#   From: 2010.06.25/outbox.cif.g09.slc.cpg/sg2_263_cif.got.tgz:525191.got - 2010.06.27 13:26:56.
