data_PCOD8024021
_publ_section_title
;
Structure prediction by ZEFSAII (Michael W. Deem and Ramdas Pophale) SiO2 
 PCOD8024021
Probable space group: P -1
;
_chemical_formula_sum "Si O2"
_cell_formula_units_Z 14
_cell_length_a 20.523690
_cell_length_b 10.693826
_cell_length_c 12.608396
_cell_angle_alpha 23.272689
_cell_angle_beta 146.702878
_cell_angle_gamma 147.192025
_cell_volume 565.551515
_symmetry_space_group_name_H-M "P -1"
_symmetry_group_IT_number 2
_symmetry_cell_setting 'triclinic'
loop_
_space_group_symop_operation_xyz
x,y,z
-x,-y,-z
loop_
_atom_site_type_symbol
_atom_site_label
_atom_site_fract_x
_atom_site_fract_y
_atom_site_fract_z
Si Si1 0.232395 0.971336 0.625646
Si Si2 0.638420 0.263279 0.488579
Si Si3 0.087173 0.346218 0.803773
Si Si4 0.779746 0.772111 0.120065
Si Si5 0.426447 0.231027 0.525521
Si Si6 0.987471 0.859649 0.709548
Si Si7 0.442252 0.262679 0.850050
O O1 0.150837 0.578585 0.810431
O O2 0.282182 0.086260 0.483287
O O3 0.148163 0.181305 0.392081
O O4 0.353338 0.023325 0.825612
O O5 0.687438 0.419072 0.318029
O O6 0.644644 0.589814 0.311684
O O7 0.500000 0.000000 0.500000
O O8 0.724034 0.076105 0.807017
O O9 0.194478 0.299381 0.910237
O O10 0.000000 0.500000 0.500000
O O11 0.000000 0.000000 0.000000
O O12 0.906895 0.885589 0.272807
O O13 0.500000 0.500000 0.500000
O O14 0.442452 0.422248 0.286054
O O15 0.492995 0.947423 0.827196
O O16 0.000000 0.000000 0.500000
O O17 0.000000 0.500000 0.000000
#
# Coordination Sequence:
#
# PCOD8024021 Si02
#       7
#     2   2   2   2   2   2   2
#     4  11  25  45  74 101 142 186 240 296 365 421
#     4  12  28  48  77 104 152 195 241 300 370 437
#     4  12  28  47  73 107 146 193 242 294 366 440
#     4  12  26  51  70 109 150 190 249 301 359 443
#     4  10  23  42  69 105 141 177 235 300 359 421
#     4  12  27  45  76 106 142 191 242 302 368 429
#     4  11  24  45  70 109 139 186 243 297 357 429
#
# _framework density 24.754598000000001
#
# number of rings (size 3 to 8) (size 9 to 14) (size 15 to 20)
#    0.000    0.571    1.429    6.429    6.000    8.000 
#    0.000    0.000    0.000    0.000    0.000    0.000 
#    0.000    0.000    0.000    0.000    0.000    0.000 
#
# Total GULP energy -173654.961499 kJ/mol
# GULP energy per Si atom -12403.925821 kJ/mol
# Density = 2.469825 g / cm^3
# Si number density = 24.754598 Si / 1000 Ang^3
#
#
#
# Elastic Constant Matrix: (Units=GPa)
#
#
# Indices 1 2 3 4 5 6 
#
# 1 120.5229 40.6911 41.8977 -4.1745 2.4510 21.5913
# 2 40.6911 110.9402 35.9477 -14.1175 -0.3131 12.0538
# 3 41.8977 35.9477 147.0548 -11.5031 -4.1252 13.0642
# 4 -4.1745 -14.1175 -11.5031 39.1547 9.4605 -1.5072
# 5 2.4510 -0.3131 -4.1252 9.4605 45.1027 -4.4682
# 6 21.5913 12.0538 13.0642 -1.5072 -4.4682 43.2194
#
#
#
# Elastic Compliance Matrix: (Units=1/GPa)
#
#
# Indices 1 2 3 4 5 6 
#
# 1 0.010718 -0.002878 -0.002051 -0.000385 -0.001112 -0.004060
# 2 -0.002878 0.011126 -0.001554 0.003381 -0.000732 -0.001154
# 3 -0.002051 -0.001554 0.007964 0.001420 0.000447 -0.000854
# 4 -0.000385 0.003381 0.001420 0.028527 -0.005888 -0.000794
# 5 -0.001112 -0.000732 0.000447 -0.005888 0.023788 0.002878
# 6 -0.004060 -0.001154 -0.000854 -0.000794 0.002878 0.026016
#
#
# Mechanical properties :
#
#
# Convention : Reuss Voigt Hill
#
# Bulk Modulus (GPa) = 59.36815 68.39900 63.88358
# Shear Modulus (GPa) = 39.45762 42.82747 41.14255
#
# Velocity S-wave (km/s) = 3.99676 4.16394 4.08121
# Velocity P-wave (km/s) = 6.73302 7.12802 6.93333
#
# Compressibility (1/GPa) = 0.01684405
#
# Stress axis : x y z
#
# Youngs Moduli (GPa) = 93.29741 89.87744 125.56945
#
# Poissons Ratio (x) = 0.25865 0.25753
# Poissons Ratio (y) = 0.26849 0.19507
# Poissons Ratio (z) = 0.19134 0.13962
#
# Static dielectric constant tensor:
#      x y z
#    x 5.210930 0.207760 0.132030 
#    y 0.207760 4.357750 -0.015970 
#    z 0.132030 -0.015970 4.427800 
# 
# 
# High freq. dielectric constant tensor:
#      x y z
#    x 1.996530 0.007900 0.009850 
#    y 0.007900 1.989220 -0.008820 
#    z 0.009850 -0.008820 1.992260 
# 
# From -- ./inp_files/541038.got.cif
#   From: 2010.06.25/outbox.cif.g09.slc.cpg/sg2_271_cif.got.tgz:541038.got - 2010.06.27 13:26:56.
