data_PCOD8024136
_publ_section_title
;
Structure prediction by ZEFSAII (Michael W. Deem and Ramdas Pophale) SiO2 
 PCOD8024136
Probable space group: P -1
;
_chemical_formula_sum "Si O2"
_cell_formula_units_Z 16
_cell_length_a 19.530782
_cell_length_b 5.314912
_cell_length_c 7.695800
_cell_angle_alpha 119.635209
_cell_angle_beta 107.568734
_cell_angle_gamma 63.665813
_cell_volume 618.801294
_symmetry_space_group_name_H-M "P -1"
_symmetry_group_IT_number 2
_symmetry_cell_setting 'triclinic'
loop_
_space_group_symop_operation_xyz
x,y,z
-x,-y,-z
loop_
_atom_site_type_symbol
_atom_site_label
_atom_site_fract_x
_atom_site_fract_y
_atom_site_fract_z
Si Si1 0.054856 0.881178 0.746351
Si Si2 0.677646 0.748726 0.379698
Si Si3 0.162788 0.181033 0.047086
Si Si4 0.110100 0.844826 0.386655
Si Si5 0.295906 0.781148 0.215733
Si Si6 0.182162 0.287327 0.722164
Si Si7 0.635187 0.798475 0.731046
Si Si8 0.483087 0.183071 0.872405
O O1 0.078824 0.816261 0.542680
O O2 0.099722 0.564253 0.774512
O O3 0.080123 0.154627 0.938947
O O4 0.963250 0.978141 0.732817
O O5 0.755384 0.576298 0.267947
O O6 0.670820 0.603150 0.514525
O O7 0.604245 0.762534 0.219440
O O8 0.684108 0.083301 0.540338
O O9 0.207903 0.147634 0.886040
O O10 0.338283 0.901640 0.134541
O O11 0.207131 0.908818 0.127398
O O12 0.157589 0.504561 0.237490
O O13 0.168982 0.029299 0.497757
O O14 0.330544 0.412096 0.144430
O O15 0.542327 0.940099 0.701183
O O16 0.500000 0.500000 0.000000
O O17 0.500000 0.000000 0.000000
#
# Coordination Sequence:
#
# PCOD8024136 Si02
#       8
#     2   2   2   2   2   2   2   2
#     4  10  23  42  71 102 151 201 256 315 377 460
#     4  10  27  45  77 101 151 192 251 301 384 441
#     4  11  25  41  73 107 153 196 261 312 384 445
#     4  10  23  46  67 105 150 202 256 312 387 446
#     4  10  25  43  79 102 147 191 253 304 369 444
#     4  11  25  44  72 111 146 200 254 321 375 463
#     4  10  25  48  74 105 140 200 240 303 366 451
#     4  12  28  48  75 113 153 191 245 313 372 453
#
# _framework density 25.856439000000002
#
# number of rings (size 3 to 8) (size 9 to 14) (size 15 to 20)
#    0.750    0.750    0.000    2.625    7.000    4.000 
#    2.250    0.000    0.000    0.000    0.000    0.875 
#    0.000    0.000    0.000    0.000    0.000    0.000 
#
# Total GULP energy -198249.645147 kJ/mol
# GULP energy per Si atom -12390.602822 kJ/mol
# Density = 2.579759 g / cm^3
# Si number density = 25.856439 Si / 1000 Ang^3
#
#
#
# Elastic Constant Matrix: (Units=GPa)
#
#
# Indices 1 2 3 4 5 6 
#
# 1 115.0876 56.7568 55.9376 -12.9293 23.5616 -5.6969
# 2 56.7568 155.2187 53.7451 -22.6612 7.2942 10.3378
# 3 55.9376 53.7451 119.7601 -5.4823 25.9430 -1.8821
# 4 -12.9293 -22.6612 -5.4823 38.9988 -3.4990 0.6227
# 5 23.5616 7.2942 25.9430 -3.4990 39.4468 -6.0669
# 6 -5.6969 10.3378 -1.8821 0.6227 -6.0669 41.8989
#
#
#
# Elastic Compliance Matrix: (Units=1/GPa)
#
#
# Indices 1 2 3 4 5 6 
#
# 1 0.013258 -0.003262 -0.003654 0.001554 -0.004503 0.001768
# 2 -0.003262 0.009354 -0.002991 0.004168 0.002150 -0.002636
# 3 -0.003654 -0.002991 0.012549 -0.001694 -0.005666 0.000009
# 4 0.001554 0.004168 -0.001694 0.028518 0.001782 -0.001059
# 5 -0.004503 0.002150 -0.005666 0.001782 0.032021 0.003213
# 6 0.001768 -0.002636 0.000009 -0.001059 0.003213 0.025239
#
#
# Mechanical properties :
#
#
# Convention : Reuss Voigt Hill
#
# Bulk Modulus (GPa) = 65.15791 80.32729 72.74260
# Shear Modulus (GPa) = 34.27761 38.97736 36.62748
#
# Velocity S-wave (km/s) = 3.64495 3.88680 3.76782
# Velocity P-wave (km/s) = 6.55506 7.16080 6.86462
#
# Compressibility (1/GPa) = 0.01534733
#
# Stress axis : x y z
#
# Youngs Moduli (GPa) = 75.42804 106.90811 79.68749
#
# Poissons Ratio (x) = 0.34870 0.29120
# Poissons Ratio (y) = 0.24602 0.23831
# Poissons Ratio (z) = 0.27564 0.31971
#
# Static dielectric constant tensor:
#      x y z
#    x 4.728500 -0.074660 0.175970 
#    y -0.074660 4.529470 -0.203750 
#    z 0.175970 -0.203750 4.635320 
# 
# 
# High freq. dielectric constant tensor:
#      x y z
#    x 2.036440 0.004980 0.004760 
#    y 0.004980 2.021410 -0.008580 
#    z 0.004760 -0.008580 2.036010 
# 
# From -- ./inp_files/116844.got.cif
#   From: 2010.06.25/outbox.cif.g09.slc.cpg/sg2_59_cif.got.tgz:116844.got - 2010.06.27 13:26:56.
