data_PCOD8024030
_publ_section_title
;
Structure prediction by ZEFSAII (Michael W. Deem and Ramdas Pophale) SiO2 
 PCOD8024030
Probable space group: P -1
;
_chemical_formula_sum "Si O2"
_cell_formula_units_Z 16
_cell_length_a 18.370796
_cell_length_b 9.352465
_cell_length_c 14.022148
_cell_angle_alpha 129.944431
_cell_angle_beta 157.333265
_cell_angle_gamma 51.878692
_cell_volume 709.266301
_symmetry_space_group_name_H-M "P -1"
_symmetry_group_IT_number 2
_symmetry_cell_setting 'triclinic'
loop_
_space_group_symop_operation_xyz
x,y,z
-x,-y,-z
loop_
_atom_site_type_symbol
_atom_site_label
_atom_site_fract_x
_atom_site_fract_y
_atom_site_fract_z
Si Si1 0.656333 0.520080 0.929280
Si Si2 0.205549 0.204268 0.632163
Si Si3 0.925571 0.749646 0.997320
Si Si4 0.369085 0.343692 0.240933
Si Si5 0.473310 0.930302 0.160812
Si Si6 0.806969 0.169443 0.059986
Si Si7 0.185368 0.905569 0.635467
Si Si8 0.791195 0.424995 0.601650
O O1 0.736919 0.602265 0.964505
O O2 0.732523 0.302977 0.940785
O O3 0.432846 0.537779 0.650436
O O4 0.719622 0.627397 0.144966
O O5 0.321037 0.176866 0.659722
O O6 0.235049 0.012631 0.645287
O O7 0.983398 0.252032 0.362107
O O8 0.797232 0.678275 0.896088
O O9 0.882750 0.626575 0.799268
O O10 0.878045 0.968760 0.014142
O O11 0.138605 0.697234 0.271406
O O12 0.500000 0.500000 0.500000
O O13 0.496190 0.146965 0.302323
O O14 0.367803 0.837870 0.081075
O O15 0.359256 0.907885 0.916595
O O16 0.150360 0.692695 0.473369
O O17 0.000000 0.000000 0.500000
#
# Coordination Sequence:
#
# PCOD8024030 Si02
#       8
#     2   2   2   2   2   2   2   2
#     4  12  25  42  66 100 136 172 220 278 340 392
#     4  12  23  41  69  95 135 178 224 275 331 399
#     4  10  23  42  69  93 131 176 224 275 328 394
#     4  11  22  40  66  98 127 173 228 276 322 396
#     4  11  23  41  67  95 132 178 225 278 329 394
#     4  11  26  45  64 100 143 176 215 278 345 396
#     4  12  20  38  68 100 130 166 228 282 320 388
#     4  11  22  40  67  98 123 176 226 268 325 398
#
# _framework density 22.558523000000001
#
# number of rings (size 3 to 8) (size 9 to 14) (size 15 to 20)
#    0.000    0.750    6.250    2.250    0.000    1.000 
#    2.250    0.000    0.000    3.750    0.000    0.000 
#    0.000    0.000    0.000    0.000    0.000    0.000 
#
# Total GULP energy -198374.938816 kJ/mol
# GULP energy per Si atom -12398.433676 kJ/mol
# Density = 2.250718 g / cm^3
# Si number density = 22.558523 Si / 1000 Ang^3
#
#
#
# Elastic Constant Matrix: (Units=GPa)
#
#
# Indices 1 2 3 4 5 6 
#
# 1 42.2999 24.1927 14.9844 -4.4256 1.7556 -10.2639
# 2 24.1927 127.7303 53.4145 -3.9279 0.8410 -15.6985
# 3 14.9844 53.4145 97.0521 20.8355 -2.1635 -10.4151
# 4 -4.4256 -3.9279 20.8355 28.8409 -5.2556 -13.6179
# 5 1.7556 0.8410 -2.1635 -5.2556 21.7800 8.5793
# 6 -10.2639 -15.6985 -10.4151 -13.6179 8.5793 35.1546
#
#
#
# Elastic Compliance Matrix: (Units=1/GPa)
#
#
# Indices 1 2 3 4 5 6 
#
# 1 0.031528 -0.001366 -0.005858 0.014429 -0.004970 0.013662
# 2 -0.001366 0.012880 -0.008450 0.010883 -0.001531 0.007439
# 3 -0.005858 -0.008450 0.019218 -0.019296 0.001010 -0.007512
# 4 0.014429 0.010883 -0.019296 0.066052 0.001148 0.028662
# 5 -0.004970 -0.001531 0.001010 0.001148 0.052329 -0.014161
# 6 0.013662 0.007439 -0.007512 0.028662 -0.014161 0.048090
#
#
# Mechanical properties :
#
#
# Convention : Reuss Voigt Hill
#
# Bulk Modulus (GPa) = 30.98161 50.25174 40.61667
# Shear Modulus (GPa) = 18.36838 28.78781 23.57810
#
# Velocity S-wave (km/s) = 2.85661 3.57618 3.23646
# Velocity P-wave (km/s) = 4.96427 6.27508 5.65777
#
# Compressibility (1/GPa) = 0.03227721
#
# Stress axis : x y z
#
# Youngs Moduli (GPa) = 31.71752 77.63676 52.03458
#
# Poissons Ratio (x) = 0.10607 0.30483
# Poissons Ratio (y) = 0.04333 0.43971
# Poissons Ratio (z) = 0.18581 0.65605
#
# Static dielectric constant tensor:
#      x y z
#    x 3.989360 0.032040 -0.505140 
#    y 0.032040 3.793850 0.999240 
#    z -0.505140 0.999240 2.869720 
# 
# 
# High freq. dielectric constant tensor:
#      x y z
#    x 1.870910 -0.027930 0.007650 
#    y -0.027930 1.885630 0.014490 
#    z 0.007650 0.014490 1.899250 
# 
# From -- ./inp_files/540574.got.cif
#   From: 2010.06.25/outbox.cif.g09.slc.cpg/sg2_271_cif.got.tgz:540574.got - 2010.06.27 13:26:56.
