data_PCOD8024165
_publ_section_title
;
Structure prediction by ZEFSAII (Michael W. Deem and Ramdas Pophale) SiO2 
 PCOD8024165
Probable space group: P -1
;
_chemical_formula_sum "Si O2"
_cell_formula_units_Z 16
_cell_length_a 8.937138
_cell_length_b 19.569460
_cell_length_c 7.875858
_cell_angle_alpha 76.650113
_cell_angle_beta 106.398166
_cell_angle_gamma 149.824094
_cell_volume 663.971747
_symmetry_space_group_name_H-M "P -1"
_symmetry_group_IT_number 2
_symmetry_cell_setting 'triclinic'
loop_
_space_group_symop_operation_xyz
x,y,z
-x,-y,-z
loop_
_atom_site_type_symbol
_atom_site_label
_atom_site_fract_x
_atom_site_fract_y
_atom_site_fract_z
Si Si1 0.764862 0.016196 0.616948
Si Si2 0.765940 0.697348 0.524155
Si Si3 0.190397 0.678569 0.152075
Si Si4 0.800770 0.643204 0.930720
Si Si5 0.882856 0.970383 0.163329
Si Si6 0.804081 0.086999 0.971459
Si Si7 0.111533 0.506426 0.363187
Si Si8 0.872535 0.279143 0.525369
O O1 0.755784 0.041129 0.791769
O O2 0.958061 0.141168 0.486486
O O3 0.427670 0.881615 0.513416
O O4 0.909208 0.993611 0.661222
O O5 0.736773 0.655755 0.726538
O O6 0.460319 0.617711 0.418466
O O7 0.839813 0.661153 0.441831
O O8 0.074483 0.552552 0.180537
O O9 0.113532 0.686211 0.301125
O O10 0.543545 0.812424 0.158298
O O11 0.023193 0.661461 0.966200
O O12 0.500000 0.500000 0.000000
O O13 0.944880 0.755909 0.040033
O O14 0.904679 0.062548 0.144632
O O15 0.000000 0.000000 0.000000
O O16 0.500000 0.000000 0.000000
O O17 0.000000 0.500000 0.500000
O O18 0.903946 0.356948 0.357488
#
# Coordination Sequence:
#
# PCOD8024165 Si02
#       8
#     2   2   2   2   2   2   2   2
#     4  11  25  45  70 109 137 181 238 290 346 414
#     4  12  25  44  71 105 141 179 236 290 349 413
#     4  11  23  47  72  99 143 185 229 288 352 415
#     4  12  27  45  71 104 140 182 234 285 350 418
#     4  10  23  42  71  99 143 183 232 282 354 409
#     4  11  23  44  73  98 142 185 229 286 352 409
#     4  10  23  46  70  99 139 186 225 285 350 415
#     4  11  25  42  73 107 137 176 237 293 346 412
#
# _framework density 24.097411000000001
#
# number of rings (size 3 to 8) (size 9 to 14) (size 15 to 20)
#    0.000    1.000    2.500    3.750    3.500    4.500 
#    0.000    0.625    0.000    0.000    0.000    0.000 
#    0.000    0.000    0.000    0.000    0.000    0.000 
#
# Total GULP energy -198351.331551 kJ/mol
# GULP energy per Si atom -12396.958222 kJ/mol
# Density = 2.404256 g / cm^3
# Si number density = 24.097411 Si / 1000 Ang^3
#
#
#
# Elastic Constant Matrix: (Units=GPa)
#
#
# Indices 1 2 3 4 5 6 
#
# 1 148.0669 36.5814 32.4172 -19.9671 12.6174 5.4007
# 2 36.5814 134.1241 19.1207 -30.0758 -7.3781 -9.4529
# 3 32.4172 19.1207 70.4566 -18.7162 8.3388 -6.2437
# 4 -19.9671 -30.0758 -18.7162 37.7317 -6.2515 10.1099
# 5 12.6174 -7.3781 8.3388 -6.2515 39.9195 -12.6202
# 6 5.4007 -9.4529 -6.2437 10.1099 -12.6202 46.2948
#
#
#
# Elastic Compliance Matrix: (Units=1/GPa)
#
#
# Indices 1 2 3 4 5 6 
#
# 1 0.008451 -0.001864 -0.002778 0.001900 -0.003085 -0.002997
# 2 -0.001864 0.009929 -0.000316 0.006975 0.004155 0.001812
# 3 -0.002778 -0.000316 0.017542 0.006511 -0.001581 0.000773
# 4 0.001900 0.006975 0.006511 0.038322 0.003657 -0.005291
# 5 -0.003085 0.004155 -0.001581 0.003657 0.030376 0.008477
# 6 -0.002997 0.001812 0.000773 -0.005291 0.008477 0.025891
#
#
# Mechanical properties :
#
#
# Convention : Reuss Voigt Hill
#
# Bulk Modulus (GPa) = 38.45023 58.76512 48.60767
# Shear Modulus (GPa) = 33.53562 42.42442 37.98002
#
# Velocity S-wave (km/s) = 3.73455 4.20043 3.97432
# Velocity P-wave (km/s) = 5.88104 6.92562 6.42460
#
# Compressibility (1/GPa) = 0.02600765
#
# Stress axis : x y z
#
# Youngs Moduli (GPa) = 118.33111 100.71110 57.00566
#
# Poissons Ratio (x) = 0.18769 0.15837
# Poissons Ratio (y) = 0.22053 0.01799
# Poissons Ratio (z) = 0.32874 0.03178
#
# Static dielectric constant tensor:
#      x y z
#    x 54.342550 -26.096920 -0.548850 
#    y -26.096920 18.074190 0.075970 
#    z -0.548850 0.075970 4.452680 
# 
# 
# High freq. dielectric constant tensor:
#      x y z
#    x 1.986550 -0.002080 0.014800 
#    y -0.002080 1.960270 -0.033610 
#    z 0.014800 -0.033610 1.941650 
# 
# From -- ./inp_files/222107.got.cif
#   From: 2010.06.25/outbox.cif.g09.slc.cpg/sg2_112_cif.got.tgz:222107.got - 2010.06.27 13:26:56.
