data_PCOD8024305
_publ_section_title
;
Structure prediction by ZEFSAII (Michael W. Deem and Ramdas Pophale) SiO2 
 PCOD8024305
Probable space group: P -1
;
_chemical_formula_sum "Si O2"
_cell_formula_units_Z 14
_cell_length_a 9.817068
_cell_length_b 13.497601
_cell_length_c 10.904582
_cell_angle_alpha 146.776935
_cell_angle_beta 121.024516
_cell_angle_gamma 52.430341
_cell_volume 627.446718
_symmetry_space_group_name_H-M "P -1"
_symmetry_group_IT_number 2
_symmetry_cell_setting 'triclinic'
loop_
_space_group_symop_operation_xyz
x,y,z
-x,-y,-z
loop_
_atom_site_type_symbol
_atom_site_label
_atom_site_fract_x
_atom_site_fract_y
_atom_site_fract_z
Si Si1 0.975810 0.145758 0.026309
Si Si2 0.641620 0.405292 0.870326
Si Si3 0.838532 0.646815 0.147105
Si Si4 0.549735 0.853574 0.034034
Si Si5 0.914980 0.002719 0.597468
Si Si6 0.365294 0.593996 0.751605
Si Si7 0.293264 0.249240 0.258162
O O1 0.014260 0.038543 0.799637
O O2 0.778253 0.301169 0.102025
O O3 0.106072 0.256288 0.215682
O O4 0.000000 0.000000 0.000000
O O5 0.727455 0.173134 0.682143
O O6 0.548833 0.454776 0.747242
O O7 0.500000 0.500000 0.000000
O O8 0.781132 0.505067 0.058774
O O9 0.898511 0.796716 0.405197
O O10 0.675746 0.780200 0.130517
O O11 0.000000 0.500000 0.000000
O O12 0.407374 0.754042 0.856192
O O13 0.671481 0.806743 0.924794
O O14 0.440975 0.085832 0.237690
O O15 0.000000 0.000000 0.500000
O O16 0.294442 0.463985 0.499634
#
# Coordination Sequence:
#
# PCOD8024305 Si02
#       7
#     2   2   2   2   2   2   2
#     4  12  26  45  67 103 142 178 228 282 345 412
#     4  11  24  44  70 101 134 176 233 290 342 405
#     4  11  24  43  69 101 134 177 232 287 343 404
#     4  10  23  43  65 101 134 171 239 278 338 412
#     4  12  25  47  73 100 140 183 233 288 338 410
#     4  11  23  44  66  97 138 175 229 288 343 400
#     4  11  23  42  70  93 135 189 221 275 345 415
#
# _framework density 22.312650000000001
#
# number of rings (size 3 to 8) (size 9 to 14) (size 15 to 20)
#    0.000    0.857    4.286    2.571    0.000    4.000 
#    0.000    0.000    0.000    0.000    0.000    0.000 
#    0.000    0.000    0.000    0.000    0.000    0.000 
#
# Total GULP energy -173566.691219 kJ/mol
# GULP energy per Si atom -12397.620801 kJ/mol
# Density = 2.226187 g / cm^3
# Si number density = 22.312650 Si / 1000 Ang^3
#
#
#
# Elastic Constant Matrix: (Units=GPa)
#
#
# Indices 1 2 3 4 5 6 
#
# 1 135.5308 5.3682 33.1290 6.9893 4.4090 -9.1994
# 2 5.3682 50.7251 20.9218 -0.5451 -8.1104 -1.1063
# 3 33.1290 20.9218 111.9565 13.6221 7.9918 -5.8473
# 4 6.9893 -0.5451 13.6221 34.3343 -2.2591 -3.2367
# 5 4.4090 -8.1104 7.9918 -2.2591 42.3909 1.5713
# 6 -9.1994 -1.1063 -5.8473 -3.2367 1.5713 30.2326
#
#
#
# Elastic Compliance Matrix: (Units=1/GPa)
#
#
# Indices 1 2 3 4 5 6 
#
# 1 0.008096 -0.000010 -0.002174 -0.000633 -0.000542 0.002003
# 2 -0.000010 0.022647 -0.004947 0.002668 0.005413 -0.000127
# 3 -0.002174 -0.004947 0.011290 -0.004221 -0.003113 0.001051
# 4 -0.000633 0.002668 -0.004221 0.031382 0.002960 0.002295
# 5 -0.000542 0.005413 -0.003113 0.002960 0.025485 -0.001577
# 6 0.002003 -0.000127 0.001051 0.002295 -0.001577 0.034213
#
#
# Mechanical properties :
#
#
# Convention : Reuss Voigt Hill
#
# Bulk Modulus (GPa) = 36.00676 46.33893 41.17284
# Shear Modulus (GPa) = 31.92182 37.31111 34.61646
#
# Velocity S-wave (km/s) = 3.78651 4.09368 3.94309
# Velocity P-wave (km/s) = 5.94048 6.56943 6.26286
#
# Compressibility (1/GPa) = 0.02777256
#
# Stress axis : x y z
#
# Youngs Moduli (GPa) = 123.51247 44.15594 88.57104
#
# Poissons Ratio (x) = 0.00045 0.19251
# Poissons Ratio (y) = 0.00125 0.43815
# Poissons Ratio (z) = 0.26846 0.21843
#
# Static dielectric constant tensor:
#      x y z
#    x 4.127950 0.181220 0.314020 
#    y 0.181220 3.466900 -0.194920 
#    z 0.314020 -0.194920 3.791780 
# 
# 
# High freq. dielectric constant tensor:
#      x y z
#    x 1.891430 -0.007320 0.008030 
#    y -0.007320 1.879840 0.015440 
#    z 0.008030 0.015440 1.874250 
# 
# From -- ./inp_files/185467.got.cif
#   From: 2010.06.25/outbox.cif.g09.slc.cpg/sg2_93_cif.got.tgz:185467.got - 2010.06.27 13:26:56.
