data_PCOD8024806
_publ_section_title
;
Structure prediction by ZEFSAII (Michael W. Deem and Ramdas Pophale) SiO2 
 PCOD8024806
Probable space group: P -1
;
_chemical_formula_sum "Si O2"
_cell_formula_units_Z 14
_cell_length_a 8.808022
_cell_length_b 5.579467
_cell_length_c 14.945605
_cell_angle_alpha 83.009921
_cell_angle_beta 96.495515
_cell_angle_gamma 125.621798
_cell_volume 591.799317
_symmetry_space_group_name_H-M "P -1"
_symmetry_group_IT_number 2
_symmetry_cell_setting 'triclinic'
loop_
_space_group_symop_operation_xyz
x,y,z
-x,-y,-z
loop_
_atom_site_type_symbol
_atom_site_label
_atom_site_fract_x
_atom_site_fract_y
_atom_site_fract_z
Si Si1 0.123125 0.676256 0.371780
Si Si2 0.069086 0.107557 0.756345
Si Si3 0.263709 0.831387 0.566775
Si Si4 0.684153 0.236120 0.947929
Si Si5 0.017722 0.249053 0.932430
Si Si6 0.273805 0.500735 0.239883
Si Si7 0.401486 0.419852 0.647756
O O1 0.256334 0.826720 0.459306
O O2 0.252348 0.703950 0.297544
O O3 0.945753 0.338151 0.397741
O O4 0.035072 0.851829 0.333317
O O5 0.937336 0.764138 0.789274
O O6 0.103049 0.298591 0.837395
O O7 0.269100 0.208056 0.729277
O O8 0.360449 0.660613 0.606415
O O9 0.376844 0.181766 0.582943
O O10 0.801166 0.132876 0.911061
O O11 0.626263 0.355739 0.855687
O O12 0.833673 0.449221 0.022180
O O13 0.500000 0.000000 0.000000
O O14 0.000000 0.000000 0.000000
O O15 0.390029 0.399829 0.304944
#
# Coordination Sequence:
#
# PCOD8024806 Si02
#       7
#     2   2   2   2   2   2   2
#     4  10  23  43  73  95 143 180 235 285 353 417
#     4  11  24  45  68 100 137 184 234 290 348 425
#     4  10  24  46  69 106 139 190 231 292 353 421
#     4  11  27  44  69 104 139 179 236 295 354 423
#     4  11  24  45  70  96 137 184 227 290 359 418
#     4  12  25  43  69 103 135 184 232 290 352 425
#     4  11  27  43  72 103 145 184 236 291 353 416
#
# _framework density 23.656669000000001
#
# number of rings (size 3 to 8) (size 9 to 14) (size 15 to 20)
#    0.000    1.143    4.286    0.000    6.000    6.857 
#    0.000    0.000    0.000    0.000    0.000    0.000 
#    0.000    0.000    0.000    0.000    0.000    0.000 
#
# Total GULP energy -173460.384330 kJ/mol
# GULP energy per Si atom -12390.027452 kJ/mol
# Density = 2.360283 g / cm^3
# Si number density = 23.656669 Si / 1000 Ang^3
#
#
#
# Elastic Constant Matrix: (Units=GPa)
#
#
# Indices 1 2 3 4 5 6 
#
# 1 80.9856 13.9325 22.6206 15.7995 4.5663 0.0230
# 2 13.9325 58.9758 14.1219 6.0232 -6.1866 -0.3486
# 3 22.6206 14.1219 133.5104 8.0153 -3.4873 4.6215
# 4 15.7995 6.0232 8.0153 30.1676 1.3585 -1.3346
# 5 4.5663 -6.1866 -3.4873 1.3585 40.7081 -5.8557
# 6 0.0230 -0.3486 4.6215 -1.3346 -5.8557 37.9806
#
#
#
# Elastic Compliance Matrix: (Units=1/GPa)
#
#
# Indices 1 2 3 4 5 6 
#
# 1 0.014718 -0.002569 -0.001865 -0.006624 -0.002031 -0.000351
# 2 -0.002569 0.018430 -0.001332 -0.002089 0.003152 0.000745
# 3 -0.001865 -0.001332 0.008053 -0.000965 0.000595 -0.000933
# 4 -0.006624 -0.002089 -0.000965 0.037381 -0.000717 0.001305
# 5 -0.002031 0.003152 0.000595 -0.000717 0.025912 0.003928
# 6 -0.000351 0.000745 -0.000933 0.001305 0.003928 0.027101
#
#
# Mechanical properties :
#
#
# Convention : Reuss Voigt Hill
#
# Bulk Modulus (GPa) = 33.70611 41.64687 37.67649
# Shear Modulus (GPa) = 32.67628 36.62438 34.65033
#
# Velocity S-wave (km/s) = 3.72058 3.93894 3.83131
# Velocity P-wave (km/s) = 5.72153 6.19112 5.96095
#
# Compressibility (1/GPa) = 0.02966821
#
# Stress axis : x y z
#
# Youngs Moduli (GPa) = 67.94599 54.25815 124.18150
#
# Poissons Ratio (x) = 0.13938 0.23161
# Poissons Ratio (y) = 0.17455 0.16544
# Poissons Ratio (z) = 0.12673 0.07229
#
# Static dielectric constant tensor:
#      x y z
#    x 4.340790 0.064940 -0.199670 
#    y 0.064940 4.053600 -0.075710 
#    z -0.199670 -0.075710 4.211950 
# 
# 
# High freq. dielectric constant tensor:
#      x y z
#    x 1.939310 0.007350 -0.001920 
#    y 0.007350 1.924220 0.000720 
#    z -0.001920 0.000720 1.954730 
# 
# From -- ./inp_files/106056.got.cif
#   From: 2010.06.25/outbox.cif.g09.slc.cpg/sg2_54_cif.got.tgz:106056.got - 2010.06.27 13:26:56.
