data_PCOD8024920
_publ_section_title
;
Structure prediction by ZEFSAII (Michael W. Deem and Ramdas Pophale) SiO2 
 PCOD8024920
Probable space group: P -1
;
_chemical_formula_sum "Si O2"
_cell_formula_units_Z 12
_cell_length_a 13.942634
_cell_length_b 9.969233
_cell_length_c 11.171172
_cell_angle_alpha 75.244085
_cell_angle_beta 150.421918
_cell_angle_gamma 124.187201
_cell_volume 519.606160
_symmetry_space_group_name_H-M "P -1"
_symmetry_group_IT_number 2
_symmetry_cell_setting 'triclinic'
loop_
_space_group_symop_operation_xyz
x,y,z
-x,-y,-z
loop_
_atom_site_type_symbol
_atom_site_label
_atom_site_fract_x
_atom_site_fract_y
_atom_site_fract_z
Si Si1 0.997757 0.603928 0.084107
Si Si2 0.011438 0.836804 0.867418
Si Si3 0.396018 0.292754 0.910802
Si Si4 0.471945 0.555073 0.227402
Si Si5 0.403520 0.839776 0.679882
Si Si6 0.998874 0.872820 0.288499
O O1 0.246478 0.701087 0.424128
O O2 0.044228 0.785515 0.045515
O O3 0.702692 0.442787 0.867464
O O4 0.000000 0.500000 0.000000
O O5 0.745912 0.625480 0.566839
O O6 0.931575 0.959345 0.757338
O O7 0.288578 0.953576 0.065393
O O8 0.417925 0.282422 0.793546
O O9 0.082819 0.122243 0.664973
O O10 0.500000 0.500000 0.000000
O O11 0.593897 0.280253 0.191542
O O12 0.282386 0.334894 0.023482
O O13 0.248358 0.892117 0.556785
#
# Coordination Sequence:
#
# PCOD8024920 Si02
#       6
#     2   2   2   2   2   2
#     4  11  26  42  67  97 133 173 220 262 322 391
#     4  11  24  43  67  95 134 171 215 266 325 382
#     4   9  20  41  70  95 131 166 216 269 324 381
#     4  10  23  44  66  97 129 174 213 267 323 381
#     4  10  23  44  66 101 127 172 217 267 325 381
#     4   9  22  42  68  95 130 169 214 267 325 379
#
# _framework density 23.094414
#
# number of rings (size 3 to 8) (size 9 to 14) (size 15 to 20)
#    0.000    2.000    0.000    1.000    9.333   11.333 
#    0.000    1.667    0.000    0.000    0.000    0.000 
#    0.000    0.000    0.000    0.000    0.000    0.000 
#
# Total GULP energy -148750.228235 kJ/mol
# GULP energy per Si atom -12395.852353 kJ/mol
# Density = 2.304185 g / cm^3
# Si number density = 23.094414 Si / 1000 Ang^3
#
#
#
# Elastic Constant Matrix: (Units=GPa)
#
#
# Indices 1 2 3 4 5 6 
#
# 1 140.7263 38.4713 31.9995 -11.5045 22.8381 15.0235
# 2 38.4713 119.0251 25.4667 -28.5149 17.3710 10.1107
# 3 31.9995 25.4667 123.8963 -7.5941 29.8606 13.9174
# 4 -11.5045 -28.5149 -7.5941 47.2187 5.0012 5.2057
# 5 22.8381 17.3710 29.8606 5.0012 32.1661 -11.2110
# 6 15.0235 10.1107 13.9174 5.2057 -11.2110 29.6856
#
#
#
# Elastic Compliance Matrix: (Units=1/GPa)
#
#
# Indices 1 2 3 4 5 6 
#
# 1 0.011660 0.002099 0.004217 0.009013 -0.021043 -0.018120
# 2 0.002099 0.015902 0.005731 0.016110 -0.025429 -0.021594
# 3 0.004217 0.005731 0.018432 0.014358 -0.035407 -0.028617
# 4 0.009013 0.016110 0.014358 0.045648 -0.050858 -0.043992
# 5 -0.021043 -0.025429 -0.035407 -0.050858 0.133771 0.095349
# 6 -0.018120 -0.021594 -0.028617 -0.043992 0.095349 0.107352
#
#
# Mechanical properties :
#
#
# Convention : Reuss Voigt Hill
#
# Bulk Modulus (GPa) = 14.26787 63.94697 39.10742
# Shear Modulus (GPa) = 15.05870 40.99475 28.02673
#
# Velocity S-wave (km/s) = 2.55630 4.21776 3.48741
# Velocity P-wave (km/s) = 3.86061 7.17417 5.76078
#
# Compressibility (1/GPa) = 0.07008757
#
# Stress axis : x y z
#
# Youngs Moduli (GPa) = 85.76513 62.88486 54.25294
#
# Poissons Ratio (x) = -0.13198 -0.22877
# Poissons Ratio (y) = -0.18000 -0.31094
# Poissons Ratio (z) = -0.36166 -0.36041
#
# Static dielectric constant tensor:
#      x y z
#    x 4.554290 0.543290 0.133350 
#    y 0.543290 4.410420 -0.053640 
#    z 0.133350 -0.053640 4.148920 
# 
# 
# High freq. dielectric constant tensor:
#      x y z
#    x 1.907460 0.016610 0.008750 
#    y 0.016610 1.921510 -0.001470 
#    z 0.008750 -0.001470 1.914150 
# 
# From -- ./inp_files/450042.got.cif
#   From: 2010.06.25/outbox.cif.g09.slc.cpg/sg2_226_cif.got.tgz:450042.got - 2010.06.27 13:26:56.
