data_PCOD8024582
_publ_section_title
;
Structure prediction by ZEFSAII (Michael W. Deem and Ramdas Pophale) SiO2 
 PCOD8024582
Probable space group: P -1
;
_chemical_formula_sum "Si O2"
_cell_formula_units_Z 16
_cell_length_a 10.135862
_cell_length_b 9.595380
_cell_length_c 11.857435
_cell_angle_alpha 113.954554
_cell_angle_beta 48.670862
_cell_angle_gamma 127.389259
_cell_volume 688.028297
_symmetry_space_group_name_H-M "P -1"
_symmetry_group_IT_number 2
_symmetry_cell_setting 'triclinic'
loop_
_space_group_symop_operation_xyz
x,y,z
-x,-y,-z
loop_
_atom_site_type_symbol
_atom_site_label
_atom_site_fract_x
_atom_site_fract_y
_atom_site_fract_z
Si Si1 0.047996 0.895199 0.345121
Si Si2 0.036570 0.921334 0.738564
Si Si3 0.559626 0.921900 0.337451
Si Si4 0.581782 0.678300 0.945349
Si Si5 0.494902 0.981830 0.156251
Si Si6 0.089716 0.485847 0.757339
Si Si7 0.837848 0.345385 0.467184
Si Si8 0.700029 0.353257 0.082933
O O1 0.280900 0.958527 0.240247
O O2 0.918816 0.683853 0.353325
O O3 0.996990 0.942595 0.268988
O O4 0.000000 0.000000 0.500000
O O5 0.821362 0.777649 0.862404
O O6 0.119817 0.814919 0.584407
O O7 0.209088 0.040919 0.772910
O O8 0.546189 0.026549 0.272422
O O9 0.386335 0.713908 0.373451
O O10 0.500000 0.000000 0.500000
O O11 0.495859 0.637427 0.851327
O O12 0.500000 0.500000 0.000000
O O13 0.497066 0.801968 0.079113
O O14 0.653762 0.150390 0.049108
O O15 0.145330 0.621012 0.666297
O O16 0.256096 0.562353 0.788850
O O17 0.881798 0.450099 0.922607
O O18 0.000000 0.500000 0.500000
#
# Coordination Sequence:
#
# PCOD8024582 Si02
#       8
#     2   2   2   2   2   2   2   2
#     4  12  24  44  70 106 145 193 244 290 364 453
#     4  11  24  43  66 102 140 182 248 294 363 438
#     4  10  23  43  69 101 140 188 238 296 362 438
#     4  12  26  43  72 107 146 187 254 311 368 444
#     4  12  24  47  74 100 146 198 241 301 378 440
#     4  11  24  43  73 108 145 193 244 301 373 430
#     4  11  23  45  74 101 144 195 243 300 364 436
#     4  11  23  45  73 105 147 191 240 308 370 440
#
# _framework density 23.254857999999999
#
# number of rings (size 3 to 8) (size 9 to 14) (size 15 to 20)
#    0.000    0.750    2.500    6.375    1.750    2.500 
#    0.000    1.250    0.000    0.000    0.000    0.000 
#    0.000    0.000    0.000    0.000    0.000    0.000 
#
# Total GULP energy -198262.831482 kJ/mol
# GULP energy per Si atom -12391.426968 kJ/mol
# Density = 2.320193 g / cm^3
# Si number density = 23.254858 Si / 1000 Ang^3
#
#
#
# Elastic Constant Matrix: (Units=GPa)
#
#
# Indices 1 2 3 4 5 6 
#
# 1 185.9791 62.4994 50.5468 -25.5623 4.7846 15.9207
# 2 62.4994 90.9909 19.8514 -12.9520 -12.3545 10.2015
# 3 50.5468 19.8514 70.0145 -16.5408 -3.2269 4.3361
# 4 -25.5623 -12.9520 -16.5408 51.3595 2.9573 0.6864
# 5 4.7846 -12.3545 -3.2269 2.9573 38.5663 -7.6978
# 6 15.9207 10.2015 4.3361 0.6864 -7.6978 47.4510
#
#
#
# Elastic Compliance Matrix: (Units=1/GPa)
#
#
# Indices 1 2 3 4 5 6 
#
# 1 0.008854 -0.005085 -0.004541 0.001901 -0.003669 -0.002085
# 2 -0.005085 0.015478 -0.000185 0.001015 0.005346 -0.000752
# 3 -0.004541 -0.000185 0.018530 0.003555 0.001804 0.000111
# 4 0.001901 0.001015 0.003555 0.021936 -0.001648 -0.001766
# 5 -0.003669 0.005346 0.001804 -0.001648 0.029312 0.004696
# 6 -0.002085 -0.000752 0.000111 -0.001766 0.004696 0.022713
#
#
# Mechanical properties :
#
#
# Convention : Reuss Voigt Hill
#
# Bulk Modulus (GPa) = 43.02898 68.08664 55.55781
# Shear Modulus (GPa) = 34.67614 41.74782 38.21198
#
# Velocity S-wave (km/s) = 3.86571 4.24161 4.05802
# Velocity P-wave (km/s) = 6.20229 7.30277 6.77491
#
# Compressibility (1/GPa) = 0.02324015
#
# Stress axis : x y z
#
# Youngs Moduli (GPa) = 112.94025 64.60926 53.96641
#
# Poissons Ratio (x) = 0.32852 0.24509
# Poissons Ratio (y) = 0.57427 0.00997
# Poissons Ratio (z) = 0.51291 0.01193
#
# Static dielectric constant tensor:
#      x y z
#    x 5.328450 1.797710 -1.062900 
#    y 1.797710 -15.247250 13.660130 
#    z -1.062900 13.660130 -5.630580 
# 
# 
# High freq. dielectric constant tensor:
#      x y z
#    x 1.942550 0.013160 0.010990 
#    y 0.013160 1.928870 -0.015190 
#    z 0.010990 -0.015190 1.899700 
# 
# From -- ./inp_files/382545.got.cif
#   From: 2010.06.25/outbox.cif.g09.slc.cpg/sg2_192_cif.got.tgz:382545.got - 2010.06.27 13:26:56.
