data_PCOD8024333
_publ_section_title
;
Structure prediction by ZEFSAII (Michael W. Deem and Ramdas Pophale) SiO2 
 PCOD8024333
Probable space group: P -1
;
_chemical_formula_sum "Si O2"
_cell_formula_units_Z 14
_cell_length_a 30.249126
_cell_length_b 9.313966
_cell_length_c 6.929679
_cell_angle_alpha 62.684211
_cell_angle_beta 50.037682
_cell_angle_gamma 28.428359
_cell_volume 681.700182
_symmetry_space_group_name_H-M "P -1"
_symmetry_group_IT_number 2
_symmetry_cell_setting 'triclinic'
loop_
_space_group_symop_operation_xyz
x,y,z
-x,-y,-z
loop_
_atom_site_type_symbol
_atom_site_label
_atom_site_fract_x
_atom_site_fract_y
_atom_site_fract_z
Si Si1 0.794489 0.759664 0.815322
Si Si2 0.429265 0.533162 0.074698
Si Si3 0.684484 0.371330 0.330573
Si Si4 0.892582 0.644717 0.235964
Si Si5 0.491068 0.176572 0.782389
Si Si6 0.712495 0.640871 0.254547
Si Si7 0.104942 0.636670 0.883528
O O1 0.879402 0.625845 0.504373
O O2 0.687715 0.132544 0.899517
O O3 0.741918 0.704474 0.967863
O O4 0.873483 0.563204 0.903675
O O5 0.404229 0.462226 0.355310
O O6 0.500000 0.500000 0.000000
O O7 0.499949 0.300038 0.836666
O O8 0.625131 0.540493 0.186265
O O9 0.741204 0.400909 0.225311
O O10 0.780093 0.005889 0.255665
O O11 0.909026 0.426520 0.235174
O O12 0.000000 0.500000 0.000000
O O13 0.585486 0.960535 0.487091
O O14 0.500000 0.000000 0.000000
O O15 0.789525 0.492343 0.320064
O O16 0.000000 0.000000 0.000000
#
# Coordination Sequence:
#
# PCOD8024333 Si02
#       7
#     2   2   2   2   2   2   2
#     4   9  24  42  65  95 126 163 219 256 325 375
#     4  11  24  40  66  94 133 174 211 267 318 382
#     4  11  24  44  63  96 135 167 218 268 318 379
#     4  11  24  45  69  95 126 170 214 266 327 382
#     4  12  25  39  65  99 131 174 216 256 328 376
#     4  10  23  43  65  94 133 168 218 265 313 384
#     4  10  23  44  66  96 127 165 217 268 322 380
#
# _framework density 20.536888999999999
#
# number of rings (size 3 to 8) (size 9 to 14) (size 15 to 20)
#    0.857    0.571    1.429    3.000    6.000    2.286 
#    2.571    0.000    0.000    0.000    0.000    0.000 
#    0.000    0.000    0.000    0.000    0.000    0.000 
#
# Total GULP energy -173435.697936 kJ/mol
# GULP energy per Si atom -12388.264138 kJ/mol
# Density = 2.049015 g / cm^3
# Si number density = 20.536889 Si / 1000 Ang^3
#
#
#
# Elastic Constant Matrix: (Units=GPa)
#
#
# Indices 1 2 3 4 5 6 
#
# 1 109.6919 11.9537 5.0161 12.6746 -2.2965 10.8956
# 2 11.9537 80.2010 23.7946 3.3140 11.7515 -3.5076
# 3 5.0161 23.7946 80.5826 -0.4299 -19.5620 -0.0275
# 4 12.6746 3.3140 -0.4299 36.6566 3.5689 5.0108
# 5 -2.2965 11.7515 -19.5620 3.5689 32.5573 1.7798
# 6 10.8956 -3.5076 -0.0275 5.0108 1.7798 37.5040
#
#
#
# Elastic Compliance Matrix: (Units=1/GPa)
#
#
# Indices 1 2 3 4 5 6 
#
# 1 0.009986 -0.001936 0.000459 -0.003105 0.002171 -0.002770
# 2 -0.001936 0.016646 -0.007394 -0.000243 -0.010706 0.002654
# 3 0.000459 -0.007394 0.017851 -0.000409 0.013548 -0.001400
# 4 -0.003105 -0.000243 -0.000409 0.029092 -0.003410 -0.002846
# 5 0.002171 -0.010706 0.013548 -0.003410 0.043423 -0.003227
# 6 -0.002770 0.002654 -0.001400 -0.002846 -0.003227 0.028249
#
#
# Mechanical properties :
#
#
# Convention : Reuss Voigt Hill
#
# Bulk Modulus (GPa) = 37.39479 39.11157 38.25318
# Shear Modulus (GPa) = 29.08665 36.65767 32.87216
#
# Velocity S-wave (km/s) = 3.76748 4.22947 4.00514
# Velocity P-wave (km/s) = 6.09699 6.55264 6.32892
#
# Compressibility (1/GPa) = 0.02674170
#
# Stress axis : x y z
#
# Youngs Moduli (GPa) = 100.14295 60.07577 56.02071
#
# Poissons Ratio (x) = 0.11628 -0.02574
# Poissons Ratio (y) = 0.19383 0.41422
# Poissons Ratio (z) = -0.04601 0.44420
#
# Static dielectric constant tensor:
#      x y z
#    x 3.735870 0.067570 0.002640 
#    y 0.067570 3.799390 -0.043830 
#    z 0.002640 -0.043830 3.780300 
# 
# 
# High freq. dielectric constant tensor:
#      x y z
#    x 1.802620 0.004790 -0.001990 
#    y 0.004790 1.811960 -0.003920 
#    z -0.001990 -0.003920 1.793590 
# 
# From -- ./inp_files/126393.got.cif
#   From: 2010.06.25/outbox.cif.g09.slc.cpg/sg2_64_cif.got.tgz:126393.got - 2010.06.27 13:26:56.
