data_PCOD8024067
_publ_section_title
;
Structure prediction by ZEFSAII (Michael W. Deem and Ramdas Pophale) SiO2 
 PCOD8024067
Probable space group: P -1
;
_chemical_formula_sum "Si O2"
_cell_formula_units_Z 16
_cell_length_a 24.281217
_cell_length_b 9.676831
_cell_length_c 8.040349
_cell_angle_alpha 94.533912
_cell_angle_beta 55.171315
_cell_angle_gamma 140.514203
_cell_volume 710.920877
_symmetry_space_group_name_H-M "P -1"
_symmetry_group_IT_number 2
_symmetry_cell_setting 'triclinic'
loop_
_space_group_symop_operation_xyz
x,y,z
-x,-y,-z
loop_
_atom_site_type_symbol
_atom_site_label
_atom_site_fract_x
_atom_site_fract_y
_atom_site_fract_z
Si Si1 0.223522 0.864882 0.702960
Si Si2 0.441079 0.749202 0.505026
Si Si3 0.373102 0.663336 0.240468
Si Si4 0.048182 0.801598 0.919910
Si Si5 0.378976 0.193424 0.775530
Si Si6 0.463456 0.540252 0.927951
Si Si7 0.085791 0.063073 0.564271
Si Si8 0.855141 0.861510 0.895511
O O1 0.149500 0.852697 0.726246
O O2 0.232793 0.914639 0.890083
O O3 0.388141 0.136727 0.387630
O O4 0.124154 0.547132 0.821245
O O5 0.365467 0.641857 0.449685
O O6 0.565243 0.859540 0.278104
O O7 0.500000 0.000000 0.500000
O O8 0.319182 0.469067 0.815388
O O9 0.214772 0.414555 0.412837
O O10 0.389486 0.539743 0.127266
O O11 0.500000 0.000000 0.000000
O O12 0.087867 0.970207 0.713194
O O13 0.079944 0.917056 0.058877
O O14 0.500000 0.500000 0.500000
O O15 0.348934 0.239554 0.987167
O O16 0.500000 0.500000 0.000000
O O17 0.114481 0.034926 0.337413
O O18 0.929395 0.848581 0.797235
#
# Coordination Sequence:
#
# PCOD8024067 Si02
#       8
#     2   2   2   2   2   2   2   2
#     4  10  25  42  70 100 132 182 231 279 351 410
#     4  12  26  44  70 105 141 180 235 295 346 414
#     4  12  27  42  69 106 141 180 236 292 347 413
#     4  11  23  48  69  98 141 177 231 287 340 425
#     4  10  23  42  69  99 132 184 226 276 353 409
#     4  11  22  44  69  99 142 177 228 287 343 414
#     4  11  26  44  70  97 137 185 228 280 355 410
#     4  11  25  45  69  98 136 185 229 279 351 420
#
# _framework density 22.506022000000002
#
# number of rings (size 3 to 8) (size 9 to 14) (size 15 to 20)
#    0.000    1.000    2.500    3.375   12.250    0.000 
#    2.250    1.250    0.000    0.000    0.000    0.000 
#    0.000    0.000    0.000    0.000    0.000    0.000 
#
# Total GULP energy -198311.652556 kJ/mol
# GULP energy per Si atom -12394.478285 kJ/mol
# Density = 2.245480 g / cm^3
# Si number density = 22.506022 Si / 1000 Ang^3
#
#
#
# Elastic Constant Matrix: (Units=GPa)
#
#
# Indices 1 2 3 4 5 6 
#
# 1 74.3310 28.8435 6.9066 3.2020 5.5081 10.2983
# 2 28.8435 174.2989 36.7076 1.9622 9.7007 12.2274
# 3 6.9066 36.7076 67.3487 -0.4080 1.5359 4.3650
# 4 3.2020 1.9622 -0.4080 41.3770 4.6732 -0.9500
# 5 5.5081 9.7007 1.5359 4.6732 33.5970 5.8941
# 6 10.2983 12.2274 4.3650 -0.9500 5.8941 41.7897
#
#
#
# Elastic Compliance Matrix: (Units=1/GPa)
#
#
# Indices 1 2 3 4 5 6 
#
# 1 0.014825 -0.002146 -0.000144 -0.000981 -0.001165 -0.002869
# 2 -0.002146 0.006968 -0.003486 -0.000071 -0.001322 -0.000961
# 3 -0.000144 -0.003486 0.016805 0.000285 0.000353 -0.000743
# 4 -0.000981 -0.000071 0.000285 0.024674 -0.003489 0.001286
# 5 -0.001165 -0.001322 0.000353 -0.003489 0.031488 -0.003883
# 6 -0.002869 -0.000961 -0.000743 0.001286 -0.003883 0.025572
#
#
# Mechanical properties :
#
#
# Convention : Reuss Voigt Hill
#
# Bulk Modulus (GPa) = 36.97352 51.21045 44.09198
# Shear Modulus (GPa) = 35.48629 39.58749 37.53689
#
# Velocity S-wave (km/s) = 3.97513 4.19856 4.08837
# Velocity P-wave (km/s) = 6.12641 6.80495 6.47458
#
# Compressibility (1/GPa) = 0.02704639
#
# Stress axis : x y z
#
# Youngs Moduli (GPa) = 67.45169 143.50619 59.50717
#
# Poissons Ratio (x) = 0.30795 0.00858
# Poissons Ratio (y) = 0.14474 0.20744
# Poissons Ratio (z) = 0.00973 0.50025
#
# Static dielectric constant tensor:
#      x y z
#    x 4.107820 0.100500 -0.041950 
#    y 0.100500 3.909260 0.064560 
#    z -0.041950 0.064560 4.115110 
# 
# 
# High freq. dielectric constant tensor:
#      x y z
#    x 1.894980 0.019790 -0.004600 
#    y 0.019790 1.900060 0.006530 
#    z -0.004600 0.006530 1.874530 
# 
# From -- ./inp_files/352238.got.cif
#   From: 2010.06.25/outbox.cif.g09.slc.cpg/sg2_177_cif.got.tgz:352238.got - 2010.06.27 13:26:56.
