data_PCOD8024860
_publ_section_title
;
Structure prediction by ZEFSAII (Michael W. Deem and Ramdas Pophale) SiO2 
 PCOD8024860
Probable space group: P -1
;
_chemical_formula_sum "Si O2"
_cell_formula_units_Z 14
_cell_length_a 25.322078
_cell_length_b 5.127641
_cell_length_c 15.423635
_cell_angle_alpha 72.998633
_cell_angle_beta 157.085140
_cell_angle_gamma 96.338765
_cell_volume 674.355103
_symmetry_space_group_name_H-M "P -1"
_symmetry_group_IT_number 2
_symmetry_cell_setting 'triclinic'
loop_
_space_group_symop_operation_xyz
x,y,z
-x,-y,-z
loop_
_atom_site_type_symbol
_atom_site_label
_atom_site_fract_x
_atom_site_fract_y
_atom_site_fract_z
Si Si1 0.157383 0.817342 0.798826
Si Si2 0.284176 0.846264 0.272277
Si Si3 0.595222 0.380118 0.242035
Si Si4 0.439437 0.417774 0.176975
Si Si5 0.277177 0.156570 0.063442
Si Si6 0.124059 0.453519 0.075752
Si Si7 0.791152 0.690359 0.586152
O O1 0.171336 0.505838 0.894022
O O2 0.168669 0.031471 0.868641
O O3 0.292001 0.731771 0.939346
O O4 0.000000 0.000000 0.500000
O O5 0.198807 0.121193 0.181554
O O6 0.422257 0.587110 0.556760
O O7 0.178905 0.691436 0.093309
O O8 0.347025 0.964114 0.274109
O O9 0.478931 0.375138 0.139831
O O10 0.675098 0.590235 0.372067
O O11 0.722248 0.049318 0.450133
O O12 0.500000 0.500000 0.000000
O O13 0.406668 0.140140 0.192946
O O14 0.169680 0.448139 0.245639
O O15 0.946511 0.575864 0.779476
#
# Coordination Sequence:
#
# PCOD8024860 Si02
#       7
#     2   2   2   2   2   2   2
#     4  10  23  44  63  89 133 177 214 260 317 388
#     4  12  22  41  66 103 131 166 218 268 330 391
#     4  12  25  45  67  97 131 175 228 266 315 396
#     4  10  25  40  69  91 132 172 211 270 329 374
#     4  10  24  40  66  96 130 166 218 260 327 386
#     4  11  23  40  71  94 136 170 211 275 333 386
#     4  11  23  46  65  96 131 175 217 272 332 375
#
# _framework density 20.760576
#
# number of rings (size 3 to 8) (size 9 to 14) (size 15 to 20)
#    0.857    0.286    2.857    3.000    4.000    2.857 
#    7.714    0.000    0.000    0.000    0.000    0.000 
#    0.000    0.000    0.000    0.000    0.000    0.000 
#
# Total GULP energy -173552.137998 kJ/mol
# GULP energy per Si atom -12396.581286 kJ/mol
# Density = 2.071332 g / cm^3
# Si number density = 20.760576 Si / 1000 Ang^3
#
#
#
# Elastic Constant Matrix: (Units=GPa)
#
#
# Indices 1 2 3 4 5 6 
#
# 1 100.6815 10.6361 53.9118 1.4226 2.7099 11.9386
# 2 10.6361 102.5896 19.0635 13.8399 14.8448 1.5887
# 3 53.9118 19.0635 104.3057 3.6091 11.5631 -2.8140
# 4 1.4226 13.8399 3.6091 31.5017 -7.0085 -4.1262
# 5 2.7099 14.8448 11.5631 -7.0085 33.9025 -5.4145
# 6 11.9386 1.5887 -2.8140 -4.1262 -5.4145 25.9026
#
#
#
# Elastic Compliance Matrix: (Units=1/GPa)
#
#
# Indices 1 2 3 4 5 6 
#
# 1 0.015204 0.000169 -0.008075 -0.000889 -0.000003 -0.008037
# 2 0.000169 0.011983 -0.001371 -0.007094 -0.006821 -0.003518
# 3 -0.008075 -0.001371 0.014510 -0.000789 -0.003132 0.004602
# 4 -0.000889 -0.007094 -0.000789 0.039182 0.013102 0.009739
# 5 -0.000003 -0.006821 -0.003132 0.013102 0.037870 0.010082
# 6 -0.008037 -0.003518 0.004602 0.009739 0.010082 0.046685
#
#
# Mechanical properties :
#
#
# Convention : Reuss Voigt Hill
#
# Bulk Modulus (GPa) = 43.20819 52.75552 47.98186
# Shear Modulus (GPa) = 26.08194 33.19237 29.63715
#
# Velocity S-wave (km/s) = 3.54831 4.00286 3.78242
# Velocity P-wave (km/s) = 6.13556 6.84327 6.49906
#
# Compressibility (1/GPa) = 0.02314376
#
# Stress axis : x y z
#
# Youngs Moduli (GPa) = 65.77148 83.44963 68.91749
#
# Poissons Ratio (x) = -0.01410 0.55652
# Poissons Ratio (y) = -0.01112 0.09447
# Poissons Ratio (z) = 0.53112 0.11439
#
# Static dielectric constant tensor:
#      x y z
#    x 3.994700 -0.088730 0.029490 
#    y -0.088730 3.866060 0.094440 
#    z 0.029490 0.094440 3.664360 
# 
# 
# High freq. dielectric constant tensor:
#      x y z
#    x 1.803900 0.001130 0.007190 
#    y 0.001130 1.821480 0.005130 
#    z 0.007190 0.005130 1.807290 
# 
# From -- ./inp_files/543576.got.cif
#   From: 2010.06.25/outbox.cif.g09.slc.cpg/sg2_272_cif.got.tgz:543576.got - 2010.06.27 13:26:56.
