data_PCOD8024339
_publ_section_title
;
Structure prediction by ZEFSAII (Michael W. Deem and Ramdas Pophale) SiO2 
 PCOD8024339
Probable space group: P -1
;
_chemical_formula_sum "Si O2"
_cell_formula_units_Z 16
_cell_length_a 11.904568
_cell_length_b 9.274851
_cell_length_c 21.954121
_cell_angle_alpha 45.870719
_cell_angle_beta 24.827176
_cell_angle_gamma 43.866642
_cell_volume 697.949479
_symmetry_space_group_name_H-M "P -1"
_symmetry_group_IT_number 2
_symmetry_cell_setting 'triclinic'
loop_
_space_group_symop_operation_xyz
x,y,z
-x,-y,-z
loop_
_atom_site_type_symbol
_atom_site_label
_atom_site_fract_x
_atom_site_fract_y
_atom_site_fract_z
Si Si1 0.080617 0.790530 0.244754
Si Si2 0.202300 0.167973 0.113594
Si Si3 0.505130 0.727275 0.952782
Si Si4 0.229997 0.018482 0.460693
Si Si5 0.505288 0.188541 0.486602
Si Si6 0.607728 0.079084 0.723891
Si Si7 0.719028 0.471820 0.214776
Si Si8 0.287826 0.444679 0.336780
O O1 0.294822 0.620404 0.232100
O O2 0.829555 0.699815 0.376190
O O3 0.995014 0.014834 0.259555
O O4 0.227330 0.828585 0.099095
O O5 0.229092 0.276196 0.133231
O O6 0.060291 0.357466 0.078558
O O7 0.500000 0.000000 0.000000
O O8 0.515033 0.872770 0.846961
O O9 0.500000 0.500000 0.000000
O O10 0.375067 0.878433 0.486339
O O11 0.895728 0.072854 0.617966
O O12 0.343938 0.895592 0.378743
O O13 0.320719 0.228869 0.349651
O O14 0.633901 0.368349 0.347721
O O15 0.500000 0.000000 0.500000
O O16 0.360634 0.278469 0.810948
O O17 0.560569 0.410352 0.254075
O O18 0.000000 0.500000 0.500000
#
# Coordination Sequence:
#
# PCOD8024339 Si02
#       8
#     2   2   2   2   2   2   2   2
#     4  11  22  41  67  99 133 174 224 278 344 410
#     4  10  23  43  65  95 130 177 228 280 339 408
#     4  11  25  46  67  87 133 190 232 278 341 409
#     4  11  23  41  66 101 142 174 222 280 343 419
#     4  12  21  38  71 103 134 171 220 283 353 402
#     4  11  25  43  65  99 138 183 230 280 343 405
#     4  12  23  39  72 101 135 176 223 290 343 402
#     4  12  20  37  69 106 137 169 224 286 343 405
#
# _framework density 22.924295000000001
#
# number of rings (size 3 to 8) (size 9 to 14) (size 15 to 20)
#    0.000    0.750    5.000    2.250    0.000    2.500 
#    0.000   15.000    0.000    0.000    0.000    0.000 
#    0.000    0.000    0.000    0.000    0.000    0.000 
#
# Total GULP energy -198311.284483 kJ/mol
# GULP energy per Si atom -12394.455280 kJ/mol
# Density = 2.287212 g / cm^3
# Si number density = 22.924295 Si / 1000 Ang^3
#
#
#
# Elastic Constant Matrix: (Units=GPa)
#
#
# Indices 1 2 3 4 5 6 
#
# 1 145.7195 54.4650 28.5778 6.1772 -9.5776 -14.4194
# 2 54.4650 137.1859 25.7359 -10.8258 -13.2074 1.1120
# 3 28.5778 25.7359 62.2557 0.3040 -1.7970 -8.0038
# 4 6.1772 -10.8258 0.3040 35.5221 -9.6363 -5.7722
# 5 -9.5776 -13.2074 -1.7970 -9.6363 32.1980 -0.3298
# 6 -14.4194 1.1120 -8.0038 -5.7722 -0.3298 47.1311
#
#
#
# Elastic Compliance Matrix: (Units=1/GPa)
#
#
# Indices 1 2 3 4 5 6 
#
# 1 0.008865 -0.003171 -0.002457 -0.001969 0.000632 0.002133
# 2 -0.003171 0.009826 -0.002641 0.004561 0.004294 -0.001062
# 3 -0.002457 -0.002641 0.018569 -0.000380 -0.000867 0.002412
# 4 -0.001969 0.004561 -0.000380 0.033514 0.011329 0.003409
# 5 0.000632 0.004294 -0.000867 0.011329 0.036366 0.001587
# 6 0.002133 -0.001062 0.002412 0.003409 0.001587 0.022733
#
#
# Mechanical properties :
#
#
# Convention : Reuss Voigt Hill
#
# Bulk Modulus (GPa) = 48.25537 62.52428 55.38982
# Shear Modulus (GPa) = 32.61187 38.72907 35.67047
#
# Velocity S-wave (km/s) = 3.77582 4.11473 3.94891
# Velocity P-wave (km/s) = 6.33282 7.06457 6.70868
#
# Compressibility (1/GPa) = 0.02072308
#
# Stress axis : x y z
#
# Youngs Moduli (GPa) = 112.79692 101.77543 53.85253
#
# Poissons Ratio (x) = 0.32270 0.13230
# Poissons Ratio (y) = 0.35764 0.14223
# Poissons Ratio (z) = 0.27712 0.26880
#
# Static dielectric constant tensor:
#      x y z
#    x 4.729940 -0.009330 -0.684800 
#    y -0.009330 4.277390 -0.133320 
#    z -0.684800 -0.133320 4.672630 
# 
# 
# High freq. dielectric constant tensor:
#      x y z
#    x 1.912000 -0.007470 -0.014870 
#    y -0.007470 1.904900 -0.009500 
#    z -0.014870 -0.009500 1.901570 
# 
# From -- ./inp_files/594016.got.cif
#   From: 2010.06.25/outbox.cif.g09.slc.cpg/sg2_298_cif.got.tgz:594016.got - 2010.06.27 13:26:56.
