data_PCOD8024426
_publ_section_title
;
Structure prediction by ZEFSAII (Michael W. Deem and Ramdas Pophale) SiO2 
 PCOD8024426
Probable space group: P -1
;
_chemical_formula_sum "Si O2"
_cell_formula_units_Z 16
_cell_length_a 12.047398
_cell_length_b 12.891483
_cell_length_c 12.482499
_cell_angle_alpha 81.815037
_cell_angle_beta 137.463248
_cell_angle_gamma 63.450421
_cell_volume 733.693518
_symmetry_space_group_name_H-M "P -1"
_symmetry_group_IT_number 2
_symmetry_cell_setting 'triclinic'
loop_
_space_group_symop_operation_xyz
x,y,z
-x,-y,-z
loop_
_atom_site_type_symbol
_atom_site_label
_atom_site_fract_x
_atom_site_fract_y
_atom_site_fract_z
Si Si1 0.143912 0.918126 0.316597
Si Si2 0.700662 0.132316 0.325363
Si Si3 0.749199 0.743503 0.495990
Si Si4 0.282406 0.606320 0.428133
Si Si5 0.644263 0.535055 0.106111
Si Si6 0.681840 0.843868 0.891428
Si Si7 0.386191 0.176644 0.385797
Si Si8 0.502635 0.674062 0.221868
O O1 0.211426 0.918876 0.482701
O O2 0.183425 0.773902 0.362746
O O3 0.366025 0.866288 0.408404
O O4 0.826710 0.118624 0.024079
O O5 0.536081 0.107486 0.192867
O O6 0.468272 0.340406 0.093715
O O7 0.000000 0.000000 0.500000
O O8 0.834399 0.687048 0.691780
O O9 0.704981 0.654592 0.422824
O O10 0.011413 0.661418 0.632215
O O11 0.460378 0.966695 0.251494
O O12 0.500000 0.500000 0.500000
O O13 0.444354 0.466288 0.663812
O O14 0.997117 0.688342 0.190076
O O15 0.570206 0.631428 0.150340
O O16 0.500000 0.500000 0.000000
O O17 0.744903 0.747360 0.838508
O O18 0.500000 0.000000 0.500000
#
# Coordination Sequence:
#
# PCOD8024426 Si02
#       8
#     2   2   2   2   2   2   2   2
#     4  11  24  46  70 105 137 183 225 289 345 409
#     4  11  22  44  69  96 136 181 232 284 344 406
#     4  11  23  44  68 100 139 184 223 285 351 404
#     4  12  27  44  70 106 140 182 231 285 349 416
#     4  12  26  43  70 101 136 180 239 285 337 416
#     4  10  23  43  67 102 137 179 233 287 344 408
#     4   9  22  40  73  96 132 183 229 275 351 404
#     4  12  26  45  71 100 143 180 232 279 349 412
#
# _framework density 21.807472000000001
#
# number of rings (size 3 to 8) (size 9 to 14) (size 15 to 20)
#    0.000    1.000    2.500    3.375    7.000    2.000 
#    0.000    5.000    0.000    0.000    0.000    0.000 
#    0.000    0.000    0.000    0.000    0.000    0.000 
#
# Total GULP energy -198339.289533 kJ/mol
# GULP energy per Si atom -12396.205596 kJ/mol
# Density = 2.175784 g / cm^3
# Si number density = 21.807472 Si / 1000 Ang^3
#
#
#
# Elastic Constant Matrix: (Units=GPa)
#
#
# Indices 1 2 3 4 5 6 
#
# 1 109.6792 34.0879 29.0029 -0.1653 18.5985 20.5495
# 2 34.0879 102.9609 33.0950 4.7941 11.7275 18.8816
# 3 29.0029 33.0950 89.1651 -14.6989 10.1266 22.3587
# 4 -0.1653 4.7941 -14.6989 33.5638 9.0190 4.7891
# 5 18.5985 11.7275 10.1266 9.0190 36.5527 -5.1948
# 6 20.5495 18.8816 22.3587 4.7891 -5.1948 34.3369
#
#
#
# Elastic Compliance Matrix: (Units=1/GPa)
#
#
# Indices 1 2 3 4 5 6 
#
# 1 0.012585 -0.001992 0.000268 0.003793 -0.007960 -0.008343
# 2 -0.001992 0.012377 -0.003157 -0.002092 -0.002075 -0.003580
# 3 0.000268 -0.003157 0.019253 0.013576 -0.009845 -0.014344
# 4 0.003793 -0.002092 0.013576 0.043715 -0.018485 -0.018854
# 5 -0.007960 -0.002075 -0.009845 -0.018485 0.042390 0.021307
# 6 -0.008343 -0.003580 -0.014344 -0.018854 0.021307 0.051278
#
#
# Mechanical properties :
#
#
# Convention : Reuss Voigt Hill
#
# Bulk Modulus (GPa) = 29.02729 54.90855 41.96792
# Shear Modulus (GPa) = 24.64923 34.59862 29.62392
#
# Velocity S-wave (km/s) = 3.36566 3.98747 3.68969
# Velocity P-wave (km/s) = 5.33321 6.81420 6.11868
#
# Compressibility (1/GPa) = 0.03445034
#
# Stress axis : x y z
#
# Youngs Moduli (GPa) = 79.46170 80.79330 51.93993
#
# Poissons Ratio (x) = 0.16097 -0.01390
# Poissons Ratio (y) = 0.15832 0.16400
# Poissons Ratio (z) = -0.02126 0.25510
#
# Static dielectric constant tensor:
#      x y z
#    x 4.157370 -0.141380 -0.100050 
#    y -0.141380 3.867230 0.147840 
#    z -0.100050 0.147840 4.060880 
# 
# 
# High freq. dielectric constant tensor:
#      x y z
#    x 1.874200 0.010380 0.002880 
#    y 0.010380 1.857350 0.004210 
#    z 0.002880 0.004210 1.858140 
# 
# From -- ./inp_files/428250.got.cif
#   From: 2010.06.25/outbox.cif.g09.slc.cpg/sg2_215_cif.got.tgz:428250.got - 2010.06.27 13:26:56.
