data_PCOD8024066
_publ_section_title
;
Structure prediction by ZEFSAII (Michael W. Deem and Ramdas Pophale) SiO2 
 PCOD8024066
Probable space group: P -1
;
_chemical_formula_sum "Si O2"
_cell_formula_units_Z 16
_cell_length_a 5.839418
_cell_length_b 11.658573
_cell_length_c 16.713069
_cell_angle_alpha 130.861775
_cell_angle_beta 82.205975
_cell_angle_gamma 121.484014
_cell_volume 695.371182
_symmetry_space_group_name_H-M "P -1"
_symmetry_group_IT_number 2
_symmetry_cell_setting 'triclinic'
loop_
_space_group_symop_operation_xyz
x,y,z
-x,-y,-z
loop_
_atom_site_type_symbol
_atom_site_label
_atom_site_fract_x
_atom_site_fract_y
_atom_site_fract_z
Si Si1 0.752402 0.669532 0.906196
Si Si2 0.282280 0.078662 0.849817
Si Si3 0.722620 0.447553 0.939411
Si Si4 0.232855 0.813012 0.465796
Si Si5 0.899834 0.784316 0.615684
Si Si6 0.369081 0.571311 0.448254
Si Si7 0.701150 0.142587 0.123355
Si Si8 0.691405 0.493297 0.274751
O O1 0.831458 0.542076 0.890350
O O2 0.442294 0.532473 0.818807
O O3 0.976681 0.783438 0.877699
O O4 0.772554 0.817095 0.032687
O O5 0.533401 0.224577 0.844717
O O6 0.379718 0.961476 0.835344
O O7 0.002992 0.945416 0.749392
O O8 0.500000 0.500000 0.000000
O O9 0.000000 0.500000 0.000000
O O10 0.297104 0.673980 0.436351
O O11 0.110996 0.869678 0.568797
O O12 0.000140 0.691554 0.352114
O O13 0.500000 0.000000 0.500000
O O14 0.588127 0.716142 0.570701
O O15 0.893023 0.610231 0.575399
O O16 0.509501 0.490579 0.354133
O O17 0.690579 0.316361 0.212413
O O18 0.500000 0.000000 0.000000
#
# Coordination Sequence:
#
# PCOD8024066 Si02
#       8
#     2   2   2   2   2   2   2   2
#     4  11  24  42  67  98 143 182 234 286 359 428
#     4  11  23  42  65 104 139 182 236 291 351 434
#     4  10  24  46  65  94 144 192 235 289 357 432
#     4  11  25  46  71 101 133 178 237 293 354 426
#     4  10  23  42  69  99 131 182 227 288 361 412
#     4  10  23  46  68  95 139 174 237 288 355 425
#     4  12  24  40  69 104 142 178 236 284 358 425
#     4  11  24  42  71 101 137 188 225 299 355 423
#
# _framework density 23.009293
#
# number of rings (size 3 to 8) (size 9 to 14) (size 15 to 20)
#    0.000    1.250    1.250    3.750    3.500    7.000 
#    4.500    0.000    0.000    0.000    0.000    0.000 
#    0.000    0.000    0.000    0.000    0.000    0.000 
#
# Total GULP energy -198285.293243 kJ/mol
# GULP energy per Si atom -12392.830828 kJ/mol
# Density = 2.295692 g / cm^3
# Si number density = 23.009293 Si / 1000 Ang^3
#
#
#
# Elastic Constant Matrix: (Units=GPa)
#
#
# Indices 1 2 3 4 5 6 
#
# 1 84.5346 30.3188 46.7131 3.7027 27.8509 -15.1072
# 2 30.3188 142.6134 39.9604 19.2138 23.6833 -11.3144
# 3 46.7131 39.9604 177.4703 4.7510 42.0187 -7.2504
# 4 3.7027 19.2138 4.7510 28.2166 4.4067 6.7409
# 5 27.8509 23.6833 42.0187 4.4067 32.6304 0.5255
# 6 -15.1072 -11.3144 -7.2504 6.7409 0.5255 30.9752
#
#
#
# Elastic Compliance Matrix: (Units=1/GPa)
#
#
# Indices 1 2 3 4 5 6 
#
# 1 0.019181 -0.000280 -0.001057 -0.002182 -0.014670 0.009729
# 2 -0.000280 0.009298 -0.000438 -0.006533 -0.005139 0.004666
# 3 -0.001057 -0.000438 0.008324 0.000194 -0.009548 0.001393
# 4 -0.002182 -0.006533 0.000194 0.043083 0.000743 -0.012794
# 5 -0.014670 -0.005139 -0.009548 0.000743 0.059292 -0.012434
# 6 0.009729 0.004666 0.001393 -0.012794 -0.012434 0.042055
#
#
# Mechanical properties :
#
#
# Convention : Reuss Voigt Hill
#
# Bulk Modulus (GPa) = 30.07092 70.95588 50.51340
# Shear Modulus (GPa) = 25.52778 37.53952 31.53365
#
# Velocity S-wave (km/s) = 3.33446 4.04356 3.70601
# Velocity P-wave (km/s) = 5.28415 7.25984 6.34931
#
# Compressibility (1/GPa) = 0.03325472
#
# Stress axis : x y z
#
# Youngs Moduli (GPa) = 52.13449 107.55162 120.13933
#
# Poissons Ratio (x) = 0.03008 0.12694
# Poissons Ratio (y) = 0.01458 0.05259
# Poissons Ratio (z) = 0.05508 0.04708
#
# Static dielectric constant tensor:
#      x y z
#    x 4.156250 -0.032210 0.253720 
#    y -0.032210 4.666180 0.099000 
#    z 0.253720 0.099000 4.229290 
# 
# 
# High freq. dielectric constant tensor:
#      x y z
#    x 1.900070 -0.004200 0.014670 
#    y -0.004200 1.917930 0.003900 
#    z 0.014670 0.003900 1.915120 
# 
# From -- ./inp_files/367895.got.cif
#   From: 2010.06.25/outbox.cif.g09.slc.cpg/sg2_184_cif.got.tgz:367895.got - 2010.06.27 13:26:56.
