data_PCOD8024857
_publ_section_title
;
Structure prediction by ZEFSAII (Michael W. Deem and Ramdas Pophale) SiO2 
 PCOD8024857
Probable space group: P -1
;
_chemical_formula_sum "Si O2"
_cell_formula_units_Z 16
_cell_length_a 25.946409
_cell_length_b 8.825318
_cell_length_c 7.780061
_cell_angle_alpha 124.336338
_cell_angle_beta 55.443269
_cell_angle_gamma 145.896931
_cell_volume 805.269126
_symmetry_space_group_name_H-M "P -1"
_symmetry_group_IT_number 2
_symmetry_cell_setting 'triclinic'
loop_
_space_group_symop_operation_xyz
x,y,z
-x,-y,-z
loop_
_atom_site_type_symbol
_atom_site_label
_atom_site_fract_x
_atom_site_fract_y
_atom_site_fract_z
Si Si1 0.534586 0.435166 0.033339
Si Si2 0.577957 0.817549 0.603619
Si Si3 0.279677 0.010029 0.785715
Si Si4 0.912198 0.303085 0.168735
Si Si5 0.906542 0.885132 0.031348
Si Si6 0.224003 0.513028 0.669212
Si Si7 0.578708 0.168532 0.598913
Si Si8 0.903175 0.701076 0.550045
O O1 0.440456 0.184883 0.162342
O O2 0.624449 0.699832 0.138033
O O3 0.500000 0.500000 0.000000
O O4 0.575738 0.343493 0.822892
O O5 0.500000 0.500000 0.500000
O O6 0.685913 0.991388 0.469240
O O7 0.556751 0.951310 0.622267
O O8 0.189452 0.944935 0.893205
O O9 0.246391 0.776022 0.826901
O O10 0.909053 0.488972 0.400910
O O11 0.923474 0.142338 0.154810
O O12 0.000000 0.500000 0.000000
O O13 0.827721 0.680174 0.191604
O O14 0.877755 0.725042 0.802659
O O15 0.000000 0.000000 0.000000
O O16 0.319670 0.609595 0.539314
O O17 0.169898 0.382172 0.505391
O O18 0.500000 0.000000 0.500000
O O19 0.000000 0.000000 0.500000
#
# Coordination Sequence:
#
# PCOD8024857 Si02
#       8
#     2   2   2   2   2   2   2   2
#     4  11  22  38  64  93 124 166 210 263 321 386
#     4   9  19  39  64  85 121 161 207 257 319 375
#     4   9  21  43  61  89 128 163 210 263 318 384
#     4  11  23  41  69  94 131 173 212 268 324 383
#     4  12  24  43  69  98 131 173 219 268 326 390
#     4  10  23  44  62  95 130 166 216 271 315 389
#     4  11  23  41  61  91 130 165 211 268 318 381
#     4  11  22  45  69  92 135 172 213 270 331 382
#
# _framework density 19.869133999999999
#
# number of rings (size 3 to 8) (size 9 to 14) (size 15 to 20)
#    0.000    1.500    2.500    3.375    1.750    3.500 
#   15.750    0.000    0.000    0.000    0.000    0.000 
#    0.000    0.000    0.000    0.000    0.000    0.000 
#
# Total GULP energy -198223.196220 kJ/mol
# GULP energy per Si atom -12388.949764 kJ/mol
# Density = 1.982391 g / cm^3
# Si number density = 19.869134 Si / 1000 Ang^3
#
#
#
# Elastic Constant Matrix: (Units=GPa)
#
#
# Indices 1 2 3 4 5 6 
#
# 1 133.4140 76.1056 74.8480 -22.3323 -9.7497 -0.8392
# 2 76.1056 135.6009 58.1420 -23.6513 -4.4936 -12.6173
# 3 74.8480 58.1420 105.6452 -12.7648 0.7076 -9.3446
# 4 -22.3323 -23.6513 -12.7648 42.7660 -2.7692 0.0935
# 5 -9.7497 -4.4936 0.7076 -2.7692 38.4861 0.1691
# 6 -0.8392 -12.6173 -9.3446 0.0935 0.1691 47.6079
#
#
#
# Elastic Compliance Matrix: (Units=1/GPa)
#
#
# Indices 1 2 3 4 5 6 
#
# 1 0.015748 -0.004783 -0.008383 0.003330 0.003836 -0.002656
# 2 -0.004783 0.012019 -0.002589 0.003401 0.000473 0.002584
# 3 -0.008383 -0.002589 0.016957 -0.000936 -0.002816 0.002506
# 4 0.003330 0.003401 -0.000936 0.026929 0.003193 0.000712
# 5 0.003836 0.000473 -0.002816 0.003193 0.027294 -0.000463
# 6 -0.002656 0.002584 0.002506 0.000712 -0.000463 0.022135
#
#
# Mechanical properties :
#
#
# Convention : Reuss Voigt Hill
#
# Bulk Modulus (GPa) = 75.68263 88.09461 81.88862
# Shear Modulus (GPa) = 31.84741 36.80963 34.32852
#
# Velocity S-wave (km/s) = 4.00792 4.30886 4.16111
# Velocity P-wave (km/s) = 7.71953 8.31797 8.02433
#
# Compressibility (1/GPa) = 0.01321307
#
# Stress axis : x y z
#
# Youngs Moduli (GPa) = 63.49854 83.20318 58.97120
#
# Poissons Ratio (x) = 0.39799 0.49437
# Poissons Ratio (y) = 0.30374 0.15269
# Poissons Ratio (z) = 0.53232 0.21543
#
# Static dielectric constant tensor:
#      x y z
#    x 3.703590 -0.100200 -0.069110 
#    y -0.100200 4.176990 -0.242890 
#    z -0.069110 -0.242890 4.072880 
# 
# 
# High freq. dielectric constant tensor:
#      x y z
#    x 1.773530 -0.001380 -0.013230 
#    y -0.001380 1.795480 -0.008920 
#    z -0.013230 -0.008920 1.776080 
# 
# From -- ./inp_files/356533.got.cif
#   From: 2010.06.25/outbox.cif.g09.slc.cpg/sg2_179_cif.got.tgz:356533.got - 2010.06.27 13:26:56.
