data_PCOD8024565
_publ_section_title
;
Structure prediction by ZEFSAII (Michael W. Deem and Ramdas Pophale) SiO2 
 PCOD8024565
Probable space group: P -1
;
_chemical_formula_sum "Si O2"
_cell_formula_units_Z 14
_cell_length_a 18.616049
_cell_length_b 8.874999
_cell_length_c 13.101371
_cell_angle_alpha 141.651199
_cell_angle_beta 33.189293
_cell_angle_gamma 118.847263
_cell_volume 631.576771
_symmetry_space_group_name_H-M "P -1"
_symmetry_group_IT_number 2
_symmetry_cell_setting 'triclinic'
loop_
_space_group_symop_operation_xyz
x,y,z
-x,-y,-z
loop_
_atom_site_type_symbol
_atom_site_label
_atom_site_fract_x
_atom_site_fract_y
_atom_site_fract_z
Si Si1 0.895555 0.157276 0.304011
Si Si2 0.742884 0.825400 0.299606
Si Si3 0.671014 0.877160 0.193157
Si Si4 0.979867 0.676231 0.219175
Si Si5 0.064408 0.739045 0.474285
Si Si6 0.446634 0.817325 0.703239
Si Si7 0.190911 0.282332 0.365980
O O1 0.991996 0.175259 0.295162
O O2 0.775439 0.474091 0.578765
O O3 0.804298 0.010348 0.380797
O O4 0.000000 0.000000 0.000000
O O5 0.751639 0.905834 0.213791
O O6 0.580459 0.888184 0.566972
O O7 0.858065 0.490912 0.002808
O O8 0.500000 0.000000 0.500000
O O9 0.661364 0.070033 0.210154
O O10 0.765003 0.542071 0.875371
O O11 0.851220 0.674281 0.441592
O O12 0.929334 0.000476 0.443059
O O13 0.000000 0.500000 0.000000
O O14 0.946249 0.689942 0.526196
O O15 0.500000 0.500000 0.500000
O O16 0.346459 0.987505 0.009902
#
# Coordination Sequence:
#
# PCOD8024565 Si02
#       7
#     2   2   2   2   2   2   2
#     4  12  23  42  68 102 141 175 232 285 346 409
#     4  11  24  47  67 101 149 182 222 292 352 405
#     4  10  23  43  69 100 134 185 230 279 349 413
#     4  12  24  44  70 104 141 178 230 295 349 401
#     4  12  23  42  73 101 136 183 236 285 342 415
#     4  11  26  46  70 104 140 180 236 289 346 416
#     4  12  25  42  72 103 133 185 242 283 342 417
#
# _framework density 22.166744000000001
#
# number of rings (size 3 to 8) (size 9 to 14) (size 15 to 20)
#    0.000    0.571    5.714    1.714    6.000    0.571 
#    2.571    0.714    0.000    0.000    0.000    0.000 
#    0.000    0.000    0.000    0.000    0.000    0.000 
#
# Total GULP energy -173462.381598 kJ/mol
# GULP energy per Si atom -12390.170114 kJ/mol
# Density = 2.211629 g / cm^3
# Si number density = 22.166744 Si / 1000 Ang^3
#
#
#
# Elastic Constant Matrix: (Units=GPa)
#
#
# Indices 1 2 3 4 5 6 
#
# 1 73.3220 34.3568 47.6156 -1.4914 8.6929 -15.6168
# 2 34.3568 140.2007 61.3732 21.3931 -2.4389 -10.5534
# 3 47.6156 61.3732 166.5223 6.3342 0.4432 -9.9017
# 4 -1.4914 21.3931 6.3342 51.8483 -12.4472 -0.4978
# 5 8.6929 -2.4389 0.4432 -12.4472 33.3867 1.0767
# 6 -15.6168 -10.5534 -9.9017 -0.4978 1.0767 37.3347
#
#
#
# Elastic Compliance Matrix: (Units=1/GPa)
#
#
# Indices 1 2 3 4 5 6 
#
# 1 0.019693 -0.002716 -0.004270 0.001050 -0.005087 0.006498
# 2 -0.002716 0.009540 -0.002550 -0.003686 0.000037 0.000834
# 3 -0.004270 -0.002550 0.008136 0.000144 0.000883 -0.000373
# 4 0.001050 -0.003686 0.000144 0.022723 0.007943 -0.000491
# 5 -0.005087 0.000037 0.000883 0.007943 0.034318 -0.002767
# 6 0.006498 0.000834 -0.000373 -0.000491 -0.002767 0.029713
#
#
# Mechanical properties :
#
#
# Convention : Reuss Voigt Hill
#
# Bulk Modulus (GPa) = 54.65353 74.08180 64.36767
# Shear Modulus (GPa) = 33.49116 40.29390 36.89253
#
# Velocity S-wave (km/s) = 3.89121 4.26815 4.08403
# Velocity P-wave (km/s) = 6.70059 7.60146 7.16520
#
# Compressibility (1/GPa) = 0.01829708
#
# Stress axis : x y z
#
# Youngs Moduli (GPa) = 50.78074 104.81825 122.91195
#
# Poissons Ratio (x) = 0.28471 0.52482
# Poissons Ratio (y) = 0.13793 0.31340
# Poissons Ratio (z) = 0.21683 0.26726
#
# Static dielectric constant tensor:
#      x y z
#    x 4.390490 -0.308790 0.125570 
#    y -0.308790 4.219710 0.163890 
#    z 0.125570 0.163890 4.237680 
# 
# 
# High freq. dielectric constant tensor:
#      x y z
#    x 1.863510 -0.024540 0.008440 
#    y -0.024540 1.878700 0.007020 
#    z 0.008440 0.007020 1.883170 
# 
# From -- ./inp_files/295285.got.cif
#   From: 2010.06.25/outbox.cif.g09.slc.cpg/sg2_148_cif.got.tgz:295285.got - 2010.06.27 13:26:56.
