data_PCOD8025390
_publ_section_title
;
Structure prediction by ZEFSAII (Michael W. Deem and Ramdas Pophale) SiO2 
 PCOD8025390
Probable space group: P -1
;
_chemical_formula_sum "Si O2"
_cell_formula_units_Z 16
_cell_length_a 11.803711
_cell_length_b 11.956143
_cell_length_c 10.913641
_cell_angle_alpha 89.923196
_cell_angle_beta 106.942366
_cell_angle_gamma 37.079556
_cell_volume 812.044457
_symmetry_space_group_name_H-M "P -1"
_symmetry_group_IT_number 2
_symmetry_cell_setting 'triclinic'
loop_
_space_group_symop_operation_xyz
x,y,z
-x,-y,-z
loop_
_atom_site_type_symbol
_atom_site_label
_atom_site_fract_x
_atom_site_fract_y
_atom_site_fract_z
Si Si1 0.636383 0.505034 0.550129
Si Si2 0.894714 0.940055 0.241191
Si Si3 0.561196 0.100730 0.949717
Si Si4 0.616593 0.456847 0.921987
Si Si5 0.255656 0.269919 0.064780
Si Si6 0.991018 0.942872 0.869258
Si Si7 0.479872 0.765321 0.721749
Si Si8 0.469968 0.691315 0.253201
O O1 0.500000 0.500000 0.500000
O O2 0.517095 0.686322 0.600505
O O3 0.647196 0.550799 0.417340
O O4 0.872532 0.299741 0.677414
O O5 0.916633 0.053324 0.212146
O O6 0.776179 0.017566 0.335609
O O7 0.757879 0.985255 0.095431
O O8 0.465870 0.276609 0.836193
O O9 0.672596 0.916567 0.901445
O O10 0.352117 0.228979 0.961972
O O11 0.545257 0.633798 0.856204
O O12 0.580061 0.397332 0.800801
O O13 0.500000 0.500000 0.000000
O O14 0.858514 0.281344 0.051561
O O15 0.380817 0.232795 0.215493
O O16 0.000000 0.500000 0.000000
O O17 0.754463 0.086770 0.760269
O O18 0.000000 0.000000 0.000000
#
# Coordination Sequence:
#
# PCOD8025390 Si02
#       8
#     2   2   2   2   2   2   2   2
#     4  12  23  38  56  86 129 171 192 230 289 367
#     4  11  20  38  60  85 124 160 193 243 296 351
#     4  10  21  41  64  88 118 149 199 258 299 344
#     4  11  18  32  56  89 118 147 193 252 296 349
#     4  10  22  39  65  92 110 148 204 259 304 341
#     4  10  17  29  54  82 115 151 184 233 296 338
#     4  11  23  38  58  86 123 158 200 241 302 359
#     4  11  22  37  55  88 122 156 198 235 295 356
#
# _framework density 19.703355999999999
#
# number of rings (size 3 to 8) (size 9 to 14) (size 15 to 20)
#    0.000    1.250    6.250    2.250    1.750    0.500 
#    2.250    0.625    0.000   10.500    0.000    0.000 
#    0.000    0.000    0.000    0.000    0.000    0.000 
#
# Total GULP energy -198220.813311 kJ/mol
# GULP energy per Si atom -12388.800832 kJ/mol
# Density = 1.965851 g / cm^3
# Si number density = 19.703356 Si / 1000 Ang^3
#
#
#
# Elastic Constant Matrix: (Units=GPa)
#
#
# Indices 1 2 3 4 5 6 
#
# 1 64.1254 21.2701 22.4538 -3.7120 6.4495 -6.5200
# 2 21.2701 83.8016 21.8858 10.6300 8.4470 -6.9473
# 3 22.4538 21.8858 94.8343 2.5669 -7.7711 -1.6998
# 4 -3.7120 10.6300 2.5669 25.5704 5.0416 2.3903
# 5 6.4495 8.4470 -7.7711 5.0416 17.9155 -0.8432
# 6 -6.5200 -6.9473 -1.6998 2.3903 -0.8432 34.9093
#
#
#
# Elastic Compliance Matrix: (Units=1/GPa)
#
#
# Indices 1 2 3 4 5 6 
#
# 1 0.019983 -0.003516 -0.004824 0.006493 -0.009355 0.002127
# 2 -0.003516 0.015038 -0.002881 -0.005643 -0.005371 0.002452
# 3 -0.004824 -0.002881 0.013200 -0.002672 0.009553 -0.000418
# 4 0.006493 -0.005643 -0.002672 0.045727 -0.013869 -0.003506
# 5 -0.009355 -0.005371 0.009553 -0.013869 0.069778 0.000284
# 6 0.002127 0.002452 -0.000418 -0.003506 0.000284 0.029758
#
#
# Mechanical properties :
#
#
# Convention : Reuss Voigt Hill
#
# Bulk Modulus (GPa) = 38.79386 41.55339 40.17363
# Shear Modulus (GPa) = 22.26981 27.48915 24.87948
#
# Velocity S-wave (km/s) = 3.36557 3.73922 3.55731
# Velocity P-wave (km/s) = 5.90207 6.30695 6.10787
#
# Compressibility (1/GPa) = 0.02577727
#
# Stress axis : x y z
#
# Youngs Moduli (GPa) = 50.04240 66.49600 75.76039
#
# Poissons Ratio (x) = 0.23383 0.36547
# Poissons Ratio (y) = 0.17597 0.21830
# Poissons Ratio (z) = 0.24141 0.19160
#
# Static dielectric constant tensor:
#      x y z
#    x 3.538850 -0.476610 -0.019550 
#    y -0.476610 2.906450 -0.061750 
#    z -0.019550 -0.061750 3.344330 
# 
# 
# High freq. dielectric constant tensor:
#      x y z
#    x 1.751750 -0.013870 -0.003300 
#    y -0.013870 1.779690 -0.005010 
#    z -0.003300 -0.005010 1.743830 
# 
# From -- ./inp_files/425992.got.cif
#   From: 2010.06.25/outbox.cif.g09.slc.cpg/sg2_213_cif.got.tgz:425992.got - 2010.06.27 13:26:56.
