data_PCOD8025386
_publ_section_title
;
Structure prediction by ZEFSAII (Michael W. Deem and Ramdas Pophale) SiO2 
 PCOD8025386
Probable space group: P -1
;
_chemical_formula_sum "Si O2"
_cell_formula_units_Z 16
_cell_length_a 8.500571
_cell_length_b 5.146317
_cell_length_c 15.688560
_cell_angle_alpha 78.763400
_cell_angle_beta 104.532137
_cell_angle_gamma 110.852186
_cell_volume 616.609438
_symmetry_space_group_name_H-M "P -1"
_symmetry_group_IT_number 2
_symmetry_cell_setting 'triclinic'
loop_
_space_group_symop_operation_xyz
x,y,z
-x,-y,-z
loop_
_atom_site_type_symbol
_atom_site_label
_atom_site_fract_x
_atom_site_fract_y
_atom_site_fract_z
Si Si1 0.690973 0.657199 0.487521
Si Si2 0.184657 0.170032 0.686884
Si Si3 0.289773 0.951726 0.926022
Si Si4 0.333941 0.944042 0.241466
Si Si5 0.678912 0.323571 0.212576
Si Si6 0.812506 0.175459 0.589694
Si Si7 0.621700 0.332276 0.892100
Si Si8 0.923661 0.895535 0.905365
O O1 0.500000 0.500000 0.500000
O O2 0.694402 0.683157 0.384657
O O3 0.822058 0.487853 0.542354
O O4 0.739859 0.962632 0.516437
O O5 0.225974 0.361451 0.764866
O O6 0.989888 0.131648 0.639544
O O7 0.216406 0.876568 0.725386
O O8 0.338180 0.720610 0.889242
O O9 0.090833 0.887423 0.877132
O O10 0.421901 0.268372 0.899706
O O11 0.316602 0.901574 0.033192
O O12 0.482527 0.242465 0.227276
O O13 0.149344 0.911386 0.176132
O O14 0.315503 0.888975 0.342446
O O15 0.389513 0.713948 0.209204
O O16 0.765976 0.616135 0.917988
O O17 0.000000 0.000000 0.000000
#
# Coordination Sequence:
#
# PCOD8025386 Si02
#       8
#     2   2   2   2   2   2   2   2
#     4  12  25  46  73 105 144 186 230 288 360 429
#     4  12  25  47  71 105 141 185 234 292 362 423
#     4  10  23  45  65 102 135 190 241 292 368 416
#     4  11  26  44  65 102 136 185 240 291 362 422
#     4  11  26  44  71 101 142 188 235 299 352 430
#     4  12  26  43  74 106 141 186 235 296 345 433
#     4  10  24  44  65  94 145 180 242 299 356 434
#     4  12  25  42  70 101 136 192 239 303 361 431
#
# _framework density 25.948352
#
# number of rings (size 3 to 8) (size 9 to 14) (size 15 to 20)
#    0.000    0.750    1.250    5.250    7.000    1.500 
#    0.000    0.000    0.000    0.000    0.000    0.000 
#    0.000    0.000    0.000    0.000    0.000    0.000 
#
# Total GULP energy -198273.742330 kJ/mol
# GULP energy per Si atom -12392.108896 kJ/mol
# Density = 2.588929 g / cm^3
# Si number density = 25.948352 Si / 1000 Ang^3
#
#
#
# Elastic Constant Matrix: (Units=GPa)
#
#
# Indices 1 2 3 4 5 6 
#
# 1 132.7556 32.5884 14.9585 -7.2747 11.9000 1.7243
# 2 32.5884 106.2137 15.2845 24.2047 -6.8435 14.2379
# 3 14.9585 15.2845 81.6951 17.1629 -9.6597 2.0491
# 4 -7.2747 24.2047 17.1629 34.7086 0.5331 1.7443
# 5 11.9000 -6.8435 -9.6597 0.5331 46.8341 -1.5434
# 6 1.7243 14.2379 2.0491 1.7443 -1.5434 38.3188
#
#
#
# Elastic Compliance Matrix: (Units=1/GPa)
#
#
# Indices 1 2 3 4 5 6 
#
# 1 0.009584 -0.004367 -0.002745 0.006423 -0.003683 0.000897
# 2 -0.004367 0.013907 0.000999 -0.010938 0.003328 -0.004392
# 3 -0.002745 0.000999 0.014859 -0.008657 0.003991 -0.000488
# 4 0.006423 -0.010938 -0.008657 0.042044 -0.005425 0.002106
# 5 -0.003683 0.003328 0.003991 -0.005425 0.023656 -0.000084
# 6 0.000897 -0.004392 -0.000488 0.002106 -0.000084 0.027615
#
#
# Mechanical properties :
#
#
# Convention : Reuss Voigt Hill
#
# Bulk Modulus (GPa) = 38.27861 49.59194 43.93528
# Shear Modulus (GPa) = 32.76547 41.16117 36.96332
#
# Velocity S-wave (km/s) = 3.55733 3.98713 3.77834
# Velocity P-wave (km/s) = 5.62643 6.35213 6.00026
#
# Compressibility (1/GPa) = 0.02612425
#
# Stress axis : x y z
#
# Youngs Moduli (GPa) = 104.33555 71.90685 67.29889
#
# Poissons Ratio (x) = 0.31402 0.18476
# Poissons Ratio (y) = 0.45564 -0.06725
# Poissons Ratio (z) = 0.28644 -0.07185
#
# Static dielectric constant tensor:
#      x y z
#    x 6.004440 0.305800 -0.083100 
#    y 0.305800 4.537970 -0.026940 
#    z -0.083100 -0.026940 5.070230 
# 
# 
# High freq. dielectric constant tensor:
#      x y z
#    x 2.067130 0.002200 0.004380 
#    y 0.002200 2.020580 0.004340 
#    z 0.004380 0.004340 2.053300 
# 
# From -- ./inp_files/46821.got.cif
#   From: 2010.06.25/outbox.cif.g09.slc.cpg/sg2_24_cif.got.tgz:46821.got - 2010.06.27 13:26:56.
