data_PCOD8025810
_publ_section_title
;
Structure prediction by ZEFSAII (Michael W. Deem and Ramdas Pophale) SiO2 
 PCOD8025810
Probable space group: P -1
;
_chemical_formula_sum "Si O2"
_cell_formula_units_Z 12
_cell_length_a 13.105537
_cell_length_b 8.681633
_cell_length_c 8.027379
_cell_angle_alpha 147.949864
_cell_angle_beta 122.151214
_cell_angle_gamma 57.376482
_cell_volume 402.384260
_symmetry_space_group_name_H-M "P -1"
_symmetry_group_IT_number 2
_symmetry_cell_setting 'triclinic'
loop_
_space_group_symop_operation_xyz
x,y,z
-x,-y,-z
loop_
_atom_site_type_symbol
_atom_site_label
_atom_site_fract_x
_atom_site_fract_y
_atom_site_fract_z
Si Si1 0.581314 0.099429 0.520447
Si Si2 0.069858 0.223971 0.681101
Si Si3 0.661097 0.864220 0.030702
Si Si4 0.802774 0.727519 0.538488
Si Si5 0.967168 0.222821 0.012346
Si Si6 0.618937 0.448543 0.351713
O O1 0.719625 0.011591 0.630193
O O2 0.500000 0.000000 0.500000
O O3 0.571316 0.966678 0.203301
O O4 0.516295 0.448056 0.759419
O O5 0.997073 0.571032 0.923206
O O6 0.201604 0.212096 0.858469
O O7 0.000000 0.000000 0.500000
O O8 0.075683 0.077969 0.362349
O O9 0.651131 0.096505 0.079731
O O10 0.620953 0.573106 0.656742
O O11 0.856304 0.462405 0.214398
O O12 0.724844 0.570468 0.455009
O O13 0.910176 0.869652 0.854192
#
# Coordination Sequence:
#
# PCOD8025810 Si02
#       6
#     2   2   2   2   2   2
#     4  10  23  47  70 102 135 182 230 282 338 403
#     4  12  24  42  69 103 139 179 223 278 340 406
#     4  12  24  46  69 102 138 178 228 283 339 402
#     4  10  23  46  69 102 136 185 224 283 337 405
#     4  11  24  43  68  99 139 178 228 276 337 405
#     4  11  25  45  71 100 138 179 230 279 341 402
#
# _framework density 29.822240000000001
#
# number of rings (size 3 to 8) (size 9 to 14) (size 15 to 20)
#    0.000    1.000    1.667    4.500    0.000    4.000 
#    0.000    5.000    0.000    0.000    0.000    0.000 
#    0.000    0.000    0.000    0.000    0.000    0.000 
#
# Total GULP energy -148722.548216 kJ/mol
# GULP energy per Si atom -12393.545685 kJ/mol
# Density = 2.975436 g / cm^3
# Si number density = 29.822240 Si / 1000 Ang^3
#
#
#
# Elastic Constant Matrix: (Units=GPa)
#
#
# Indices 1 2 3 4 5 6 
#
# 1 94.6769 23.4359 5.0522 -4.7118 8.9880 -11.2455
# 2 23.4359 172.0346 24.7320 5.9622 15.8465 -25.9018
# 3 5.0522 24.7320 129.9844 19.2807 15.6502 -12.4988
# 4 -4.7118 5.9622 19.2807 37.5378 -1.8638 1.3984
# 5 8.9880 15.8465 15.6502 -1.8638 27.9912 -9.3263
# 6 -11.2455 -25.9018 -12.4988 1.3984 -9.3263 68.6521
#
#
#
# Elastic Compliance Matrix: (Units=1/GPa)
#
#
# Indices 1 2 3 4 5 6 
#
# 1 0.011292 -0.001201 -0.000029 0.001461 -0.002492 0.001023
# 2 -0.001201 0.006608 -0.000567 -0.001102 -0.002486 0.001878
# 3 -0.000029 -0.000567 0.009200 -0.004913 -0.004841 0.000899
# 4 0.001461 -0.001102 -0.004913 0.029786 0.004531 -0.001062
# 5 -0.002492 -0.002486 -0.004841 0.004531 0.042073 0.003396
# 6 0.001023 0.001878 0.000899 -0.001062 0.003396 0.016089
#
#
# Mechanical properties :
#
#
# Convention : Reuss Voigt Hill
#
# Bulk Modulus (GPa) = 42.54278 55.90400 49.22339
# Shear Modulus (GPa) = 39.53269 49.73463 44.63366
#
# Velocity S-wave (km/s) = 3.64484 4.08818 3.87286
# Velocity P-wave (km/s) = 5.65770 6.40865 6.04485
#
# Compressibility (1/GPa) = 0.02350575
#
# Stress axis : x y z
#
# Youngs Moduli (GPa) = 88.55917 151.33471 108.69171
#
# Poissons Ratio (x) = 0.18179 0.00312
# Poissons Ratio (y) = 0.10638 0.06165
# Poissons Ratio (z) = 0.00254 0.08584
#
# Static dielectric constant tensor:
#      x y z
#    x 6.932020 0.727370 -0.968570 
#    y 0.727370 6.665780 -0.453120 
#    z -0.968570 -0.453120 5.569440 
# 
# 
# High freq. dielectric constant tensor:
#      x y z
#    x 2.260160 0.031310 -0.008190 
#    y 0.031310 2.256590 0.000140 
#    z -0.008190 0.000140 2.215630 
# 
# From -- ./inp_files/202347.got.cif
#   From: 2010.06.25/outbox.cif.g09.slc.cpg/sg2_102_cif.got.tgz:202347.got - 2010.06.27 13:26:56.
