data_PCOD8025541
_publ_section_title
;
Structure prediction by ZEFSAII (Michael W. Deem and Ramdas Pophale) SiO2 
 PCOD8025541
Probable space group: P -1
;
_chemical_formula_sum "Si O2"
_cell_formula_units_Z 16
_cell_length_a 12.603114
_cell_length_b 8.901272
_cell_length_c 9.904265
_cell_angle_alpha 127.073827
_cell_angle_beta 113.184095
_cell_angle_gamma 51.209388
_cell_volume 690.744521
_symmetry_space_group_name_H-M "P -1"
_symmetry_group_IT_number 2
_symmetry_cell_setting 'triclinic'
loop_
_space_group_symop_operation_xyz
x,y,z
-x,-y,-z
loop_
_atom_site_type_symbol
_atom_site_label
_atom_site_fract_x
_atom_site_fract_y
_atom_site_fract_z
Si Si1 0.118361 0.563088 0.357407
Si Si2 0.336518 0.588881 0.666084
Si Si3 0.077795 0.183478 0.203123
Si Si4 0.442023 0.905095 0.526244
Si Si5 0.858733 0.938619 0.542952
Si Si6 0.473496 0.840991 0.809624
Si Si7 0.791991 0.300858 0.052757
Si Si8 0.259063 0.568998 0.201947
O O1 0.223446 0.605031 0.516121
O O2 0.132316 0.346219 0.311362
O O3 0.160949 0.498003 0.184748
O O4 0.961821 0.774289 0.391176
O O5 0.484720 0.360652 0.600765
O O6 0.347141 0.808079 0.764141
O O7 0.296336 0.575986 0.794026
O O8 0.936062 0.281941 0.108790
O O9 0.048743 0.157832 0.329631
O O10 0.190478 0.940445 0.071506
O O11 0.280106 0.056496 0.503536
O O12 0.462813 0.943956 0.713124
O O13 0.500000 0.000000 0.500000
O O14 0.810744 0.191185 0.631450
O O15 0.595278 0.588617 0.745546
O O16 0.500000 0.000000 0.000000
O O17 0.723538 0.436375 0.953512
#
# Coordination Sequence:
#
# PCOD8025541 Si02
#       8
#     2   2   2   2   2   2   2   2
#     4  12  24  43  80 102 143 189 244 303 358 415
#     4  12  25  48  78 102 144 198 240 298 359 429
#     4  10  23  45  69 108 146 183 239 303 348 434
#     4  12  27  47  77 109 143 187 247 298 359 437
#     4  11  23  44  73 109 139 190 245 293 357 430
#     4  12  29  49  71 106 151 191 241 300 369 432
#     4  10  25  45  72 104 150 191 237 287 372 427
#     4  11  25  46  67 104 148 189 235 303 357 433
#
# _framework density 23.163412000000001
#
# number of rings (size 3 to 8) (size 9 to 14) (size 15 to 20)
#    0.000    0.750    3.750    2.625    5.250    2.000 
#    0.000    0.000    0.000    0.000    0.000    0.000 
#    0.000    0.000    0.000    0.000    0.000    0.000 
#
# Total GULP energy -198238.063436 kJ/mol
# GULP energy per Si atom -12389.878965 kJ/mol
# Density = 2.311069 g / cm^3
# Si number density = 23.163412 Si / 1000 Ang^3
#
#
#
# Elastic Constant Matrix: (Units=GPa)
#
#
# Indices 1 2 3 4 5 6 
#
# 1 112.2316 41.5462 43.5219 -2.7894 -2.9886 6.2731
# 2 41.5462 89.5109 22.0608 1.5019 5.9920 0.5155
# 3 43.5219 22.0608 93.2356 1.6094 -7.2628 12.9119
# 4 -2.7894 1.5019 1.6094 31.8357 8.9201 3.5774
# 5 -2.9886 5.9920 -7.2628 8.9201 45.8772 2.9172
# 6 6.2731 0.5155 12.9119 3.5774 2.9172 38.6911
#
#
#
# Elastic Compliance Matrix: (Units=1/GPa)
#
#
# Indices 1 2 3 4 5 6 
#
# 1 0.012545 -0.004729 -0.004646 0.001499 0.000446 -0.000593
# 2 -0.004729 0.013875 -0.001426 -0.000487 -0.002333 0.001279
# 3 -0.004646 -0.001426 0.014009 -0.001333 0.002613 -0.003977
# 4 0.001499 -0.000487 -0.001333 0.033713 -0.006451 -0.002422
# 5 0.000446 -0.002333 0.002613 -0.006451 0.023934 -0.002121
# 6 -0.000593 0.001279 -0.003977 -0.002422 -0.002121 0.027636
#
#
# Mechanical properties :
#
#
# Convention : Reuss Voigt Hill
#
# Bulk Modulus (GPa) = 53.11543 56.58176 54.84860
# Shear Modulus (GPa) = 32.55453 35.80407 34.17930
#
# Velocity S-wave (km/s) = 3.75297 3.93583 3.84549
# Velocity P-wave (km/s) = 6.46222 6.71822 6.59146
#
# Compressibility (1/GPa) = 0.01882692
#
# Stress axis : x y z
#
# Youngs Moduli (GPa) = 79.71536 72.07104 71.38325
#
# Poissons Ratio (x) = 0.34083 0.33164
# Poissons Ratio (y) = 0.37698 0.10179
# Poissons Ratio (z) = 0.37035 0.10277
#
# Static dielectric constant tensor:
#      x y z
#    x 4.350600 -0.044880 -0.191340 
#    y -0.044880 4.234180 0.029880 
#    z -0.191340 0.029880 4.133240 
# 
# 
# High freq. dielectric constant tensor:
#      x y z
#    x 1.922350 0.005480 -0.009410 
#    y 0.005480 1.925370 -0.006250 
#    z -0.009410 -0.006250 1.905210 
# 
# From -- ./inp_files/206260.got.cif
#   From: 2010.06.25/outbox.cif.g09.slc.cpg/sg2_104_cif.got.tgz:206260.got - 2010.06.27 13:26:56.
