data_PCOD8025398
_publ_section_title
;
Structure prediction by ZEFSAII (Michael W. Deem and Ramdas Pophale) SiO2 
 PCOD8025398
Probable space group: P -1
;
_chemical_formula_sum "Si O2"
_cell_formula_units_Z 16
_cell_length_a 13.723590
_cell_length_b 8.501801
_cell_length_c 9.762088
_cell_angle_alpha 86.670843
_cell_angle_beta 102.012114
_cell_angle_gamma 45.514816
_cell_volume 760.112100
_symmetry_space_group_name_H-M "P -1"
_symmetry_group_IT_number 2
_symmetry_cell_setting 'triclinic'
loop_
_space_group_symop_operation_xyz
x,y,z
-x,-y,-z
loop_
_atom_site_type_symbol
_atom_site_label
_atom_site_fract_x
_atom_site_fract_y
_atom_site_fract_z
Si Si1 0.408146 0.483429 0.108167
Si Si2 0.507337 0.376956 0.636448
Si Si3 0.899655 0.894735 0.466878
Si Si4 0.278737 0.886448 0.877338
Si Si5 0.929628 0.750738 0.984745
Si Si6 0.792651 0.488612 0.787310
Si Si7 0.806303 0.331658 0.513372
Si Si8 0.775723 0.869524 0.676616
O O1 0.440611 0.587697 0.218075
O O2 0.557161 0.244827 0.098586
O O3 0.337523 0.409202 0.155230
O O4 0.296824 0.687835 0.953616
O O5 0.500000 0.500000 0.500000
O O6 0.349394 0.480980 0.618684
O O7 0.610319 0.115591 0.633129
O O8 0.838895 0.819606 0.543735
O O9 0.075203 0.678217 0.508273
O O10 0.819168 0.999102 0.292923
O O11 0.870409 0.083471 0.536335
O O12 0.204573 0.090530 0.954697
O O13 0.871570 0.863577 0.811459
O O14 0.000000 0.500000 0.000000
O O15 0.055112 0.721406 0.078923
O O16 0.780974 0.385116 0.663070
O O17 0.779053 0.682586 0.723329
#
# Coordination Sequence:
#
# PCOD8025398 Si02
#       8
#     2   2   2   2   2   2   2   2
#     4  11  23  40  69 100 131 172 224 275 329 389
#     4  12  20  41  65  94 132 172 218 270 324 389
#     4  11  23  42  66  99 130 168 221 275 328 380
#     4  11  22  43  70  94 132 174 220 279 329 382
#     4  10  23  45  65  95 133 176 220 265 334 396
#     4  11  24  43  66 101 131 176 225 262 333 403
#     4  11  23  38  64  97 133 165 220 268 320 391
#     4  11  24  44  68  93 136 178 212 274 332 392
#
# _framework density 21.049527000000001
#
# number of rings (size 3 to 8) (size 9 to 14) (size 15 to 20)
#    0.000    1.000    6.250    0.000    0.000    3.500 
#    0.000    2.500    0.000    0.000    0.000    0.000 
#    0.000    0.000    0.000    0.000    0.000    0.000 
#
# Total GULP energy -198328.323365 kJ/mol
# GULP energy per Si atom -12395.520210 kJ/mol
# Density = 2.100162 g / cm^3
# Si number density = 21.049527 Si / 1000 Ang^3
#
#
#
# Elastic Constant Matrix: (Units=GPa)
#
#
# Indices 1 2 3 4 5 6 
#
# 1 126.3006 46.5187 53.0629 -10.0800 -17.2191 -27.5896
# 2 46.5187 105.2225 32.1787 0.2697 -9.2276 -27.6762
# 3 53.0629 32.1787 126.6728 -5.9746 -4.0523 -3.7277
# 4 -10.0800 0.2697 -5.9746 31.9223 -5.2671 2.7899
# 5 -17.2191 -9.2276 -4.0523 -5.2671 32.8555 2.7160
# 6 -27.5896 -27.6762 -3.7277 2.7899 2.7160 35.1794
#
#
#
# Elastic Compliance Matrix: (Units=1/GPa)
#
#
# Indices 1 2 3 4 5 6 
#
# 1 0.013285 -0.001997 -0.004474 0.003665 0.005806 0.007635
# 2 -0.001997 0.013590 -0.002389 -0.001729 0.001463 0.008896
# 3 -0.004474 -0.002389 0.010241 0.000683 -0.001291 -0.004258
# 4 0.003665 -0.001729 0.000683 0.033941 0.007097 -0.001653
# 5 0.005806 0.001463 -0.001291 0.007097 0.034676 0.002328
# 6 0.007635 0.008896 -0.004258 -0.001653 0.002328 0.040912
#
#
# Mechanical properties :
#
#
# Convention : Reuss Voigt Hill
#
# Bulk Modulus (GPa) = 51.55819 69.07961 60.31890
# Shear Modulus (GPa) = 29.26885 35.08716 32.17800
#
# Velocity S-wave (km/s) = 3.73295 4.08718 3.91408
# Velocity P-wave (km/s) = 6.56710 7.42713 7.01032
#
# Compressibility (1/GPa) = 0.01939556
#
# Stress axis : x y z
#
# Youngs Moduli (GPa) = 75.27412 73.58556 97.64615
#
# Poissons Ratio (x) = 0.14695 0.43691
# Poissons Ratio (y) = 0.15032 0.23324
# Poissons Ratio (z) = 0.33681 0.17576
#
# Static dielectric constant tensor:
#      x y z
#    x 3.912770 -0.575190 0.198480 
#    y -0.575190 4.178550 -0.041430 
#    z 0.198480 -0.041430 4.249460 
# 
# 
# High freq. dielectric constant tensor:
#      x y z
#    x 1.807050 -0.027280 0.005470 
#    y -0.027280 1.828190 0.004390 
#    z 0.005470 0.004390 1.837240 
# 
# From -- ./inp_files/298563.got.cif
#   From: 2010.06.25/outbox.cif.g09.slc.cpg/sg2_150_cif.got.tgz:298563.got - 2010.06.27 13:26:56.
