data_PCOD8025863
_publ_section_title
;
Structure prediction by ZEFSAII (Michael W. Deem and Ramdas Pophale) SiO2 
 PCOD8025863
Probable space group: P -1
;
_chemical_formula_sum "Si O2"
_cell_formula_units_Z 16
_cell_length_a 27.598414
_cell_length_b 6.025498
_cell_length_c 8.593208
_cell_angle_alpha 82.969031
_cell_angle_beta 30.339656
_cell_angle_gamma 77.174334
_cell_volume 696.837542
_symmetry_space_group_name_H-M "P -1"
_symmetry_group_IT_number 2
_symmetry_cell_setting 'triclinic'
loop_
_space_group_symop_operation_xyz
x,y,z
-x,-y,-z
loop_
_atom_site_type_symbol
_atom_site_label
_atom_site_fract_x
_atom_site_fract_y
_atom_site_fract_z
Si Si1 0.006915 0.922130 0.781137
Si Si2 0.195257 0.109557 0.150960
Si Si3 0.436281 0.335290 0.253076
Si Si4 0.633695 0.330360 0.334716
Si Si5 0.713249 0.623750 0.866366
Si Si6 0.552773 0.869295 0.077223
Si Si7 0.075802 0.341598 0.193268
Si Si8 0.893911 0.357190 0.207264
O O1 0.031876 0.693219 0.843614
O O2 0.973746 0.862566 0.707769
O O3 0.102269 0.029263 0.487877
O O4 0.913124 0.104029 0.097831
O O5 0.227272 0.272634 0.176734
O O6 0.171481 0.245971 0.041992
O O7 0.282193 0.900101 0.876242
O O8 0.351229 0.498958 0.578625
O O9 0.501901 0.139058 0.198196
O O10 0.500000 0.500000 0.000000
O O11 0.399248 0.209269 0.219398
O O12 0.526675 0.275596 0.642639
O O13 0.642844 0.469979 0.142108
O O14 0.784661 0.451238 0.566994
O O15 0.642887 0.832143 0.950957
O O16 0.000000 0.500000 0.500000
O O17 0.093289 0.464949 0.975453
#
# Coordination Sequence:
#
# PCOD8025863 Si02
#       8
#     2   2   2   2   2   2   2   2
#     4  11  25  48  70 100 140 185 231 284 355 421
#     4  12  27  43  70 105 143 181 236 290 344 426
#     4   9  21  43  71  96 132 177 229 288 353 407
#     4  11  24  44  71  98 139 186 231 294 347 416
#     4  12  27  43  68 105 140 184 241 284 354 414
#     4  10  23  46  71 100 137 185 232 292 349 417
#     4  12  26  44  72 101 138 183 230 288 354 415
#     4  11  26  43  74  98 139 184 230 291 348 414
#
# _framework density 22.960872999999999
#
# number of rings (size 3 to 8) (size 9 to 14) (size 15 to 20)
#    0.000    1.000    2.500    2.625    3.500    9.000 
#    0.000    0.000    2.750    0.000    0.000    0.000 
#    0.000    0.000    0.000    0.000    0.000    0.000 
#
# Total GULP energy -198284.932176 kJ/mol
# GULP energy per Si atom -12392.808261 kJ/mol
# Density = 2.290861 g / cm^3
# Si number density = 22.960873 Si / 1000 Ang^3
#
#
#
# Elastic Constant Matrix: (Units=GPa)
#
#
# Indices 1 2 3 4 5 6 
#
# 1 148.8210 58.7395 47.7676 3.1611 -3.6552 -12.9829
# 2 58.7395 110.4018 50.7923 9.9724 0.4089 -18.9768
# 3 47.7676 50.7923 135.1607 16.7641 22.4107 3.8143
# 4 3.1611 9.9724 16.7641 45.1751 -1.2970 9.1277
# 5 -3.6552 0.4089 22.4107 -1.2970 28.7384 3.7131
# 6 -12.9829 -18.9768 3.8143 9.1277 3.7131 41.7181
#
#
#
# Elastic Compliance Matrix: (Units=1/GPa)
#
#
# Indices 1 2 3 4 5 6 
#
# 1 0.009092 -0.003625 -0.002514 0.001001 0.003095 0.000916
# 2 -0.003625 0.014185 -0.004194 -0.002506 0.001706 0.006104
# 3 -0.002514 -0.004194 0.011865 -0.003113 -0.009361 -0.002261
# 4 0.001001 -0.002506 -0.003113 0.025212 0.004564 -0.006466
# 5 0.003095 0.001706 -0.009361 0.004564 0.042960 -0.002227
# 6 0.000916 0.006104 -0.002261 -0.006466 -0.002227 0.028852
#
#
# Mechanical properties :
#
#
# Convention : Reuss Voigt Hill
#
# Bulk Modulus (GPa) = 69.07846 78.77582 73.92714
# Shear Modulus (GPa) = 31.71414 38.93192 35.32303
#
# Velocity S-wave (km/s) = 3.72052 4.12221 3.92650
# Velocity P-wave (km/s) = 6.97187 7.55248 7.26797
#
# Compressibility (1/GPa) = 0.01447629
#
# Stress axis : x y z
#
# Youngs Moduli (GPa) = 109.98720 70.49515 84.27955
#
# Poissons Ratio (x) = 0.25556 0.21189
# Poissons Ratio (y) = 0.39872 0.35346
# Poissons Ratio (z) = 0.27652 0.29565
#
# Static dielectric constant tensor:
#      x y z
#    x 4.400240 -0.220970 0.286590 
#    y -0.220970 4.450480 0.309380 
#    z 0.286590 0.309380 4.394730 
# 
# 
# High freq. dielectric constant tensor:
#      x y z
#    x 1.900850 -0.010270 0.026520 
#    y -0.010270 1.921930 0.008310 
#    z 0.026520 0.008310 1.911750 
# 
# From -- ./inp_files/358215.got.cif
#   From: 2010.06.25/outbox.cif.g09.slc.cpg/sg2_180_cif.got.tgz:358215.got - 2010.06.27 13:26:56.
