data_PCOD8025888
_publ_section_title
;
Structure prediction by ZEFSAII (Michael W. Deem and Ramdas Pophale) SiO2 
 PCOD8025888
Probable space group: P -1
;
_chemical_formula_sum "Si O2"
_cell_formula_units_Z 16
_cell_length_a 11.688748
_cell_length_b 10.775038
_cell_length_c 9.530374
_cell_angle_alpha 90.188651
_cell_angle_beta 37.429931
_cell_angle_gamma 87.474187
_cell_volume 727.383716
_symmetry_space_group_name_H-M "P -1"
_symmetry_group_IT_number 2
_symmetry_cell_setting 'triclinic'
loop_
_space_group_symop_operation_xyz
x,y,z
-x,-y,-z
loop_
_atom_site_type_symbol
_atom_site_label
_atom_site_fract_x
_atom_site_fract_y
_atom_site_fract_z
Si Si1 0.215420 0.998079 0.434037
Si Si2 0.579529 0.889726 0.519139
Si Si3 0.879092 0.384144 0.136611
Si Si4 0.871280 0.863312 0.739160
Si Si5 0.244967 0.734074 0.313073
Si Si6 0.655142 0.298014 0.105861
Si Si7 0.759842 0.732368 0.101095
Si Si8 0.548860 0.442990 0.670592
O O1 0.324713 0.862888 0.293403
O O2 0.989475 0.982346 0.663123
O O3 0.269278 0.052408 0.529339
O O4 0.256093 0.097188 0.272204
O O5 0.421504 0.830485 0.766400
O O6 0.674878 0.782003 0.329449
O O7 0.500000 0.000000 0.500000
O O8 0.831612 0.326691 0.032368
O O9 0.682223 0.417539 0.406539
O O10 0.000000 0.500000 0.000000
O O11 0.013713 0.289869 0.098954
O O12 0.017973 0.742762 0.561738
O O13 0.733135 0.831823 0.000557
O O14 0.351365 0.617666 0.288694
O O15 0.272842 0.719691 0.121156
O O16 0.489251 0.409807 0.269303
O O17 0.653737 0.610671 0.162545
#
# Coordination Sequence:
#
# PCOD8025888 Si02
#       8
#     2   2   2   2   2   2   2   2
#     4   9  22  45  67 100 141 187 235 286 345 414
#     4  12  28  43  69 109 143 185 235 291 352 420
#     4  12  24  47  73 100 143 188 229 292 354 420
#     4   9  22  44  70  99 136 190 234 288 347 415
#     4  10  23  46  71  98 143 183 231 291 345 416
#     4  12  27  44  70 105 142 185 236 293 351 425
#     4  12  25  43  76 102 138 189 230 293 356 414
#     4  12  24  50  68 108 140 180 242 289 359 416
#
# _framework density 21.996642999999999
#
# number of rings (size 3 to 8) (size 9 to 14) (size 15 to 20)
#    0.750    0.250    3.750    2.250    7.000    1.000 
#    0.000    1.250    0.000    0.000    0.000    0.000 
#    0.000    0.000    0.000    0.000    0.000    0.000 
#
# Total GULP energy -198385.690091 kJ/mol
# GULP energy per Si atom -12399.105631 kJ/mol
# Density = 2.194658 g / cm^3
# Si number density = 21.996643 Si / 1000 Ang^3
#
#
#
# Elastic Constant Matrix: (Units=GPa)
#
#
# Indices 1 2 3 4 5 6 
#
# 1 102.4442 30.5661 28.7653 -11.3157 17.6932 -8.6039
# 2 30.5661 76.2748 10.0411 -13.0196 10.8982 -3.9827
# 3 28.7653 10.0411 81.0086 -15.2254 23.3743 12.9447
# 4 -11.3157 -13.0196 -15.2254 28.5818 -2.6029 3.7296
# 5 17.6932 10.8982 23.3743 -2.6029 41.1345 2.3864
# 6 -8.6039 -3.9827 12.9447 3.7296 2.3864 38.1888
#
#
#
# Elastic Compliance Matrix: (Units=1/GPa)
#
#
# Indices 1 2 3 4 5 6 
#
# 1 0.012853 -0.004006 -0.003900 0.000453 -0.002449 0.003909
# 2 -0.004006 0.016000 0.001495 0.006251 -0.002960 -0.000166
# 3 -0.003900 0.001495 0.018969 0.009455 -0.008461 -0.007547
# 4 0.000453 0.006251 0.009455 0.043519 -0.004096 -0.006445
# 5 -0.002449 -0.002960 -0.008461 -0.004096 0.030668 0.000491
# 6 0.003909 -0.000166 -0.007547 -0.006445 0.000491 0.030206
#
#
# Mechanical properties :
#
#
# Convention : Reuss Voigt Hill
#
# Bulk Modulus (GPa) = 28.57228 44.27472 36.42350
# Shear Modulus (GPa) = 28.29582 34.27136 31.28359
#
# Velocity S-wave (km/s) = 3.59049 3.95147 3.77530
# Velocity P-wave (km/s) = 5.49604 6.40238 5.96644
#
# Compressibility (1/GPa) = 0.03499896
#
# Stress axis : x y z
#
# Youngs Moduli (GPa) = 77.80218 62.49883 52.71894
#
# Poissons Ratio (x) = 0.25036 0.20562
# Poissons Ratio (y) = 0.31167 -0.07880
# Poissons Ratio (z) = 0.30345 -0.09342
#
# Static dielectric constant tensor:
#      x y z
#    x 4.285210 -0.233990 0.123100 
#    y -0.233990 3.942220 0.000630 
#    z 0.123100 0.000630 4.080100 
# 
# 
# High freq. dielectric constant tensor:
#      x y z
#    x 1.878740 -0.014620 0.012730 
#    y -0.014620 1.857270 -0.006730 
#    z 0.012730 -0.006730 1.859100 
# 
# From -- ./inp_files/258798.got.cif
#   From: 2010.06.25/outbox.cif.g09.slc.cpg/sg2_130_cif.got.tgz:258798.got - 2010.06.27 13:26:56.
