data_PCOD8025594
_publ_section_title
;
Structure prediction by ZEFSAII (Michael W. Deem and Ramdas Pophale) SiO2 
 PCOD8025594
Probable space group: P -1
;
_chemical_formula_sum "Si O2"
_cell_formula_units_Z 10
_cell_length_a 11.297518
_cell_length_b 11.484043
_cell_length_c 14.112910
_cell_angle_alpha 148.710208
_cell_angle_beta 148.659441
_cell_angle_gamma 53.529617
_cell_volume 427.944337
_symmetry_space_group_name_H-M "P -1"
_symmetry_group_IT_number 2
_symmetry_cell_setting 'triclinic'
loop_
_space_group_symop_operation_xyz
x,y,z
-x,-y,-z
loop_
_atom_site_type_symbol
_atom_site_label
_atom_site_fract_x
_atom_site_fract_y
_atom_site_fract_z
Si Si1 0.260818 0.008972 0.889578
Si Si2 0.541175 0.978868 0.773519
Si Si3 0.264110 0.445170 0.731280
Si Si4 0.047936 0.313244 0.838844
Si Si5 0.512678 0.772362 0.404296
O O1 0.009223 0.721401 0.516825
O O2 0.198353 0.201133 0.923463
O O3 0.344444 0.113977 0.127442
O O4 0.500000 0.000000 0.000000
O O5 0.567230 0.845395 0.603143
O O6 0.716177 0.289172 0.103546
O O7 0.241010 0.910370 0.547428
O O8 0.264281 0.273205 0.522019
O O9 0.500000 0.500000 0.000000
O O10 0.239283 0.495716 0.012579
O O11 0.000000 0.500000 0.000000
O O12 0.500000 0.000000 0.500000
#
# Coordination Sequence:
#
# PCOD8025594 Si02
#       5
#     2   2   2   2   2
#     4  12  27  45  72 112 144 188 245 297 363 428
#     4  11  25  45  74 104 147 186 238 303 356 426
#     4  12  23  45  73 102 146 191 237 292 361 430
#     4  10  23  45  70 105 145 189 238 290 365 427
#     4  11  23  42  72 104 136 191 240 288 359 428
#
# _framework density 23.367525000000001
#
# number of rings (size 3 to 8) (size 9 to 14) (size 15 to 20)
#    0.000    0.800    4.000    3.000    2.800    5.600 
#    0.000    2.000    0.000    0.000    0.000    0.000 
#    0.000    0.000    0.000    0.000    0.000    0.000 
#
# Total GULP energy -123987.632911 kJ/mol
# GULP energy per Si atom -12398.763291 kJ/mol
# Density = 2.331434 g / cm^3
# Si number density = 23.367525 Si / 1000 Ang^3
#
#
#
# Elastic Constant Matrix: (Units=GPa)
#
#
# Indices 1 2 3 4 5 6 
#
# 1 109.5843 30.5604 66.4547 3.4655 15.8669 -4.3726
# 2 30.5604 128.6224 59.9239 6.4888 17.1474 4.5102
# 3 66.4547 59.9239 129.1423 6.0506 26.5298 6.8509
# 4 3.4655 6.4888 6.0506 48.0156 8.4919 -2.7822
# 5 15.8669 17.1474 26.5298 8.4919 53.8890 0.9312
# 6 -4.3726 4.5102 6.8509 -2.7822 0.9312 44.1801
#
#
#
# Elastic Compliance Matrix: (Units=1/GPa)
#
#
# Indices 1 2 3 4 5 6 
#
# 1 0.013538 0.000029 -0.006989 0.000151 -0.000621 0.002443
# 2 0.000029 0.009991 -0.004416 -0.000656 -0.000904 -0.000355
# 3 -0.006989 -0.004416 0.014239 -0.000218 -0.003471 -0.002390
# 4 0.000151 -0.000656 -0.000218 0.021579 -0.003156 0.001541
# 5 -0.000621 -0.000904 -0.003471 -0.003156 0.021235 -0.000077
# 6 0.002443 -0.000355 -0.002390 0.001541 -0.000077 0.023382
#
#
# Mechanical properties :
#
#
# Convention : Reuss Voigt Hill
#
# Bulk Modulus (GPa) = 66.59280 75.69191 71.14235
# Shear Modulus (GPa) = 37.95885 43.24427 40.60156
#
# Velocity S-wave (km/s) = 4.03479 4.30654 4.17288
# Velocity P-wave (km/s) = 7.08985 7.56245 7.32996
#
# Compressibility (1/GPa) = 0.01501664
#
# Stress axis : x y z
#
# Youngs Moduli (GPa) = 73.86409 100.08908 70.22968
#
# Poissons Ratio (x) = -0.00290 0.49086
# Poissons Ratio (y) = -0.00214 0.31011
# Poissons Ratio (z) = 0.51626 0.44195
#
# Static dielectric constant tensor:
#      x y z
#    x 5.003470 0.036740 0.862520 
#    y 0.036740 4.100820 -0.113130 
#    z 0.862520 -0.113130 5.352040 
# 
# 
# High freq. dielectric constant tensor:
#      x y z
#    x 1.936190 0.007100 0.014900 
#    y 0.007100 1.921780 0.007000 
#    z 0.014900 0.007000 1.933550 
# 
# From -- ./inp_files/255385.got.cif
#   From: 2010.06.25/outbox.cif.g09.slc.cpg/sg2_128_cif.got.tgz:255385.got - 2010.06.27 13:26:56.
