data_PCOD8025952
_publ_section_title
;
Structure prediction by ZEFSAII (Michael W. Deem and Ramdas Pophale) SiO2 
 PCOD8025952
Probable space group: P -1
;
_chemical_formula_sum "Si O2"
_cell_formula_units_Z 16
_cell_length_a 11.502462
_cell_length_b 12.020006
_cell_length_c 6.361573
_cell_angle_alpha 90.417539
_cell_angle_beta 124.388824
_cell_angle_gamma 82.032565
_cell_volume 716.100444
_symmetry_space_group_name_H-M "P -1"
_symmetry_group_IT_number 2
_symmetry_cell_setting 'triclinic'
loop_
_space_group_symop_operation_xyz
x,y,z
-x,-y,-z
loop_
_atom_site_type_symbol
_atom_site_label
_atom_site_fract_x
_atom_site_fract_y
_atom_site_fract_z
Si Si1 0.476688 0.223829 0.541978
Si Si2 0.185724 0.367869 0.734155
Si Si3 0.683611 0.201377 0.370965
Si Si4 0.292694 0.932626 0.993827
Si Si5 0.097755 0.797009 0.060463
Si Si6 0.503414 0.626139 0.073349
Si Si7 0.199146 0.176064 0.063972
Si Si8 0.039007 0.569624 0.841347
O O1 0.552722 0.208329 0.396222
O O2 0.550207 0.121960 0.764354
O O3 0.493148 0.344075 0.672240
O O4 0.311162 0.217794 0.338622
O O5 0.355002 0.335603 0.877133
O O6 0.138664 0.272233 0.834628
O O7 0.149272 0.489806 0.806891
O O8 0.103776 0.375538 0.428521
O O9 0.828950 0.211235 0.636719
O O10 0.710364 0.085739 0.261233
O O11 0.641717 0.303276 0.166112
O O12 0.168519 0.876987 0.978639
O O13 0.270224 0.064852 0.013474
O O14 0.931773 0.848112 0.925217
O O15 0.120325 0.670553 0.993117
O O16 0.500000 0.500000 0.000000
O O17 0.000000 0.500000 0.000000
#
# Coordination Sequence:
#
# PCOD8025952 Si02
#       8
#     2   2   2   2   2   2   2   2
#     4  10  23  47  66 100 135 179 228 281 341 401
#     4  11  26  42  67 104 131 180 225 280 341 406
#     4  10  24  45  63  98 136 176 230 279 347 393
#     4  10  25  45  69  98 139 187 224 286 341 398
#     4  11  25  43  70  98 137 183 228 280 344 408
#     4  11  25  40  69  98 135 176 229 281 339 410
#     4  12  23  46  70 102 139 177 239 282 331 408
#     4  11  25  45  67  95 140 175 217 280 348 402
#
# _framework density 22.343235
#
# number of rings (size 3 to 8) (size 9 to 14) (size 15 to 20)
#    0.000    1.250    2.500    1.500    8.750    1.500 
#    9.000    0.000    0.000    0.000    0.000    0.000 
#    0.000    0.000    0.000    0.000    0.000    0.000 
#
# Total GULP energy -198410.600752 kJ/mol
# GULP energy per Si atom -12400.662547 kJ/mol
# Density = 2.229238 g / cm^3
# Si number density = 22.343235 Si / 1000 Ang^3
#
#
#
# Elastic Constant Matrix: (Units=GPa)
#
#
# Indices 1 2 3 4 5 6 
#
# 1 90.8812 7.1618 47.2304 5.4763 3.8984 -9.3720
# 2 7.1618 122.8737 54.3287 24.0586 -3.2736 -15.6456
# 3 47.2304 54.3287 161.7918 19.3505 2.9855 -8.2777
# 4 5.4763 24.0586 19.3505 35.9305 -9.3070 -4.9341
# 5 3.8984 -3.2736 2.9855 -9.3070 34.1609 2.9311
# 6 -9.3720 -15.6456 -8.2777 -4.9341 2.9311 32.2173
#
#
#
# Elastic Compliance Matrix: (Units=1/GPa)
#
#
# Indices 1 2 3 4 5 6 
#
# 1 0.013549 0.001651 -0.004196 -0.000809 -0.001558 0.003683
# 2 0.001651 0.011111 -0.003326 -0.005498 -0.000695 0.004243
# 3 -0.004196 -0.003326 0.008773 -0.002271 -0.001155 -0.000824
# 4 -0.000809 -0.005498 -0.002271 0.035423 0.009321 0.001088
# 5 -0.001558 -0.000695 -0.001155 0.009321 0.032247 -0.002594
# 6 0.003683 0.004243 -0.000824 0.001088 -0.002594 0.034362
#
#
# Mechanical properties :
#
#
# Convention : Reuss Voigt Hill
#
# Bulk Modulus (GPa) = 46.09818 65.88760 55.99289
# Shear Modulus (GPa) = 32.37576 38.25012 35.31294
#
# Velocity S-wave (km/s) = 3.81073 4.14204 3.97983
# Velocity P-wave (km/s) = 6.32762 7.24073 6.79952
#
# Compressibility (1/GPa) = 0.02169283
#
# Stress axis : x y z
#
# Youngs Moduli (GPa) = 73.80517 90.00278 113.98521
#
# Poissons Ratio (x) = -0.14862 0.47827
# Poissons Ratio (y) = -0.12188 0.37906
# Poissons Ratio (z) = 0.30968 0.29931
#
# Static dielectric constant tensor:
#      x y z
#    x 3.947160 -0.278490 -0.019010 
#    y -0.278490 3.984170 0.186010 
#    z -0.019010 0.186010 4.351450 
# 
# 
# High freq. dielectric constant tensor:
#      x y z
#    x 1.881850 -0.021260 0.000300 
#    y -0.021260 1.874760 0.013150 
#    z 0.000300 0.013150 1.893010 
# 
# From -- ./inp_files/71480.got.cif
#   From: 2010.06.25/outbox.cif.g09.slc.cpg/sg2_36_cif.got.tgz:71480.got - 2010.06.27 13:26:56.
