data_PCOD8025576
_publ_section_title
;
Structure prediction by ZEFSAII (Michael W. Deem and Ramdas Pophale) SiO2 
 PCOD8025576
Probable space group: P -1
;
_chemical_formula_sum "Si O2"
_cell_formula_units_Z 14
_cell_length_a 11.190669
_cell_length_b 7.218133
_cell_length_c 8.169188
_cell_angle_alpha 89.088889
_cell_angle_beta 78.970575
_cell_angle_gamma 76.961967
_cell_volume 630.730352
_symmetry_space_group_name_H-M "P -1"
_symmetry_group_IT_number 2
_symmetry_cell_setting 'triclinic'
loop_
_space_group_symop_operation_xyz
x,y,z
-x,-y,-z
loop_
_atom_site_type_symbol
_atom_site_label
_atom_site_fract_x
_atom_site_fract_y
_atom_site_fract_z
Si Si1 0.632601 0.906551 0.044753
Si Si2 0.266032 0.743804 0.395706
Si Si3 0.068463 0.607772 0.849793
Si Si4 0.839849 0.877569 0.730582
Si Si5 0.525298 0.576721 0.169611
Si Si6 0.139660 0.423623 0.515706
Si Si7 0.291650 0.775507 0.762366
O O1 0.623898 0.710935 0.136681
O O2 0.680286 0.042185 0.158540
O O3 0.731825 0.846903 0.877454
O O4 0.500000 0.000000 0.000000
O O5 0.402606 0.705147 0.282025
O O6 0.222823 0.548245 0.401481
O O7 0.261326 0.824119 0.580381
O O8 0.171342 0.899602 0.307054
O O9 0.143485 0.442545 0.710768
O O10 0.175040 0.712332 0.888115
O O11 0.971989 0.774234 0.775894
O O12 0.000000 0.500000 0.000000
O O13 0.815343 0.788954 0.561581
O O14 0.585048 0.395270 0.266430
O O15 0.500000 0.500000 0.000000
O O16 0.000000 0.500000 0.500000
#
# Coordination Sequence:
#
# PCOD8025576 Si02
#       7
#     2   2   2   2   2   2   2
#     4  12  24  43  66 102 131 177 226 269 339 392
#     4  11  24  41  66 100 130 177 223 269 337 389
#     4  10  23  45  70 100 132 176 223 273 338 395
#     4  11  23  43  70  95 136 174 218 275 328 396
#     4  12  23  43  67  91 137 177 223 274 328 398
#     4   9  22  41  65  94 129 171 216 266 331 389
#     4  11  26  43  65 100 136 173 226 277 330 399
#
# _framework density 22.196491000000002
#
# number of rings (size 3 to 8) (size 9 to 14) (size 15 to 20)
#    0.000    1.143    2.857    2.143    0.000   13.143 
#    0.000    1.429    0.000    0.000    0.000    0.000 
#    0.000    0.000    0.000    0.000    0.000    0.000 
#
# Total GULP energy -173556.000512 kJ/mol
# GULP energy per Si atom -12396.857179 kJ/mol
# Density = 2.214597 g / cm^3
# Si number density = 22.196491 Si / 1000 Ang^3
#
#
#
# Elastic Constant Matrix: (Units=GPa)
#
#
# Indices 1 2 3 4 5 6 
#
# 1 87.2165 29.5810 28.7141 9.9941 2.9509 13.3883
# 2 29.5810 106.4467 35.1501 2.0955 0.6696 7.3605
# 3 28.7141 35.1501 90.3443 1.3096 -15.6224 8.0225
# 4 9.9941 2.0955 1.3096 38.2323 -2.0936 4.0237
# 5 2.9509 0.6696 -15.6224 -2.0936 34.0834 -1.5702
# 6 13.3883 7.3605 8.0225 4.0237 -1.5702 47.8076
#
#
#
# Elastic Compliance Matrix: (Units=1/GPa)
#
#
# Indices 1 2 3 4 5 6 
#
# 1 0.014539 -0.002452 -0.003945 -0.003415 -0.003360 -0.002855
# 2 -0.002452 0.011419 -0.003940 0.000100 -0.001834 -0.000479
# 3 -0.003945 -0.003940 0.015183 0.001207 0.007420 -0.000694
# 4 -0.003415 0.000100 0.001207 0.027292 0.002455 -0.001478
# 5 -0.003360 -0.001834 0.007420 0.002455 0.033259 0.000864
# 6 -0.002855 -0.000479 -0.000694 -0.001478 0.000864 0.022060
#
#
# Mechanical properties :
#
#
# Convention : Reuss Voigt Hill
#
# Bulk Modulus (GPa) = 48.85635 52.32199 50.58917
# Shear Modulus (GPa) = 33.05839 36.72880 34.89360
#
# Velocity S-wave (km/s) = 3.86340 4.07223 3.96919
# Velocity P-wave (km/s) = 6.47764 6.76270 6.62170
#
# Compressibility (1/GPa) = 0.02046817
#
# Stress axis : x y z
#
# Youngs Moduli (GPa) = 68.77846 87.57065 65.86445
#
# Poissons Ratio (x) = 0.21472 0.25984
# Poissons Ratio (y) = 0.16864 0.25948
# Poissons Ratio (z) = 0.27134 0.34500
#
# Static dielectric constant tensor:
#      x y z
#    x 4.419850 0.098430 -0.008270 
#    y 0.098430 4.297940 0.302680 
#    z -0.008270 0.302680 4.355510 
# 
# 
# High freq. dielectric constant tensor:
#      x y z
#    x 1.881820 0.001710 -0.008610 
#    y 0.001710 1.879310 0.004550 
#    z -0.008610 0.004550 1.874500 
# 
# From -- ./inp_files/229708.got.cif
#   From: 2010.06.25/outbox.cif.g09.slc.cpg/sg2_115_cif.got.tgz:229708.got - 2010.06.27 13:26:56.
