data_PCOD8025366
_publ_section_title
;
Structure prediction by ZEFSAII (Michael W. Deem and Ramdas Pophale) SiO2 
 PCOD8025366
Probable space group: P -1
;
_chemical_formula_sum "Si O2"
_cell_formula_units_Z 14
_cell_length_a 8.972540
_cell_length_b 7.656535
_cell_length_c 13.273690
_cell_angle_alpha 118.246860
_cell_angle_beta 65.836398
_cell_angle_gamma 74.695658
_cell_volume 602.475302
_symmetry_space_group_name_H-M "P -1"
_symmetry_group_IT_number 2
_symmetry_cell_setting 'triclinic'
loop_
_space_group_symop_operation_xyz
x,y,z
-x,-y,-z
loop_
_atom_site_type_symbol
_atom_site_label
_atom_site_fract_x
_atom_site_fract_y
_atom_site_fract_z
Si Si1 0.303249 0.097322 0.325911
Si Si2 0.870012 0.780316 0.797780
Si Si3 0.940102 0.116212 0.391064
Si Si4 0.435377 0.416445 0.401939
Si Si5 0.293234 0.386871 0.877043
Si Si6 0.019113 0.367993 0.795898
Si Si7 0.768251 0.155223 0.079325
O O1 0.485906 0.824622 0.213040
O O2 0.276129 0.193609 0.243709
O O3 0.331338 0.281747 0.431082
O O4 0.108397 0.102229 0.412826
O O5 0.992861 0.520740 0.746087
O O6 0.029137 0.824334 0.716076
O O7 0.733507 0.990139 0.973114
O O8 0.723662 0.339609 0.549744
O O9 0.955348 0.870012 0.318281
O O10 0.500000 0.500000 0.500000
O O11 0.630460 0.221285 0.232470
O O12 0.297683 0.604228 0.894074
O O13 0.211530 0.296038 0.788360
O O14 0.169663 0.468725 0.036216
O O15 0.000000 0.000000 0.000000
#
# Coordination Sequence:
#
# PCOD8025366 Si02
#       7
#     2   2   2   2   2   2   2
#     4  10  25  46  72 105 148 182 239 294 365 415
#     4  10  23  44  77 102 143 187 237 298 350 417
#     4  10  24  47  68 106 145 185 231 294 353 430
#     4  12  26  45  74 102 146 195 233 290 366 426
#     4  11  23  40  70 111 139 186 243 302 344 425
#     4  11  22  41  75 102 146 187 243 290 357 414
#     4  12  24  45  72 109 140 186 245 297 352 417
#
# _framework density 23.237468
#
# number of rings (size 3 to 8) (size 9 to 14) (size 15 to 20)
#    0.857    0.286    2.857    3.000    2.000    5.714 
#    2.571    2.857    0.000    0.000    0.000    0.000 
#    0.000    0.000    0.000    0.000    0.000    0.000 
#
# Total GULP energy -173549.294429 kJ/mol
# GULP energy per Si atom -12396.378173 kJ/mol
# Density = 2.318458 g / cm^3
# Si number density = 23.237468 Si / 1000 Ang^3
#
#
#
# Elastic Constant Matrix: (Units=GPa)
#
#
# Indices 1 2 3 4 5 6 
#
# 1 120.1764 17.5746 42.0188 31.5846 -4.1896 0.4834
# 2 17.5746 83.4795 11.9293 30.1915 5.0981 12.0120
# 3 42.0188 11.9293 93.4562 27.8275 -0.1271 2.1752
# 4 31.5846 30.1915 27.8275 37.5017 1.4587 1.3312
# 5 -4.1896 5.0981 -0.1271 1.4587 38.3697 17.5035
# 6 0.4834 12.0120 2.1752 1.3312 17.5035 40.9004
#
#
#
# Elastic Compliance Matrix: (Units=1/GPa)
#
#
# Indices 1 2 3 4 5 6 
#
# 1 0.011413 0.001061 -0.002718 -0.008491 0.001778 -0.000786
# 2 0.001061 0.018410 0.002477 -0.017394 0.000762 -0.005311
# 3 -0.002718 0.002477 0.014814 -0.010667 0.000431 -0.001320
# 4 -0.008491 -0.017394 -0.010667 0.055671 -0.003201 0.005334
# 5 0.001778 0.000762 0.000431 -0.003201 0.032746 -0.014177
# 6 -0.000786 -0.005311 -0.001320 0.005334 -0.014177 0.031982
#
#
# Mechanical properties :
#
#
# Convention : Reuss Voigt Hill
#
# Bulk Modulus (GPa) = 21.60903 48.90640 35.25771
# Shear Modulus (GPa) = 27.96098 38.39366 33.17732
#
# Velocity S-wave (km/s) = 3.47258 4.06917 3.78266
# Velocity P-wave (km/s) = 5.03963 6.57036 5.85523
#
# Compressibility (1/GPa) = 0.04627695
#
# Stress axis : x y z
#
# Youngs Moduli (GPa) = 87.62015 54.31773 67.50590
#
# Poissons Ratio (x) = -0.05764 0.18347
# Poissons Ratio (y) = -0.09298 -0.16720
# Poissons Ratio (z) = 0.23814 -0.13454
#
# Static dielectric constant tensor:
#      x y z
#    x 4.333710 0.022720 -0.030830 
#    y 0.022720 4.149250 0.207560 
#    z -0.030830 0.207560 4.248370 
# 
# 
# High freq. dielectric constant tensor:
#      x y z
#    x 1.923600 -0.000120 0.002690 
#    y -0.000120 1.918600 0.020350 
#    z 0.002690 0.020350 1.916360 
# 
# From -- ./inp_files/495676.got.cif
#   From: 2010.06.25/outbox.cif.g09.slc.cpg/sg2_248_cif.got.tgz:495676.got - 2010.06.27 13:26:56.
