data_PCOD8025695
_publ_section_title
;
Structure prediction by ZEFSAII (Michael W. Deem and Ramdas Pophale) SiO2 
 PCOD8025695
Probable space group: P -1
;
_chemical_formula_sum "Si O2"
_cell_formula_units_Z 12
_cell_length_a 8.135866
_cell_length_b 15.019157
_cell_length_c 11.019136
_cell_angle_alpha 139.758428
_cell_angle_beta 40.879827
_cell_angle_gamma 145.690623
_cell_volume 460.217106
_symmetry_space_group_name_H-M "P -1"
_symmetry_group_IT_number 2
_symmetry_cell_setting 'triclinic'
loop_
_space_group_symop_operation_xyz
x,y,z
-x,-y,-z
loop_
_atom_site_type_symbol
_atom_site_label
_atom_site_fract_x
_atom_site_fract_y
_atom_site_fract_z
Si Si1 0.295380 0.518876 0.402246
Si Si2 0.818412 0.963014 0.873428
Si Si3 0.241298 0.595739 0.774523
Si Si4 0.373438 0.611375 0.990162
Si Si5 0.651675 0.000635 0.250798
Si Si6 0.764968 0.876192 0.403016
O O1 0.288068 0.507503 0.542419
O O2 0.309571 0.376641 0.175612
O O3 0.593470 0.695443 0.371386
O O4 0.000000 0.500000 0.500000
O O5 0.494869 0.799539 0.829729
O O6 0.735841 0.046740 0.110070
O O7 0.028469 0.905878 0.753674
O O8 0.023745 0.108138 0.810260
O O9 0.265889 0.536426 0.833411
O O10 0.875259 0.522855 0.909718
O O11 0.448415 0.795254 0.164047
O O12 0.457727 0.073070 0.472374
O O13 0.000000 0.000000 0.500000
#
# Coordination Sequence:
#
# PCOD8025695 Si02
#       6
#     2   2   2   2   2   2
#     4  12  29  45  67 104 142 175 222 285 346 394
#     4  10  23  45  73  97 136 179 234 270 333 406
#     4  10  23  45  73  96 136 183 229 270 335 409
#     4  10  25  47  72  98 133 184 229 271 337 407
#     4  10  25  46  73  99 132 183 232 274 328 407
#     4  12  27  45  68 103 140 177 225 282 341 395
#
# _framework density 26.074649000000001
#
# number of rings (size 3 to 8) (size 9 to 14) (size 15 to 20)
#    0.000    1.333    1.667    1.000   16.333    5.333 
#    0.000    0.000    0.000    0.000    0.000    0.000 
#    0.000    0.000    0.000    0.000    0.000    0.000 
#
# Total GULP energy -148660.659335 kJ/mol
# GULP energy per Si atom -12388.388278 kJ/mol
# Density = 2.601530 g / cm^3
# Si number density = 26.074649 Si / 1000 Ang^3
#
#
#
# Elastic Constant Matrix: (Units=GPa)
#
#
# Indices 1 2 3 4 5 6 
#
# 1 40.3510 17.5190 2.6792 -4.1728 0.7574 -2.1772
# 2 17.5190 131.4513 60.4347 -32.9519 20.1088 -15.9551
# 3 2.6792 60.4347 123.6694 -34.1337 10.0780 -16.4368
# 4 -4.1728 -32.9519 -34.1337 46.3941 -5.7549 7.9274
# 5 0.7574 20.1088 10.0780 -5.7549 39.6248 -6.4682
# 6 -2.1772 -15.9551 -16.4368 7.9274 -6.4682 34.5924
#
#
#
# Elastic Compliance Matrix: (Units=1/GPa)
#
#
# Indices 1 2 3 4 5 6 
#
# 1 0.026610 -0.004298 0.001663 0.000640 0.001441 0.000606
# 2 -0.004298 0.011921 -0.003985 0.004377 -0.004062 0.001572
# 3 0.001663 -0.003985 0.011890 0.005639 0.000220 0.002665
# 4 0.000640 0.004377 0.005639 0.029229 0.000266 -0.001910
# 5 0.001441 -0.004062 0.000220 0.000266 0.027818 0.003463
# 6 0.000606 0.001572 0.002665 -0.001910 0.003463 0.032023
#
#
# Mechanical properties :
#
#
# Convention : Reuss Voigt Hill
#
# Bulk Modulus (GPa) = 26.89372 50.74861 38.82116
# Shear Modulus (GPa) = 30.28031 38.44486 34.36259
#
# Velocity S-wave (km/s) = 3.41147 3.84398 3.63416
# Velocity P-wave (km/s) = 5.08469 6.26152 5.70354
#
# Compressibility (1/GPa) = 0.03718340
#
# Stress axis : x y z
#
# Youngs Moduli (GPa) = 37.58013 83.88255 84.10398
#
# Poissons Ratio (x) = 0.36050 -0.13990
# Poissons Ratio (y) = 0.16151 0.33513
# Poissons Ratio (z) = -0.06251 0.33425
#
# Static dielectric constant tensor:
#      x y z
#    x 4.648790 0.361770 0.300960 
#    y 0.361770 4.894670 -1.162500 
#    z 0.300960 -1.162500 5.750140 
# 
# 
# High freq. dielectric constant tensor:
#      x y z
#    x 2.027440 0.012130 0.013450 
#    y 0.012130 2.054120 -0.031690 
#    z 0.013450 -0.031690 2.048470 
# 
# From -- ./inp_files/402276.got.cif
#   From: 2010.06.25/outbox.cif.g09.slc.cpg/sg2_202_cif.got.tgz:402276.got - 2010.06.27 13:26:56.
