data_PCOD8025628
_publ_section_title
;
Structure prediction by ZEFSAII (Michael W. Deem and Ramdas Pophale) SiO2 
 PCOD8025628
Probable space group: P -1
;
_chemical_formula_sum "Si O2"
_cell_formula_units_Z 16
_cell_length_a 12.952698
_cell_length_b 15.339591
_cell_length_c 9.030852
_cell_angle_alpha 112.347219
_cell_angle_beta 103.541060
_cell_angle_gamma 26.952407
_cell_volume 728.326796
_symmetry_space_group_name_H-M "P -1"
_symmetry_group_IT_number 2
_symmetry_cell_setting 'triclinic'
loop_
_space_group_symop_operation_xyz
x,y,z
-x,-y,-z
loop_
_atom_site_type_symbol
_atom_site_label
_atom_site_fract_x
_atom_site_fract_y
_atom_site_fract_z
Si Si1 0.390473 0.487502 0.499489
Si Si2 0.512087 0.880002 0.948523
Si Si3 0.129346 0.836546 0.061857
Si Si4 0.120485 0.151632 0.545618
Si Si5 0.555660 0.795293 0.250757
Si Si6 0.010946 0.439596 0.804635
Si Si7 0.743823 0.063220 0.272188
Si Si8 0.421886 0.434085 0.812511
O O1 0.500000 0.500000 0.500000
O O2 0.511738 0.310352 0.327912
O O3 0.474621 0.398584 0.635133
O O4 0.110003 0.703294 0.524116
O O5 0.505185 0.856011 0.101660
O O6 0.747866 0.660774 0.797162
O O7 0.291195 0.004764 0.877214
O O8 0.500000 0.000000 0.000000
O O9 0.354699 0.714740 0.111541
O O10 0.201060 0.677115 0.923219
O O11 0.961674 0.952458 0.219030
O O12 0.000000 0.000000 0.000000
O O13 0.068716 0.282559 0.717593
O O14 0.326228 0.008425 0.403438
O O15 0.208668 0.998013 0.580555
O O16 0.637283 0.624032 0.193573
O O17 0.785614 0.672990 0.298898
O O18 0.000000 0.500000 0.000000
#
# Coordination Sequence:
#
# PCOD8025628 Si02
#       8
#     2   2   2   2   2   2   2   2
#     4  12  27  45  70 102 148 187 239 294 353 420
#     4  11  25  45  71 107 140 184 234 293 361 428
#     4  11  26  44  73 102 145 188 243 290 355 421
#     4  12  26  47  71 107 142 187 237 292 355 427
#     4  11  25  44  73 100 146 182 234 293 360 421
#     4  10  23  45  71 101 139 179 230 292 350 422
#     4  12  25  44  72 103 140 187 239 289 356 423
#     4  11  26  46  67 109 139 188 239 294 353 419
#
# _framework density 21.968160999999998
#
# number of rings (size 3 to 8) (size 9 to 14) (size 15 to 20)
#    0.000    0.750    2.500    4.125   10.500    3.000 
#    0.000    1.875    0.000    0.000    0.000    0.000 
#    0.000    0.000    0.000    0.000    0.000    0.000 
#
# Total GULP energy -198366.090232 kJ/mol
# GULP energy per Si atom -12397.880639 kJ/mol
# Density = 2.191816 g / cm^3
# Si number density = 21.968161 Si / 1000 Ang^3
#
#
#
# Elastic Constant Matrix: (Units=GPa)
#
#
# Indices 1 2 3 4 5 6 
#
# 1 134.2343 58.4168 42.1769 2.9198 -10.7756 16.4209
# 2 58.4168 126.1229 45.4095 13.7970 -8.1287 11.8382
# 3 42.1769 45.4095 88.8905 7.5694 -9.8247 6.8813
# 4 2.9198 13.7970 7.5694 42.0999 -0.3085 -9.3198
# 5 -10.7756 -8.1287 -9.8247 -0.3085 41.6849 3.8471
# 6 16.4209 11.8382 6.8813 -9.3198 3.8471 42.5591
#
#
#
# Elastic Compliance Matrix: (Units=1/GPa)
#
#
# Indices 1 2 3 4 5 6 
#
# 1 0.010256 -0.003448 -0.002758 0.000346 0.001573 -0.002618
# 2 -0.003448 0.011452 -0.003707 -0.003293 0.000632 -0.002034
# 3 -0.002758 -0.003707 0.014873 -0.001433 0.002134 -0.000817
# 4 0.000346 -0.003293 -0.001433 0.026597 -0.001336 0.006959
# 5 0.001573 0.000632 0.002134 -0.001336 0.025355 -0.003712
# 6 -0.002618 -0.002034 -0.000817 0.006959 -0.003712 0.027064
#
#
# Mechanical properties :
#
#
# Convention : Reuss Voigt Hill
#
# Bulk Modulus (GPa) = 59.67913 71.25043 65.46478
# Shear Modulus (GPa) = 35.45918 38.81840 37.13879
#
# Velocity S-wave (km/s) = 4.02197 4.20817 4.11612
# Velocity P-wave (km/s) = 6.98523 7.49103 7.24254
#
# Compressibility (1/GPa) = 0.01675628
#
# Stress axis : x y z
#
# Youngs Moduli (GPa) = 97.50668 87.31905 67.23619
#
# Poissons Ratio (x) = 0.30108 0.18541
# Poissons Ratio (y) = 0.33621 0.24922
# Poissons Ratio (z) = 0.26889 0.32366
#
# Static dielectric constant tensor:
#      x y z
#    x 4.101960 -0.153820 0.037330 
#    y -0.153820 4.319980 0.317910 
#    z 0.037330 0.317910 3.873510 
# 
# 
# High freq. dielectric constant tensor:
#      x y z
#    x 1.881150 -0.001150 0.004450 
#    y -0.001150 1.876960 0.012930 
#    z 0.004450 0.012930 1.859450 
# 
# From -- ./inp_files/273768.got.cif
#   From: 2010.06.25/outbox.cif.g09.slc.cpg/sg2_137_cif.got.tgz:273768.got - 2010.06.27 13:26:56.
