data_PCOD8025636
_publ_section_title
;
Structure prediction by ZEFSAII (Michael W. Deem and Ramdas Pophale) SiO2 
 PCOD8025636
Probable space group: P -1
;
_chemical_formula_sum "Si O2"
_cell_formula_units_Z 14
_cell_length_a 9.819605
_cell_length_b 13.732913
_cell_length_c 15.543515
_cell_angle_alpha 152.658600
_cell_angle_beta 46.956074
_cell_angle_gamma 115.517990
_cell_volume 599.731987
_symmetry_space_group_name_H-M "P -1"
_symmetry_group_IT_number 2
_symmetry_cell_setting 'triclinic'
loop_
_space_group_symop_operation_xyz
x,y,z
-x,-y,-z
loop_
_atom_site_type_symbol
_atom_site_label
_atom_site_fract_x
_atom_site_fract_y
_atom_site_fract_z
Si Si1 0.526523 0.277366 0.759241
Si Si2 0.032342 0.979021 0.266121
Si Si3 0.223145 0.312065 0.406619
Si Si4 0.336040 0.048263 0.981440
Si Si5 0.434853 0.972815 0.696081
Si Si6 0.222318 0.495023 0.896130
Si Si7 0.962550 0.144814 0.020303
O O1 0.358890 0.388938 0.840793
O O2 0.460220 0.119778 0.722624
O O3 0.500000 0.500000 0.000000
O O4 0.773582 0.105164 0.486130
O O5 0.098273 0.186285 0.403828
O O6 0.163822 0.776427 0.125313
O O7 0.116137 0.821717 0.018413
O O8 0.466889 0.188135 0.240609
O O9 0.089146 0.600209 0.713193
O O10 0.234159 0.283136 0.274642
O O11 0.419605 0.100133 0.896042
O O12 0.155659 0.979259 0.976932
O O13 0.637238 0.688833 0.386903
O O14 0.221361 0.957460 0.760825
O O15 0.000000 0.500000 0.000000
#
# Coordination Sequence:
#
# PCOD8025636 Si02
#       7
#     2   2   2   2   2   2   2
#     4  12  27  46  69 108 148 184 244 304 360 433
#     4  11  24  46  74 106 143 190 237 295 364 429
#     4  10  23  45  71 104 145 182 244 296 356 432
#     4  10  24  42  69 106 141 189 241 292 359 432
#     4  12  24  44  71 102 143 188 241 291 365 429
#     4  12  25  46  75 101 145 197 245 292 360 437
#     4  11  22  45  73 102 146 188 236 300 357 428
#
# _framework density 23.343762999999999
#
# number of rings (size 3 to 8) (size 9 to 14) (size 15 to 20)
#    0.000    0.857    2.857    3.857    2.000    4.571 
#    0.000    0.000    0.000    0.000    0.000    0.000 
#    0.000    0.000    0.000    0.000    0.000    0.000 
#
# Total GULP energy -173618.030907 kJ/mol
# GULP energy per Si atom -12401.287922 kJ/mol
# Density = 2.329063 g / cm^3
# Si number density = 23.343763 Si / 1000 Ang^3
#
#
#
# Elastic Constant Matrix: (Units=GPa)
#
#
# Indices 1 2 3 4 5 6 
#
# 1 94.4572 38.4361 59.1360 -8.9166 -2.4846 13.1230
# 2 38.4361 100.5295 59.4565 -12.7158 6.0097 -4.9173
# 3 59.1360 59.4565 144.1669 -2.9803 -0.1519 8.3542
# 4 -8.9166 -12.7158 -2.9803 38.9170 3.3877 -0.8763
# 5 -2.4846 6.0097 -0.1519 3.3877 48.1677 -3.5427
# 6 13.1230 -4.9173 8.3542 -0.8763 -3.5427 37.3604
#
#
#
# Elastic Compliance Matrix: (Units=1/GPa)
#
#
# Indices 1 2 3 4 5 6 
#
# 1 0.015790 -0.003191 -0.004841 0.002036 0.000703 -0.004769
# 2 -0.003191 0.014973 -0.005023 0.004046 -0.002030 0.004117
# 3 -0.004841 -0.005023 0.011036 -0.001976 0.000445 -0.001433
# 4 0.002036 0.004046 -0.001976 0.027548 -0.002293 0.000688
# 5 0.000703 -0.002030 0.000445 -0.002293 0.021313 0.001353
# 6 -0.004769 0.004117 -0.001433 0.000688 0.001353 0.029448
#
#
# Mechanical properties :
#
#
# Convention : Reuss Voigt Hill
#
# Bulk Modulus (GPa) = 63.74586 72.57899 68.16242
# Shear Modulus (GPa) = 33.01455 37.03070 35.02263
#
# Velocity S-wave (km/s) = 3.76477 3.98719 3.87757
# Velocity P-wave (km/s) = 6.80182 7.23573 7.02212
#
# Compressibility (1/GPa) = 0.01568729
#
# Stress axis : x y z
#
# Youngs Moduli (GPa) = 63.33239 66.78770 90.60858
#
# Poissons Ratio (x) = 0.21315 0.43867
# Poissons Ratio (y) = 0.20212 0.45513
# Poissons Ratio (z) = 0.30662 0.33547
#
# Static dielectric constant tensor:
#      x y z
#    x 4.239160 -0.140710 -0.135570 
#    y -0.140710 4.207630 -0.401620 
#    z -0.135570 -0.401620 4.149410 
# 
# 
# High freq. dielectric constant tensor:
#      x y z
#    x 1.936990 -0.003830 -0.004240 
#    y -0.003830 1.922320 -0.017990 
#    z -0.004240 -0.017990 1.934530 
# 
# From -- ./inp_files/505680.got.cif
#   From: 2010.06.25/outbox.cif.g09.slc.cpg/sg2_253_cif.got.tgz:505680.got - 2010.06.27 13:26:56.
