data_PCOD8025525
_publ_section_title
;
Structure prediction by ZEFSAII (Michael W. Deem and Ramdas Pophale) SiO2 
 PCOD8025525
Probable space group: P -1
;
_chemical_formula_sum "Si O2"
_cell_formula_units_Z 16
_cell_length_a 13.737640
_cell_length_b 14.213283
_cell_length_c 5.221118
_cell_angle_alpha 108.327752
_cell_angle_beta 65.338716
_cell_angle_gamma 134.626002
_cell_volume 659.020040
_symmetry_space_group_name_H-M "P -1"
_symmetry_group_IT_number 2
_symmetry_cell_setting 'triclinic'
loop_
_space_group_symop_operation_xyz
x,y,z
-x,-y,-z
loop_
_atom_site_type_symbol
_atom_site_label
_atom_site_fract_x
_atom_site_fract_y
_atom_site_fract_z
Si Si1 0.806240 0.784613 0.607715
Si Si2 0.065415 0.948570 0.140676
Si Si3 0.288605 0.611682 0.089921
Si Si4 0.385869 0.500827 0.257561
Si Si5 0.976305 0.599493 0.076647
Si Si6 0.447627 0.256603 0.368382
Si Si7 0.219953 0.975124 0.508056
Si Si8 0.859573 0.275116 0.508599
O O1 0.758697 0.648644 0.646480
O O2 0.664313 0.762854 0.716924
O O3 0.897270 0.824175 0.278908
O O4 0.908464 0.915520 0.789247
O O5 0.160199 0.958676 0.274857
O O6 0.099768 0.923729 0.808137
O O7 0.333424 0.563384 0.215412
O O8 0.206954 0.655973 0.337240
O O9 0.190071 0.490013 0.891859
O O10 0.433603 0.737242 0.901161
O O11 0.473002 0.599521 0.481691
O O12 0.500000 0.500000 0.000000
O O13 0.076338 0.701483 0.824522
O O14 0.016208 0.671228 0.368745
O O15 0.000000 0.500000 0.000000
O O16 0.361796 0.128342 0.538897
O O17 0.257825 0.881878 0.432647
#
# Coordination Sequence:
#
# PCOD8025525 Si02
#       8
#     2   2   2   2   2   2   2   2
#     4  10  23  45  69 102 139 186 238 290 350 416
#     4  10  24  46  73 102 139 185 231 298 351 403
#     4  11  26  43  71 101 142 184 229 288 356 412
#     4  12  25  43  68 102 142 188 231 286 349 424
#     4  10  23  45  71 102 138 175 232 295 345 409
#     4  11  26  44  67  98 144 185 236 289 342 421
#     4  11  25  46  70 103 141 182 239 288 345 417
#     4  11  25  47  72 105 138 183 232 293 350 414
#
# _framework density 24.278476000000001
#
# number of rings (size 3 to 8) (size 9 to 14) (size 15 to 20)
#    0.000    1.250    1.250    3.375    8.750    7.000 
#    0.000    0.625    0.000    0.000    0.000    0.000 
#    0.000    0.000    0.000    0.000    0.000    0.000 
#
# Total GULP energy -198257.650044 kJ/mol
# GULP energy per Si atom -12391.103128 kJ/mol
# Density = 2.422322 g / cm^3
# Si number density = 24.278476 Si / 1000 Ang^3
#
#
#
# Elastic Constant Matrix: (Units=GPa)
#
#
# Indices 1 2 3 4 5 6 
#
# 1 81.2005 29.9305 27.8972 -10.6097 -10.1787 -5.3462
# 2 29.9305 146.7318 15.8932 -21.5357 -6.3202 -25.2301
# 3 27.8972 15.8932 80.2115 -16.3277 6.1735 4.7329
# 4 -10.6097 -21.5357 -16.3277 36.6738 7.3464 -2.8952
# 5 -10.1787 -6.3202 6.1735 7.3464 30.8404 -9.9781
# 6 -5.3462 -25.2301 4.7329 -2.8952 -9.9781 40.5157
#
#
#
# Elastic Compliance Matrix: (Units=1/GPa)
#
#
# Indices 1 2 3 4 5 6 
#
# 1 0.016195 -0.001745 -0.006126 -0.000274 0.007437 0.003578
# 2 -0.001745 0.009152 -0.000869 0.004494 0.002509 0.006510
# 3 -0.006126 -0.000869 0.017117 0.006714 -0.008860 -0.005051
# 4 -0.000274 0.004494 0.006714 0.034606 -0.007950 0.002493
# 5 0.007437 0.002509 -0.008860 -0.007950 0.043501 0.013724
# 6 0.003578 0.006510 -0.005051 0.002493 0.013724 0.033356
#
#
# Mechanical properties :
#
#
# Convention : Reuss Voigt Hill
#
# Bulk Modulus (GPa) = 40.02565 50.62062 45.32314
# Shear Modulus (GPa) = 27.81888 37.23416 32.52652
#
# Velocity S-wave (km/s) = 3.38868 3.92041 3.66420
# Velocity P-wave (km/s) = 5.64205 6.43335 6.05065
#
# Compressibility (1/GPa) = 0.02498398
#
# Stress axis : x y z
#
# Youngs Moduli (GPa) = 61.74774 109.26404 58.42313
#
# Poissons Ratio (x) = 0.19061 0.35791
# Poissons Ratio (y) = 0.10772 0.05078
# Poissons Ratio (z) = 0.37827 0.09497
#
# Static dielectric constant tensor:
#      x y z
#    x 4.167840 -1.110960 0.005270 
#    y -1.110960 1.515600 -0.311940 
#    z 0.005270 -0.311940 4.528980 
# 
# 
# High freq. dielectric constant tensor:
#      x y z
#    x 1.959160 -0.009250 0.000840 
#    y -0.009250 1.979310 -0.007780 
#    z 0.000840 -0.007780 1.958250 
# 
# From -- ./inp_files/98397.got.cif
#   From: 2010.06.25/outbox.cif.g09.slc.cpg/sg2_50_cif.got.tgz:98397.got - 2010.06.27 13:26:56.
