data_PCOD8025660
_publ_section_title
;
Structure prediction by ZEFSAII (Michael W. Deem and Ramdas Pophale) SiO2 
 PCOD8025660
Probable space group: P -1
;
_chemical_formula_sum "Si O2"
_cell_formula_units_Z 14
_cell_length_a 8.717291
_cell_length_b 14.715375
_cell_length_c 14.834908
_cell_angle_alpha 29.892455
_cell_angle_beta 113.013861
_cell_angle_gamma 132.237137
_cell_volume 599.827197
_symmetry_space_group_name_H-M "P -1"
_symmetry_group_IT_number 2
_symmetry_cell_setting 'triclinic'
loop_
_space_group_symop_operation_xyz
x,y,z
-x,-y,-z
loop_
_atom_site_type_symbol
_atom_site_label
_atom_site_fract_x
_atom_site_fract_y
_atom_site_fract_z
Si Si1 0.599364 0.734996 0.883653
Si Si2 0.207955 0.356459 0.658146
Si Si3 0.316788 0.152895 0.002240
Si Si4 0.118371 0.272208 0.507353
Si Si5 0.811163 0.366275 0.911284
Si Si6 0.358089 0.113726 0.632216
Si Si7 0.668387 0.138743 0.329869
O O1 0.388175 0.717882 0.857668
O O2 0.500000 0.500000 0.000000
O O3 0.680379 0.723174 0.011196
O O4 0.831491 0.017200 0.650078
O O5 0.324733 0.280072 0.805490
O O6 0.229357 0.324018 0.586259
O O7 0.367474 0.659725 0.459543
O O8 0.927114 0.164551 0.784860
O O9 0.546891 0.208414 0.023175
O O10 0.176058 0.531035 0.273368
O O11 0.242676 0.224850 0.509216
O O12 0.043103 0.637587 0.780545
O O13 0.808670 0.145327 0.116046
O O14 0.380013 0.064477 0.576265
O O15 0.500000 0.000000 0.500000
#
# Coordination Sequence:
#
# PCOD8025660 Si02
#       7
#     2   2   2   2   2   2   2
#     4  11  24  45  73 103 142 190 233 288 364 414
#     4  10  24  48  70 103 145 183 245 280 351 427
#     4  10  23  45  72 101 140 187 229 298 341 417
#     4  11  25  47  71 105 146 185 234 294 348 417
#     4  12  25  44  72 104 142 181 238 288 357 412
#     4  12  26  45  75 104 142 188 235 290 352 422
#     4  12  27  47  67 107 145 176 240 295 346 432
#
# _framework density 23.340053999999999
#
# number of rings (size 3 to 8) (size 9 to 14) (size 15 to 20)
#    0.000    0.857    4.286    1.714    4.000    1.714 
#    2.571    0.000    0.000    0.000    0.000    0.000 
#    0.000    0.000    0.000    0.000    0.000    0.000 
#
# Total GULP energy -173437.637623 kJ/mol
# GULP energy per Si atom -12388.402687 kJ/mol
# Density = 2.328693 g / cm^3
# Si number density = 23.340054 Si / 1000 Ang^3
#
#
#
# Elastic Constant Matrix: (Units=GPa)
#
#
# Indices 1 2 3 4 5 6 
#
# 1 74.9824 40.0322 4.5412 -6.9615 -11.2451 11.9461
# 2 40.0322 142.6574 44.2522 -12.7818 -5.5607 3.6653
# 3 4.5412 44.2522 109.4083 -1.3772 -3.0899 -0.3243
# 4 -6.9615 -12.7818 -1.3772 52.8453 7.0131 -7.9563
# 5 -11.2451 -5.5607 -3.0899 7.0131 20.4423 -4.3660
# 6 11.9461 3.6653 -0.3243 -7.9563 -4.3660 39.9326
#
#
#
# Elastic Compliance Matrix: (Units=1/GPa)
#
#
# Indices 1 2 3 4 5 6 
#
# 1 0.017747 -0.005087 0.001526 -0.000516 0.007918 -0.004067
# 2 -0.005087 0.009689 -0.003715 0.001860 -0.001182 0.000844
# 3 0.001526 -0.003715 0.010618 -0.000637 0.001658 0.000025
# 4 -0.000516 0.001860 -0.000637 0.020627 -0.006223 0.003408
# 5 0.007918 -0.001182 0.001658 -0.006223 0.055898 0.002625
# 6 -0.004067 0.000844 0.000025 0.003408 0.002625 0.027148
#
#
# Mechanical properties :
#
#
# Convention : Reuss Voigt Hill
#
# Bulk Modulus (GPa) = 42.54891 56.07769 49.31330
# Shear Modulus (GPa) = 30.46678 38.52553 34.49616
#
# Velocity S-wave (km/s) = 3.61687 4.06719 3.84862
# Velocity P-wave (km/s) = 5.97595 6.79224 6.39713
#
# Compressibility (1/GPa) = 0.02350237
#
# Stress axis : x y z
#
# Youngs Moduli (GPa) = 56.34676 103.21497 94.17769
#
# Poissons Ratio (x) = 0.52501 -0.14370
# Poissons Ratio (y) = 0.28661 0.34987
# Poissons Ratio (z) = -0.08597 0.38345
#
# Static dielectric constant tensor:
#      x y z
#    x 3.951820 0.291520 -0.266490 
#    y 0.291520 4.422240 -0.074100 
#    z -0.266490 -0.074100 4.451340 
# 
# 
# High freq. dielectric constant tensor:
#      x y z
#    x 1.899840 0.026650 -0.020790 
#    y 0.026650 1.939490 0.000750 
#    z -0.020790 0.000750 1.934400 
# 
# From -- ./inp_files/380422.got.cif
#   From: 2010.06.25/outbox.cif.g09.slc.cpg/sg2_191_cif.got.tgz:380422.got - 2010.06.27 13:26:56.
