data_PCOD8025006
_publ_section_title
;
Structure prediction by ZEFSAII (Michael W. Deem and Ramdas Pophale) SiO2 
 PCOD8025006
Probable space group: P -1
;
_chemical_formula_sum "Si O2"
_cell_formula_units_Z 14
_cell_length_a 9.702805
_cell_length_b 13.753975
_cell_length_c 5.085877
_cell_angle_alpha 93.852135
_cell_angle_beta 91.606572
_cell_angle_gamma 68.225027
_cell_volume 628.865471
_symmetry_space_group_name_H-M "P -1"
_symmetry_group_IT_number 2
_symmetry_cell_setting 'triclinic'
loop_
_space_group_symop_operation_xyz
x,y,z
-x,-y,-z
loop_
_atom_site_type_symbol
_atom_site_label
_atom_site_fract_x
_atom_site_fract_y
_atom_site_fract_z
Si Si1 0.619437 0.766308 0.438680
Si Si2 0.653301 0.233898 0.311549
Si Si3 0.887934 0.439887 0.990877
Si Si4 0.805025 0.897464 0.561829
Si Si5 0.835113 0.015390 0.071910
Si Si6 0.359705 0.355222 0.097758
Si Si7 0.090486 0.694051 0.527708
O O1 0.441633 0.803346 0.484867
O O2 0.664885 0.867321 0.472524
O O3 0.669564 0.710264 0.154867
O O4 0.706448 0.682185 0.654774
O O5 0.739637 0.138567 0.106413
O O6 0.536574 0.327262 0.144581
O O7 0.763974 0.276682 0.474938
O O8 0.886764 0.395086 0.271272
O O9 0.722357 0.521157 0.929332
O O10 0.000000 0.500000 0.000000
O O11 0.064823 0.653547 0.234183
O O12 0.840083 0.962628 0.343597
O O13 0.949095 0.795203 0.611127
O O14 0.762707 0.966138 0.836930
O O15 0.000000 0.000000 0.000000
#
# Coordination Sequence:
#
# PCOD8025006 Si02
#       7
#     2   2   2   2   2   2   2
#     4  10  23  44  68  96 143 176 218 282 339 389
#     4  10  28  43  70  99 144 174 224 282 342 399
#     4  12  25  44  72 100 134 178 230 277 335 401
#     4  12  25  44  72 100 135 180 234 277 334 400
#     4  12  26  44  71 100 138 179 230 279 336 399
#     4  10  23  44  67  95 145 169 221 281 337 392
#     4  12  26  42  73 100 132 182 227 274 345 394
#
# _framework density 22.262312000000001
#
# number of rings (size 3 to 8) (size 9 to 14) (size 15 to 20)
#    0.857    0.000    1.429    5.143    4.000    2.286 
#    0.000    0.000    0.000    0.000    0.000    0.000 
#    0.000    0.000    0.000    0.000    0.000    0.000 
#
# Total GULP energy -173635.084130 kJ/mol
# GULP energy per Si atom -12402.506009 kJ/mol
# Density = 2.221164 g / cm^3
# Si number density = 22.262312 Si / 1000 Ang^3
#
#
#
# Elastic Constant Matrix: (Units=GPa)
#
#
# Indices 1 2 3 4 5 6 
#
# 1 123.0277 40.4671 12.0342 2.7381 7.0449 12.3147
# 2 40.4671 76.9567 11.3512 2.4575 -1.4889 -5.7920
# 3 12.0342 11.3512 100.2029 9.0433 20.4810 4.5543
# 4 2.7381 2.4575 9.0433 39.3299 8.8236 1.4751
# 5 7.0449 -1.4889 20.4810 8.8236 26.5869 8.9823
# 6 12.3147 -5.7920 4.5543 1.4751 8.9823 38.3933
#
#
#
# Elastic Compliance Matrix: (Units=1/GPa)
#
#
# Indices 1 2 3 4 5 6 
#
# 1 0.010551 -0.005869 -0.000070 0.000205 -0.001842 -0.003838
# 2 -0.005869 0.016747 -0.001881 -0.001012 0.002932 0.003985
# 3 -0.000070 -0.001881 0.012159 -0.000575 -0.009440 0.000527
# 4 0.000205 -0.001012 -0.000575 0.027625 -0.009150 0.000929
# 5 -0.001842 0.002932 -0.009440 -0.009150 0.051824 -0.009620
# 6 -0.003838 0.003985 0.000527 0.000929 -0.009620 0.030031
#
#
# Mechanical properties :
#
#
# Convention : Reuss Voigt Hill
#
# Bulk Modulus (GPa) = 41.98789 47.54359 44.76574
# Shear Modulus (GPa) = 28.98308 36.61769 32.80038
#
# Velocity S-wave (km/s) = 3.61209 4.06005 3.84260
# Velocity P-wave (km/s) = 6.02476 6.58643 6.31185
#
# Compressibility (1/GPa) = 0.02381639
#
# Stress axis : x y z
#
# Youngs Moduli (GPa) = 94.78200 59.71302 82.24495
#
# Poissons Ratio (x) = 0.35044 0.00575
# Poissons Ratio (y) = 0.55624 0.15473
# Poissons Ratio (z) = 0.00662 0.11234
#
# Static dielectric constant tensor:
#      x y z
#    x 4.031910 -0.099910 0.013120 
#    y -0.099910 4.038470 0.047110 
#    z 0.013120 0.047110 4.056650 
# 
# 
# High freq. dielectric constant tensor:
#      x y z
#    x 1.878340 -0.002450 0.003050 
#    y -0.002450 1.874420 0.002170 
#    z 0.003050 0.002170 1.887680 
# 
# From -- ./inp_files/39814.got.cif
#   From: 2010.06.25/outbox.cif.g09.slc.cpg/sg2_20_cif.got.tgz:39814.got - 2010.06.27 13:26:56.
