data_PCOD8025161
_publ_section_title
;
Structure prediction by ZEFSAII (Michael W. Deem and Ramdas Pophale) SiO2 
 PCOD8025161
Probable space group: P -1
;
_chemical_formula_sum "Si O2"
_cell_formula_units_Z 16
_cell_length_a 12.099804
_cell_length_b 8.931369
_cell_length_c 17.588971
_cell_angle_alpha 49.806431
_cell_angle_beta 149.820170
_cell_angle_gamma 129.427232
_cell_volume 715.020003
_symmetry_space_group_name_H-M "P -1"
_symmetry_group_IT_number 2
_symmetry_cell_setting 'triclinic'
loop_
_space_group_symop_operation_xyz
x,y,z
-x,-y,-z
loop_
_atom_site_type_symbol
_atom_site_label
_atom_site_fract_x
_atom_site_fract_y
_atom_site_fract_z
Si Si1 0.927761 0.045210 0.145963
Si Si2 0.698728 0.650901 0.529916
Si Si3 0.715035 0.509244 0.415121
Si Si4 0.725720 0.741438 0.835065
Si Si5 0.597291 0.085157 0.313336
Si Si6 0.497512 0.275142 0.043766
Si Si7 0.140397 0.631228 0.895445
Si Si8 0.985537 0.239464 0.595436
O O1 0.836837 0.240683 0.054354
O O2 0.105674 0.101287 0.166748
O O3 0.037220 0.979031 0.310020
O O4 0.750907 0.847655 0.081006
O O5 0.500000 0.500000 0.500000
O O6 0.728852 0.598494 0.477661
O O7 0.922753 0.645042 0.712124
O O8 0.624510 0.861824 0.417057
O O9 0.467648 0.379791 0.294807
O O10 0.914160 0.383634 0.570130
O O11 0.771329 0.678635 0.326147
O O12 0.630582 0.875252 0.796895
O O13 0.864145 0.596762 0.007849
O O14 0.601247 0.141441 0.209039
O O15 0.806490 0.236192 0.423148
O O16 0.638071 0.283467 0.048201
O O17 0.500000 0.500000 0.000000
#
# Coordination Sequence:
#
# PCOD8025161 Si02
#       8
#     2   2   2   2   2   2   2   2
#     4  12  27  44  74 104 141 190 240 290 357 418
#     4  12  28  44  74 108 149 180 238 299 360 414
#     4  10  24  42  72 100 140 185 232 290 353 414
#     4  11  26  47  74 101 148 187 239 285 359 433
#     4  11  26  47  70 107 141 189 239 292 357 424
#     4  12  28  47  74 105 143 187 243 296 351 422
#     4  12  26  49  70 105 145 189 236 294 355 420
#     4  10  23  44  70 100 138 186 234 288 349 422
#
# _framework density 22.376996999999999
#
# number of rings (size 3 to 8) (size 9 to 14) (size 15 to 20)
#    0.000    0.750    2.500    3.000   12.250    2.500 
#    0.000    0.000    0.000    0.000    0.000    0.000 
#    0.000    0.000    0.000    0.000    0.000    0.000 
#
# Total GULP energy -198390.826239 kJ/mol
# GULP energy per Si atom -12399.426640 kJ/mol
# Density = 2.232607 g / cm^3
# Si number density = 22.376997 Si / 1000 Ang^3
#
#
#
# Elastic Constant Matrix: (Units=GPa)
#
#
# Indices 1 2 3 4 5 6 
#
# 1 121.5284 59.0691 30.5284 2.2269 7.6076 13.1310
# 2 59.0691 122.3394 51.2957 -7.5630 8.6109 10.8274
# 3 30.5284 51.2957 103.7726 -12.5373 -6.6848 6.7299
# 4 2.2269 -7.5630 -12.5373 27.2659 3.4125 -0.7900
# 5 7.6076 8.6109 -6.6848 3.4125 29.9649 -2.1368
# 6 13.1310 10.8274 6.7299 -0.7900 -2.1368 55.7930
#
#
#
# Elastic Compliance Matrix: (Units=1/GPa)
#
#
# Indices 1 2 3 4 5 6 
#
# 1 0.011195 -0.004795 -0.001238 -0.002667 -0.001555 -0.001652
# 2 -0.004795 0.013076 -0.004983 0.002197 -0.003968 -0.000929
# 3 -0.001238 -0.004983 0.013260 0.004286 0.004208 -0.000119
# 4 -0.002667 0.002197 0.004286 0.039920 -0.003536 0.000114
# 5 -0.001555 -0.003968 0.004208 -0.003536 0.036389 0.001972
# 6 -0.001652 -0.000929 -0.000119 0.000114 0.001972 0.018584
#
#
# Mechanical properties :
#
#
# Convention : Reuss Voigt Hill
#
# Bulk Modulus (GPa) = 64.52191 69.93632 67.22912
# Shear Modulus (GPa) = 31.32369 36.38790 33.85580
#
# Velocity S-wave (km/s) = 3.74547 4.03690 3.89392
# Velocity P-wave (km/s) = 6.89937 7.28356 7.09407
#
# Compressibility (1/GPa) = 0.01549861
#
# Stress axis : x y z
#
# Youngs Moduli (GPa) = 89.32493 76.47676 75.41261
#
# Poissons Ratio (x) = 0.36674 0.09338
# Poissons Ratio (y) = 0.42835 0.37576
# Poissons Ratio (z) = 0.11061 0.38106
#
# Static dielectric constant tensor:
#      x y z
#    x 3.638770 0.677050 0.130990 
#    y 0.677050 3.151510 -0.250560 
#    z 0.130990 -0.250560 4.095640 
# 
# 
# High freq. dielectric constant tensor:
#      x y z
#    x 1.894760 0.001950 -0.002390 
#    y 0.001950 1.891540 -0.005280 
#    z -0.002390 -0.005280 1.884830 
# 
# From -- ./inp_files/186762.got.cif
#   From: 2010.06.25/outbox.cif.g09.slc.cpg/sg2_94_cif.got.tgz:186762.got - 2010.06.27 13:26:56.
