data_PCOD8025208
_publ_section_title
;
Structure prediction by ZEFSAII (Michael W. Deem and Ramdas Pophale) SiO2 
 PCOD8025208
Probable space group: P -1
;
_chemical_formula_sum "Si O2"
_cell_formula_units_Z 16
_cell_length_a 13.600543
_cell_length_b 19.109961
_cell_length_c 8.537318
_cell_angle_alpha 128.194298
_cell_angle_beta 61.584632
_cell_angle_gamma 155.232324
_cell_volume 705.460552
_symmetry_space_group_name_H-M "P -1"
_symmetry_group_IT_number 2
_symmetry_cell_setting 'triclinic'
loop_
_space_group_symop_operation_xyz
x,y,z
-x,-y,-z
loop_
_atom_site_type_symbol
_atom_site_label
_atom_site_fract_x
_atom_site_fract_y
_atom_site_fract_z
Si Si1 0.064194 0.614927 0.977479
Si Si2 0.368061 0.558198 0.950913
Si Si3 0.475846 0.981743 0.676073
Si Si4 0.611112 0.228842 0.320959
Si Si5 0.634058 0.628208 0.422756
Si Si6 0.828921 0.102070 0.029541
Si Si7 0.816911 0.898719 0.866393
Si Si8 0.647627 0.453933 0.720215
O O1 0.260501 0.823143 0.178688
O O2 0.824842 0.500468 0.962900
O O3 0.165050 0.637097 0.777084
O O4 0.000000 0.500000 0.000000
O O5 0.247700 0.375595 0.752987
O O6 0.548735 0.712471 0.887318
O O7 0.504893 0.650566 0.145160
O O8 0.500000 0.000000 0.500000
O O9 0.361058 0.809298 0.593862
O O10 0.307824 0.947570 0.792211
O O11 0.628245 0.345051 0.502261
O O12 0.349672 0.020352 0.154040
O O13 0.500000 0.500000 0.500000
O O14 0.829627 0.839305 0.626430
O O15 0.444646 0.537784 0.319880
O O16 0.078440 0.331345 0.130430
O O17 0.894002 0.047910 0.949368
O O18 0.000000 0.000000 0.000000
#
# Coordination Sequence:
#
# PCOD8025208 Si02
#       8
#     2   2   2   2   2   2   2   2
#     4  11  25  44  71 105 143 186 235 289 350 424
#     4  11  24  44  70 102 139 181 237 288 348 425
#     4  11  26  42  67 104 141 185 237 287 348 420
#     4  11  25  47  68 104 150 187 232 289 351 417
#     4  10  23  44  70  98 135 180 231 286 348 412
#     4  11  23  45  68  99 141 185 231 287 353 414
#     4  11  24  46  69 101 140 183 234 294 355 415
#     4  12  25  44  77 102 141 187 229 290 357 416
#
# _framework density 22.680218
#
# number of rings (size 3 to 8) (size 9 to 14) (size 15 to 20)
#    0.000    1.000    1.250    6.375    7.000    2.000 
#    2.250    1.250    0.000    0.000    0.000    0.000 
#    0.000    0.000    0.000    0.000    0.000    0.000 
#
# Total GULP energy -198378.839637 kJ/mol
# GULP energy per Si atom -12398.677477 kJ/mol
# Density = 2.262860 g / cm^3
# Si number density = 22.680218 Si / 1000 Ang^3
#
#
#
# Elastic Constant Matrix: (Units=GPa)
#
#
# Indices 1 2 3 4 5 6 
#
# 1 135.4392 22.2479 42.7662 -11.3405 -6.2410 -19.9373
# 2 22.2479 57.8685 21.1207 1.4844 -0.4769 -15.4974
# 3 42.7662 21.1207 129.4455 -9.8970 -9.2367 -7.8918
# 4 -11.3405 1.4844 -9.8970 36.1411 -7.5671 8.9061
# 5 -6.2410 -0.4769 -9.2367 -7.5671 37.0573 0.2802
# 6 -19.9373 -15.4974 -7.8918 8.9061 0.2802 41.8934
#
#
#
# Elastic Compliance Matrix: (Units=1/GPa)
#
#
# Indices 1 2 3 4 5 6 
#
# 1 0.009041 -0.001953 -0.002264 0.001893 0.001299 0.002743
# 2 -0.001953 0.021112 -0.002814 -0.004408 -0.001714 0.007299
# 3 -0.002264 -0.002814 0.009254 0.002689 0.002445 -0.000963
# 4 0.001893 -0.004408 0.002689 0.032552 0.007634 -0.007194
# 5 0.001299 -0.001714 0.002445 0.007634 0.029361 -0.001374
# 6 0.002743 0.007299 -0.000963 -0.007194 -0.001374 0.029233
#
#
# Mechanical properties :
#
#
# Convention : Reuss Voigt Hill
#
# Bulk Modulus (GPa) = 39.45448 55.00252 47.22850
# Shear Modulus (GPa) = 32.66659 38.79292 35.72976
#
# Velocity S-wave (km/s) = 3.79926 4.14022 3.97340
# Velocity P-wave (km/s) = 6.05637 6.86726 6.47452
#
# Compressibility (1/GPa) = 0.02534566
#
# Stress axis : x y z
#
# Youngs Moduli (GPa) = 110.60587 47.36635 108.06640
#
# Poissons Ratio (x) = 0.09251 0.24462
# Poissons Ratio (y) = 0.21603 0.30407
# Poissons Ratio (z) = 0.25037 0.13328
#
# Static dielectric constant tensor:
#      x y z
#    x 4.192660 -0.205570 -0.051390 
#    y -0.205570 4.127560 -0.064940 
#    z -0.051390 -0.064940 4.611670 
# 
# 
# High freq. dielectric constant tensor:
#      x y z
#    x 1.911840 -0.014820 -0.003790 
#    y -0.014820 1.882180 -0.003370 
#    z -0.003790 -0.003370 1.909940 
# 
# From -- ./inp_files/279816.got.cif
#   From: 2010.06.25/outbox.cif.g09.slc.cpg/sg2_140_cif.got.tgz:279816.got - 2010.06.27 13:26:56.
