data_PCOD8025788
_publ_section_title
;
Structure prediction by ZEFSAII (Michael W. Deem and Ramdas Pophale) SiO2 
 PCOD8025788
Probable space group: P -1
;
_chemical_formula_sum "Si O2"
_cell_formula_units_Z 16
_cell_length_a 10.764131
_cell_length_b 12.095489
_cell_length_c 11.663087
_cell_angle_alpha 106.658602
_cell_angle_beta 136.387249
_cell_angle_gamma 107.767009
_cell_volume 633.118659
_symmetry_space_group_name_H-M "P -1"
_symmetry_group_IT_number 2
_symmetry_cell_setting 'triclinic'
loop_
_space_group_symop_operation_xyz
x,y,z
-x,-y,-z
loop_
_atom_site_type_symbol
_atom_site_label
_atom_site_fract_x
_atom_site_fract_y
_atom_site_fract_z
Si Si1 0.349521 0.240089 0.343352
Si Si2 0.318807 0.122021 0.040926
Si Si3 0.001346 0.446714 0.126696
Si Si4 0.045659 0.772956 0.805046
Si Si5 0.524897 0.884552 0.440889
Si Si6 0.828996 0.909884 0.476050
Si Si7 0.722716 0.514442 0.057666
Si Si8 0.646173 0.477553 0.254647
O O1 0.678978 0.439622 0.639050
O O2 0.157039 0.250157 0.256270
O O3 0.295925 0.099675 0.342459
O O4 0.276632 0.174183 0.144084
O O5 0.576784 0.310655 0.198647
O O6 0.339657 0.993833 0.042726
O O7 0.032166 0.970913 0.730992
O O8 0.857993 0.293608 0.083104
O O9 0.801232 0.330536 0.845750
O O10 0.981110 0.570850 0.190574
O O11 0.870095 0.648714 0.538534
O O12 0.678039 0.951737 0.437587
O O13 0.500000 0.000000 0.500000
O O14 0.582012 0.694972 0.230801
O O15 0.000000 0.000000 0.500000
O O16 0.666883 0.613028 0.991868
O O17 0.792493 0.553844 0.250671
#
# Coordination Sequence:
#
# PCOD8025788 Si02
#       8
#     2   2   2   2   2   2   2   2
#     4  12  25  45  68 103 141 186 234 283 362 421
#     4  12  24  41  74 103 134 181 241 283 347 426
#     4  11  25  44  68  99 145 179 235 293 350 420
#     4  12  24  45  68 102 140 183 232 289 345 426
#     4  11  25  44  69 104 145 184 234 301 351 415
#     4  11  22  43  71 100 143 182 238 290 342 427
#     4  10  23  46  68 102 139 184 238 290 349 417
#     4  11  23  43  74  98 134 190 230 284 357 414
#
# _framework density 25.271723000000001
#
# number of rings (size 3 to 8) (size 9 to 14) (size 15 to 20)
#    0.000    0.750    5.000    2.625    1.750    1.500 
#    0.000    0.625    0.000    0.000    0.000    0.000 
#    0.000    0.000    0.000    0.000    0.000    0.000 
#
# Total GULP energy -198246.732892 kJ/mol
# GULP energy per Si atom -12390.420806 kJ/mol
# Density = 2.521420 g / cm^3
# Si number density = 25.271723 Si / 1000 Ang^3
#
#
#
# Elastic Constant Matrix: (Units=GPa)
#
#
# Indices 1 2 3 4 5 6 
#
# 1 86.1216 6.3826 0.2032 -4.7972 -9.8242 1.9895
# 2 6.3826 82.8269 -13.3504 2.8117 -1.4975 0.3027
# 3 0.2032 -13.3504 70.2277 -0.2566 -22.1976 11.0143
# 4 -4.7972 2.8117 -0.2566 44.2307 4.9913 -3.9570
# 5 -9.8242 -1.4975 -22.1976 4.9913 41.2025 -4.7590
# 6 1.9895 0.3027 11.0143 -3.9570 -4.7590 35.7055
#
#
#
# Elastic Compliance Matrix: (Units=1/GPa)
#
#
# Indices 1 2 3 4 5 6 
#
# 1 0.012091 -0.000762 0.000890 0.000970 0.003170 -0.000412
# 2 -0.000762 0.012730 0.003208 -0.001186 0.002047 -0.000914
# 3 0.000890 0.003208 0.018765 -0.001556 0.010085 -0.004694
# 4 0.000970 -0.001186 -0.001556 0.023372 -0.003181 0.002602
# 5 0.003170 0.002047 0.010085 -0.003181 0.030973 0.000471
# 6 -0.000412 -0.000914 -0.004694 0.002602 0.000471 0.029837
#
#
# Mechanical properties :
#
#
# Convention : Reuss Voigt Hill
#
# Bulk Modulus (GPa) = 19.89745 25.07187 22.48466
# Shear Modulus (GPa) = 36.27175 40.62378 38.44777
#
# Velocity S-wave (km/s) = 3.79261 4.01369 3.90471
# Velocity P-wave (km/s) = 5.20279 5.60554 5.40791
#
# Compressibility (1/GPa) = 0.05025769
#
# Stress axis : x y z
#
# Youngs Moduli (GPa) = 82.70585 78.55533 53.29144
#
# Poissons Ratio (x) = 0.05989 -0.04743
# Poissons Ratio (y) = 0.06305 -0.17098
# Poissons Ratio (z) = -0.07362 -0.25203
#
# Static dielectric constant tensor:
#      x y z
#    x 4.630030 0.057820 -0.222960 
#    y 0.057820 5.037110 -0.044680 
#    z -0.222960 -0.044680 4.749650 
# 
# 
# High freq. dielectric constant tensor:
#      x y z
#    x 1.995680 0.003220 -0.024760 
#    y 0.003220 2.014070 -0.005920 
#    z -0.024760 -0.005920 2.017170 
# 
# From -- ./inp_files/428486.got.cif
#   From: 2010.06.25/outbox.cif.g09.slc.cpg/sg2_215_cif.got.tgz:428486.got - 2010.06.27 13:26:56.
