data_PCOD8025210
_publ_section_title
;
Structure prediction by ZEFSAII (Michael W. Deem and Ramdas Pophale) SiO2 
 PCOD8025210
Probable space group: P -1
;
_chemical_formula_sum "Si O2"
_cell_formula_units_Z 12
_cell_length_a 8.203587
_cell_length_b 5.024437
_cell_length_c 13.583362
_cell_angle_alpha 104.176259
_cell_angle_beta 117.862504
_cell_angle_gamma 89.711862
_cell_volume 475.977538
_symmetry_space_group_name_H-M "P -1"
_symmetry_group_IT_number 2
_symmetry_cell_setting 'triclinic'
loop_
_space_group_symop_operation_xyz
x,y,z
-x,-y,-z
loop_
_atom_site_type_symbol
_atom_site_label
_atom_site_fract_x
_atom_site_fract_y
_atom_site_fract_z
Si Si1 0.351804 0.143084 0.348025
Si Si2 0.828841 0.766016 0.933461
Si Si3 0.028723 0.722410 0.172407
Si Si4 0.601271 0.668780 0.412440
Si Si5 0.454605 0.962288 0.871275
Si Si6 0.759748 0.612888 0.253576
O O1 0.486445 0.362350 0.341952
O O2 0.301418 0.288762 0.449552
O O3 0.455076 0.881919 0.376573
O O4 0.157231 0.023856 0.226891
O O5 0.638894 0.882824 0.862583
O O6 0.843613 0.513384 0.840329
O O7 0.845234 0.677913 0.045977
O O8 0.000000 0.000000 0.000000
O O9 0.957603 0.693491 0.262892
O O10 0.762316 0.703976 0.377363
O O11 0.284917 0.718052 0.793090
O O12 0.402640 0.240943 0.831994
O O13 0.500000 0.000000 0.000000
#
# Coordination Sequence:
#
# PCOD8025210 Si02
#       6
#     2   2   2   2   2   2
#     4  10  23  45  70  97 133 174 226 278 338 405
#     4  11  26  42  65  96 140 183 226 270 337 402
#     4  11  26  42  66 102 137 178 226 281 334 398
#     4  10  23  44  70  99 129 177 225 277 342 401
#     4  12  25  44  65  95 141 181 222 274 331 403
#     4  12  26  42  69 101 136 177 225 278 337 395
#
# _framework density 25.211272000000001
#
# number of rings (size 3 to 8) (size 9 to 14) (size 15 to 20)
#    0.000    1.000    1.667    3.500   11.667    0.667 
#    0.000    0.000    0.000    8.000    0.000    0.000 
#    0.000    0.000    0.000    0.000    0.000    0.000 
#
# Total GULP energy -148799.564594 kJ/mol
# GULP energy per Si atom -12399.963716 kJ/mol
# Density = 2.515389 g / cm^3
# Si number density = 25.211272 Si / 1000 Ang^3
#
#
#
# Elastic Constant Matrix: (Units=GPa)
#
#
# Indices 1 2 3 4 5 6 
#
# 1 127.4790 14.1587 41.2104 13.9061 -26.7053 20.6603
# 2 14.1587 93.7467 20.9267 14.1205 2.1424 13.5958
# 3 41.2104 20.9267 104.3838 19.9018 -21.0110 -4.1689
# 4 13.9061 14.1205 19.9018 39.8851 6.4104 5.4780
# 5 -26.7053 2.1424 -21.0110 6.4104 42.4839 -7.4283
# 6 20.6603 13.5958 -4.1689 5.4780 -7.4283 33.4600
#
#
#
# Elastic Compliance Matrix: (Units=1/GPa)
#
#
# Indices 1 2 3 4 5 6 
#
# 1 0.011053 0.000145 -0.003280 -0.002199 0.004617 -0.005908
# 2 0.000145 0.012499 -0.003043 -0.001694 -0.002819 -0.005896
# 3 -0.003280 -0.003043 0.014875 -0.007609 0.008020 0.008141
# 4 -0.002199 -0.001694 -0.007609 0.032972 -0.011222 -0.006791
# 5 0.004617 -0.002819 0.008020 -0.011222 0.033751 0.008624
# 6 -0.005908 -0.005896 0.008141 -0.006791 0.008624 0.039971
#
#
# Mechanical properties :
#
#
# Convention : Reuss Voigt Hill
#
# Bulk Modulus (GPa) = 38.35564 53.13344 45.74454
# Shear Modulus (GPa) = 30.09024 39.78670 34.93847
#
# Velocity S-wave (km/s) = 3.45849 3.97688 3.72671
# Velocity P-wave (km/s) = 5.58524 6.49680 6.05819
#
# Compressibility (1/GPa) = 0.02607179
#
# Stress axis : x y z
#
# Youngs Moduli (GPa) = 90.47070 80.00557 67.22605
#
# Poissons Ratio (x) = -0.01163 0.22051
# Poissons Ratio (y) = -0.01315 0.20457
# Poissons Ratio (z) = 0.29676 0.24346
#
# Static dielectric constant tensor:
#      x y z
#    x 4.465020 -0.074980 -0.341050 
#    y -0.074980 4.458430 0.114400 
#    z -0.341050 0.114400 4.942310 
# 
# 
# High freq. dielectric constant tensor:
#      x y z
#    x 1.994710 0.008050 -0.033880 
#    y 0.008050 2.017350 0.002370 
#    z -0.033880 0.002370 2.009190 
# 
# From -- ./inp_files/98490.got.cif
#   From: 2010.06.25/outbox.cif.g09.slc.cpg/sg2_50_cif.got.tgz:98490.got - 2010.06.27 13:26:56.
