data_PCOD8025111
_publ_section_title
;
Structure prediction by ZEFSAII (Michael W. Deem and Ramdas Pophale) SiO2 
 PCOD8025111
Probable space group: P -1
;
_chemical_formula_sum "Si O2"
_cell_formula_units_Z 16
_cell_length_a 16.608193
_cell_length_b 8.755233
_cell_length_c 19.391938
_cell_angle_alpha 53.920993
_cell_angle_beta 160.656482
_cell_angle_gamma 115.890695
_cell_volume 676.174657
_symmetry_space_group_name_H-M "P -1"
_symmetry_group_IT_number 2
_symmetry_cell_setting 'triclinic'
loop_
_space_group_symop_operation_xyz
x,y,z
-x,-y,-z
loop_
_atom_site_type_symbol
_atom_site_label
_atom_site_fract_x
_atom_site_fract_y
_atom_site_fract_z
Si Si1 0.745500 0.755141 0.558785
Si Si2 0.583294 0.820350 0.849583
Si Si3 0.674765 0.754208 0.213133
Si Si4 0.365704 0.544753 0.095298
Si Si5 0.233764 0.461340 0.796528
Si Si6 0.995418 0.964056 0.085881
Si Si7 0.502527 0.476075 0.375578
Si Si8 0.732658 0.807339 0.695521
O O1 0.559410 0.633403 0.429416
O O2 0.700933 0.831097 0.581717
O O3 0.049214 0.602294 0.822568
O O4 0.680947 0.962610 0.402366
O O5 0.752231 0.671967 0.088257
O O6 0.732600 0.940963 0.899990
O O7 0.492147 0.694372 0.754306
O O8 0.457347 0.676645 0.083198
O O9 0.774667 0.675721 0.237997
O O10 0.944517 0.675150 0.501907
O O11 0.500000 0.000000 0.000000
O O12 0.451738 0.576383 0.232237
O O13 0.500000 0.500000 0.000000
O O14 0.243954 0.748871 0.365245
O O15 0.995057 0.169101 0.070616
O O16 0.000000 0.000000 0.000000
O O17 0.254886 0.421125 0.212979
O O18 0.500000 0.000000 0.500000
#
# Coordination Sequence:
#
# PCOD8025111 Si02
#       8
#     2   2   2   2   2   2   2   2
#     4  12  28  44  74 109 141 198 248 303 373 443
#     4  12  25  47  74 103 153 191 248 308 374 446
#     4  11  28  47  79 110 151 193 248 308 376 453
#     4  12  27  48  71 108 146 194 242 308 374 445
#     4  11  26  50  76 114 148 198 245 307 380 451
#     4  11  22  43  75 102 142 198 239 299 378 430
#     4  11  24  46  68 104 146 184 252 303 361 442
#     4  10  23  44  69 101 147 193 244 308 371 434
#
# _framework density 23.662526
#
# number of rings (size 3 to 8) (size 9 to 14) (size 15 to 20)
#    0.000    0.750    2.500    4.875    5.250    1.000 
#    0.000    0.000    0.000    0.000    0.000    0.000 
#    0.000    0.000    0.000    0.000    0.000    0.000 
#
# Total GULP energy -198292.000573 kJ/mol
# GULP energy per Si atom -12393.250036 kJ/mol
# Density = 2.360867 g / cm^3
# Si number density = 23.662526 Si / 1000 Ang^3
#
#
#
# Elastic Constant Matrix: (Units=GPa)
#
#
# Indices 1 2 3 4 5 6 
#
# 1 106.0899 48.6492 27.8750 7.2834 -18.3103 4.4471
# 2 48.6492 192.0900 51.0643 4.3827 -8.5203 2.3965
# 3 27.8750 51.0643 92.2159 -2.7495 -14.2978 3.8596
# 4 7.2834 4.3827 -2.7495 43.5503 3.1069 -4.3630
# 5 -18.3103 -8.5203 -14.2978 3.1069 34.7721 9.4552
# 6 4.4471 2.3965 3.8596 -4.3630 9.4552 37.9751
#
#
#
# Elastic Compliance Matrix: (Units=1/GPa)
#
#
# Indices 1 2 3 4 5 6 
#
# 1 0.012284 -0.002366 -0.001363 -0.002664 0.006395 -0.003049
# 2 -0.002366 0.006593 -0.003115 -0.000356 -0.000983 0.000381
# 3 -0.001363 -0.003115 0.013825 0.000866 0.004703 -0.002120
# 4 -0.002664 -0.000356 0.000866 0.024227 -0.004422 0.004131
# 5 0.006395 -0.000983 0.004703 -0.004422 0.037187 -0.010932
# 6 -0.003049 0.000381 -0.002120 0.004131 -0.010932 0.030078
#
#
# Mechanical properties :
#
#
# Convention : Reuss Voigt Hill
#
# Bulk Modulus (GPa) = 52.59453 71.73031 62.16242
# Shear Modulus (GPa) = 34.66971 40.77998 37.72485
#
# Velocity S-wave (km/s) = 3.83191 4.15589 3.99718
# Velocity P-wave (km/s) = 6.46941 7.30809 6.90150
#
# Compressibility (1/GPa) = 0.01901338
#
# Stress axis : x y z
#
# Youngs Moduli (GPa) = 81.40940 151.67913 72.33518
#
# Poissons Ratio (x) = 0.35889 0.09860
# Poissons Ratio (y) = 0.19263 0.22529
# Poissons Ratio (z) = 0.11097 0.47241
#
# Static dielectric constant tensor:
#      x y z
#    x 4.181060 -0.040570 0.019090 
#    y -0.040570 4.091200 -0.183200 
#    z 0.019090 -0.183200 4.406600 
# 
# 
# High freq. dielectric constant tensor:
#      x y z
#    x 1.932370 -0.000810 0.000550 
#    y -0.000810 1.953240 -0.000930 
#    z 0.000550 -0.000930 1.953980 
# 
# From -- ./inp_files/599456.got.cif
#   From: 2010.06.25/outbox.cif.g09.slc.cpg/sg2_300_cif.got.tgz:599456.got - 2010.06.27 13:26:56.
