data_PCOD8025506
_publ_section_title
;
Structure prediction by ZEFSAII (Michael W. Deem and Ramdas Pophale) SiO2 
 PCOD8025506
Probable space group: P -1
;
_chemical_formula_sum "Si O2"
_cell_formula_units_Z 14
_cell_length_a 19.649601
_cell_length_b 9.478300
_cell_length_c 5.109439
_cell_angle_alpha 74.826505
_cell_angle_beta 70.425104
_cell_angle_gamma 127.100453
_cell_volume 562.636710
_symmetry_space_group_name_H-M "P -1"
_symmetry_group_IT_number 2
_symmetry_cell_setting 'triclinic'
loop_
_space_group_symop_operation_xyz
x,y,z
-x,-y,-z
loop_
_atom_site_type_symbol
_atom_site_label
_atom_site_fract_x
_atom_site_fract_y
_atom_site_fract_z
Si Si1 0.372703 0.772770 0.750094
Si Si2 0.271363 0.155135 0.594592
Si Si3 0.969778 0.121464 0.990991
Si Si4 0.818490 0.219207 0.765859
Si Si5 0.026121 0.381315 0.275770
Si Si6 0.395181 0.635719 0.281337
Si Si7 0.654348 0.017400 0.664947
O O1 0.349863 0.620665 0.623935
O O2 0.500000 0.000000 0.500000
O O3 0.316270 0.840980 0.703208
O O4 0.333168 0.638791 0.137630
O O5 0.364290 0.419247 0.397477
O O6 0.324604 0.121411 0.340564
O O7 0.243817 0.027111 0.959670
O O8 0.159207 0.056430 0.674367
O O9 0.993900 0.222683 0.627533
O O10 0.044992 0.318910 0.016515
O O11 0.000000 0.000000 0.000000
O O12 0.860518 0.361676 0.911600
O O13 0.927277 0.349355 0.383368
O O14 0.734068 0.189248 0.719592
O O15 0.528399 0.857014 0.989991
#
# Coordination Sequence:
#
# PCOD8025506 Si02
#       7
#     2   2   2   2   2   2   2
#     4  10  24  46  67  96 139 187 232 282 340 410
#     4  11  26  43  69 104 141 180 237 286 345 415
#     4  11  24  46  68  99 140 183 227 290 353 416
#     4  10  24  40  72 102 136 178 235 293 344 405
#     4  10  23  45  68  98 137 176 232 290 346 407
#     4  11  26  45  69 101 145 186 224 286 350 411
#     4  11  23  43  71 102 139 185 235 285 339 419
#
# _framework density 24.882840000000002
#
# number of rings (size 3 to 8) (size 9 to 14) (size 15 to 20)
#    0.000    1.429    1.429    2.571   10.000    3.429 
#    0.000    0.000    0.000    0.000    0.000    0.000 
#    0.000    0.000    0.000    0.000    0.000    0.000 
#
# Total GULP energy -173596.731722 kJ/mol
# GULP energy per Si atom -12399.766552 kJ/mol
# Density = 2.482621 g / cm^3
# Si number density = 24.882840 Si / 1000 Ang^3
#
#
#
# Elastic Constant Matrix: (Units=GPa)
#
#
# Indices 1 2 3 4 5 6 
#
# 1 169.5708 71.3559 30.1430 -7.8899 5.6786 4.7781
# 2 71.3559 137.2501 12.4541 5.3867 8.1462 2.5511
# 3 30.1430 12.4541 42.5087 -7.2134 1.9562 12.3680
# 4 -7.8899 5.3867 -7.2134 38.3994 -1.4189 2.4679
# 5 5.6786 8.1462 1.9562 -1.4189 30.0099 7.0540
# 6 4.7781 2.5511 12.3680 2.4679 7.0540 47.6852
#
#
#
# Elastic Compliance Matrix: (Units=1/GPa)
#
#
# Indices 1 2 3 4 5 6 
#
# 1 0.008499 -0.004034 -0.004765 0.001370 -0.000271 0.000569
# 2 -0.004034 0.009624 -0.000384 -0.002353 -0.002032 0.000411
# 3 -0.004765 -0.000384 0.030114 0.005271 0.001114 -0.007750
# 4 0.001370 -0.002353 0.005271 0.027923 0.002092 -0.003133
# 5 -0.000271 -0.002032 0.001114 0.002092 0.035238 -0.005474
# 6 0.000569 0.000411 -0.007750 -0.003133 -0.005474 0.023874
#
#
# Mechanical properties :
#
#
# Convention : Reuss Voigt Hill
#
# Bulk Modulus (GPa) = 33.47918 64.13731 48.80824
# Shear Modulus (GPa) = 30.56327 38.91065 34.73696
#
# Velocity S-wave (km/s) = 3.50849 3.95872 3.74039
# Velocity P-wave (km/s) = 5.46778 6.83571 6.18965
#
# Compressibility (1/GPa) = 0.02986931
#
# Stress axis : x y z
#
# Youngs Moduli (GPa) = 117.66395 103.91166 33.20687
#
# Poissons Ratio (x) = 0.41922 0.15824
# Poissons Ratio (y) = 0.47470 0.01276
# Poissons Ratio (z) = 0.56069 0.03992
#
# Static dielectric constant tensor:
#      x y z
#    x 4.983460 0.097920 0.333770 
#    y 0.097920 4.522990 0.056410 
#    z 0.333770 0.056410 4.579980 
# 
# 
# High freq. dielectric constant tensor:
#      x y z
#    x 2.006250 0.002980 0.001730 
#    y 0.002980 1.990930 0.008910 
#    z 0.001730 0.008910 1.985590 
# 
# From -- ./inp_files/106496.got.cif
#   From: 2010.06.25/outbox.cif.g09.slc.cpg/sg2_54_cif.got.tgz:106496.got - 2010.06.27 13:26:56.
