data_PCOD8025474
_publ_section_title
;
Structure prediction by ZEFSAII (Michael W. Deem and Ramdas Pophale) SiO2 
 PCOD8025474
Probable space group: P -1
;
_chemical_formula_sum "Si O2"
_cell_formula_units_Z 10
_cell_length_a 13.747141
_cell_length_b 13.520835
_cell_length_c 4.870299
_cell_angle_alpha 126.926436
_cell_angle_beta 114.815675
_cell_angle_gamma 29.186556
_cell_volume 339.906604
_symmetry_space_group_name_H-M "P -1"
_symmetry_group_IT_number 2
_symmetry_cell_setting 'triclinic'
loop_
_space_group_symop_operation_xyz
x,y,z
-x,-y,-z
loop_
_atom_site_type_symbol
_atom_site_label
_atom_site_fract_x
_atom_site_fract_y
_atom_site_fract_z
Si Si1 0.042759 0.567877 0.458315
Si Si2 0.416138 0.331243 0.468983
Si Si3 0.789282 0.304936 0.574581
Si Si4 0.657392 0.890986 0.278722
Si Si5 0.239022 0.835416 0.198210
O O1 0.187369 0.538002 0.697711
O O2 0.000000 0.500000 0.500000
O O3 0.820764 0.829563 0.508326
O O4 0.197324 0.366782 0.065396
O O5 0.369595 0.430504 0.274334
O O6 0.560706 0.277602 0.724558
O O7 0.537367 0.077393 0.192418
O O8 0.733602 0.315637 0.832637
O O9 0.765664 0.206309 0.189225
O O10 0.028339 0.113919 0.506622
O O11 0.500000 0.000000 0.500000
#
# Coordination Sequence:
#
# PCOD8025474 Si02
#       5
#     2   2   2   2   2
#     4  11  25  47  65 102 146 187 238 298 355 435
#     4  12  23  42  72 103 134 194 237 294 366 422
#     4  10  23  45  68 103 142 181 240 299 356 438
#     4  11  25  45  70 101 142 190 244 299 356 426
#     4  10  23  45  68 103 143 183 235 300 362 430
#
# _framework density 29.419847000000001
#
# number of rings (size 3 to 8) (size 9 to 14) (size 15 to 20)
#    0.000    1.200    2.000    3.000    0.000    3.200 
#   10.800    0.000    0.000    0.000    0.000    0.000 
#    0.000    0.000    0.000    0.000    0.000    0.000 
#
# Total GULP energy -123932.296930 kJ/mol
# GULP energy per Si atom -12393.229693 kJ/mol
# Density = 2.935289 g / cm^3
# Si number density = 29.419847 Si / 1000 Ang^3
#
#
#
# Elastic Constant Matrix: (Units=GPa)
#
#
# Indices 1 2 3 4 5 6 
#
# 1 153.5657 60.5161 15.5150 -1.3202 -2.9279 -48.1813
# 2 60.5161 240.1864 7.0117 3.8558 -3.8248 -17.3928
# 3 15.5150 7.0117 53.6527 14.0972 -29.7743 -8.9620
# 4 -1.3202 3.8558 14.0972 41.6028 4.7957 5.7728
# 5 -2.9279 -3.8248 -29.7743 4.7957 28.8158 -0.5912
# 6 -48.1813 -17.3928 -8.9620 5.7728 -0.5912 79.5992
#
#
#
# Elastic Compliance Matrix: (Units=1/GPa)
#
#
# Indices 1 2 3 4 5 6 
#
# 1 0.009023 -0.001921 -0.004301 0.001771 -0.003987 0.004400
# 2 -0.001921 0.004669 0.001576 -0.001310 0.002274 0.000147
# 3 -0.004301 0.001576 0.085027 -0.041549 0.094769 0.011031
# 4 0.001771 -0.001310 -0.041549 0.045173 -0.050598 -0.007544
# 5 -0.003987 0.002274 0.094769 -0.050598 0.141218 0.013472
# 6 0.004400 0.000147 0.011031 -0.007544 0.013472 0.017147
#
#
# Mechanical properties :
#
#
# Convention : Reuss Voigt Hill
#
# Bulk Modulus (GPa) = 11.18215 68.16560 39.67388
# Shear Modulus (GPa) = 14.64737 54.29436 34.47087
#
# Velocity S-wave (km/s) = 2.23373 4.30059 3.42671
# Velocity P-wave (km/s) = 3.23448 6.91956 5.40103
#
# Compressibility (1/GPa) = 0.08942820
#
# Stress axis : x y z
#
# Youngs Moduli (GPa) = 110.82710 214.16262 11.76096
#
# Poissons Ratio (x) = 0.41144 0.05058
# Poissons Ratio (y) = 0.21292 -0.01854
# Poissons Ratio (z) = 0.47665 -0.33760
#
# Static dielectric constant tensor:
#      x y z
#    x 6.119680 -0.569510 0.541640 
#    y -0.569510 6.994680 -0.013420 
#    z 0.541640 -0.013420 5.105930 
# 
# 
# High freq. dielectric constant tensor:
#      x y z
#    x 2.215870 -0.026010 0.005270 
#    y -0.026010 2.239920 -0.005430 
#    z 0.005270 -0.005430 2.162240 
# 
# From -- ./inp_files/96108.got.cif
#   From: 2010.06.25/outbox.cif.g09.slc.cpg/sg2_49_cif.got.tgz:96108.got - 2010.06.27 13:26:56.
