data_PCOD8025700
_publ_section_title
;
Structure prediction by ZEFSAII (Michael W. Deem and Ramdas Pophale) SiO2 
 PCOD8025700
Probable space group: P -1
;
_chemical_formula_sum "Si O2"
_cell_formula_units_Z 16
_cell_length_a 10.128598
_cell_length_b 9.139048
_cell_length_c 12.233442
_cell_angle_alpha 55.420222
_cell_angle_beta 89.118250
_cell_angle_gamma 55.859286
_cell_volume 691.109635
_symmetry_space_group_name_H-M "P -1"
_symmetry_group_IT_number 2
_symmetry_cell_setting 'triclinic'
loop_
_space_group_symop_operation_xyz
x,y,z
-x,-y,-z
loop_
_atom_site_type_symbol
_atom_site_label
_atom_site_fract_x
_atom_site_fract_y
_atom_site_fract_z
Si Si1 0.530411 0.173037 0.468010
Si Si2 0.518783 0.815862 0.285412
Si Si3 0.190033 0.700975 0.845487
Si Si4 0.517857 0.430108 0.796771
Si Si5 0.873598 0.005480 0.081073
Si Si6 0.092216 0.209543 0.344711
Si Si7 0.897976 0.610869 0.340258
Si Si8 0.199175 0.339859 0.105581
O O1 0.476118 0.249055 0.561833
O O2 0.422186 0.421845 0.297025
O O3 0.500000 0.000000 0.500000
O O4 0.737803 0.047986 0.499631
O O5 0.534395 0.631788 0.285034
O O6 0.685812 0.796709 0.276767
O O7 0.337414 0.087946 0.145315
O O8 0.351868 0.596447 0.809062
O O9 0.131418 0.918035 0.827767
O O10 0.012857 0.809709 0.734858
O O11 0.256406 0.489942 0.019668
O O12 0.676784 0.182969 0.958351
O O13 0.946205 0.740580 0.212245
O O14 0.000000 0.000000 0.000000
O O15 0.194067 0.288647 0.254434
O O16 0.957711 0.386406 0.365389
O O17 0.000000 0.500000 0.500000
O O18 0.000000 0.500000 0.000000
#
# Coordination Sequence:
#
# PCOD8025700 Si02
#       8
#     2   2   2   2   2   2   2   2
#     4  11  27  46  74 102 149 196 242 299 368 438
#     4  11  25  46  75 106 144 193 249 300 362 443
#     4  11  24  46  70 105 143 186 238 299 359 436
#     4  12  28  47  73 106 145 190 246 305 368 432
#     4  12  31  45  74 110 151 187 243 310 370 432
#     4  10  23  45  74 101 139 194 237 287 363 438
#     4  12  27  47  75 110 148 192 246 303 369 433
#     4   9  21  40  73 101 141 181 238 287 364 429
#
# _framework density 23.151174999999999
#
# number of rings (size 3 to 8) (size 9 to 14) (size 15 to 20)
#    0.000    1.000    1.250    3.000   19.250    2.500 
#    0.000    0.000    0.000    0.000    0.000    0.000 
#    0.000    0.000    0.000    0.000    0.000    0.000 
#
# Total GULP energy -198344.249400 kJ/mol
# GULP energy per Si atom -12396.515587 kJ/mol
# Density = 2.309848 g / cm^3
# Si number density = 23.151175 Si / 1000 Ang^3
#
#
#
# Elastic Constant Matrix: (Units=GPa)
#
#
# Indices 1 2 3 4 5 6 
#
# 1 102.3254 36.6818 38.1026 4.8585 4.1343 -10.3514
# 2 36.6818 128.6984 20.1052 19.4125 12.1589 -9.5171
# 3 38.1026 20.1052 102.7364 3.1182 1.5793 3.0733
# 4 4.8585 19.4125 3.1182 32.5233 6.0703 5.3608
# 5 4.1343 12.1589 1.5793 6.0703 34.3846 -0.5037
# 6 -10.3514 -9.5171 3.0733 5.3608 -0.5037 46.0704
#
#
#
# Elastic Compliance Matrix: (Units=1/GPa)
#
#
# Indices 1 2 3 4 5 6 
#
# 1 0.012583 -0.002672 -0.004209 -0.000252 -0.000292 0.002582
# 2 -0.002672 0.009816 -0.000797 -0.005326 -0.002142 0.002077
# 3 -0.004209 -0.000797 0.011496 0.000283 0.000182 -0.001908
# 4 -0.000252 -0.005326 0.000283 0.035657 -0.004473 -0.005374
# 5 -0.000292 -0.002142 0.000182 -0.004473 0.030662 0.000335
# 6 0.002582 0.002077 -0.001908 -0.005374 0.000335 0.023471
#
#
# Mechanical properties :
#
#
# Convention : Reuss Voigt Hill
#
# Bulk Modulus (GPa) = 53.94360 58.17103 56.05731
# Shear Modulus (GPa) = 34.43022 38.52038 36.47530
#
# Velocity S-wave (km/s) = 3.86060 4.08347 3.97360
# Velocity P-wave (km/s) = 6.57445 6.88579 6.73192
#
# Compressibility (1/GPa) = 0.01853788
#
# Stress axis : x y z
#
# Youngs Moduli (GPa) = 79.47264 101.87874 86.98415
#
# Poissons Ratio (x) = 0.27225 0.36610
# Poissons Ratio (y) = 0.21238 0.06936
# Poissons Ratio (z) = 0.33449 0.08123
#
# Static dielectric constant tensor:
#      x y z
#    x 4.222620 -0.198510 0.037300 
#    y -0.198510 4.191650 -0.162340 
#    z 0.037300 -0.162340 5.104330 
# 
# 
# High freq. dielectric constant tensor:
#      x y z
#    x 1.914360 -0.012250 0.002770 
#    y -0.012250 1.922190 0.000930 
#    z 0.002770 0.000930 1.925590 
# 
# From -- ./inp_files/419161.got.cif
#   From: 2010.06.25/outbox.cif.g09.slc.cpg/sg2_210_cif.got.tgz:419161.got - 2010.06.27 13:26:56.
