data_PCOD8025597
_publ_section_title
;
Structure prediction by ZEFSAII (Michael W. Deem and Ramdas Pophale) SiO2 
 PCOD8025597
Probable space group: P -1
;
_chemical_formula_sum "Si O2"
_cell_formula_units_Z 16
_cell_length_a 17.490293
_cell_length_b 20.112689
_cell_length_c 11.503671
_cell_angle_alpha 30.165636
_cell_angle_beta 31.888599
_cell_angle_gamma 19.969077
_cell_volume 678.588394
_symmetry_space_group_name_H-M "P -1"
_symmetry_group_IT_number 2
_symmetry_cell_setting 'triclinic'
loop_
_space_group_symop_operation_xyz
x,y,z
-x,-y,-z
loop_
_atom_site_type_symbol
_atom_site_label
_atom_site_fract_x
_atom_site_fract_y
_atom_site_fract_z
Si Si1 0.006748 0.980205 0.886450
Si Si2 0.206566 0.768065 0.534214
Si Si3 0.167960 0.444704 0.698780
Si Si4 0.009935 0.312497 0.665709
Si Si5 0.370933 0.253199 0.365471
Si Si6 0.630437 0.070194 0.537859
Si Si7 0.451927 0.663974 0.162260
Si Si8 0.977207 0.335798 0.225514
O O1 0.239390 0.881557 0.688871
O O2 0.782788 0.219402 0.771134
O O3 0.995419 0.838393 0.069955
O O4 0.000000 0.000000 0.000000
O O5 0.386825 0.730160 0.283902
O O6 0.348372 0.589628 0.721021
O O7 0.093888 0.744194 0.628034
O O8 0.000000 0.000000 0.500000
O O9 0.407875 0.230592 0.661147
O O10 0.036213 0.632925 0.493675
O O11 0.210598 0.487615 0.702271
O O12 0.013815 0.423129 0.949842
O O13 0.258780 0.194172 0.558998
O O14 0.816266 0.519132 0.679617
O O15 0.571254 0.083993 0.457148
O O16 0.470081 0.255249 0.120390
O O17 0.790688 0.842687 0.727308
#
# Coordination Sequence:
#
# PCOD8025597 Si02
#       8
#     2   2   2   2   2   2   2   2
#     4  12  24  45  69 108 144 182 232 289 349 427
#     4  11  27  48  69 102 139 187 236 292 351 421
#     4  10  24  43  71 101 137 193 227 292 345 415
#     4  10  24  44  71 104 144 183 233 289 350 421
#     4  10  23  45  70 107 139 183 235 290 354 419
#     4  11  23  44  70 107 142 185 234 288 354 417
#     4  11  25  46  71 102 140 187 233 287 351 419
#     4  11  23  47  69  99 143 176 244 290 346 418
#
# _framework density 23.578357
#
# number of rings (size 3 to 8) (size 9 to 14) (size 15 to 20)
#    0.000    1.250    2.500    1.875    1.750    5.500 
#    6.750    0.000    0.000    0.000    0.000    0.000 
#    0.000    0.000    0.000    0.000    0.000    0.000 
#
# Total GULP energy -198372.058620 kJ/mol
# GULP energy per Si atom -12398.253664 kJ/mol
# Density = 2.352469 g / cm^3
# Si number density = 23.578357 Si / 1000 Ang^3
#
#
#
# Elastic Constant Matrix: (Units=GPa)
#
#
# Indices 1 2 3 4 5 6 
#
# 1 97.1470 12.3686 34.9720 -2.4417 -5.5189 -5.5880
# 2 12.3686 51.5683 9.3620 -6.3931 12.2873 -5.5441
# 3 34.9720 9.3620 106.1341 9.7251 5.8620 10.5787
# 4 -2.4417 -6.3931 9.7251 37.2686 -2.2000 6.7476
# 5 -5.5189 12.2873 5.8620 -2.2000 41.5503 -4.9894
# 6 -5.5880 -5.5441 10.5787 6.7476 -4.9894 41.7191
#
#
#
# Elastic Compliance Matrix: (Units=1/GPa)
#
#
# Indices 1 2 3 4 5 6 
#
# 1 0.012632 -0.002589 -0.004512 0.001277 0.003472 0.002701
# 2 -0.002589 0.022349 -0.001230 0.003311 -0.006408 0.001633
# 3 -0.004512 -0.001230 0.011792 -0.003087 -0.002490 -0.003556
# 4 0.001277 0.003311 -0.003087 0.028913 0.000774 -0.003190
# 5 0.003472 -0.006408 -0.002490 0.000774 0.027221 0.003375
# 6 0.002701 0.001633 -0.003556 -0.003190 0.003375 0.026370
#
#
# Mechanical properties :
#
#
# Convention : Reuss Voigt Hill
#
# Bulk Modulus (GPa) = 33.21158 40.91716 37.06437
# Shear Modulus (GPa) = 32.05591 37.31738 34.68665
#
# Velocity S-wave (km/s) = 3.69121 3.98263 3.83968
# Velocity P-wave (km/s) = 5.68180 6.20804 5.95074
#
# Compressibility (1/GPa) = 0.03010998
#
# Stress axis : x y z
#
# Youngs Moduli (GPa) = 79.16206 44.74446 84.80215
#
# Poissons Ratio (x) = 0.11586 0.38263
# Poissons Ratio (y) = 0.20498 0.10435
# Poissons Ratio (z) = 0.35718 0.05506
#
# Static dielectric constant tensor:
#      x y z
#    x 4.195500 -0.119180 0.090980 
#    y -0.119180 4.298010 0.063140 
#    z 0.090980 0.063140 4.597010 
# 
# 
# High freq. dielectric constant tensor:
#      x y z
#    x 1.925980 -0.009240 0.015870 
#    y -0.009240 1.943240 0.005400 
#    z 0.015870 0.005400 1.946190 
# 
# From -- ./inp_files/467027.got.cif
#   From: 2010.06.25/outbox.cif.g09.slc.cpg/sg2_234_cif.got.tgz:467027.got - 2010.06.27 13:26:56.
