data_PCOD8025891
_publ_section_title
;
Structure prediction by ZEFSAII (Michael W. Deem and Ramdas Pophale) SiO2 
 PCOD8025891
Probable space group: P -1
;
_chemical_formula_sum "Si O2"
_cell_formula_units_Z 16
_cell_length_a 11.758598
_cell_length_b 12.555784
_cell_length_c 11.620225
_cell_angle_alpha 109.024469
_cell_angle_beta 82.113271
_cell_angle_gamma 36.965561
_cell_volume 696.966194
_symmetry_space_group_name_H-M "P -1"
_symmetry_group_IT_number 2
_symmetry_cell_setting 'triclinic'
loop_
_space_group_symop_operation_xyz
x,y,z
-x,-y,-z
loop_
_atom_site_type_symbol
_atom_site_label
_atom_site_fract_x
_atom_site_fract_y
_atom_site_fract_z
Si Si1 0.408314 0.512763 0.731851
Si Si2 0.285997 0.764207 0.185912
Si Si3 0.728713 0.733647 0.942982
Si Si4 0.001998 0.702679 0.386366
Si Si5 0.288039 0.021594 0.244126
Si Si6 0.567127 0.257453 0.217961
Si Si7 0.934848 0.770894 0.884456
Si Si8 0.227315 0.923230 0.634226
O O1 0.653453 0.287158 0.705546
O O2 0.304883 0.732012 0.814238
O O3 0.175664 0.634561 0.847119
O O4 0.519624 0.371570 0.545984
O O5 0.293262 0.883094 0.179998
O O6 0.003893 0.960495 0.269132
O O7 0.500000 0.500000 0.000000
O O8 0.896920 0.500121 0.758419
O O9 0.931148 0.657767 0.919677
O O10 0.586936 0.802832 0.098220
O O11 0.500000 0.000000 0.000000
O O12 0.250006 0.549825 0.354275
O O13 0.855767 0.905656 0.381730
O O14 0.798296 0.859195 0.575014
O O15 0.071971 0.253656 0.260064
O O16 0.672248 0.112491 0.272544
O O17 0.664905 0.082824 0.047188
#
# Coordination Sequence:
#
# PCOD8025891 Si02
#       8
#     2   2   2   2   2   2   2   2
#     4  12  23  42  66 101 145 177 229 285 350 422
#     4  12  22  39  67 100 141 184 224 284 353 417
#     4  10  23  46  71  99 138 186 243 285 347 415
#     4  12  23  46  75 104 140 187 232 291 350 415
#     4  11  22  41  69 100 136 182 237 284 347 409
#     4  12  23  43  72 102 145 181 227 291 346 420
#     4  11  24  45  66 103 135 184 241 284 348 415
#     4  12  25  43  66 110 141 180 232 281 356 423
#
# _framework density 22.956637000000001
#
# number of rings (size 3 to 8) (size 9 to 14) (size 15 to 20)
#    0.000    0.500    5.000    5.625    0.000    2.000 
#    2.250    3.125    0.000    0.000    0.000    0.000 
#    0.000    0.000    0.000    0.000    0.000    0.000 
#
# Total GULP energy -198374.250666 kJ/mol
# GULP energy per Si atom -12398.390667 kJ/mol
# Density = 2.290439 g / cm^3
# Si number density = 22.956637 Si / 1000 Ang^3
#
#
#
# Elastic Constant Matrix: (Units=GPa)
#
#
# Indices 1 2 3 4 5 6 
#
# 1 128.5751 33.8579 63.9171 -0.9731 -0.4319 29.7622
# 2 33.8579 93.7945 12.0804 -16.1589 -3.6768 -0.0265
# 3 63.9171 12.0804 121.3889 -4.9635 -4.6726 24.6133
# 4 -0.9731 -16.1589 -4.9635 30.1367 7.2665 4.5317
# 5 -0.4319 -3.6768 -4.6726 7.2665 28.7331 2.1172
# 6 29.7622 -0.0265 24.6133 4.5317 2.1172 39.1795
#
#
#
# Elastic Compliance Matrix: (Units=1/GPa)
#
#
# Indices 1 2 3 4 5 6 
#
# 1 0.012950 -0.004317 -0.005179 -0.001720 -0.000295 -0.006372
# 2 -0.004317 0.013290 0.000824 0.006850 -0.000109 0.001984
# 3 -0.005179 0.000824 0.011827 0.002411 0.001626 -0.003862
# 4 -0.001720 0.006850 0.002411 0.039909 -0.008529 -0.004359
# 5 -0.000295 -0.000109 0.001626 -0.008529 0.037341 -0.001828
# 6 -0.006372 0.001984 -0.003862 -0.004359 -0.001828 0.033394
#
#
# Mechanical properties :
#
#
# Convention : Reuss Voigt Hill
#
# Bulk Modulus (GPa) = 48.25449 62.60771 55.43110
# Shear Modulus (GPa) = 28.90792 35.20339 32.05565
#
# Velocity S-wave (km/s) = 3.55243 3.92021 3.74084
# Velocity P-wave (km/s) = 6.15563 6.91535 6.54652
#
# Compressibility (1/GPa) = 0.02072346
#
# Stress axis : x y z
#
# Youngs Moduli (GPa) = 77.22098 75.24228 84.55106
#
# Poissons Ratio (x) = 0.32485 0.43788
# Poissons Ratio (y) = 0.33339 -0.06969
# Poissons Ratio (z) = 0.39991 -0.06202
#
# Static dielectric constant tensor:
#      x y z
#    x 4.464970 0.230200 0.107820 
#    y 0.230200 4.021610 -0.278760 
#    z 0.107820 -0.278760 4.065140 
# 
# 
# High freq. dielectric constant tensor:
#      x y z
#    x 1.907560 0.008570 -0.000350 
#    y 0.008570 1.898860 -0.003360 
#    z -0.000350 -0.003360 1.912490 
# 
# From -- ./inp_files/333922.got.cif
#   From: 2010.06.25/outbox.cif.g09.slc.cpg/sg2_167_cif.got.tgz:333922.got - 2010.06.27 13:26:56.
