data_PCOD8025084
_publ_section_title
;
Structure prediction by ZEFSAII (Michael W. Deem and Ramdas Pophale) SiO2 
 PCOD8025084
Probable space group: P -1
;
_chemical_formula_sum "Si O2"
_cell_formula_units_Z 16
_cell_length_a 9.262783
_cell_length_b 16.054012
_cell_length_c 12.963838
_cell_angle_alpha 62.286360
_cell_angle_beta 65.491874
_cell_angle_gamma 25.530543
_cell_volume 735.487826
_symmetry_space_group_name_H-M "P -1"
_symmetry_group_IT_number 2
_symmetry_cell_setting 'triclinic'
loop_
_space_group_symop_operation_xyz
x,y,z
-x,-y,-z
loop_
_atom_site_type_symbol
_atom_site_label
_atom_site_fract_x
_atom_site_fract_y
_atom_site_fract_z
Si Si1 0.519905 0.187491 0.075210
Si Si2 0.661086 0.317318 0.584684
Si Si3 0.219735 0.458346 0.188647
Si Si4 0.268464 0.748493 0.157380
Si Si5 0.309475 0.650673 0.782582
Si Si6 0.103111 0.052829 0.440563
Si Si7 0.815468 0.794585 0.967706
Si Si8 0.741266 0.645428 0.401448
O O1 0.353208 0.304959 0.164800
O O2 0.280669 0.233675 0.071563
O O3 0.542585 0.261804 0.944533
O O4 0.879824 0.954252 0.125004
O O5 0.500000 0.500000 0.500000
O O6 0.675314 0.280340 0.720489
O O7 0.443409 0.355529 0.564153
O O8 0.043868 0.117748 0.539502
O O9 0.531243 0.335538 0.232155
O O10 0.925294 0.577921 0.281227
O O11 0.078941 0.616063 0.072146
O O12 0.417053 0.574965 0.167687
O O13 0.160958 0.745464 0.659508
O O14 0.994282 0.790308 0.866489
O O15 0.479290 0.863728 0.391849
O O16 0.000000 0.000000 0.500000
O O17 0.500000 0.000000 0.000000
O O18 0.000000 0.500000 0.500000
#
# Coordination Sequence:
#
# PCOD8025084 Si02
#       8
#     2   2   2   2   2   2   2   2
#     4  11  27  44  70 104 142 185 230 286 350 421
#     4  11  23  44  73 100 134 184 229 292 349 406
#     4  12  25  43  71  98 140 186 230 285 349 413
#     4  11  25  44  71 100 143 180 235 283 354 416
#     4  12  25  44  70 100 139 182 235 287 346 419
#     4  10  23  44  68  98 134 180 231 280 350 406
#     4  12  26  44  69 104 141 181 232 287 350 411
#     4  11  26  44  68 100 139 181 233 285 348 415
#
# _framework density 21.754268
#
# number of rings (size 3 to 8) (size 9 to 14) (size 15 to 20)
#    0.000    0.750    2.500    4.500   10.500    0.000 
#    0.000    0.625    0.000    0.000    0.000    0.000 
#    0.000    0.000    0.000    0.000    0.000    0.000 
#
# Total GULP energy -198388.509336 kJ/mol
# GULP energy per Si atom -12399.281834 kJ/mol
# Density = 2.170475 g / cm^3
# Si number density = 21.754268 Si / 1000 Ang^3
#
#
#
# Elastic Constant Matrix: (Units=GPa)
#
#
# Indices 1 2 3 4 5 6 
#
# 1 81.5707 34.8561 26.3435 14.2158 5.6354 0.3034
# 2 34.8561 144.1667 55.6164 25.9637 -1.5962 6.1063
# 3 26.3435 55.6164 120.8297 18.5064 3.6879 -1.2183
# 4 14.2158 25.9637 18.5064 56.0001 -2.4484 2.7284
# 5 5.6354 -1.5962 3.6879 -2.4484 37.2046 1.5948
# 6 0.3034 6.1063 -1.2183 2.7284 1.5948 31.9848
#
#
#
# Elastic Compliance Matrix: (Units=1/GPa)
#
#
# Indices 1 2 3 4 5 6 
#
# 1 0.014372 -0.002546 -0.001567 -0.002079 -0.002292 0.000582
# 2 -0.002546 0.009409 -0.003451 -0.002445 0.001045 -0.001747
# 3 -0.001567 -0.003451 0.010495 -0.001580 -0.001109 0.001264
# 4 -0.002079 -0.002445 -0.001580 0.020185 0.001754 -0.001383
# 5 -0.002292 0.001045 -0.001109 0.001754 0.027571 -0.001744
# 6 0.000582 -0.001747 0.001264 -0.001383 -0.001744 0.031846
#
#
# Mechanical properties :
#
#
# Convention : Reuss Voigt Hill
#
# Bulk Modulus (GPa) = 52.22570 64.46656 58.34613
# Shear Modulus (GPa) = 36.93096 40.35465 38.64281
#
# Velocity S-wave (km/s) = 4.12472 4.31167 4.21923
# Velocity P-wave (km/s) = 6.83693 7.38144 7.11439
#
# Compressibility (1/GPa) = 0.01914766
#
# Stress axis : x y z
#
# Youngs Moduli (GPa) = 69.58068 106.28009 95.28436
#
# Poissons Ratio (x) = 0.27057 0.14935
# Poissons Ratio (y) = 0.17714 0.32882
# Poissons Ratio (z) = 0.10906 0.36676
#
# Static dielectric constant tensor:
#      x y z
#    x 3.764240 0.066240 0.041210 
#    y 0.066240 4.237360 0.089180 
#    z 0.041210 0.089180 3.738490 
# 
# 
# High freq. dielectric constant tensor:
#      x y z
#    x 1.839140 0.002620 0.001340 
#    y 0.002620 1.877550 0.009240 
#    z 0.001340 0.009240 1.874040 
# 
# From -- ./inp_files/217450.got.cif
#   From: 2010.06.25/outbox.cif.g09.slc.cpg/sg2_109_cif.got.tgz:217450.got - 2010.06.27 13:26:56.
