data_PCOD8025694
_publ_section_title
;
Structure prediction by ZEFSAII (Michael W. Deem and Ramdas Pophale) SiO2 
 PCOD8025694
Probable space group: P -1
;
_chemical_formula_sum "Si O2"
_cell_formula_units_Z 12
_cell_length_a 9.126408
_cell_length_b 6.810626
_cell_length_c 15.612949
_cell_angle_alpha 97.564170
_cell_angle_beta 33.386532
_cell_angle_gamma 91.827836
_cell_volume 523.932811
_symmetry_space_group_name_H-M "P -1"
_symmetry_group_IT_number 2
_symmetry_cell_setting 'triclinic'
loop_
_space_group_symop_operation_xyz
x,y,z
-x,-y,-z
loop_
_atom_site_type_symbol
_atom_site_label
_atom_site_fract_x
_atom_site_fract_y
_atom_site_fract_z
Si Si1 0.783944 0.605989 0.547416
Si Si2 0.058729 0.399001 0.081478
Si Si3 0.793187 0.960748 0.895246
Si Si4 0.231990 0.092854 0.559675
Si Si5 0.729717 0.276663 0.090244
Si Si6 0.462530 0.304505 0.604885
O O1 0.911885 0.771447 0.438739
O O2 0.547697 0.726584 0.725490
O O3 0.683792 0.450858 0.519823
O O4 0.000000 0.500000 0.500000
O O5 0.970774 0.260066 0.040986
O O6 0.824626 0.588234 0.218281
O O7 0.134066 0.272313 0.124074
O O8 0.301909 0.512828 0.936150
O O9 0.010517 0.017548 0.725094
O O10 0.794882 0.088072 0.986985
O O11 0.500000 0.000000 0.000000
O O12 0.430405 0.230377 0.518369
O O13 0.424369 0.903283 0.413248
#
# Coordination Sequence:
#
# PCOD8025694 Si02
#       6
#     2   2   2   2   2   2
#     4  11  27  44  71 100 142 179 220 283 344 403
#     4  10  23  45  73  96 133 184 232 273 331 404
#     4  12  28  43  70 103 140 177 222 288 340 398
#     4  11  26  44  70 103 135 178 233 276 334 406
#     4  10  24  45  68  99 133 182 229 275 332 409
#     4  10  24  44  73  98 132 182 230 278 323 404
#
# _framework density 22.903699
#
# number of rings (size 3 to 8) (size 9 to 14) (size 15 to 20)
#    0.000    1.333    1.667    1.000   16.333    5.333 
#    0.000    0.000    0.000    0.000    0.000    0.000 
#    0.000    0.000    0.000    0.000    0.000    0.000 
#
# Total GULP energy -148708.952043 kJ/mol
# GULP energy per Si atom -12392.412670 kJ/mol
# Density = 2.285157 g / cm^3
# Si number density = 22.903699 Si / 1000 Ang^3
#
#
#
# Elastic Constant Matrix: (Units=GPa)
#
#
# Indices 1 2 3 4 5 6 
#
# 1 74.6931 68.7597 38.7648 1.4865 -10.6730 -23.9226
# 2 68.7597 139.4672 63.5312 -5.9259 10.4598 -38.7773
# 3 38.7648 63.5312 92.2293 0.3931 7.6616 -6.0448
# 4 1.4865 -5.9259 0.3931 44.8080 -0.5454 12.2502
# 5 -10.6730 10.4598 7.6616 -0.5454 26.3781 1.3691
# 6 -23.9226 -38.7773 -6.0448 12.2502 1.3691 44.4859
#
#
#
# Elastic Compliance Matrix: (Units=1/GPa)
#
#
# Indices 1 2 3 4 5 6 
#
# 1 0.035030 -0.014772 -0.005931 -0.004362 0.021368 0.005699
# 2 -0.014772 0.021274 -0.006718 0.000484 -0.012968 0.009953
# 3 -0.005931 -0.006718 0.017897 0.000936 -0.004565 -0.006730
# 4 -0.004362 0.000484 0.000936 0.024854 -0.001268 -0.008602
# 5 0.021368 -0.012968 -0.004565 -0.001268 0.053088 -0.001718
# 6 0.005699 0.009953 -0.006730 -0.008602 -0.001718 0.035726
#
#
# Mechanical properties :
#
#
# Convention : Reuss Voigt Hill
#
# Bulk Modulus (GPa) = 51.65478 72.05568 61.85523
# Shear Modulus (GPa) = 20.06708 32.15664 26.11186
#
# Velocity S-wave (km/s) = 2.96319 3.75106 3.38016
# Velocity P-wave (km/s) = 5.85742 7.09148 6.50379
#
# Compressibility (1/GPa) = 0.01935929
#
# Stress axis : x y z
#
# Youngs Moduli (GPa) = 28.54661 47.00626 55.87576
#
# Poissons Ratio (x) = 0.69440 0.33139
# Poissons Ratio (y) = 0.42170 0.37535
# Poissons Ratio (z) = 0.16930 0.31577
#
# Static dielectric constant tensor:
#      x y z
#    x 4.040320 0.069450 0.140390 
#    y 0.069450 4.384840 0.111590 
#    z 0.140390 0.111590 3.986600 
# 
# 
# High freq. dielectric constant tensor:
#      x y z
#    x 1.889190 -0.002180 0.008700 
#    y -0.002180 1.921340 0.004670 
#    z 0.008700 0.004670 1.897670 
# 
# From -- ./inp_files/240551.got.cif
#   From: 2010.06.25/outbox.cif.g09.slc.cpg/sg2_121_cif.got.tgz:240551.got - 2010.06.27 13:26:56.
