data_PCOD8025603
_publ_section_title
;
Structure prediction by ZEFSAII (Michael W. Deem and Ramdas Pophale) SiO2 
 PCOD8025603
Probable space group: P -1
;
_chemical_formula_sum "Si O2"
_cell_formula_units_Z 14
_cell_length_a 8.957130
_cell_length_b 14.652930
_cell_length_c 20.069321
_cell_angle_alpha 151.566840
_cell_angle_beta 32.756088
_cell_angle_gamma 130.685690
_cell_volume 638.121291
_symmetry_space_group_name_H-M "P -1"
_symmetry_group_IT_number 2
_symmetry_cell_setting 'triclinic'
loop_
_space_group_symop_operation_xyz
x,y,z
-x,-y,-z
loop_
_atom_site_type_symbol
_atom_site_label
_atom_site_fract_x
_atom_site_fract_y
_atom_site_fract_z
Si Si1 0.636297 0.268378 0.627166
Si Si2 0.835437 0.840713 0.946182
Si Si3 0.608137 0.092332 0.080356
Si Si4 0.788832 0.846049 0.114284
Si Si5 0.074331 0.453057 0.518823
Si Si6 0.717751 0.477751 0.965584
Si Si7 0.729980 0.887294 0.435678
O O1 0.468670 0.468485 0.862021
O O2 0.399619 0.243031 0.647889
O O3 0.896341 0.309373 0.516947
O O4 0.778497 0.070075 0.492780
O O5 0.032905 0.642870 0.704633
O O6 0.731679 0.782756 0.019292
O O7 0.568490 0.960840 0.074697
O O8 0.000000 0.000000 0.000000
O O9 0.419939 0.327505 0.313565
O O10 0.946171 0.066999 0.925599
O O11 0.500000 0.000000 0.000000
O O12 0.869383 0.648912 0.005461
O O13 0.494702 0.021577 0.361215
O O14 0.000000 0.500000 0.500000
O O15 0.500000 0.500000 0.000000
O O16 0.964340 0.255476 0.737967
#
# Coordination Sequence:
#
# PCOD8025603 Si02
#       7
#     2   2   2   2   2   2   2
#     4  10  24  43  66 102 132 179 236 275 354 405
#     4  10  24  42  61  96 140 178 227 277 341 406
#     4  11  23  42  67 101 138 181 230 281 340 415
#     4  10  24  41  66 100 133 178 228 279 348 408
#     4  12  25  41  70 102 137 181 228 285 343 409
#     4  11  24  42  68  99 132 176 230 288 347 406
#     4  10  23  45  70  95 137 180 225 294 342 413
#
# _framework density 21.939404
#
# number of rings (size 3 to 8) (size 9 to 14) (size 15 to 20)
#    0.000    1.429    1.429    2.143    4.000    9.143 
#    0.000    0.000    0.000    0.000    0.000    0.000 
#    0.000    0.000    0.000    0.000    0.000    0.000 
#
# Total GULP energy -173578.672809 kJ/mol
# GULP energy per Si atom -12398.476629 kJ/mol
# Density = 2.188947 g / cm^3
# Si number density = 21.939404 Si / 1000 Ang^3
#
#
#
# Elastic Constant Matrix: (Units=GPa)
#
#
# Indices 1 2 3 4 5 6 
#
# 1 145.1651 34.3507 75.5892 0.0751 9.7938 -15.0255
# 2 34.3507 88.2997 44.3116 -6.2955 -3.5501 -10.6151
# 3 75.5892 44.3116 181.2877 15.0667 -0.2244 -13.7077
# 4 0.0751 -6.2955 15.0667 32.7171 -5.2503 4.2121
# 5 9.7938 -3.5501 -0.2244 -5.2503 49.6883 3.1261
# 6 -15.0255 -10.6151 -13.7077 4.2121 3.1261 37.3956
#
#
#
# Elastic Compliance Matrix: (Units=1/GPa)
#
#
# Indices 1 2 3 4 5 6 
#
# 1 0.009433 -0.001748 -0.003395 0.000595 -0.002072 0.002156
# 2 -0.001748 0.014021 -0.002916 0.004105 0.001666 0.001607
# 3 -0.003395 -0.002916 0.008113 -0.004464 -0.000055 0.001289
# 4 0.000595 0.004105 -0.004464 0.034643 0.004098 -0.004477
# 5 -0.002072 0.001666 -0.000055 0.004098 0.021250 -0.002618
# 6 0.002156 0.001607 0.001289 -0.004477 -0.002618 0.029259
#
#
# Mechanical properties :
#
#
# Convention : Reuss Voigt Hill
#
# Bulk Modulus (GPa) = 64.72678 80.36174 72.54426
# Shear Modulus (GPa) = 36.23538 41.32694 38.78116
#
# Velocity S-wave (km/s) = 4.06841 4.34485 4.20890
# Velocity P-wave (km/s) = 7.18581 7.86631 7.53375
#
# Compressibility (1/GPa) = 0.01544956
#
# Stress axis : x y z
#
# Youngs Moduli (GPa) = 106.01512 71.32064 123.26116
#
# Poissons Ratio (x) = 0.12464 0.41846
# Poissons Ratio (y) = 0.18527 0.35944
# Poissons Ratio (z) = 0.35991 0.20798
#
# Static dielectric constant tensor:
#      x y z
#    x 4.204500 -0.361870 0.188870 
#    y -0.361870 4.190250 0.057970 
#    z 0.188870 0.057970 3.976070 
# 
# 
# High freq. dielectric constant tensor:
#      x y z
#    x 1.874820 -0.011880 0.013780 
#    y -0.011880 1.869640 0.007260 
#    z 0.013780 0.007260 1.862850 
# 
# From -- ./inp_files/392705.got.cif
#   From: 2010.06.25/outbox.cif.g09.slc.cpg/sg2_197_cif.got.tgz:392705.got - 2010.06.27 13:26:56.
