data_PCOD8025530
_publ_section_title
;
Structure prediction by ZEFSAII (Michael W. Deem and Ramdas Pophale) SiO2 
 PCOD8025530
Probable space group: P -1
;
_chemical_formula_sum "Si O2"
_cell_formula_units_Z 14
_cell_length_a 9.570008
_cell_length_b 8.965935
_cell_length_c 20.725061
_cell_angle_alpha 29.877385
_cell_angle_beta 122.775333
_cell_angle_gamma 133.014216
_cell_volume 641.546234
_symmetry_space_group_name_H-M "P -1"
_symmetry_group_IT_number 2
_symmetry_cell_setting 'triclinic'
loop_
_space_group_symop_operation_xyz
x,y,z
-x,-y,-z
loop_
_atom_site_type_symbol
_atom_site_label
_atom_site_fract_x
_atom_site_fract_y
_atom_site_fract_z
Si Si1 0.356825 0.619210 0.893584
Si Si2 0.132217 0.382782 0.043563
Si Si3 0.643716 0.842574 0.585347
Si Si4 0.595708 0.385912 0.619035
Si Si5 0.985704 0.292022 0.423096
Si Si6 0.439740 0.596014 0.144543
Si Si7 0.827901 0.676355 0.167877
O O1 0.200077 0.326310 0.915444
O O2 0.464920 0.979798 0.749651
O O3 0.500000 0.500000 0.000000
O O4 0.251083 0.663330 0.912654
O O5 0.275675 0.364872 0.137985
O O6 0.007472 0.023541 0.110163
O O7 0.000000 0.500000 0.000000
O O8 0.604494 0.603234 0.602754
O O9 0.640578 0.595985 0.734976
O O10 0.500000 0.000000 0.500000
O O11 0.864530 0.168772 0.506854
O O12 0.500000 0.500000 0.500000
O O13 0.789445 0.413801 0.625612
O O14 0.866275 0.375381 0.310894
O O15 0.000000 0.000000 0.500000
O O16 0.630884 0.586261 0.185878
O O17 0.500000 0.000000 0.000000
#
# Coordination Sequence:
#
# PCOD8025530 Si02
#       7
#     2   2   2   2   2   2   2
#     4  12  25  45  73 104 143 194 241 296 370 426
#     4  12  27  44  71 110 146 188 240 302 368 431
#     4  11  24  45  75 104 145 193 240 298 369 430
#     4  11  26  46  73 105 148 191 245 299 362 436
#     4  10  23  45  69 103 143 187 239 296 355 431
#     4  12  25  47  73 107 152 185 238 310 361 430
#     4  12  25  46  75 104 149 188 248 298 359 443
#
# _framework density 21.822279000000002
#
# number of rings (size 3 to 8) (size 9 to 14) (size 15 to 20)
#    0.000    0.571    4.286    3.857    0.000    3.429 
#    0.000    1.429    0.000    0.000    0.000    0.000 
#    0.000    0.000    0.000    0.000    0.000    0.000 
#
# Total GULP energy -173441.268346 kJ/mol
# GULP energy per Si atom -12388.662025 kJ/mol
# Density = 2.177261 g / cm^3
# Si number density = 21.822279 Si / 1000 Ang^3
#
#
#
# Elastic Constant Matrix: (Units=GPa)
#
#
# Indices 1 2 3 4 5 6 
#
# 1 166.2066 52.4128 72.6518 10.9576 -12.5139 12.5282
# 2 52.4128 151.6634 74.5529 18.6582 -9.0108 9.2903
# 3 72.6518 74.5529 164.4645 24.3418 -5.4274 4.9716
# 4 10.9576 18.6582 24.3418 38.8418 -4.2363 1.6790
# 5 -12.5139 -9.0108 -5.4274 -4.2363 47.6279 5.4775
# 6 12.5282 9.2903 4.9716 1.6790 5.4775 38.9679
#
#
#
# Elastic Compliance Matrix: (Units=1/GPa)
#
#
# Indices 1 2 3 4 5 6 
#
# 1 0.007922 -0.001105 -0.002936 0.000430 0.001827 -0.002184
# 2 -0.001105 0.008925 -0.003216 -0.001785 0.001038 -0.001431
# 3 -0.002936 -0.003216 0.009317 -0.003579 -0.000726 0.000778
# 4 0.000430 -0.001785 -0.003579 0.028981 0.002036 -0.000791
# 5 0.001827 0.001038 -0.000726 0.002036 0.022226 -0.003954
# 6 -0.002184 -0.001431 0.000778 -0.000791 -0.003954 0.027196
#
#
# Mechanical properties :
#
#
# Convention : Reuss Voigt Hill
#
# Bulk Modulus (GPa) = 85.83080 97.95218 91.89149
# Shear Modulus (GPa) = 40.66182 43.93531 42.29856
#
# Velocity S-wave (km/s) = 4.32130 4.49188 4.40741
# Velocity P-wave (km/s) = 8.01968 8.47858 8.25232
#
# Compressibility (1/GPa) = 0.01165083
#
# Stress axis : x y z
#
# Youngs Moduli (GPa) = 126.22454 112.04147 107.32664
#
# Poissons Ratio (x) = 0.12382 0.31511
# Poissons Ratio (y) = 0.13949 0.34516
# Poissons Ratio (z) = 0.37059 0.36033
#
# Static dielectric constant tensor:
#      x y z
#    x 5.124780 0.669530 -0.490780 
#    y 0.669530 4.581040 -0.356200 
#    z -0.490780 -0.356200 4.139520 
# 
# 
# High freq. dielectric constant tensor:
#      x y z
#    x 1.878450 0.009060 -0.003230 
#    y 0.009060 1.859600 0.001740 
#    z -0.003230 0.001740 1.870470 
# 
# From -- ./inp_files/297027.got.cif
#   From: 2010.06.25/outbox.cif.g09.slc.cpg/sg2_149_cif.got.tgz:297027.got - 2010.06.27 13:26:56.
