data_PCOD8026295
_publ_section_title
;
Structure prediction by ZEFSAII (Michael W. Deem and Ramdas Pophale) SiO2 
 PCOD8026295
Probable space group: P -1
;
_chemical_formula_sum "Si O2"
_cell_formula_units_Z 14
_cell_length_a 8.617794
_cell_length_b 14.321465
_cell_length_c 15.699145
_cell_angle_alpha 150.455886
_cell_angle_beta 49.056139
_cell_angle_gamma 112.097218
_cell_volume 616.125552
_symmetry_space_group_name_H-M "P -1"
_symmetry_group_IT_number 2
_symmetry_cell_setting 'triclinic'
loop_
_space_group_symop_operation_xyz
x,y,z
-x,-y,-z
loop_
_atom_site_type_symbol
_atom_site_label
_atom_site_fract_x
_atom_site_fract_y
_atom_site_fract_z
Si Si1 0.580405 0.382957 0.234551
Si Si2 0.790825 0.438385 0.638705
Si Si3 0.277307 0.316566 0.974182
Si Si4 0.896471 0.970434 0.271289
Si Si5 0.781351 0.699602 0.421149
Si Si6 0.316549 0.220234 0.289731
Si Si7 0.790794 0.000938 0.523086
O O1 0.409711 0.426939 0.251259
O O2 0.634980 0.576433 0.376226
O O3 0.434163 0.374704 0.362995
O O4 0.823991 0.144348 0.945776
O O5 0.767203 0.235844 0.523411
O O6 0.061032 0.336438 0.424666
O O7 0.749566 0.622411 0.868843
O O8 0.234877 0.113288 0.810972
O O9 0.548368 0.243996 0.789952
O O10 0.068866 0.532551 0.170929
O O11 0.884625 0.896318 0.313627
O O12 0.728389 0.820083 0.627758
O O13 0.696480 0.867965 0.506809
O O14 0.500000 0.000000 0.000000
O O15 0.000000 0.000000 0.500000
#
# Coordination Sequence:
#
# PCOD8026295 Si02
#       7
#     2   2   2   2   2   2   2
#     4  11  23  43  68  96 131 171 218 267 324 389
#     4  11  23  42  67 100 131 171 218 264 331 383
#     4  10  24  41  64  93 135 168 217 262 321 385
#     4  11  24  43  65  98 135 173 214 269 320 386
#     4  10  25  44  65  96 129 174 215 267 329 384
#     4  11  22  42  69  92 133 167 214 274 327 379
#     4  12  24  41  69  97 132 172 219 266 321 389
#
# _framework density 22.722640999999999
#
# number of rings (size 3 to 8) (size 9 to 14) (size 15 to 20)
#    0.000    1.143    1.429    4.714    2.000    5.714 
#    0.000    0.714    0.000    0.000    0.000    0.000 
#    0.000    0.000    0.000    0.000    0.000    0.000 
#
# Total GULP energy -173547.881785 kJ/mol
# GULP energy per Si atom -12396.277270 kJ/mol
# Density = 2.267092 g / cm^3
# Si number density = 22.722641 Si / 1000 Ang^3
#
#
#
# Elastic Constant Matrix: (Units=GPa)
#
#
# Indices 1 2 3 4 5 6 
#
# 1 117.1271 7.9083 53.6245 -5.6906 -7.3425 9.2340
# 2 7.9083 96.7016 21.1660 -6.8026 4.6844 0.2975
# 3 53.6245 21.1660 102.1247 -9.3425 -1.5674 13.4523
# 4 -5.6906 -6.8026 -9.3425 23.6633 8.6643 0.1549
# 5 -7.3425 4.6844 -1.5674 8.6643 41.0232 -0.7440
# 6 9.2340 0.2975 13.4523 0.1549 -0.7440 26.4261
#
#
#
# Elastic Compliance Matrix: (Units=1/GPa)
#
#
# Indices 1 2 3 4 5 6 
#
# 1 0.011403 0.000264 -0.005908 -0.000169 0.001804 -0.000928
# 2 0.000264 0.011132 -0.002313 0.003056 -0.001942 0.000887
# 3 -0.005908 -0.002313 0.014428 0.004085 -0.001201 -0.005312
# 4 -0.000169 0.003056 0.004085 0.048584 -0.010532 -0.002636
# 5 0.001804 -0.001942 -0.001201 -0.010532 0.027115 0.000828
# 6 -0.000928 0.000887 -0.005312 -0.002636 0.000828 0.040899
#
#
# Mechanical properties :
#
#
# Convention : Reuss Voigt Hill
#
# Bulk Modulus (GPa) = 47.50567 53.48344 50.49456
# Shear Modulus (GPa) = 28.33021 33.77283 31.05152
#
# Velocity S-wave (km/s) = 3.53481 3.85945 3.70069
# Velocity P-wave (km/s) = 6.13286 6.59159 6.36636
#
# Compressibility (1/GPa) = 0.02105012
#
# Stress axis : x y z
#
# Youngs Moduli (GPa) = 87.69883 89.83087 69.30762
#
# Poissons Ratio (x) = -0.02373 0.40944
# Poissons Ratio (y) = -0.02317 0.16031
# Poissons Ratio (z) = 0.51809 0.20778
#
# Static dielectric constant tensor:
#      x y z
#    x 4.288210 0.208630 -0.227790 
#    y 0.208630 4.266480 -0.090690 
#    z -0.227790 -0.090690 4.115740 
# 
# 
# High freq. dielectric constant tensor:
#      x y z
#    x 1.913490 0.014540 -0.010130 
#    y 0.014540 1.884960 -0.002220 
#    z -0.010130 -0.002220 1.900640 
# 
# From -- ./inp_files/181035.got.cif
#   From: 2010.06.25/outbox.cif.g09.slc.cpg/sg2_91_cif.got.tgz:181035.got - 2010.06.27 13:26:56.
