data_PCOD8026782
_publ_section_title
;
Structure prediction by ZEFSAII (Michael W. Deem and Ramdas Pophale) SiO2 
 PCOD8026782
Probable space group: P -1
;
_chemical_formula_sum "Si O2"
_cell_formula_units_Z 16
_cell_length_a 5.606064
_cell_length_b 22.325676
_cell_length_c 18.746753
_cell_angle_alpha 161.563578
_cell_angle_beta 111.086277
_cell_angle_gamma 69.496733
_cell_volume 692.025943
_symmetry_space_group_name_H-M "P -1"
_symmetry_group_IT_number 2
_symmetry_cell_setting 'triclinic'
loop_
_space_group_symop_operation_xyz
x,y,z
-x,-y,-z
loop_
_atom_site_type_symbol
_atom_site_label
_atom_site_fract_x
_atom_site_fract_y
_atom_site_fract_z
Si Si1 0.754345 0.758645 0.741354
Si Si2 0.177936 0.537359 0.763239
Si Si3 0.417398 0.730710 0.126065
Si Si4 0.264637 0.924006 0.470152
Si Si5 0.475618 0.013923 0.895240
Si Si6 0.753631 0.347865 0.250787
Si Si7 0.183638 0.593072 0.182429
Si Si8 0.752467 0.346427 0.588126
O O1 0.617836 0.553927 0.486974
O O2 0.053891 0.707698 0.726393
O O3 0.708655 0.879887 0.800969
O O4 0.657103 0.876887 0.931028
O O5 0.102360 0.639127 0.795553
O O6 0.465371 0.443689 0.674096
O O7 0.938404 0.407937 0.612555
O O8 0.185735 0.691193 0.002414
O O9 0.361086 0.785436 0.262258
O O10 0.565545 0.898540 0.293719
O O11 0.562436 0.532286 0.927353
O O12 0.246371 0.805316 0.406052
O O13 0.000000 0.000000 0.500000
O O14 0.280878 0.878298 0.680617
O O15 0.560818 0.174355 0.029993
O O16 0.083125 0.615282 0.278253
O O17 0.000000 0.500000 0.000000
#
# Coordination Sequence:
#
# PCOD8026782 Si02
#       8
#     2   2   2   2   2   2   2   2
#     4  10  24  44  70 104 146 179 245 287 365 424
#     4  11  26  48  72 101 150 187 238 296 359 422
#     4  10  24  43  67  98 142 184 233 296 354 417
#     4  11  22  41  68 104 131 180 243 291 347 427
#     4  11  24  44  71 105 143 186 239 298 356 425
#     4  11  24  43  74 103 138 194 236 288 365 424
#     4  11  22  44  72  97 142 191 234 287 364 416
#     4  11  27  47  72 106 147 188 242 297 359 423
#
# _framework density 23.120519999999999
#
# number of rings (size 3 to 8) (size 9 to 14) (size 15 to 20)
#    0.000    1.250    2.500    1.875    7.000    5.000 
#    2.250    0.000    0.000    0.000    0.000    0.000 
#    0.000    0.000    0.000    0.000    0.000    0.000 
#
# Total GULP energy -198209.259940 kJ/mol
# GULP energy per Si atom -12388.078746 kJ/mol
# Density = 2.306790 g / cm^3
# Si number density = 23.120520 Si / 1000 Ang^3
#
#
#
# Elastic Constant Matrix: (Units=GPa)
#
#
# Indices 1 2 3 4 5 6 
#
# 1 125.4779 -23.0806 -71.8899 155.0517 81.5475 -46.7578
# 2 -23.0806 116.4877 114.2581 -115.8332 -46.5721 56.3832
# 3 -71.8899 114.2581 332.8131 -305.9044 -124.5233 130.2185
# 4 155.0517 -115.8332 -305.9044 521.8538 214.9673 -189.4964
# 5 81.5475 -46.5721 -124.5233 214.9673 134.2424 -83.1753
# 6 -46.7578 56.3832 130.2185 -189.4964 -83.1753 112.0338
#
#
#
# Elastic Compliance Matrix: (Units=1/GPa)
#
#
# Indices 1 2 3 4 5 6 
#
# 1 0.014684 -0.000658 -0.001159 -0.003891 -0.005987 -0.003220
# 2 -0.000658 0.013378 -0.003617 0.000168 -0.000266 -0.002717
# 3 -0.001159 -0.003617 0.008011 0.003461 0.000044 -0.002087
# 4 -0.003891 0.000168 0.003461 0.010455 -0.006859 0.006861
# 5 -0.005987 -0.000266 0.000044 -0.006859 0.024691 0.004313
# 6 -0.003220 -0.002717 -0.002087 0.006861 0.004313 0.026181
#
#
# Mechanical properties :
#
#
# Convention : Reuss Voigt Hill
#
# Bulk Modulus (GPa) = 39.67858 68.15045 53.91451
# Shear Modulus (GPa) = 42.85579 190.65874 116.75726
#
# Velocity S-wave (km/s) = 4.31000 9.09077 7.11400
# Velocity P-wave (km/s) = 6.47819 11.82072 9.53143
#
# Compressibility (1/GPa) = 0.02520252
#
# Stress axis : x y z
#
# Youngs Moduli (GPa) = 68.10065 74.75184 124.83399
#
# Poissons Ratio (x) = 0.04920 0.14472
# Poissons Ratio (y) = 0.04482 0.45158
# Poissons Ratio (z) = 0.07895 0.27041
#
# Static dielectric constant tensor:
#      x y z
#    x 3.896260 -0.046070 0.131480 
#    y -0.046070 4.859700 -0.018630 
#    z 0.131480 -0.018630 4.536080 
# 
# 
# High freq. dielectric constant tensor:
#      x y z
#    x 1.886640 0.002900 0.005250 
#    y 0.002900 1.922150 -0.004450 
#    z 0.005250 -0.004450 1.934540 
# 
# From -- ./inp_files/551027.got.cif
#   From: 2010.06.25/outbox.cif.g09.slc.cpg/sg2_276_cif.got.tgz:551027.got - 2010.06.27 13:26:56.
