data_PCOD8026105
_publ_section_title
;
Structure prediction by ZEFSAII (Michael W. Deem and Ramdas Pophale) SiO2 
 PCOD8026105
Probable space group: P -1
;
_chemical_formula_sum "Si O2"
_cell_formula_units_Z 16
_cell_length_a 11.717856
_cell_length_b 9.519088
_cell_length_c 9.563738
_cell_angle_alpha 45.350897
_cell_angle_beta 86.120194
_cell_angle_gamma 76.719732
_cell_volume 731.826272
_symmetry_space_group_name_H-M "P -1"
_symmetry_group_IT_number 2
_symmetry_cell_setting 'triclinic'
loop_
_space_group_symop_operation_xyz
x,y,z
-x,-y,-z
loop_
_atom_site_type_symbol
_atom_site_label
_atom_site_fract_x
_atom_site_fract_y
_atom_site_fract_z
Si Si1 0.083011 0.586376 0.334927
Si Si2 0.562105 0.365023 0.963749
Si Si3 0.743573 0.890049 0.758974
Si Si4 0.297852 0.346807 0.336744
Si Si5 0.419029 0.405145 0.672538
Si Si6 0.063708 0.438771 0.888356
Si Si7 0.467220 0.055781 0.715375
Si Si8 0.170068 0.718322 0.494134
O O1 0.200378 0.403280 0.425927
O O2 0.114091 0.759667 0.311868
O O3 0.000000 0.500000 0.500000
O O4 0.019898 0.657004 0.141136
O O5 0.598028 0.126203 0.167252
O O6 0.500000 0.500000 0.000000
O O7 0.678548 0.437897 0.864633
O O8 0.464896 0.393054 0.832934
O O9 0.752964 0.764273 0.703938
O O10 0.608711 0.976159 0.757006
O O11 0.804803 0.073887 0.597782
O O12 0.814575 0.736157 0.978456
O O13 0.421611 0.205193 0.483242
O O14 0.500000 0.500000 0.500000
O O15 0.426150 0.176166 0.778463
O O16 0.287467 0.540626 0.587379
O O17 0.089110 0.638553 0.670979
O O18 0.000000 0.500000 0.000000
#
# Coordination Sequence:
#
# PCOD8026105 Si02
#       8
#     2   2   2   2   2   2   2   2
#     4  10  23  49  71  93 137 182 229 289 336 393
#     4  12  26  40  66 103 144 183 222 274 341 416
#     4  12  25  41  74 103 137 180 229 279 347 410
#     4  12  24  46  68 103 143 178 225 288 341 403
#     4  12  22  44  69  99 147 181 216 281 345 416
#     4  11  25  47  70  97 138 178 233 291 331 400
#     4  12  25  43  69 104 143 182 224 273 352 417
#     4  11  24  44  73 101 134 183 227 282 347 400
#
# _framework density 21.863112000000001
#
# number of rings (size 3 to 8) (size 9 to 14) (size 15 to 20)
#    0.000    0.500    6.250    1.500    1.750    1.000 
#    0.000    0.000    0.000    0.000    0.000    0.000 
#    0.000    0.000    0.000    0.000    0.000    0.000 
#
# Total GULP energy -198355.715663 kJ/mol
# GULP energy per Si atom -12397.232229 kJ/mol
# Density = 2.181335 g / cm^3
# Si number density = 21.863112 Si / 1000 Ang^3
#
#
#
# Elastic Constant Matrix: (Units=GPa)
#
#
# Indices 1 2 3 4 5 6 
#
# 1 95.3713 42.4866 36.5661 -4.0735 -8.0547 4.6379
# 2 42.4866 146.5434 51.7815 2.9809 -16.1108 29.9541
# 3 36.5661 51.7815 95.0850 0.6140 -4.5976 9.8812
# 4 -4.0735 2.9809 0.6140 44.9116 7.1292 -2.4438
# 5 -8.0547 -16.1108 -4.5976 7.1292 37.6823 -0.8788
# 6 4.6379 29.9541 9.8812 -2.4438 -0.8788 42.5623
#
#
#
# Elastic Compliance Matrix: (Units=1/GPa)
#
#
# Indices 1 2 3 4 5 6 
#
# 1 0.013190 -0.002733 -0.003695 0.001351 0.000978 0.001442
# 2 -0.002733 0.010770 -0.003957 -0.001850 0.003738 -0.006392
# 3 -0.003695 -0.003957 0.014069 -0.000153 -0.000739 -0.000103
# 4 0.001351 -0.001850 -0.000153 0.023423 -0.004895 0.002434
# 5 0.000978 0.003738 -0.000739 -0.004895 0.029129 -0.002246
# 6 0.001442 -0.006392 -0.000103 0.002434 -0.002246 0.027954
#
#
# Mechanical properties :
#
#
# Convention : Reuss Voigt Hill
#
# Bulk Modulus (GPa) = 57.94472 66.51867 62.23170
# Shear Modulus (GPa) = 34.46929 38.77562 36.62245
#
# Velocity S-wave (km/s) = 3.97494 4.21594 4.09721
# Velocity P-wave (km/s) = 6.90129 7.36138 7.13505
#
# Compressibility (1/GPa) = 0.01725783
#
# Stress axis : x y z
#
# Youngs Moduli (GPa) = 75.81586 92.85327 71.07926
#
# Poissons Ratio (x) = 0.25377 0.26265
# Poissons Ratio (y) = 0.20721 0.28126
# Poissons Ratio (z) = 0.28016 0.36742
#
# Static dielectric constant tensor:
#      x y z
#    x 4.108880 0.330330 0.054200 
#    y 0.330330 4.385330 0.199780 
#    z 0.054200 0.199780 4.198820 
# 
# 
# High freq. dielectric constant tensor:
#      x y z
#    x 1.867670 0.011810 0.003500 
#    y 0.011810 1.873270 0.015980 
#    z 0.003500 0.015980 1.850000 
# 
# From -- ./inp_files/242080.got.cif
#   From: 2010.06.25/outbox.cif.g09.slc.cpg/sg2_122_cif.got.tgz:242080.got - 2010.06.27 13:26:56.
