data_PCOD8026185
_publ_section_title
;
Structure prediction by ZEFSAII (Michael W. Deem and Ramdas Pophale) SiO2 
 PCOD8026185
Probable space group: P -1
;
_chemical_formula_sum "Si O2"
_cell_formula_units_Z 16
_cell_length_a 6.783680
_cell_length_b 23.488725
_cell_length_c 19.653189
_cell_angle_alpha 19.925400
_cell_angle_beta 125.207416
_cell_angle_gamma 133.774137
_cell_volume 735.072837
_symmetry_space_group_name_H-M "P -1"
_symmetry_group_IT_number 2
_symmetry_cell_setting 'triclinic'
loop_
_space_group_symop_operation_xyz
x,y,z
-x,-y,-z
loop_
_atom_site_type_symbol
_atom_site_label
_atom_site_fract_x
_atom_site_fract_y
_atom_site_fract_z
Si Si1 0.700080 0.447315 0.639428
Si Si2 0.428262 0.311220 0.388834
Si Si3 0.891702 0.219792 0.565293
Si Si4 0.647091 0.188464 0.268874
Si Si5 0.210814 0.103405 0.988563
Si Si6 0.741825 0.563456 0.919492
Si Si7 0.080478 0.037564 0.249860
Si Si8 0.847018 0.642801 0.195026
O O1 0.500000 0.500000 0.500000
O O2 0.520446 0.225004 0.880356
O O3 0.808942 0.593106 0.561341
O O4 0.956784 0.449096 0.648238
O O5 0.674494 0.288022 0.432755
O O6 0.356339 0.410003 0.203370
O O7 0.544301 0.457995 0.313266
O O8 0.164118 0.086023 0.603946
O O9 0.940317 0.141636 0.593946
O O10 0.778723 0.054228 0.786515
O O11 0.402119 0.173001 0.189589
O O12 0.933577 0.238107 0.226168
O O13 0.500000 0.000000 0.500000
O O14 0.769911 0.374220 0.135311
O O15 0.166617 0.259946 0.846238
O O16 0.000000 0.000000 0.000000
O O17 0.500000 0.500000 0.000000
O O18 0.018327 0.180619 0.032963
#
# Coordination Sequence:
#
# PCOD8026185 Si02
#       8
#     2   2   2   2   2   2   2   2
#     4  11  22  42  62  91 126 164 210 264 320 387
#     4  11  22  43  65  92 130 168 215 267 322 392
#     4  10  24  40  62  93 123 167 215 259 326 384
#     4  11  24  44  66  93 132 172 219 266 325 391
#     4  11  22  42  62  92 126 162 214 267 317 382
#     4  11  26  43  65  99 134 171 217 270 330 386
#     4  11  22  43  67  92 126 173 215 269 319 383
#     4  10  24  42  63  93 128 171 212 263 331 380
#
# _framework density 21.766549000000001
#
# number of rings (size 3 to 8) (size 9 to 14) (size 15 to 20)
#    0.000    1.250    3.750    1.500    1.750    2.500 
#   11.250    0.000    0.000    0.000    0.000    0.000 
#    0.000    0.000    0.000    0.000    0.000    0.000 
#
# Total GULP energy -198214.647651 kJ/mol
# GULP energy per Si atom -12388.415478 kJ/mol
# Density = 2.171701 g / cm^3
# Si number density = 21.766549 Si / 1000 Ang^3
#
#
#
# Elastic Constant Matrix: (Units=GPa)
#
#
# Indices 1 2 3 4 5 6 
#
# 1 70.5764 40.7276 21.9660 -6.4454 -7.7664 13.0658
# 2 40.7276 106.7910 24.0652 -11.1102 -2.0135 18.1038
# 3 21.9660 24.0652 94.3209 -11.0178 -11.5431 15.2696
# 4 -6.4454 -11.1102 -11.0178 40.0419 5.8383 -1.4533
# 5 -7.7664 -2.0135 -11.5431 5.8383 46.5004 -5.8544
# 6 13.0658 18.1038 15.2696 -1.4533 -5.8544 30.1196
#
#
#
# Elastic Compliance Matrix: (Units=1/GPa)
#
#
# Indices 1 2 3 4 5 6 
#
# 1 0.019272 -0.006271 -0.002095 0.000383 0.001986 -0.003125
# 2 -0.006271 0.013013 -0.001005 0.002389 -0.001637 -0.004795
# 3 -0.002095 -0.001005 0.012566 0.002410 0.001872 -0.004378
# 4 0.000383 0.002389 0.002410 0.026701 -0.002850 -0.002089
# 5 0.001986 -0.001637 0.001872 -0.002850 0.023031 0.003512
# 6 -0.003125 -0.004795 -0.004378 -0.002089 0.003512 0.040240
#
#
# Mechanical properties :
#
#
# Convention : Reuss Voigt Hill
#
# Bulk Modulus (GPa) = 38.30005 49.46732 43.88368
# Shear Modulus (GPa) = 30.81393 35.66100 33.23746
#
# Velocity S-wave (km/s) = 3.76660 4.05203 3.91192
# Velocity P-wave (km/s) = 6.04569 6.68338 6.37252
#
# Compressibility (1/GPa) = 0.02610963
#
# Stress axis : x y z
#
# Youngs Moduli (GPa) = 51.88996 76.84897 79.58274
#
# Poissons Ratio (x) = 0.48190 0.16669
# Poissons Ratio (y) = 0.32539 0.07996
# Poissons Ratio (z) = 0.10869 0.07721
#
# Static dielectric constant tensor:
#      x y z
#    x 3.852720 0.143400 -0.054340 
#    y 0.143400 4.009460 -0.231630 
#    z -0.054340 -0.231630 4.116740 
# 
# 
# High freq. dielectric constant tensor:
#      x y z
#    x 1.844260 0.014690 -0.000970 
#    y 0.014690 1.856320 -0.008860 
#    z -0.000970 -0.008860 1.875770 
# 
# From -- ./inp_files/323222.got.cif
#   From: 2010.06.25/outbox.cif.g09.slc.cpg/sg2_162_cif.got.tgz:323222.got - 2010.06.27 13:26:56.
