data_PCOD8026023
_publ_section_title
;
Structure prediction by ZEFSAII (Michael W. Deem and Ramdas Pophale) SiO2 
 PCOD8026023
Probable space group: P -1
;
_chemical_formula_sum "Si O2"
_cell_formula_units_Z 14
_cell_length_a 14.371024
_cell_length_b 6.755895
_cell_length_c 23.044947
_cell_angle_alpha 103.528564
_cell_angle_beta 160.599597
_cell_angle_gamma 65.309986
_cell_volume 572.465093
_symmetry_space_group_name_H-M "P -1"
_symmetry_group_IT_number 2
_symmetry_cell_setting 'triclinic'
loop_
_space_group_symop_operation_xyz
x,y,z
-x,-y,-z
loop_
_atom_site_type_symbol
_atom_site_label
_atom_site_fract_x
_atom_site_fract_y
_atom_site_fract_z
Si Si1 0.194197 0.286154 0.364748
Si Si2 0.232142 0.815791 0.949185
Si Si3 0.661477 0.075617 0.725146
Si Si4 0.261278 0.542101 0.687199
Si Si5 0.900525 0.840026 0.203254
Si Si6 0.307476 0.527486 0.172414
Si Si7 0.233768 0.925063 0.510253
O O1 0.289933 0.291262 0.488246
O O2 0.817880 0.335888 0.140521
O O3 0.132298 0.531469 0.314102
O O4 0.500000 0.000000 0.500000
O O5 0.136586 0.071065 0.879554
O O6 0.604510 0.640774 0.189123
O O7 0.952331 0.878272 0.837581
O O8 0.818206 0.196791 0.860391
O O9 0.573524 0.925556 0.705093
O O10 0.573088 0.487668 0.824918
O O11 0.000000 0.500000 0.500000
O O12 0.074977 0.826776 0.619609
O O13 0.107769 0.905947 0.371374
O O14 0.500000 0.000000 0.000000
O O15 0.647775 0.313659 0.395979
O O16 0.000000 0.500000 0.000000
#
# Coordination Sequence:
#
# PCOD8026023 Si02
#       7
#     2   2   2   2   2   2   2
#     4  10  23  47  72 110 151 189 247 311 383 445
#     4  11  27  46  74 108 152 191 251 309 387 445
#     4  11  24  47  76 109 146 195 247 319 378 448
#     4  12  28  49  75 106 156 203 249 317 376 453
#     4  12  27  43  78 114 152 196 252 316 385 456
#     4  12  28  49  77 108 149 200 261 307 379 454
#     4  12  26  47  78 108 149 198 259 309 384 448
#
# _framework density 24.455639999999999
#
# number of rings (size 3 to 8) (size 9 to 14) (size 15 to 20)
#    0.000    0.571    4.286    2.143    6.000    9.143 
#    0.000    0.000    0.000    0.000    0.000    0.000 
#    0.000    0.000    0.000    0.000    0.000    0.000 
#
# Total GULP energy -173474.358017 kJ/mol
# GULP energy per Si atom -12391.025573 kJ/mol
# Density = 2.439998 g / cm^3
# Si number density = 24.455640 Si / 1000 Ang^3
#
#
#
# Elastic Constant Matrix: (Units=GPa)
#
#
# Indices 1 2 3 4 5 6 
#
# 1 89.7535 27.7829 26.8403 -5.9370 -3.3812 14.4763
# 2 27.7829 140.4790 50.1552 5.0354 -11.1703 5.0945
# 3 26.8403 50.1552 101.8285 5.4179 -21.3244 3.2041
# 4 -5.9370 5.0354 5.4179 44.1434 15.4209 -6.5811
# 5 -3.3812 -11.1703 -21.3244 15.4209 47.5681 -5.8980
# 6 14.4763 5.0945 3.2041 -6.5811 -5.8980 39.4980
#
#
#
# Elastic Compliance Matrix: (Units=1/GPa)
#
#
# Indices 1 2 3 4 5 6 
#
# 1 0.013379 -0.001615 -0.003189 0.002497 -0.002207 -0.004350
# 2 -0.001615 0.008875 -0.003761 -0.001017 0.000572 -0.000332
# 3 -0.003189 -0.003761 0.014069 -0.003894 0.006564 0.000844
# 4 0.002497 -0.001017 -0.003894 0.027614 -0.010440 0.002574
# 5 -0.002207 0.000572 0.006564 -0.010440 0.027648 0.002592
# 6 -0.004350 -0.000332 0.000844 0.002574 0.002592 0.027702
#
#
# Mechanical properties :
#
#
# Convention : Reuss Voigt Hill
#
# Bulk Modulus (GPa) = 52.10521 60.17976 56.14248
# Shear Modulus (GPa) = 35.01041 41.39406 38.20223
#
# Velocity S-wave (km/s) = 3.78774 4.11861 3.95663
# Velocity P-wave (km/s) = 6.36251 6.87593 6.62419
#
# Compressibility (1/GPa) = 0.01919194
#
# Stress axis : x y z
#
# Youngs Moduli (GPa) = 74.74501 112.68023 71.07843
#
# Poissons Ratio (x) = 0.18192 0.22670
# Poissons Ratio (y) = 0.12068 0.26735
# Poissons Ratio (z) = 0.23839 0.42383
#
# Static dielectric constant tensor:
#      x y z
#    x 4.585330 0.060810 -0.644600 
#    y 0.060810 4.407850 0.091640 
#    z -0.644600 0.091640 5.087020 
# 
# 
# High freq. dielectric constant tensor:
#      x y z
#    x 1.969290 0.008150 -0.019220 
#    y 0.008150 1.975240 -0.000770 
#    z -0.019220 -0.000770 1.989520 
# 
# From -- ./inp_files/611307.got.cif
#   From: 2010.06.25/outbox.cif.g09.slc.cpg/sg2_306_cif.got.tgz:611307.got - 2010.06.27 13:26:56.
