data_PCOD8026028
_publ_section_title
;
Structure prediction by ZEFSAII (Michael W. Deem and Ramdas Pophale) SiO2 
 PCOD8026028
Probable space group: P -1
;
_chemical_formula_sum "Si O2"
_cell_formula_units_Z 16
_cell_length_a 26.503662
_cell_length_b 6.656954
_cell_length_c 8.166780
_cell_angle_alpha 118.734662
_cell_angle_beta 36.213801
_cell_angle_gamma 101.056489
_cell_volume 690.901206
_symmetry_space_group_name_H-M "P -1"
_symmetry_group_IT_number 2
_symmetry_cell_setting 'triclinic'
loop_
_space_group_symop_operation_xyz
x,y,z
-x,-y,-z
loop_
_atom_site_type_symbol
_atom_site_label
_atom_site_fract_x
_atom_site_fract_y
_atom_site_fract_z
Si Si1 0.275192 0.496107 0.674404
Si Si2 0.601979 0.989316 0.698456
Si Si3 0.565463 0.454332 0.156773
Si Si4 0.875088 0.711116 0.422582
Si Si5 0.324909 0.250016 0.102363
Si Si6 0.926650 0.145228 0.609743
Si Si7 0.994160 0.270475 0.161611
Si Si8 0.601264 0.217252 0.449387
O O1 0.321704 0.371369 0.334229
O O2 0.315119 0.691463 0.715669
O O3 0.310781 0.269691 0.618907
O O4 0.164686 0.633236 0.996056
O O5 0.605053 0.052279 0.528682
O O6 0.622396 0.170242 0.847577
O O7 0.500000 0.000000 0.000000
O O8 0.500000 0.500000 0.500000
O O9 0.498438 0.562985 0.217535
O O10 0.636461 0.589685 0.055008
O O11 0.770357 0.750635 0.712144
O O12 0.916286 0.469294 0.333180
O O13 0.894374 0.942827 0.533227
O O14 0.913998 0.682875 0.120375
O O15 0.389004 0.957519 0.806498
O O16 0.973143 0.285597 0.418033
O O17 0.000000 0.000000 0.500000
O O18 0.000000 0.000000 0.000000
#
# Coordination Sequence:
#
# PCOD8026028 Si02
#       8
#     2   2   2   2   2   2   2   2
#     4  12  27  47  73 110 145 195 247 306 366 441
#     4  12  24  46  75 104 146 195 244 304 368 429
#     4  12  25  46  76 108 149 200 246 302 374 444
#     4  10  23  47  73 104 146 190 242 312 373 442
#     4  12  26  46  71 108 150 188 249 301 369 444
#     4  11  26  48  73 106 148 194 251 308 375 445
#     4   9  22  45  74 101 136 189 238 303 378 439
#     4  12  25  49  72 103 152 190 243 305 358 445
#
# _framework density 23.158158
#
# number of rings (size 3 to 8) (size 9 to 14) (size 15 to 20)
#    0.000    0.750    3.750    3.000    7.000    0.500 
#    6.750    0.000    0.000    0.000    0.000    0.000 
#    0.000    0.000    0.000    0.000    0.000    0.000 
#
# Total GULP energy -198232.284030 kJ/mol
# GULP energy per Si atom -12389.517752 kJ/mol
# Density = 2.310545 g / cm^3
# Si number density = 23.158158 Si / 1000 Ang^3
#
#
#
# Elastic Constant Matrix: (Units=GPa)
#
#
# Indices 1 2 3 4 5 6 
#
# 1 78.3289 56.3186 37.8209 -13.7282 -6.3287 2.2978
# 2 56.3186 138.7788 55.8947 -6.1898 -1.5041 -11.3132
# 3 37.8209 55.8947 113.0101 -6.5525 -8.9962 -7.6179
# 4 -13.7282 -6.1898 -6.5525 46.3249 0.9071 2.3438
# 5 -6.3287 -1.5041 -8.9962 0.9071 46.4106 2.7562
# 6 2.2978 -11.3132 -7.6179 2.3438 2.7562 55.8524
#
#
#
# Elastic Compliance Matrix: (Units=1/GPa)
#
#
# Indices 1 2 3 4 5 6 
#
# 1 0.020425 -0.007043 -0.003114 0.004783 0.002038 -0.002993
# 2 -0.007043 0.011543 -0.003370 -0.001110 -0.001353 0.002282
# 3 -0.003114 -0.003370 0.011769 0.000210 0.001686 0.000959
# 4 0.004783 -0.001110 0.000210 0.022949 0.000290 -0.001370
# 5 0.002038 -0.001353 0.001686 0.000290 0.022175 -0.001234
# 6 -0.002993 0.002282 0.000959 -0.001370 -0.001234 0.018739
#
#
# Mechanical properties :
#
#
# Convention : Reuss Voigt Hill
#
# Bulk Modulus (GPa) = 59.94644 70.02069 64.98356
# Shear Modulus (GPa) = 35.65905 41.72316 38.69111
#
# Velocity S-wave (km/s) = 3.92829 4.24920 4.09189
# Velocity P-wave (km/s) = 6.82035 7.37400 7.10257
#
# Compressibility (1/GPa) = 0.01668156
#
# Stress axis : x y z
#
# Youngs Moduli (GPa) = 48.95941 86.63116 84.96805
#
# Poissons Ratio (x) = 0.61015 0.26462
# Poissons Ratio (y) = 0.34482 0.28638
# Poissons Ratio (z) = 0.15248 0.29199
#
# Static dielectric constant tensor:
#      x y z
#    x 4.066220 -0.063080 0.262040 
#    y -0.063080 4.685280 0.042390 
#    z 0.262040 0.042390 4.475370 
# 
# 
# High freq. dielectric constant tensor:
#      x y z
#    x 1.903090 0.003420 0.008950 
#    y 0.003420 1.937510 0.004710 
#    z 0.008950 0.004710 1.924680 
# 
# From -- ./inp_files/358252.got.cif
#   From: 2010.06.25/outbox.cif.g09.slc.cpg/sg2_180_cif.got.tgz:358252.got - 2010.06.27 13:26:56.
