data_PCOD8026345
_publ_section_title
;
Structure prediction by ZEFSAII (Michael W. Deem and Ramdas Pophale) SiO2 
 PCOD8026345
Probable space group: P -1
;
_chemical_formula_sum "Si O2"
_cell_formula_units_Z 16
_cell_length_a 14.365881
_cell_length_b 11.331062
_cell_length_c 8.873877
_cell_angle_alpha 95.310121
_cell_angle_beta 96.186065
_cell_angle_gamma 149.677354
_cell_volume 673.667088
_symmetry_space_group_name_H-M "P -1"
_symmetry_group_IT_number 2
_symmetry_cell_setting 'triclinic'
loop_
_space_group_symop_operation_xyz
x,y,z
-x,-y,-z
loop_
_atom_site_type_symbol
_atom_site_label
_atom_site_fract_x
_atom_site_fract_y
_atom_site_fract_z
Si Si1 0.674395 0.114535 0.192886
Si Si2 0.178615 0.141829 0.877144
Si Si3 0.009270 0.316812 0.222030
Si Si4 0.458025 0.485836 0.233935
Si Si5 0.594298 0.773819 0.574981
Si Si6 0.238848 0.623709 0.019464
Si Si7 0.952732 0.772415 0.284575
Si Si8 0.703181 0.377218 0.429876
O O1 0.707523 0.259643 0.328392
O O2 0.826182 0.176981 0.257603
O O3 0.452808 0.815512 0.139630
O O4 0.716063 0.203507 0.039203
O O5 0.354908 0.298337 0.817663
O O6 0.045194 0.091661 0.763184
O O7 0.260763 0.280814 0.070203
O O8 0.043300 0.876496 0.853530
O O9 0.077505 0.464503 0.102656
O O10 0.201949 0.539573 0.383707
O O11 0.472725 0.599151 0.383161
O O12 0.456235 0.357423 0.300466
O O13 0.522037 0.826610 0.607995
O O14 0.827857 0.029091 0.615393
O O15 0.155807 0.430266 0.876469
O O16 0.829921 0.623465 0.400394
#
# Coordination Sequence:
#
# PCOD8026345 Si02
#       8
#     2   2   2   2   2   2   2   2
#     4  10  25  49  71  97 139 180 230 293 348 397
#     4  11  25  42  69 106 144 182 227 283 341 415
#     4  12  26  42  73 105 136 182 234 281 345 414
#     4  10  24  41  67  96 145 185 225 277 339 405
#     4  11  24  43  68  98 139 188 228 276 341 408
#     4  10  25  44  73 100 133 181 236 285 341 413
#     4  11  25  45  70 101 147 185 224 280 351 410
#     4  11  26  46  69 103 140 181 232 287 344 407
#
# _framework density 23.750603999999999
#
# number of rings (size 3 to 8) (size 9 to 14) (size 15 to 20)
#    0.000    1.250    1.250    2.250    8.750    9.500 
#    0.000    0.000    0.000    0.000    0.000    0.000 
#    0.000    0.000    0.000    0.000    0.000    0.000 
#
# Total GULP energy -198413.970569 kJ/mol
# GULP energy per Si atom -12400.873161 kJ/mol
# Density = 2.369655 g / cm^3
# Si number density = 23.750604 Si / 1000 Ang^3
#
#
#
# Elastic Constant Matrix: (Units=GPa)
#
#
# Indices 1 2 3 4 5 6 
#
# 1 118.9692 1.6919 24.3383 21.1022 6.5266 12.6690
# 2 1.6919 135.6703 -32.5749 -1.0749 0.0579 -4.7733
# 3 24.3383 -32.5749 132.2149 18.7412 -5.4076 -2.2198
# 4 21.1022 -1.0749 18.7412 42.2598 5.6733 4.8204
# 5 6.5266 0.0579 -5.4076 5.6733 25.4341 3.6793
# 6 12.6690 -4.7733 -2.2198 4.8204 3.6793 30.3304
#
#
#
# Elastic Compliance Matrix: (Units=1/GPa)
#
#
# Indices 1 2 3 4 5 6 
#
# 1 0.009845 -0.000657 -0.001584 -0.003616 -0.001539 -0.003570
# 2 -0.000657 0.007972 0.002240 -0.000734 0.000538 0.001744
# 3 -0.001584 0.002240 0.009096 -0.003796 0.002903 0.001931
# 4 -0.003616 -0.000734 -0.003796 0.028214 -0.005785 -0.002665
# 5 -0.001539 0.000538 0.002903 -0.005785 0.042088 -0.003246
# 6 -0.003570 0.001744 0.001931 -0.002665 -0.003246 0.035695
#
#
# Mechanical properties :
#
#
# Convention : Reuss Voigt Hill
#
# Bulk Modulus (GPa) = 37.15789 41.52944 39.34366
# Shear Modulus (GPa) = 35.24034 45.83147 40.53591
#
# Velocity S-wave (km/s) = 3.85615 4.39760 4.13574
# Velocity P-wave (km/s) = 5.95865 6.58094 6.27751
#
# Compressibility (1/GPa) = 0.02691219
#
# Stress axis : x y z
#
# Youngs Moduli (GPa) = 101.57387 125.43491 109.93484
#
# Poissons Ratio (x) = 0.08238 0.17418
# Poissons Ratio (y) = 0.06671 -0.24630
# Poissons Ratio (z) = 0.16093 -0.28103
#
# Static dielectric constant tensor:
#      x y z
#    x 4.031260 0.080970 0.087140 
#    y 0.080970 4.453140 -0.184820 
#    z 0.087140 -0.184820 4.498070 
# 
# 
# High freq. dielectric constant tensor:
#      x y z
#    x 1.932650 0.011240 0.001700 
#    y 0.011240 1.946070 -0.004680 
#    z 0.001700 -0.004680 1.951100 
# 
# From -- ./inp_files/307585.got.cif
#   From: 2010.06.25/outbox.cif.g09.slc.cpg/sg2_154_cif.got.tgz:307585.got - 2010.06.27 13:26:56.
