data_PCOD8026851
_publ_section_title
;
Structure prediction by ZEFSAII (Michael W. Deem and Ramdas Pophale) SiO2 
 PCOD8026851
Probable space group: P -1
;
_chemical_formula_sum "Si O2"
_cell_formula_units_Z 16
_cell_length_a 8.780333
_cell_length_b 14.668251
_cell_length_c 11.409695
_cell_angle_alpha 95.908965
_cell_angle_beta 104.084189
_cell_angle_gamma 27.338228
_cell_volume 633.063202
_symmetry_space_group_name_H-M "P -1"
_symmetry_group_IT_number 2
_symmetry_cell_setting 'triclinic'
loop_
_space_group_symop_operation_xyz
x,y,z
-x,-y,-z
loop_
_atom_site_type_symbol
_atom_site_label
_atom_site_fract_x
_atom_site_fract_y
_atom_site_fract_z
Si Si1 0.993211 0.559949 0.299422
Si Si2 0.240331 0.286936 0.128176
Si Si3 0.415384 0.001671 0.225699
Si Si4 0.126948 0.074091 0.959083
Si Si5 0.586294 0.349889 0.506844
Si Si6 0.916049 0.173561 0.308406
Si Si7 0.691742 0.461463 0.931278
Si Si8 0.332538 0.788941 0.263349
O O1 0.806383 0.754496 0.256764
O O2 0.717324 0.631668 0.310088
O O3 0.197005 0.403111 0.209932
O O4 0.273219 0.441659 0.434072
O O5 0.388486 0.123263 0.210111
O O6 0.531723 0.149774 0.064847
O O7 0.859126 0.465247 0.022210
O O8 0.226461 0.085155 0.327260
O O9 0.180979 0.055896 0.105978
O O10 0.037294 0.224640 0.917826
O O11 0.774998 0.198870 0.880835
O O12 0.500000 0.500000 0.500000
O O13 0.890387 0.177559 0.444369
O O14 0.698795 0.272367 0.650662
O O15 0.547624 0.393333 0.207053
O O16 0.022477 0.019616 0.262876
O O17 0.500000 0.500000 0.000000
#
# Coordination Sequence:
#
# PCOD8026851 Si02
#       8
#     2   2   2   2   2   2   2   2
#     4  11  27  47  74 106 145 187 243 298 369 425
#     4  11  24  40  70 106 154 186 232 295 359 434
#     4  10  24  43  69 114 147 187 233 293 369 436
#     4  11  23  41  70 106 150 189 235 291 357 431
#     4  12  28  49  76 100 139 192 250 302 356 425
#     4  11  24  43  71 105 143 190 241 294 365 421
#     4  11  20  39  67 107 149 193 232 282 366 439
#     4  11  26  48  72 104 147 190 246 296 353 432
#
# _framework density 25.273937
#
# number of rings (size 3 to 8) (size 9 to 14) (size 15 to 20)
#    0.000    1.000    2.500    4.500    8.750    1.500 
#    0.000    1.250    0.000    0.000    0.000    0.000 
#    0.000    0.000    0.000    0.000    0.000    0.000 
#
# Total GULP energy -198280.832117 kJ/mol
# GULP energy per Si atom -12392.552007 kJ/mol
# Density = 2.521641 g / cm^3
# Si number density = 25.273937 Si / 1000 Ang^3
#
#
#
# Elastic Constant Matrix: (Units=GPa)
#
#
# Indices 1 2 3 4 5 6 
#
# 1 62.9733 1.3580 4.7629 2.4952 2.1951 -14.3843
# 2 1.3580 121.1074 8.3211 1.4165 -4.9436 -0.9737
# 3 4.7629 8.3211 39.9256 11.5786 7.2000 -13.9347
# 4 2.4952 1.4165 11.5786 21.6574 4.1837 -4.1972
# 5 2.1951 -4.9436 7.2000 4.1837 45.9719 -2.3934
# 6 -14.3843 -0.9737 -13.9347 -4.1972 -2.3934 37.0725
#
#
#
# Elastic Compliance Matrix: (Units=1/GPa)
#
#
# Indices 1 2 3 4 5 6 
#
# 1 0.017462 -0.000201 0.000741 -0.000955 -0.000525 0.006906
# 2 -0.000201 0.008455 -0.002258 0.000329 0.001212 -0.000589
# 3 0.000741 -0.002258 0.034498 -0.015498 -0.003688 0.011202
# 4 -0.000955 0.000329 -0.015498 0.055008 -0.002504 -0.000121
# 5 -0.000525 0.001212 -0.003688 -0.002504 0.022694 -0.000376
# 6 0.006906 -0.000589 0.011202 -0.000121 -0.000376 0.033811
#
#
# Mechanical properties :
#
#
# Convention : Reuss Voigt Hill
#
# Bulk Modulus (GPa) = 17.55046 28.09891 22.82469
# Shear Modulus (GPa) = 25.72584 34.91133 30.31858
#
# Velocity S-wave (km/s) = 3.19388 3.72064 3.46728
# Velocity P-wave (km/s) = 4.53435 5.44054 5.00798
#
# Compressibility (1/GPa) = 0.05697856
#
# Stress axis : x y z
#
# Youngs Moduli (GPa) = 57.26801 118.26754 28.98722
#
# Poissons Ratio (x) = 0.02382 -0.02148
# Poissons Ratio (y) = 0.01154 0.06545
# Poissons Ratio (z) = -0.04243 0.26703
#
# Static dielectric constant tensor:
#      x y z
#    x 4.417080 0.133780 0.101390 
#    y 0.133780 4.692690 -0.401460 
#    z 0.101390 -0.401460 3.166510 
# 
# 
# High freq. dielectric constant tensor:
#      x y z
#    x 2.011080 0.002560 -0.000780 
#    y 0.002560 2.024530 0.003170 
#    z -0.000780 0.003170 1.988820 
# 
# From -- ./inp_files/399202.got.cif
#   From: 2010.06.25/outbox.cif.g09.slc.cpg/sg2_200_cif.got.tgz:399202.got - 2010.06.27 13:26:56.
