data_PCOD8026646
_publ_section_title
;
Structure prediction by ZEFSAII (Michael W. Deem and Ramdas Pophale) SiO2 
 PCOD8026646
Probable space group: P -1
;
_chemical_formula_sum "Si O2"
_cell_formula_units_Z 14
_cell_length_a 17.224325
_cell_length_b 9.007981
_cell_length_c 5.501192
_cell_angle_alpha 128.032398
_cell_angle_beta 71.697264
_cell_angle_gamma 124.268707
_cell_volume 554.888136
_symmetry_space_group_name_H-M "P -1"
_symmetry_group_IT_number 2
_symmetry_cell_setting 'triclinic'
loop_
_space_group_symop_operation_xyz
x,y,z
-x,-y,-z
loop_
_atom_site_type_symbol
_atom_site_label
_atom_site_fract_x
_atom_site_fract_y
_atom_site_fract_z
Si Si1 0.128992 0.988652 0.533407
Si Si2 0.274742 0.834832 0.271726
Si Si3 0.579767 0.582193 0.702713
Si Si4 0.859990 0.488051 0.563179
Si Si5 0.238464 0.416553 0.636373
Si Si6 0.541920 0.845892 0.354518
Si Si7 0.042334 0.769847 0.912310
O O1 0.203868 0.910847 0.322041
O O2 0.080141 0.908863 0.763033
O O3 0.181897 0.251538 0.746079
O O4 0.060183 0.906055 0.280435
O O5 0.236431 0.709997 0.438576
O O6 0.378321 0.043294 0.405214
O O7 0.282263 0.668281 0.912516
O O8 0.500000 0.500000 0.500000
O O9 0.680657 0.638807 0.563973
O O10 0.546404 0.386148 0.728513
O O11 0.591640 0.803357 0.031538
O O12 0.833128 0.634391 0.568796
O O13 0.916056 0.392457 0.258551
O O14 0.929154 0.632414 0.859381
O O15 0.500000 0.000000 0.500000
#
# Coordination Sequence:
#
# PCOD8026646 Si02
#       7
#     2   2   2   2   2   2   2
#     4  11  26  44  74 102 150 194 247 300 369 420
#     4  11  25  44  68 104 143 190 238 303 362 435
#     4  11  26  45  71 105 142 181 236 295 360 441
#     4  10  24  42  72  99 146 188 252 291 366 426
#     4  12  26  42  70 106 142 188 247 297 363 437
#     4  11  25  46  74 102 140 186 233 293 367 437
#     4  10  24  47  71 104 146 200 242 310 358 430
#
# _framework density 25.230308999999998
#
# number of rings (size 3 to 8) (size 9 to 14) (size 15 to 20)
#    0.000    1.143    1.429    2.571    8.000    9.714 
#    0.000    0.000    0.000    0.000    0.000    0.000 
#    0.000    0.000    0.000    0.000    0.000    0.000 
#
# Total GULP energy -173594.050195 kJ/mol
# GULP energy per Si atom -12399.575014 kJ/mol
# Density = 2.517288 g / cm^3
# Si number density = 25.230309 Si / 1000 Ang^3
#
#
#
# Elastic Constant Matrix: (Units=GPa)
#
#
# Indices 1 2 3 4 5 6 
#
# 1 118.6720 25.0457 49.4698 -1.5990 -5.6469 -7.1245
# 2 25.0457 87.8687 13.6267 12.3539 -1.6137 -13.7974
# 3 49.4698 13.6267 118.8659 9.7119 2.6873 -5.4584
# 4 -1.5990 12.3539 9.7119 36.1113 0.9174 8.2469
# 5 -5.6469 -1.6137 2.6873 0.9174 48.3438 -0.7893
# 6 -7.1245 -13.7974 -5.4584 8.2469 -0.7893 31.7388
#
#
#
# Elastic Compliance Matrix: (Units=1/GPa)
#
#
# Indices 1 2 3 4 5 6 
#
# 1 0.010991 -0.002813 -0.004510 0.002670 0.001387 -0.000191
# 2 -0.002813 0.014246 0.000427 -0.006816 0.000374 0.007415
# 3 -0.004510 0.000427 0.010648 -0.003622 -0.001004 0.001921
# 4 0.002670 -0.006816 -0.003622 0.033822 -0.000549 -0.011788
# 5 0.001387 0.000374 -0.001004 -0.000549 0.020942 0.000964
# 6 -0.000191 0.007415 0.001921 -0.011788 0.000964 0.038105
#
#
# Mechanical properties :
#
#
# Convention : Reuss Voigt Hill
#
# Bulk Modulus (GPa) = 45.26699 55.74346 50.50523
# Shear Modulus (GPa) = 33.35319 39.05641 36.20480
#
# Velocity S-wave (km/s) = 3.63981 3.93873 3.79221
# Velocity P-wave (km/s) = 5.97032 6.54420 6.26384
#
# Compressibility (1/GPa) = 0.02209115
#
# Stress axis : x y z
#
# Youngs Moduli (GPa) = 90.98442 70.19608 93.91641
#
# Poissons Ratio (x) = 0.19748 0.42356
# Poissons Ratio (y) = 0.25597 -0.04007
# Poissons Ratio (z) = 0.41034 -0.02995
#
# Static dielectric constant tensor:
#      x y z
#    x 4.535320 -0.094030 0.008390 
#    y -0.094030 4.539430 0.242000 
#    z 0.008390 0.242000 4.482790 
# 
# 
# High freq. dielectric constant tensor:
#      x y z
#    x 2.017460 -0.004060 -0.008280 
#    y -0.004060 2.007050 0.010710 
#    z -0.008280 0.010710 2.007140 
# 
# From -- ./inp_files/107782.got.cif
#   From: 2010.06.25/outbox.cif.g09.slc.cpg/sg2_54_cif.got.tgz:107782.got - 2010.06.27 13:26:56.
