data_PCOD8026896
_publ_section_title
;
Structure prediction by ZEFSAII (Michael W. Deem and Ramdas Pophale) SiO2 
 PCOD8026896
Probable space group: P -1
;
_chemical_formula_sum "Si O2"
_cell_formula_units_Z 16
_cell_length_a 19.867767
_cell_length_b 13.462761
_cell_length_c 8.439214
_cell_angle_alpha 147.330449
_cell_angle_beta 40.221577
_cell_angle_gamma 140.822581
_cell_volume 727.813369
_symmetry_space_group_name_H-M "P -1"
_symmetry_group_IT_number 2
_symmetry_cell_setting 'triclinic'
loop_
_space_group_symop_operation_xyz
x,y,z
-x,-y,-z
loop_
_atom_site_type_symbol
_atom_site_label
_atom_site_fract_x
_atom_site_fract_y
_atom_site_fract_z
Si Si1 0.700697 0.830363 0.784328
Si Si2 0.065896 0.718137 0.242196
Si Si3 0.717898 0.229485 0.262450
Si Si4 0.884690 0.899209 0.781048
Si Si5 0.557025 0.420165 0.654544
Si Si6 0.784242 0.603347 0.830549
Si Si7 0.401718 0.346841 0.573911
Si Si8 0.982269 0.291203 0.325137
O O1 0.829490 0.892128 0.697150
O O2 0.630066 0.615527 0.689616
O O3 0.685292 0.821534 0.607912
O O4 0.658970 0.008932 0.151151
O O5 0.078157 0.723623 0.417281
O O6 0.996778 0.853331 0.495921
O O7 0.192198 0.801195 0.060951
O O8 0.000000 0.500000 0.000000
O O9 0.628009 0.297615 0.427630
O O10 0.784494 0.390329 0.490585
O O11 0.789648 0.734678 0.840014
O O12 0.910657 0.114065 0.100366
O O13 0.463471 0.271688 0.502088
O O14 0.500000 0.500000 0.000000
O O15 0.895832 0.722363 0.890061
O O16 0.672171 0.550974 0.064010
O O17 0.500000 0.500000 0.500000
O O18 0.000000 0.500000 0.500000
#
# Coordination Sequence:
#
# PCOD8026896 Si02
#       8
#     2   2   2   2   2   2   2   2
#     4  11  25  42  69 104 130 176 231 277 345 403
#     4  11  22  42  65  99 140 179 228 274 332 415
#     4  12  24  41  72  99 136 176 230 278 342 407
#     4  11  23  43  68  96 145 188 217 272 353 405
#     4  11  22  49  71  91 134 180 224 291 350 396
#     4  11  21  45  66  94 139 182 220 277 342 408
#     4  10  24  43  70  97 128 174 229 286 341 398
#     4  11  25  41  66 102 140 185 229 272 339 415
#
# _framework density 21.983657000000001
#
# number of rings (size 3 to 8) (size 9 to 14) (size 15 to 20)
#    0.000    1.000    5.000    2.250    3.500    4.500 
#    0.000    0.000    0.000    0.000    0.000    0.000 
#    0.000    0.000    0.000    0.000    0.000    0.000 
#
# Total GULP energy -198264.471546 kJ/mol
# GULP energy per Si atom -12391.529472 kJ/mol
# Density = 2.193362 g / cm^3
# Si number density = 21.983657 Si / 1000 Ang^3
#
#
#
# Elastic Constant Matrix: (Units=GPa)
#
#
# Indices 1 2 3 4 5 6 
#
# 1 162.2926 20.8817 55.9116 6.8038 8.1860 14.4408
# 2 20.8817 39.1511 42.4129 -2.6230 -8.6400 3.0611
# 3 55.9116 42.4129 126.4309 1.3478 -7.5088 7.8863
# 4 6.8038 -2.6230 1.3478 54.9747 5.2725 -7.0633
# 5 8.1860 -8.6400 -7.5088 5.2725 39.8774 15.1611
# 6 14.4408 3.0611 7.8863 -7.0633 15.1611 21.5492
#
#
#
# Elastic Compliance Matrix: (Units=1/GPa)
#
#
# Indices 1 2 3 4 5 6 
#
# 1 0.007716 -0.000914 -0.002878 -0.001384 -0.000617 -0.004007
# 2 -0.000914 0.042798 -0.012915 0.000580 0.009776 -0.007429
# 3 -0.002878 -0.012915 0.013793 -0.001105 0.001586 -0.002763
# 4 -0.001384 0.000580 -0.001105 0.020891 -0.007698 0.013513
# 5 -0.000617 0.009776 0.001586 -0.007698 0.041213 -0.033074
# 6 -0.004007 -0.007429 -0.002763 0.013513 -0.033074 0.078856
#
#
# Mechanical properties :
#
#
# Convention : Reuss Voigt Hill
#
# Bulk Modulus (GPa) = 32.36912 62.92078 47.64495
# Shear Modulus (GPa) = 20.08209 37.19149 28.63679
#
# Velocity S-wave (km/s) = 3.02570 4.11759 3.61313
# Velocity P-wave (km/s) = 5.19255 7.16169 6.25509
#
# Compressibility (1/GPa) = 0.03089364
#
# Stress axis : x y z
#
# Youngs Moduli (GPa) = 129.59324 23.36581 72.50015
#
# Poissons Ratio (x) = 0.02135 0.20865
# Poissons Ratio (y) = 0.11840 0.93635
# Poissons Ratio (z) = 0.37296 0.30177
#
# Static dielectric constant tensor:
#      x y z
#    x 4.839610 0.114630 0.329540 
#    y 0.114630 3.980950 0.121120 
#    z 0.329540 0.121120 4.133030 
# 
# 
# High freq. dielectric constant tensor:
#      x y z
#    x 1.883380 0.008360 0.009430 
#    y 0.008360 1.858210 0.006630 
#    z 0.009430 0.006630 1.859600 
# 
# From -- ./inp_files/347725.got.cif
#   From: 2010.06.25/outbox.cif.g09.slc.cpg/sg2_174_cif.got.tgz:347725.got - 2010.06.27 13:26:56.
