data_PCOD8026961
_publ_section_title
;
Structure prediction by ZEFSAII (Michael W. Deem and Ramdas Pophale) SiO2 
 PCOD8026961
Probable space group: P -1
;
_chemical_formula_sum "Si O2"
_cell_formula_units_Z 14
_cell_length_a 15.431246
_cell_length_b 8.850542
_cell_length_c 7.922813
_cell_angle_alpha 145.184467
_cell_angle_beta 82.740883
_cell_angle_gamma 101.252490
_cell_volume 604.801987
_symmetry_space_group_name_H-M "P -1"
_symmetry_group_IT_number 2
_symmetry_cell_setting 'triclinic'
loop_
_space_group_symop_operation_xyz
x,y,z
-x,-y,-z
loop_
_atom_site_type_symbol
_atom_site_label
_atom_site_fract_x
_atom_site_fract_y
_atom_site_fract_z
Si Si1 0.140523 0.784019 0.101791
Si Si2 0.642412 0.267174 0.503530
Si Si3 0.981947 0.720465 0.839292
Si Si4 0.418269 0.609609 0.703386
Si Si5 0.244832 0.346095 0.648667
Si Si6 0.187967 0.517588 0.157508
Si Si7 0.541214 0.714195 0.050081
O O1 0.134564 0.710013 0.235616
O O2 0.186245 0.088129 0.345792
O O3 0.043388 0.729989 0.997783
O O4 0.202565 0.599546 0.823093
O O5 0.628657 0.211498 0.253827
O O6 0.743287 0.298245 0.568122
O O7 0.588132 0.006651 0.375734
O O8 0.612177 0.557107 0.798737
O O9 0.000000 0.500000 0.500000
O O10 0.880918 0.672572 0.883788
O O11 0.000000 0.000000 0.000000
O O12 0.500000 0.500000 0.500000
O O13 0.345245 0.372197 0.581757
O O14 0.462448 0.783279 0.010437
O O15 0.240400 0.347160 0.857540
O O16 0.500000 0.500000 0.000000
#
# Coordination Sequence:
#
# PCOD8026961 Si02
#       7
#     2   2   2   2   2   2   2
#     4  10  25  45  72  98 142 182 235 276 350 417
#     4  11  25  40  65 101 128 180 226 286 341 400
#     4  12  28  46  73 109 142 177 229 289 356 411
#     4  10  24  45  68  99 143 180 236 292 349 398
#     4  10  24  43  73 100 134 189 234 278 347 412
#     4  10  27  44  74  98 145 180 238 277 350 421
#     4  11  24  42  66  93 137 177 233 278 345 404
#
# _framework density 23.148071999999999
#
# number of rings (size 3 to 8) (size 9 to 14) (size 15 to 20)
#    0.857    0.571    0.000    3.000   10.000    5.143 
#    0.000    0.000    0.000    0.000    0.000    0.000 
#    0.000    0.000    0.000    0.000    0.000    0.000 
#
# Total GULP energy -173472.113889 kJ/mol
# GULP energy per Si atom -12390.865278 kJ/mol
# Density = 2.309539 g / cm^3
# Si number density = 23.148072 Si / 1000 Ang^3
#
#
#
# Elastic Constant Matrix: (Units=GPa)
#
#
# Indices 1 2 3 4 5 6 
#
# 1 135.3304 80.8197 54.4048 -1.4513 43.7209 4.1283
# 2 80.8197 140.6489 49.1183 1.6855 19.9899 14.6889
# 3 54.4048 49.1183 117.4938 26.9580 22.3869 2.8195
# 4 -1.4513 1.6855 26.9580 34.0932 0.2966 7.6735
# 5 43.7209 19.9899 22.3869 0.2966 48.6399 -4.5380
# 6 4.1283 14.6889 2.8195 7.6735 -4.5380 59.4485
#
#
#
# Elastic Compliance Matrix: (Units=1/GPa)
#
#
# Indices 1 2 3 4 5 6 
#
# 1 0.016140 -0.006490 -0.003773 0.004229 -0.010192 -0.000662
# 2 -0.006490 0.011692 -0.002600 0.001721 0.001992 -0.002385
# 3 -0.003773 -0.002600 0.014368 -0.011734 -0.001933 0.001590
# 4 0.004229 0.001721 -0.011734 0.039896 0.000154 -0.005300
# 5 -0.010192 0.001992 -0.001933 0.000154 0.030031 0.002580
# 6 -0.000662 -0.002385 0.001590 -0.005300 0.002580 0.018262
#
#
# Mechanical properties :
#
#
# Convention : Reuss Voigt Hill
#
# Bulk Modulus (GPa) = 60.70168 84.68430 72.69299
# Shear Modulus (GPa) = 30.93937 42.37833 36.65885
#
# Velocity S-wave (km/s) = 3.65990 4.28337 3.98385
# Velocity P-wave (km/s) = 6.64379 7.81832 7.25486
#
# Compressibility (1/GPa) = 0.01647401
#
# Stress axis : x y z
#
# Youngs Moduli (GPa) = 61.95816 85.52504 69.60143
#
# Poissons Ratio (x) = 0.55503 0.26261
# Poissons Ratio (y) = 0.40209 0.18098
# Poissons Ratio (z) = 0.23377 0.22238
#
# Static dielectric constant tensor:
#      x y z
#    x 4.198430 -0.212320 0.198170 
#    y -0.212320 4.247220 -0.143370 
#    z 0.198170 -0.143370 4.285850 
# 
# 
# High freq. dielectric constant tensor:
#      x y z
#    x 1.913440 -0.002850 0.023370 
#    y -0.002850 1.915620 0.001450 
#    z 0.023370 0.001450 1.903000 
# 
# From -- ./inp_files/297101.got.cif
#   From: 2010.06.25/outbox.cif.g09.slc.cpg/sg2_149_cif.got.tgz:297101.got - 2010.06.27 13:26:56.
