data_PCOD8026889
_publ_section_title
;
Structure prediction by ZEFSAII (Michael W. Deem and Ramdas Pophale) SiO2 
 PCOD8026889
Probable space group: P -1
;
_chemical_formula_sum "Si O2"
_cell_formula_units_Z 14
_cell_length_a 17.171115
_cell_length_b 8.888663
_cell_length_c 11.906047
_cell_angle_alpha 124.500298
_cell_angle_beta 26.426574
_cell_angle_gamma 135.166663
_cell_volume 556.390926
_symmetry_space_group_name_H-M "P -1"
_symmetry_group_IT_number 2
_symmetry_cell_setting 'triclinic'
loop_
_space_group_symop_operation_xyz
x,y,z
-x,-y,-z
loop_
_atom_site_type_symbol
_atom_site_label
_atom_site_fract_x
_atom_site_fract_y
_atom_site_fract_z
Si Si1 0.655496 0.922079 0.772457
Si Si2 0.298020 0.576229 0.730128
Si Si3 0.728273 0.816952 0.875636
Si Si4 0.387139 0.482329 0.811403
Si Si5 0.747520 0.457113 0.584666
Si Si6 0.961084 0.302656 0.391541
Si Si7 0.978536 0.252825 0.851496
O O1 0.729875 0.935015 0.808826
O O2 0.551742 0.674020 0.762589
O O3 0.845463 0.075633 0.510087
O O4 0.500000 0.000000 0.000000
O O5 0.334576 0.585508 0.819548
O O6 0.514590 0.650489 0.417251
O O7 0.113444 0.328531 0.824549
O O8 0.229294 0.742852 0.861753
O O9 0.794929 0.645231 0.694521
O O10 0.502971 0.693850 0.176273
O O11 0.905990 0.010243 0.806239
O O12 0.174772 0.325113 0.087199
O O13 0.824892 0.304158 0.464351
O O14 0.866499 0.565298 0.362040
O O15 0.000000 0.500000 0.500000
#
# Coordination Sequence:
#
# PCOD8026889 Si02
#       7
#     2   2   2   2   2   2   2
#     4  12  22  40  71 103 134 178 222 281 355 401
#     4  10  24  43  70  93 135 195 229 275 326 410
#     4  11  24  42  69 105 143 171 222 290 354 406
#     4  11  23  46  65  98 143 176 231 281 335 408
#     4  11  23  40  67 106 136 174 224 287 348 413
#     4  12  23  39  69 103 138 172 221 282 350 404
#     4  11  22  45  68  96 135 186 231 277 344 395
#
# _framework density 25.162165000000002
#
# number of rings (size 3 to 8) (size 9 to 14) (size 15 to 20)
#    0.000    0.857    4.286    3.000    0.000    2.286 
#    0.000    8.571    0.000    0.000    0.000    0.000 
#    0.000    0.000    0.000    0.000    0.000    0.000 
#
# Total GULP energy -173643.733876 kJ/mol
# GULP energy per Si atom -12403.123848 kJ/mol
# Density = 2.510489 g / cm^3
# Si number density = 25.162165 Si / 1000 Ang^3
#
#
#
# Elastic Constant Matrix: (Units=GPa)
#
#
# Indices 1 2 3 4 5 6 
#
# 1 56.4119 21.6490 12.0059 -0.1760 -8.8921 9.8042
# 2 21.6490 84.3993 28.5588 -16.4570 6.5858 -0.3000
# 3 12.0059 28.5588 167.0246 -10.7497 -2.2565 -22.1265
# 4 -0.1760 -16.4570 -10.7497 42.5716 -8.1333 2.2665
# 5 -8.8921 6.5858 -2.2565 -8.1333 36.7576 8.3833
# 6 9.8042 -0.3000 -22.1265 2.2665 8.3833 36.5391
#
#
#
# Elastic Compliance Matrix: (Units=1/GPa)
#
#
# Indices 1 2 3 4 5 6 
#
# 1 0.023514 -0.006259 -0.001787 -0.000609 0.008710 -0.009404
# 2 -0.006259 0.015237 -0.001732 0.004668 -0.003613 0.001295
# 3 -0.001787 -0.001732 0.007095 0.000735 -0.000633 0.004861
# 4 -0.000609 0.004668 0.000735 0.026643 0.005473 -0.002262
# 5 0.008710 -0.003613 -0.000633 0.005473 0.033594 -0.010797
# 6 -0.009404 0.001295 0.004861 -0.002262 -0.010797 0.035463
#
#
# Mechanical properties :
#
#
# Convention : Reuss Voigt Hill
#
# Bulk Modulus (GPa) = 38.03858 48.02926 43.03392
# Shear Modulus (GPa) = 29.43511 39.54845 34.49178
#
# Velocity S-wave (km/s) = 3.42397 3.96882 3.70642
# Velocity P-wave (km/s) = 5.54812 6.33493 5.95454
#
# Compressibility (1/GPa) = 0.02628910
#
# Stress axis : x y z
#
# Youngs Moduli (GPa) = 42.52717 65.63143 140.95381
#
# Poissons Ratio (x) = 0.41076 0.25194
# Poissons Ratio (y) = 0.26616 0.24417
# Poissons Ratio (z) = 0.07601 0.11369
#
# Static dielectric constant tensor:
#      x y z
#    x 4.779970 0.011700 -0.189870 
#    y 0.011700 4.555010 -0.013680 
#    z -0.189870 -0.013680 4.846610 
# 
# 
# High freq. dielectric constant tensor:
#      x y z
#    x 2.020160 -0.002800 -0.018700 
#    y -0.002800 1.970900 0.005650 
#    z -0.018700 0.005650 2.026030 
# 
# From -- ./inp_files/462415.got.cif
#   From: 2010.06.25/outbox.cif.g09.slc.cpg/sg2_232_cif.got.tgz:462415.got - 2010.06.27 13:26:56.
