data_PCOD8026056
_publ_section_title
;
Structure prediction by ZEFSAII (Michael W. Deem and Ramdas Pophale) SiO2 
 PCOD8026056
Probable space group: P -1
;
_chemical_formula_sum "Si O2"
_cell_formula_units_Z 16
_cell_length_a 13.250846
_cell_length_b 10.092148
_cell_length_c 6.484601
_cell_angle_alpha 77.360759
_cell_angle_beta 118.184179
_cell_angle_gamma 103.939915
_cell_volume 736.240194
_symmetry_space_group_name_H-M "P -1"
_symmetry_group_IT_number 2
_symmetry_cell_setting 'triclinic'
loop_
_space_group_symop_operation_xyz
x,y,z
-x,-y,-z
loop_
_atom_site_type_symbol
_atom_site_label
_atom_site_fract_x
_atom_site_fract_y
_atom_site_fract_z
Si Si1 0.167309 0.027409 0.806204
Si Si2 0.910296 0.412360 0.095745
Si Si3 0.030640 0.802580 0.472980
Si Si4 0.614421 0.762446 0.071358
Si Si5 0.476192 0.637350 0.331136
Si Si6 0.386940 0.733320 0.613331
Si Si7 0.827040 0.186168 0.780093
Si Si8 0.707665 0.496882 0.110695
O O1 0.093860 0.151194 0.679732
O O2 0.128144 0.921412 0.620227
O O3 0.301178 0.092992 0.887512
O O4 0.153221 0.954027 0.040507
O O5 0.983371 0.331704 0.350444
O O6 0.836914 0.504543 0.135995
O O7 0.824610 0.304881 0.909195
O O8 0.000000 0.500000 0.000000
O O9 0.067214 0.768319 0.289818
O O10 0.492965 0.789751 0.847056
O O11 0.591328 0.711723 0.300600
O O12 0.671093 0.647561 0.037488
O O13 0.500000 0.500000 0.500000
O O14 0.442093 0.734560 0.441056
O O15 0.374387 0.603732 0.081943
O O16 0.291947 0.835152 0.461884
O O17 0.314205 0.583821 0.663773
#
# Coordination Sequence:
#
# PCOD8026056 Si02
#       8
#     2   2   2   2   2   2   2   2
#     4  10  25  44  63  93 120 169 220 257 307 373
#     4  11  25  39  65 105 124 158 214 258 315 381
#     4  10  23  48  66  84 131 166 208 267 316 365
#     4  11  24  37  63  98 127 161 213 259 303 382
#     4  11  19  37  60  91 129 168 201 245 323 376
#     4  11  21  39  64  92 127 166 203 258 322 369
#     4  11  23  43  69  86 126 175 206 256 321 371
#     4  11  21  38  60  94 134 159 200 257 320 376
#
# _framework density 21.732036999999998
#
# number of rings (size 3 to 8) (size 9 to 14) (size 15 to 20)
#    0.000    1.250    5.000    1.125    1.750    4.000 
#    0.000    1.250    0.000    0.000    0.000    0.000 
#    0.000    0.000    0.000    0.000    0.000    0.000 
#
# Total GULP energy -198358.517172 kJ/mol
# GULP energy per Si atom -12397.407323 kJ/mol
# Density = 2.168257 g / cm^3
# Si number density = 21.732037 Si / 1000 Ang^3
#
#
#
# Elastic Constant Matrix: (Units=GPa)
#
#
# Indices 1 2 3 4 5 6 
#
# 1 110.8198 23.0237 39.4835 -14.3786 -12.9831 11.0089
# 2 23.0237 44.0295 23.6622 -14.7782 -1.9711 19.5547
# 3 39.4835 23.6622 108.7388 -26.5956 -3.1779 8.3729
# 4 -14.3786 -14.7782 -26.5956 31.2488 -0.9486 -0.9476
# 5 -12.9831 -1.9711 -3.1779 -0.9486 47.6936 -3.8510
# 6 11.0089 19.5547 8.3729 -0.9476 -3.8510 36.0848
#
#
#
# Elastic Compliance Matrix: (Units=1/GPa)
#
#
# Indices 1 2 3 4 5 6 
#
# 1 0.011336 -0.003661 -0.002948 0.001043 0.002721 -0.000472
# 2 -0.003661 0.039172 -0.002225 0.014337 -0.000800 -0.019303
# 3 -0.002948 -0.002225 0.012895 0.008548 0.000082 -0.000654
# 4 0.001043 0.014337 0.008548 0.046325 0.001667 -0.008677
# 5 0.002721 -0.000800 0.000082 0.001667 0.021872 0.001962
# 6 -0.000472 -0.019303 -0.000654 -0.008677 0.001962 0.038450
#
#
# Mechanical properties :
#
#
# Convention : Reuss Voigt Hill
#
# Bulk Modulus (GPa) = 21.86610 48.43631 35.15121
# Shear Modulus (GPa) = 24.63514 34.83336 29.73425
#
# Velocity S-wave (km/s) = 3.37053 4.00791 3.70296
# Velocity P-wave (km/s) = 5.02303 6.61469 5.87303
#
# Compressibility (1/GPa) = 0.04573289
#
# Stress axis : x y z
#
# Youngs Moduli (GPa) = 88.21606 25.52863 77.55241
#
# Poissons Ratio (x) = 0.09347 0.22864
# Poissons Ratio (y) = 0.32300 0.17255
# Poissons Ratio (z) = 0.26008 0.05680
#
# Static dielectric constant tensor:
#      x y z
#    x 4.085830 -0.046590 -0.015910 
#    y -0.046590 3.571350 -0.194150 
#    z -0.015910 -0.194150 4.145210 
# 
# 
# High freq. dielectric constant tensor:
#      x y z
#    x 1.860080 -0.000230 -0.004000 
#    y -0.000230 1.821260 -0.010030 
#    z -0.004000 -0.010030 1.869220 
# 
# From -- ./inp_files/69396.got.cif
#   From: 2010.06.25/outbox.cif.g09.slc.cpg/sg2_35_cif.got.tgz:69396.got - 2010.06.27 13:26:56.
