data_PCOD8026903
_publ_section_title
;
Structure prediction by ZEFSAII (Michael W. Deem and Ramdas Pophale) SiO2 
 PCOD8026903
Probable space group: P -1
;
_chemical_formula_sum "Si O2"
_cell_formula_units_Z 12
_cell_length_a 8.764122
_cell_length_b 9.004800
_cell_length_c 13.033487
_cell_angle_alpha 144.236555
_cell_angle_beta 60.462693
_cell_angle_gamma 106.847483
_cell_volume 510.589980
_symmetry_space_group_name_H-M "P -1"
_symmetry_group_IT_number 2
_symmetry_cell_setting 'triclinic'
loop_
_space_group_symop_operation_xyz
x,y,z
-x,-y,-z
loop_
_atom_site_type_symbol
_atom_site_label
_atom_site_fract_x
_atom_site_fract_y
_atom_site_fract_z
Si Si1 0.514382 0.250440 0.481957
Si Si2 0.906408 0.431963 0.736674
Si Si3 0.548254 0.791496 0.747871
Si Si4 0.879511 0.853568 0.143498
Si Si5 0.197427 0.080175 0.566153
Si Si6 0.191429 0.116160 0.128493
O O1 0.513754 0.541802 0.681808
O O2 0.413177 0.265213 0.415134
O O3 0.400988 0.119818 0.526973
O O4 0.718111 0.099636 0.321362
O O5 0.915736 0.614641 0.736980
O O6 0.099236 0.251919 0.600529
O O7 0.783521 0.228492 0.632775
O O8 0.834873 0.607734 0.959361
O O9 0.731626 0.855295 0.767309
O O10 0.368116 0.015498 0.944018
O O11 0.904938 0.809194 0.232494
O O12 0.058127 0.918108 0.068975
#
# Coordination Sequence:
#
# PCOD8026903 Si02
#       6
#     2   2   2   2   2   2
#     4  11  24  44  68 101 137 175 224 280 337 396
#     4  11  25  45  68 102 135 182 222 279 335 399
#     4  10  24  43  71 100 134 175 223 286 333 393
#     4  12  25  45  74 100 133 182 225 279 333 402
#     4  11  27  44  66 103 141 176 223 277 341 398
#     4  11  24  45  70 102 131 176 233 273 335 401
#
# _framework density 23.502223999999998
#
# number of rings (size 3 to 8) (size 9 to 14) (size 15 to 20)
#    0.000    1.000    1.667    3.500    9.333    2.000 
#    3.000    0.000    0.000    0.000    0.000    0.000 
#    0.000    0.000    0.000    0.000    0.000    0.000 
#
# Total GULP energy -148767.998061 kJ/mol
# GULP energy per Si atom -12397.333172 kJ/mol
# Density = 2.344873 g / cm^3
# Si number density = 23.502224 Si / 1000 Ang^3
#
#
#
# Elastic Constant Matrix: (Units=GPa)
#
#
# Indices 1 2 3 4 5 6 
#
# 1 63.0184 27.2535 8.4091 -5.7453 -10.4641 -0.2905
# 2 27.2535 77.9696 12.0064 -1.2082 -8.0193 7.9797
# 3 8.4091 12.0064 80.0212 5.8558 4.9982 5.1289
# 4 -5.7453 -1.2082 5.8558 23.3798 -7.2889 0.0564
# 5 -10.4641 -8.0193 4.9982 -7.2889 28.4261 10.5430
# 6 -0.2905 7.9797 5.1289 0.0564 10.5430 34.0374
#
#
#
# Elastic Compliance Matrix: (Units=1/GPa)
#
#
# Indices 1 2 3 4 5 6 
#
# 1 0.020935 -0.005807 -0.002434 0.008241 0.008934 -0.000874
# 2 -0.005807 0.016219 -0.001919 0.001481 0.005059 -0.005132
# 3 -0.002434 -0.001919 0.013801 -0.005827 -0.005366 0.000021
# 4 0.008241 0.001481 -0.005827 0.052608 0.020082 -0.005707
# 5 0.008934 0.005059 -0.005366 0.020082 0.052097 -0.016471
# 6 -0.000874 -0.005132 0.000021 -0.005707 -0.016471 0.035683
#
#
# Mechanical properties :
#
#
# Convention : Reuss Voigt Hill
#
# Bulk Modulus (GPa) = 32.64127 35.14969 33.89548
# Shear Modulus (GPa) = 22.53532 28.72466 25.62999
#
# Velocity S-wave (km/s) = 3.09990 3.49981 3.30591
# Velocity P-wave (km/s) = 5.17023 5.59642 5.38754
#
# Compressibility (1/GPa) = 0.03063606
#
# Stress axis : x y z
#
# Youngs Moduli (GPa) = 47.76632 61.65523 72.46111
#
# Poissons Ratio (x) = 0.35803 0.17636
# Poissons Ratio (y) = 0.27737 0.13903
# Poissons Ratio (z) = 0.11625 0.11830
#
# Static dielectric constant tensor:
#      x y z
#    x 4.342770 -0.214590 0.220280 
#    y -0.214590 4.060120 0.157020 
#    z 0.220280 0.157020 4.145510 
# 
# 
# High freq. dielectric constant tensor:
#      x y z
#    x 1.945310 -0.014700 0.004860 
#    y -0.014700 1.916790 0.010020 
#    z 0.004860 0.010020 1.930440 
# 
# From -- ./inp_files/145847.got.cif
#   From: 2010.06.25/outbox.cif.g09.slc.cpg/sg2_73_cif.got.tgz:145847.got - 2010.06.27 13:26:56.
