data_PCOD8026885
_publ_section_title
;
Structure prediction by ZEFSAII (Michael W. Deem and Ramdas Pophale) SiO2 
 PCOD8026885
Probable space group: P -1
;
_chemical_formula_sum "Si O2"
_cell_formula_units_Z 14
_cell_length_a 10.612711
_cell_length_b 6.595496
_cell_length_c 14.706209
_cell_angle_alpha 72.060480
_cell_angle_beta 39.128152
_cell_angle_gamma 64.166487
_cell_volume 583.860535
_symmetry_space_group_name_H-M "P -1"
_symmetry_group_IT_number 2
_symmetry_cell_setting 'triclinic'
loop_
_space_group_symop_operation_xyz
x,y,z
-x,-y,-z
loop_
_atom_site_type_symbol
_atom_site_label
_atom_site_fract_x
_atom_site_fract_y
_atom_site_fract_z
Si Si1 0.037492 0.619187 0.685631
Si Si2 0.387729 0.205340 0.467119
Si Si3 0.831694 0.730741 0.969611
Si Si4 0.233641 0.684770 0.855826
Si Si5 0.296670 0.786725 0.996171
Si Si6 0.752790 0.454565 0.771069
Si Si7 0.949799 0.928852 0.438875
O O1 0.247162 0.403576 0.584991
O O2 0.084593 0.852470 0.635760
O O3 0.898639 0.602362 0.854272
O O4 0.885262 0.628081 0.681932
O O5 0.558016 0.293678 0.309969
O O6 0.500000 0.000000 0.500000
O O7 0.252125 0.146396 0.467634
O O8 0.037373 0.781628 0.885549
O O9 0.737041 0.580406 0.107536
O O10 0.660837 0.984028 0.025811
O O11 0.171943 0.824738 0.965318
O O12 0.508905 0.584488 0.878871
O O13 0.183285 0.701921 0.152518
O O14 0.835644 0.281081 0.666844
O O15 0.000000 0.000000 0.500000
#
# Coordination Sequence:
#
# PCOD8026885 Si02
#       7
#     2   2   2   2   2   2   2
#     4  11  24  46  73 102 146 185 236 292 363 422
#     4  11  28  49  73 105 147 188 235 301 359 425
#     4  11  24  45  73 104 141 190 232 301 354 422
#     4  11  26  43  71 107 140 181 247 291 356 422
#     4  11  23  43  69 103 145 182 237 292 355 422
#     4  10  24  43  70 104 142 186 230 297 352 417
#     4  11  26  46  76 103 146 191 239 291 358 431
#
# _framework density 23.978328999999999
#
# number of rings (size 3 to 8) (size 9 to 14) (size 15 to 20)
#    0.000    1.143    2.857    1.286    6.000    8.571 
#    0.000    0.000    0.000    0.000    0.000    0.000 
#    0.000    0.000    0.000    0.000    0.000    0.000 
#
# Total GULP energy -173484.466731 kJ/mol
# GULP energy per Si atom -12391.747624 kJ/mol
# Density = 2.392375 g / cm^3
# Si number density = 23.978329 Si / 1000 Ang^3
#
#
#
# Elastic Constant Matrix: (Units=GPa)
#
#
# Indices 1 2 3 4 5 6 
#
# 1 100.7666 27.7875 36.1940 10.8041 6.6324 17.3361
# 2 27.7875 127.6378 44.3226 12.3735 -3.3294 20.0976
# 3 36.1940 44.3226 102.9571 7.1003 0.9606 16.1746
# 4 10.8041 12.3735 7.1003 44.2276 11.1909 2.4934
# 5 6.6324 -3.3294 0.9606 11.1909 34.6908 0.8271
# 6 17.3361 20.0976 16.1746 2.4934 0.8271 30.4290
#
#
#
# Elastic Compliance Matrix: (Units=1/GPa)
#
#
# Indices 1 2 3 4 5 6 
#
# 1 0.012356 -0.000743 -0.003160 -0.001604 -0.001717 -0.004691
# 2 -0.000743 0.010103 -0.003254 -0.002402 0.002081 -0.004380
# 3 -0.003160 -0.003254 0.012674 -0.000215 0.000077 -0.002772
# 4 -0.001604 -0.002402 -0.000215 0.025754 -0.008243 0.000729
# 5 -0.001717 0.002081 0.000077 -0.008243 0.032026 -0.000632
# 6 -0.004691 -0.004380 -0.002772 0.000729 -0.000632 0.039859
#
#
# Mechanical properties :
#
#
# Convention : Reuss Voigt Hill
#
# Bulk Modulus (GPa) = 48.03352 60.88552 54.45952
# Shear Modulus (GPa) = 32.46202 36.73995 34.60099
#
# Velocity S-wave (km/s) = 3.68340 3.91860 3.80282
# Velocity P-wave (km/s) = 6.17782 6.77650 6.48407
#
# Compressibility (1/GPa) = 0.02081879
#
# Stress axis : x y z
#
# Youngs Moduli (GPa) = 80.93250 98.97912 78.90127
#
# Poissons Ratio (x) = 0.07357 0.24934
# Poissons Ratio (y) = 0.06016 0.25673
# Poissons Ratio (z) = 0.25576 0.32206
#
# Static dielectric constant tensor:
#      x y z
#    x 4.246540 0.053860 0.110400 
#    y 0.053860 4.726750 -0.033130 
#    z 0.110400 -0.033130 4.214600 
# 
# 
# High freq. dielectric constant tensor:
#      x y z
#    x 1.950480 0.011360 0.009210 
#    y 0.011360 1.974340 -0.000830 
#    z 0.009210 -0.000830 1.944810 
# 
# From -- ./inp_files/124169.got.cif
#   From: 2010.06.25/outbox.cif.g09.slc.cpg/sg2_63_cif.got.tgz:124169.got - 2010.06.27 13:26:56.
