data_PCOD8026404
_publ_section_title
;
Structure prediction by ZEFSAII (Michael W. Deem and Ramdas Pophale) SiO2 
 PCOD8026404
Probable space group: P -1
;
_chemical_formula_sum "Si O2"
_cell_formula_units_Z 16
_cell_length_a 14.475759
_cell_length_b 12.134204
_cell_length_c 17.831484
_cell_angle_alpha 43.151022
_cell_angle_beta 22.321130
_cell_angle_gamma 45.880287
_cell_volume 810.846233
_symmetry_space_group_name_H-M "P -1"
_symmetry_group_IT_number 2
_symmetry_cell_setting 'triclinic'
loop_
_space_group_symop_operation_xyz
x,y,z
-x,-y,-z
loop_
_atom_site_type_symbol
_atom_site_label
_atom_site_fract_x
_atom_site_fract_y
_atom_site_fract_z
Si Si1 0.541837 0.889447 0.595736
Si Si2 0.915228 0.181513 0.819677
Si Si3 0.494692 0.770629 0.181795
Si Si4 0.424430 0.875628 0.028327
Si Si5 0.858312 0.662491 0.853989
Si Si6 0.130206 0.679131 0.060233
Si Si7 0.706274 0.898594 0.199537
Si Si8 0.608075 0.331916 0.535880
O O1 0.356905 0.748477 0.811549
O O2 0.818762 0.809517 0.421947
O O3 0.500000 0.000000 0.500000
O O4 0.496677 0.000401 0.648133
O O5 0.721135 0.210088 0.884261
O O6 0.850423 0.317022 0.865294
O O7 0.888706 0.009171 0.964791
O O8 0.373595 0.668030 0.387173
O O9 0.598461 0.931386 0.059944
O O10 0.320310 0.828711 0.212816
O O11 0.707903 0.642962 0.053318
O O12 0.711476 0.805069 0.844318
O O13 0.112318 0.710278 0.674409
O O14 0.888861 0.502238 0.861343
O O15 0.875275 0.779957 0.183531
O O16 0.558773 0.805216 0.296300
O O17 0.500000 0.500000 0.500000
#
# Coordination Sequence:
#
# PCOD8026404 Si02
#       8
#     2   2   2   2   2   2   2   2
#     4  11  21  36  64  87 120 173 202 252 319 352
#     4  11  21  41  65  89 122 166 212 255 300 370
#     4   9  22  44  61  89 129 160 212 258 294 371
#     4   9  21  45  64  86 126 169 208 259 296 361
#     4  10  24  42  61  91 130 165 198 260 316 356
#     4  11  22  40  58  94 132 153 209 262 303 372
#     4  11  22  37  60  97 126 153 212 259 303 377
#     4  12  24  39  66  99 122 164 200 255 329 372
#
# _framework density 19.732471
#
# number of rings (size 3 to 8) (size 9 to 14) (size 15 to 20)
#    0.750    0.750    5.000    0.750    1.750    3.500 
#    4.500    0.625    0.000    0.000    0.000    0.000 
#    0.000    0.000    0.000    0.000    0.000    0.000 
#
# Total GULP energy -198228.535836 kJ/mol
# GULP energy per Si atom -12389.283490 kJ/mol
# Density = 1.968756 g / cm^3
# Si number density = 19.732471 Si / 1000 Ang^3
#
#
#
# Elastic Constant Matrix: (Units=GPa)
#
#
# Indices 1 2 3 4 5 6 
#
# 1 97.2125 18.2206 25.2990 -5.6079 -0.5257 -3.9828
# 2 18.2206 80.0565 23.0691 2.7263 -0.2964 12.5946
# 3 25.2990 23.0691 83.6496 12.8934 -0.1491 4.6312
# 4 -5.6079 2.7263 12.8934 19.2954 -4.5337 -5.2824
# 5 -0.5257 -0.2964 -0.1491 -4.5337 37.6807 -1.9402
# 6 -3.9828 12.5946 4.6312 -5.2824 -1.9402 28.7102
#
#
#
# Elastic Compliance Matrix: (Units=1/GPa)
#
#
# Indices 1 2 3 4 5 6 
#
# 1 0.012828 -0.002701 -0.004864 0.009241 0.001536 0.005553
# 2 -0.002701 0.015058 -0.002399 -0.003472 -0.000721 -0.007281
# 3 -0.004864 -0.002399 0.016506 -0.013926 -0.001953 -0.004979
# 4 0.009241 -0.003472 -0.013926 0.071752 0.009653 0.018906
# 5 0.001536 -0.000721 -0.001953 0.009653 0.027940 0.004509
# 6 0.005553 -0.007281 -0.004979 0.018906 0.004509 0.043382
#
#
# Mechanical properties :
#
#
# Convention : Reuss Voigt Hill
#
# Bulk Modulus (GPa) = 40.87491 43.78845 42.33168
# Shear Modulus (GPa) = 23.19680 30.09258 26.64469
#
# Velocity S-wave (km/s) = 3.43237 3.90940 3.67862
# Velocity P-wave (km/s) = 6.03885 6.52818 6.28828
#
# Compressibility (1/GPa) = 0.02446489
#
# Stress axis : x y z
#
# Youngs Moduli (GPa) = 77.95696 66.40927 60.58411
#
# Poissons Ratio (x) = 0.17934 0.29467
# Poissons Ratio (y) = 0.21053 0.14534
# Poissons Ratio (z) = 0.37917 0.15932
#
# Static dielectric constant tensor:
#      x y z
#    x 3.689650 0.138440 0.050580 
#    y 0.138440 3.432550 0.100100 
#    z 0.050580 0.100100 3.589330 
# 
# 
# High freq. dielectric constant tensor:
#      x y z
#    x 1.775760 0.011240 0.002280 
#    y 0.011240 1.755790 0.007630 
#    z 0.002280 0.007630 1.759600 
# 
# From -- ./inp_files/476945.got.cif
#   From: 2010.06.25/outbox.cif.g09.slc.cpg/sg2_239_cif.got.tgz:476945.got - 2010.06.27 13:26:56.
