data_PCOD8026282
_publ_section_title
;
Structure prediction by ZEFSAII (Michael W. Deem and Ramdas Pophale) SiO2 
 PCOD8026282
Probable space group: P -1
;
_chemical_formula_sum "Si O2"
_cell_formula_units_Z 16
_cell_length_a 11.925304
_cell_length_b 9.614333
_cell_length_c 12.387024
_cell_angle_alpha 132.294998
_cell_angle_beta 71.698038
_cell_angle_gamma 131.061612
_cell_volume 770.950215
_symmetry_space_group_name_H-M "P -1"
_symmetry_group_IT_number 2
_symmetry_cell_setting 'triclinic'
loop_
_space_group_symop_operation_xyz
x,y,z
-x,-y,-z
loop_
_atom_site_type_symbol
_atom_site_label
_atom_site_fract_x
_atom_site_fract_y
_atom_site_fract_z
Si Si1 0.189609 0.854132 0.120916
Si Si2 0.362647 0.138491 0.423236
Si Si3 0.405970 0.038030 0.970240
Si Si4 0.684297 0.297204 0.380387
Si Si5 0.645317 0.024832 0.445104
Si Si6 0.865543 0.624899 0.117424
Si Si7 0.589528 0.569596 0.119246
Si Si8 0.840008 0.725509 0.411165
O O1 0.045966 0.851944 0.171012
O O2 0.315666 0.041059 0.266144
O O3 0.153073 0.605297 0.038969
O O4 0.246569 0.925009 0.017864
O O5 0.545745 0.296676 0.457204
O O6 0.277833 0.929875 0.435931
O O7 0.309792 0.296846 0.545176
O O8 0.378345 0.918257 0.799369
O O9 0.500454 0.324928 0.086870
O O10 0.500000 0.000000 0.000000
O O11 0.827002 0.562358 0.428833
O O12 0.743926 0.238170 0.436425
O O13 0.593724 0.770014 0.284068
O O14 0.500000 0.000000 0.500000
O O15 0.763729 0.667952 0.100837
O O16 0.817053 0.584934 0.236114
O O17 0.500000 0.500000 0.000000
O O18 0.000000 0.000000 0.500000
#
# Coordination Sequence:
#
# PCOD8026282 Si02
#       8
#     2   2   2   2   2   2   2   2
#     4  11  23  39  66  98 132 173 220 274 332 387
#     4  11  22  39  67  96 128 167 222 275 328 387
#     4  12  21  38  69 102 126 170 232 276 323 383
#     4  11  22  41  63  95 133 168 221 277 326 389
#     4  10  24  41  62  95 137 171 213 275 332 391
#     4  11  23  41  63  95 135 172 218 269 333 389
#     4  12  23  41  70  97 132 174 222 271 327 398
#     4  12  23  40  65  96 129 169 218 275 337 384
#
# _framework density 20.753610999999999
#
# number of rings (size 3 to 8) (size 9 to 14) (size 15 to 20)
#    0.000    0.750    7.500    0.375    1.750    2.000 
#    0.000    1.250    0.000    0.000    0.000    0.000 
#    0.000    0.000    0.000    0.000    0.000    0.000 
#
# Total GULP energy -198256.730176 kJ/mol
# GULP energy per Si atom -12391.045636 kJ/mol
# Density = 2.070637 g / cm^3
# Si number density = 20.753611 Si / 1000 Ang^3
#
#
#
# Elastic Constant Matrix: (Units=GPa)
#
#
# Indices 1 2 3 4 5 6 
#
# 1 93.3813 37.0653 34.1887 -5.3256 -9.4453 -8.9493
# 2 37.0653 126.2076 25.6663 -0.8397 -1.2526 -15.7796
# 3 34.1887 25.6663 62.8185 -9.6325 -19.8507 4.9835
# 4 -5.3256 -0.8397 -9.6325 36.7106 -3.9390 -0.1063
# 5 -9.4453 -1.2526 -19.8507 -3.9390 35.1952 -3.3831
# 6 -8.9493 -15.7796 4.9835 -0.1063 -3.3831 29.3179
#
#
#
# Elastic Compliance Matrix: (Units=1/GPa)
#
#
# Indices 1 2 3 4 5 6 
#
# 1 0.014783 -0.002261 -0.007402 0.000182 0.000172 0.004574
# 2 -0.002261 0.010065 -0.004242 -0.001443 -0.002305 0.005177
# 3 -0.007402 -0.004242 0.027751 0.007550 0.013623 -0.007660
# 4 0.000182 -0.001443 0.007550 0.030018 0.007517 -0.001028
# 5 0.000172 -0.002305 0.013623 0.007517 0.036978 0.000790
# 6 0.004574 0.005177 -0.007660 -0.001028 0.000790 0.039681
#
#
# Mechanical properties :
#
#
# Convention : Reuss Voigt Hill
#
# Bulk Modulus (GPa) = 40.34233 52.91644 46.62939
# Shear Modulus (GPa) = 25.59519 32.61055 29.10287
#
# Velocity S-wave (km/s) = 3.51563 3.96829 3.74880
# Velocity P-wave (km/s) = 5.99670 6.82270 6.42299
#
# Compressibility (1/GPa) = 0.02478786
#
# Stress axis : x y z
#
# Youngs Moduli (GPa) = 67.64753 99.35403 36.03465
#
# Poissons Ratio (x) = 0.22467 0.26673
# Poissons Ratio (y) = 0.15297 0.15286
# Poissons Ratio (z) = 0.50073 0.42147
#
# Static dielectric constant tensor:
#      x y z
#    x 3.984030 -0.120460 -0.151000 
#    y -0.120460 3.810480 -0.264460 
#    z -0.151000 -0.264460 3.999910 
# 
# 
# High freq. dielectric constant tensor:
#      x y z
#    x 1.802480 -0.007580 -0.018480 
#    y -0.007580 1.802920 -0.014850 
#    z -0.018480 -0.014850 1.820680 
# 
# From -- ./inp_files/190816.got.cif
#   From: 2010.06.25/outbox.cif.g09.slc.cpg/sg2_96_cif.got.tgz:190816.got - 2010.06.27 13:26:56.
