data_PCOD8026081
_publ_section_title
;
Structure prediction by ZEFSAII (Michael W. Deem and Ramdas Pophale) SiO2 
 PCOD8026081
Probable space group: P -1
;
_chemical_formula_sum "Si O2"
_cell_formula_units_Z 14
_cell_length_a 20.605100
_cell_length_b 8.929889
_cell_length_c 6.428370
_cell_angle_alpha 57.561261
_cell_angle_beta 109.735579
_cell_angle_gamma 141.158224
_cell_volume 618.872316
_symmetry_space_group_name_H-M "P -1"
_symmetry_group_IT_number 2
_symmetry_cell_setting 'triclinic'
loop_
_space_group_symop_operation_xyz
x,y,z
-x,-y,-z
loop_
_atom_site_type_symbol
_atom_site_label
_atom_site_fract_x
_atom_site_fract_y
_atom_site_fract_z
Si Si1 0.102697 0.350264 0.432239
Si Si2 0.261528 0.969854 0.205823
Si Si3 0.208463 0.253292 0.864713
Si Si4 0.601474 0.341258 0.497715
Si Si5 0.402566 0.403135 0.359121
Si Si6 0.078117 0.109558 0.188729
Si Si7 0.545973 0.854827 0.851289
O O1 0.177748 0.649833 0.372382
O O2 0.130428 0.208675 0.662245
O O3 0.107310 0.337131 0.195680
O O4 0.983652 0.153302 0.534219
O O5 0.310001 0.100918 0.391156
O O6 0.358006 0.098261 0.065575
O O7 0.204889 0.031946 0.998577
O O8 0.322911 0.542558 0.705323
O O9 0.183796 0.242480 0.091757
O O10 0.650234 0.570049 0.547752
O O11 0.492188 0.204355 0.387253
O O12 0.584886 0.124068 0.762758
O O13 0.500000 0.500000 0.500000
O O14 0.448399 0.604162 0.067950
O O15 0.000000 0.000000 0.000000
#
# Coordination Sequence:
#
# PCOD8026081 Si02
#       7
#     2   2   2   2   2   2   2
#     4  10  23  48  71  98 132 171 216 278 345 398
#     4  12  24  42  66 101 136 174 227 275 324 401
#     4  11  23  42  68 101 131 170 226 274 331 402
#     4  11  23  42  66  92 138 185 228 276 325 392
#     4  12  24  41  63  93 140 187 225 275 325 382
#     4   9  22  49  75  95 132 169 213 280 344 411
#     4  11  23  44  61  93 140 184 231 271 329 388
#
# _framework density 22.621791000000002
#
# number of rings (size 3 to 8) (size 9 to 14) (size 15 to 20)
#    0.000    1.143    4.286    1.714    2.000    0.571 
#   18.000    6.429    0.000    0.000    0.000    0.000 
#    0.000    0.000    0.000    0.000    0.000    0.000 
#
# Total GULP energy -173439.714640 kJ/mol
# GULP energy per Si atom -12388.551046 kJ/mol
# Density = 2.257030 g / cm^3
# Si number density = 22.621791 Si / 1000 Ang^3
#
#
#
# Elastic Constant Matrix: (Units=GPa)
#
#
# Indices 1 2 3 4 5 6 
#
# 1 80.4764 42.5379 47.6701 -8.0698 -14.9354 -20.1308
# 2 42.5379 163.8230 45.6357 -4.5424 -13.6531 -29.2480
# 3 47.6701 45.6357 86.9274 -0.6012 -2.8488 -15.8166
# 4 -8.0698 -4.5424 -0.6012 33.8451 4.8521 -6.0777
# 5 -14.9354 -13.6531 -2.8488 4.8521 49.3374 -0.4735
# 6 -20.1308 -29.2480 -15.8166 -6.0777 -0.4735 26.4900
#
#
#
# Elastic Compliance Matrix: (Units=1/GPa)
#
#
# Indices 1 2 3 4 5 6 
#
# 1 0.023781 -0.000237 -0.010231 0.007008 0.005982 0.013417
# 2 -0.000237 0.008656 -0.002834 0.002245 0.002018 0.008236
# 3 -0.010231 -0.002834 0.018418 -0.002201 -0.002606 -0.000459
# 4 0.007008 0.002245 -0.002201 0.034136 -0.000604 0.014311
# 5 0.005982 0.002018 -0.002606 -0.000604 0.022600 0.005484
# 6 0.013417 0.008236 -0.000459 0.014311 0.005484 0.060147
#
#
# Mechanical properties :
#
#
# Convention : Reuss Voigt Hill
#
# Bulk Modulus (GPa) = 41.23544 66.99048 54.11296
# Shear Modulus (GPa) = 24.70047 34.96004 29.83026
#
# Velocity S-wave (km/s) = 3.30796 3.93544 3.63526
# Velocity P-wave (km/s) = 5.73218 7.09421 6.44925
#
# Compressibility (1/GPa) = 0.02425099
#
# Stress axis : x y z
#
# Youngs Moduli (GPa) = 42.05125 115.52652 54.29371
#
# Poissons Ratio (x) = 0.02733 0.55549
# Poissons Ratio (y) = 0.00995 0.15388
# Poissons Ratio (z) = 0.43023 0.32744
#
# Static dielectric constant tensor:
#      x y z
#    x 4.646750 0.085700 -0.289060 
#    y 0.085700 3.977230 0.035050 
#    z -0.289060 0.035050 4.202080 
# 
# 
# High freq. dielectric constant tensor:
#      x y z
#    x 1.894100 0.004920 -0.009970 
#    y 0.004920 1.883250 0.004670 
#    z -0.009970 0.004670 1.882910 
# 
# From -- ./inp_files/89469.got.cif
#   From: 2010.06.25/outbox.cif.g09.slc.cpg/sg2_45_cif.got.tgz:89469.got - 2010.06.27 13:26:56.
