data_PCOD8026095
_publ_section_title
;
Structure prediction by ZEFSAII (Michael W. Deem and Ramdas Pophale) SiO2 
 PCOD8026095
Probable space group: P -1
;
_chemical_formula_sum "Si O2"
_cell_formula_units_Z 14
_cell_length_a 22.818439
_cell_length_b 7.658214
_cell_length_c 7.180472
_cell_angle_alpha 130.073605
_cell_angle_beta 45.318328
_cell_angle_gamma 135.149045
_cell_volume 602.241577
_symmetry_space_group_name_H-M "P -1"
_symmetry_group_IT_number 2
_symmetry_cell_setting 'triclinic'
loop_
_space_group_symop_operation_xyz
x,y,z
-x,-y,-z
loop_
_atom_site_type_symbol
_atom_site_label
_atom_site_fract_x
_atom_site_fract_y
_atom_site_fract_z
Si Si1 0.815933 0.847720 0.187044
Si Si2 0.820679 0.505257 0.234382
Si Si3 0.489570 0.976661 0.281250
Si Si4 0.978151 0.373377 0.264216
Si Si5 0.095121 0.260872 0.441031
Si Si6 0.691218 0.966067 0.301866
Si Si7 0.439565 0.583979 0.825304
O O1 0.771037 0.603689 0.260563
O O2 0.905713 0.072436 0.241276
O O3 0.741981 0.949395 0.367641
O O4 0.850890 0.752266 0.867713
O O5 0.827331 0.660890 0.516143
O O6 0.763727 0.193259 0.162395
O O7 0.927224 0.591343 0.009862
O O8 0.393050 0.969679 0.426115
O O9 0.500000 0.000000 0.500000
O O10 0.574316 0.215850 0.146040
O O11 0.483912 0.717210 0.019402
O O12 0.931069 0.506796 0.337186
O O13 0.000000 0.500000 0.500000
O O14 0.000000 0.000000 0.500000
O O15 0.653480 0.680874 0.096736
O O16 0.500000 0.500000 0.500000
#
# Coordination Sequence:
#
# PCOD8026095 Si02
#       7
#     2   2   2   2   2   2   2
#     4  12  26  45  65 100 144 184 237 295 349 406
#     4  12  25  45  66 102 139 189 238 292 355 405
#     4  10  23  48  78 107 139 186 231 277 362 445
#     4  12  23  45  66  94 138 195 242 289 346 405
#     4  12  23  42  69  92 137 187 243 293 340 420
#     4  11  26  43  70 111 140 178 231 296 353 420
#     4   9  22  47  73 106 144 175 226 287 348 433
#
# _framework density 23.246486999999998
#
# number of rings (size 3 to 8) (size 9 to 14) (size 15 to 20)
#    0.000    0.857    4.286    2.571    4.000    2.286 
#    0.000    7.143    0.000    0.000    0.000    0.000 
#    0.000    0.000    0.000    0.000    0.000    0.000 
#
# Total GULP energy -173435.506088 kJ/mol
# GULP energy per Si atom -12388.250435 kJ/mol
# Density = 2.319358 g / cm^3
# Si number density = 23.246487 Si / 1000 Ang^3
#
#
#
# Elastic Constant Matrix: (Units=GPa)
#
#
# Indices 1 2 3 4 5 6 
#
# 1 146.2112 65.4369 57.1453 2.0716 13.7217 -18.4548
# 2 65.4369 183.0487 25.4112 28.9132 20.0144 -7.1951
# 3 57.1453 25.4112 84.2414 24.7522 17.1241 6.5371
# 4 2.0716 28.9132 24.7522 23.2640 11.4885 2.1188
# 5 13.7217 20.0144 17.1241 11.4885 54.0782 2.7029
# 6 -18.4548 -7.1951 6.5371 2.1188 2.7029 37.1813
#
#
#
# Elastic Compliance Matrix: (Units=1/GPa)
#
#
# Indices 1 2 3 4 5 6 
#
# 1 0.019110 -0.008120 -0.019404 0.029337 -0.002423 0.009830
# 2 -0.008120 0.010429 0.008835 -0.021464 0.000080 -0.002349
# 3 -0.019404 0.008835 0.037311 -0.048209 0.000669 -0.011783
# 4 0.029337 -0.021464 -0.048209 0.122572 -0.010908 0.012692
# 5 -0.002423 0.000080 0.000669 -0.010908 0.021294 -0.002231
# 6 0.009830 -0.002349 -0.011783 0.012692 -0.002231 0.032830
#
#
# Mechanical properties :
#
#
# Convention : Reuss Voigt Hill
#
# Bulk Modulus (GPa) = 33.93064 78.83201 56.38132
# Shear Modulus (GPa) = 17.19698 40.60526 28.90112
#
# Velocity S-wave (km/s) = 2.72282 4.18392 3.52980
# Velocity P-wave (km/s) = 4.95103 7.57134 6.39679
#
# Compressibility (1/GPa) = 0.02947189
#
# Stress axis : x y z
#
# Youngs Moduli (GPa) = 52.32847 95.88944 26.80144
#
# Poissons Ratio (x) = 0.77866 0.52006
# Poissons Ratio (y) = 0.42493 -0.23680
# Poissons Ratio (z) = 1.01539 -0.84722
#
# Static dielectric constant tensor:
#      x y z
#    x 4.419450 -0.220090 -0.232320 
#    y -0.220090 4.572020 0.277720 
#    z -0.232320 0.277720 3.750130 
# 
# 
# High freq. dielectric constant tensor:
#      x y z
#    x 1.909750 -0.006180 0.007940 
#    y -0.006180 1.935820 0.016130 
#    z 0.007940 0.016130 1.912740 
# 
# From -- ./inp_files/352473.got.cif
#   From: 2010.06.25/outbox.cif.g09.slc.cpg/sg2_177_cif.got.tgz:352473.got - 2010.06.27 13:26:56.
