data_PCOD8026677
_publ_section_title
;
Structure prediction by ZEFSAII (Michael W. Deem and Ramdas Pophale) SiO2 
 PCOD8026677
Probable space group: P -1
;
_chemical_formula_sum "Si O2"
_cell_formula_units_Z 16
_cell_length_a 9.477103
_cell_length_b 17.717406
_cell_length_c 11.195363
_cell_angle_alpha 138.727293
_cell_angle_beta 96.537752
_cell_angle_gamma 53.307593
_cell_volume 769.116810
_symmetry_space_group_name_H-M "P -1"
_symmetry_group_IT_number 2
_symmetry_cell_setting 'triclinic'
loop_
_space_group_symop_operation_xyz
x,y,z
-x,-y,-z
loop_
_atom_site_type_symbol
_atom_site_label
_atom_site_fract_x
_atom_site_fract_y
_atom_site_fract_z
Si Si1 0.604840 0.483914 0.112770
Si Si2 0.560729 0.962179 0.186451
Si Si3 0.089762 0.336084 0.681495
Si Si4 0.952466 0.668664 0.055642
Si Si5 0.684296 0.474496 0.689101
Si Si6 0.994561 0.075856 0.206363
Si Si7 0.487693 0.779382 0.855440
Si Si8 0.623222 0.175038 0.373368
O O1 0.535075 0.441922 0.164380
O O2 0.522584 0.664965 0.351784
O O3 0.500000 0.500000 0.000000
O O4 0.877894 0.328450 0.939695
O O5 0.717714 0.837058 0.165480
O O6 0.294675 0.141088 0.404978
O O7 0.647107 0.026026 0.216531
O O8 0.600750 0.834635 0.942308
O O9 0.134110 0.299148 0.781492
O O10 0.844199 0.433606 0.753330
O O11 0.080828 0.471646 0.791881
O O12 0.835366 0.284162 0.412858
O O13 0.624805 0.597914 0.724518
O O14 0.875139 0.071983 0.290610
O O15 0.000000 0.000000 0.000000
O O16 0.253107 0.944245 0.103772
O O17 0.471710 0.747814 0.679578
#
# Coordination Sequence:
#
# PCOD8026677 Si02
#       8
#     2   2   2   2   2   2   2   2
#     4  11  23  44  67  94 133 170 213 273 320 375
#     4  12  23  42  67  98 129 170 216 264 328 385
#     4  11  22  43  65  93 134 167 217 267 313 391
#     4  11  24  42  66  95 130 174 212 265 329 376
#     4  11  22  41  69  95 127 171 218 258 325 385
#     4   9  21  40  61  88 128 171 211 261 308 374
#     4  11  23  42  67  96 130 174 215 262 326 386
#     4  10  24  43  62  97 136 166 216 271 314 384
#
# _framework density 20.803080999999999
#
# number of rings (size 3 to 8) (size 9 to 14) (size 15 to 20)
#    0.000    1.250    5.000    0.750    1.750    4.500 
#    4.500    1.875    0.000    0.000    0.000    0.000 
#    0.000    0.000    0.000    0.000    0.000    0.000 
#
# Total GULP energy -198259.621291 kJ/mol
# GULP energy per Si atom -12391.226331 kJ/mol
# Density = 2.075573 g / cm^3
# Si number density = 20.803081 Si / 1000 Ang^3
#
#
#
# Elastic Constant Matrix: (Units=GPa)
#
#
# Indices 1 2 3 4 5 6 
#
# 1 108.4235 27.3017 37.0523 12.5693 20.9899 2.8747
# 2 27.3017 92.0799 30.5270 8.5633 11.9097 0.7181
# 3 37.0523 30.5270 85.2275 1.0117 12.0012 0.4387
# 4 12.5693 8.5633 1.0117 27.2818 -7.4612 2.2235
# 5 20.9899 11.9097 12.0012 -7.4612 34.4224 -0.7210
# 6 2.8747 0.7181 0.4387 2.2235 -0.7210 22.2065
#
#
#
# Elastic Compliance Matrix: (Units=1/GPa)
#
#
# Indices 1 2 3 4 5 6 
#
# 1 0.013413 -0.000745 -0.004316 -0.007927 -0.008158 -0.001098
# 2 -0.000745 0.013290 -0.003841 -0.004741 -0.003830 0.000093
# 3 -0.004316 -0.003841 0.015064 0.002417 -0.000765 0.000119
# 4 -0.007927 -0.004741 0.002417 0.046211 0.015585 -0.002989
# 5 -0.008158 -0.003830 -0.000765 0.015585 0.039014 0.000901
# 6 -0.001098 0.000093 0.000119 -0.002989 0.000901 0.045497
#
#
# Mechanical properties :
#
#
# Convention : Reuss Voigt Hill
#
# Bulk Modulus (GPa) = 41.73196 52.83257 47.28226
# Shear Modulus (GPa) = 25.21671 29.50547 27.36109
#
# Velocity S-wave (km/s) = 3.48539 3.77015 3.63056
# Velocity P-wave (km/s) = 6.02505 6.66361 6.35236
#
# Compressibility (1/GPa) = 0.02396245
#
# Stress axis : x y z
#
# Youngs Moduli (GPa) = 74.55472 75.24389 66.38408
#
# Poissons Ratio (x) = 0.05608 0.28650
# Poissons Ratio (y) = 0.05556 0.25499
# Poissons Ratio (z) = 0.32177 0.28902
#
# Static dielectric constant tensor:
#      x y z
#    x 4.348240 -0.267840 -0.296060 
#    y -0.267840 3.517940 0.166920 
#    z -0.296060 0.166920 4.183270 
# 
# 
# High freq. dielectric constant tensor:
#      x y z
#    x 1.839490 -0.009990 0.007340 
#    y -0.009990 1.792780 -0.003020 
#    z 0.007340 -0.003020 1.812380 
# 
# From -- ./inp_files/70891.got.cif
#   From: 2010.06.25/outbox.cif.g09.slc.cpg/sg2_36_cif.got.tgz:70891.got - 2010.06.27 13:26:56.
