data_PCOD8026613
_publ_section_title
;
Structure prediction by ZEFSAII (Michael W. Deem and Ramdas Pophale) SiO2 
 PCOD8026613
Probable space group: P -1
;
_chemical_formula_sum "Si O2"
_cell_formula_units_Z 14
_cell_length_a 16.040478
_cell_length_b 6.158854
_cell_length_c 13.367926
_cell_angle_alpha 63.644447
_cell_angle_beta 34.862709
_cell_angle_gamma 53.533078
_cell_volume 604.325977
_symmetry_space_group_name_H-M "P -1"
_symmetry_group_IT_number 2
_symmetry_cell_setting 'triclinic'
loop_
_space_group_symop_operation_xyz
x,y,z
-x,-y,-z
loop_
_atom_site_type_symbol
_atom_site_label
_atom_site_fract_x
_atom_site_fract_y
_atom_site_fract_z
Si Si1 0.814085 0.044864 0.534403
Si Si2 0.879297 0.196126 0.833749
Si Si3 0.675423 0.913973 0.083272
Si Si4 0.397271 0.358744 0.371305
Si Si5 0.378669 0.582738 0.694107
Si Si6 0.810300 0.928175 0.343195
Si Si7 0.687333 0.803146 0.871646
O O1 0.719250 0.341898 0.616811
O O2 0.731798 0.062275 0.501887
O O3 0.796444 0.834724 0.670056
O O4 0.008066 0.940044 0.347732
O O5 0.728631 0.485812 0.896349
O O6 0.993052 0.235188 0.800389
O O7 0.806186 0.998778 0.988534
O O8 0.685476 0.638443 0.175015
O O9 0.492008 0.156735 0.228509
O O10 0.728136 0.883234 0.922552
O O11 0.536803 0.355541 0.307433
O O12 0.275005 0.260419 0.566652
O O13 0.500000 0.500000 0.500000
O O14 0.222355 0.854180 0.756649
O O15 0.500000 0.000000 0.000000
#
# Coordination Sequence:
#
# PCOD8026613 Si02
#       7
#     2   2   2   2   2   2   2
#     4  10  24  44  71 103 138 186 228 284 345 409
#     4  10  26  47  68 107 141 181 230 288 357 402
#     4  12  27  43  70 106 143 180 235 288 342 417
#     4  12  22  44  73 106 136 187 236 279 344 412
#     4  12  22  44  72 104 137 185 239 282 341 411
#     4  10  24  42  71 103 137 179 234 284 341 408
#     4  12  25  47  72 101 143 181 236 286 342 422
#
# _framework density 23.166305999999999
#
# number of rings (size 3 to 8) (size 9 to 14) (size 15 to 20)
#    0.857    0.000    2.857    4.286    2.000    4.571 
#    0.000    2.857    0.000    0.000    0.000    0.000 
#    0.000    0.000    0.000    0.000    0.000    0.000 
#
# Total GULP energy -173501.576964 kJ/mol
# GULP energy per Si atom -12392.969783 kJ/mol
# Density = 2.311358 g / cm^3
# Si number density = 23.166306 Si / 1000 Ang^3
#
#
#
# Elastic Constant Matrix: (Units=GPa)
#
#
# Indices 1 2 3 4 5 6 
#
# 1 64.5413 53.8170 44.3218 -16.6413 -8.6850 -5.5806
# 2 53.8170 159.2731 58.2649 -26.5989 -19.3642 -9.9082
# 3 44.3218 58.2649 117.1108 -20.9733 -18.1108 -1.2117
# 4 -16.6413 -26.5989 -20.9733 47.6746 9.5748 -7.7588
# 5 -8.6850 -19.3642 -18.1108 9.5748 43.4397 -2.1815
# 6 -5.5806 -9.9082 -1.2117 -7.7588 -2.1815 29.6859
#
#
#
# Elastic Compliance Matrix: (Units=1/GPa)
#
#
# Indices 1 2 3 4 5 6 
#
# 1 0.025709 -0.005588 -0.006332 0.003795 -0.000644 0.003654
# 2 -0.005588 0.009748 -0.001908 0.002737 0.001979 0.002986
# 3 -0.006332 -0.001908 0.012588 0.001599 0.002744 -0.000694
# 4 0.003795 0.002737 0.001599 0.026453 -0.002763 0.008403
# 5 -0.000644 0.001979 0.002744 -0.002763 0.025618 0.001812
# 6 0.003654 0.002986 -0.000694 0.008403 0.001812 0.037671
#
#
# Mechanical properties :
#
#
# Convention : Reuss Voigt Hill
#
# Bulk Modulus (GPa) = 49.04305 72.63697 60.84001
# Shear Modulus (GPa) = 29.02916 36.46147 32.74531
#
# Velocity S-wave (km/s) = 3.54372 3.97155 3.76372
# Velocity P-wave (km/s) = 6.16116 7.24248 6.72359
#
# Compressibility (1/GPa) = 0.02039025
#
# Stress axis : x y z
#
# Youngs Moduli (GPa) = 38.89622 102.58411 79.43953
#
# Poissons Ratio (x) = 0.57322 0.50302
# Poissons Ratio (y) = 0.21734 0.15156
# Poissons Ratio (z) = 0.24629 0.19572
#
# Static dielectric constant tensor:
#      x y z
#    x 4.297990 -0.192280 0.200930 
#    y -0.192280 4.393410 -0.103310 
#    z 0.200930 -0.103310 4.357590 
# 
# 
# High freq. dielectric constant tensor:
#      x y z
#    x 1.892290 0.002520 -0.005280 
#    y 0.002520 1.921030 -0.001260 
#    z -0.005280 -0.001260 1.923090 
# 
# From -- ./inp_files/536259.got.cif
#   From: 2010.06.25/outbox.cif.g09.slc.cpg/sg2_269_cif.got.tgz:536259.got - 2010.06.27 13:26:56.
