data_PCOD8026262
_publ_section_title
;
Structure prediction by ZEFSAII (Michael W. Deem and Ramdas Pophale) SiO2 
 PCOD8026262
Probable space group: P -1
;
_chemical_formula_sum "Si O2"
_cell_formula_units_Z 14
_cell_length_a 8.758177
_cell_length_b 12.288381
_cell_length_c 8.987077
_cell_angle_alpha 115.584414
_cell_angle_beta 61.864193
_cell_angle_gamma 74.478744
_cell_volume 619.739104
_symmetry_space_group_name_H-M "P -1"
_symmetry_group_IT_number 2
_symmetry_cell_setting 'triclinic'
loop_
_space_group_symop_operation_xyz
x,y,z
-x,-y,-z
loop_
_atom_site_type_symbol
_atom_site_label
_atom_site_fract_x
_atom_site_fract_y
_atom_site_fract_z
Si Si1 0.733377 0.018312 0.515780
Si Si2 0.812242 0.534846 0.218983
Si Si3 0.274078 0.049088 0.074696
Si Si4 0.498259 0.517925 0.833287
Si Si5 0.480745 0.129081 0.403339
Si Si6 0.803061 0.145856 0.821674
Si Si7 0.065738 0.600705 0.599040
O O1 0.638356 0.948903 0.615390
O O2 0.971247 0.877855 0.271720
O O3 0.565872 0.114413 0.520421
O O4 0.755650 0.134368 0.663871
O O5 0.637571 0.533418 0.205286
O O6 0.693973 0.696454 0.446414
O O7 0.899881 0.422703 0.252651
O O8 0.000000 0.500000 0.000000
O O9 0.125971 0.225984 0.228126
O O10 0.168703 0.994702 0.197265
O O11 0.500000 0.000000 0.000000
O O12 0.314143 0.956977 0.849943
O O13 0.732918 0.426179 0.598219
O O14 0.500000 0.500000 0.000000
O O15 0.387267 0.690154 0.938266
O O16 0.000000 0.500000 0.500000
#
# Coordination Sequence:
#
# PCOD8026262 Si02
#       7
#     2   2   2   2   2   2   2
#     4  10  24  40  72 102 134 176 238 292 342 422
#     4  12  27  47  76 107 149 192 242 298 368 430
#     4  12  26  45  72 100 142 187 236 295 357 421
#     4  12  27  47  76 107 149 192 242 298 368 430
#     4  11  24  44  71 100 141 180 240 284 358 419
#     4  11  24  44  71 100 141 180 240 284 358 419
#     4  12  29  48  72 108 148 190 244 305 366 433
#
# _framework density 22.590149
#
# number of rings (size 3 to 8) (size 9 to 14) (size 15 to 20)
#    0.000    0.571    1.429    5.571   12.000    0.571 
#    0.000    0.000    0.000    0.000    0.000    0.000 
#    0.000    0.000    0.000    0.000    0.000    0.000 
#
# Total GULP energy -173603.218602 kJ/mol
# GULP energy per Si atom -12400.229900 kJ/mol
# Density = 2.253873 g / cm^3
# Si number density = 22.590149 Si / 1000 Ang^3
#
#
#
# Elastic Constant Matrix: (Units=GPa)
#
#
# Indices 1 2 3 4 5 6 
#
# 1 111.6419 25.5137 38.1316 -11.9594 -17.1306 2.2711
# 2 25.5137 113.1306 60.5150 6.0711 -5.6853 -13.1438
# 3 38.1316 60.5150 155.2879 8.1540 -15.7311 -1.8491
# 4 -11.9594 6.0711 8.1540 57.0971 1.7238 -3.4607
# 5 -17.1306 -5.6853 -15.7311 1.7238 36.2815 2.6511
# 6 2.2711 -13.1438 -1.8491 -3.4607 2.6511 20.9128
#
#
#
# Elastic Compliance Matrix: (Units=1/GPa)
#
#
# Indices 1 2 3 4 5 6 
#
# 1 0.010905 -0.001753 -0.001728 0.002435 0.004197 -0.002568
# 2 -0.001753 0.012470 -0.004444 -0.000551 -0.001338 0.007714
# 3 -0.001728 -0.004444 0.008902 -0.001383 0.002587 -0.002375
# 4 0.002435 -0.000551 -0.001383 0.018443 -0.000587 0.002394
# 5 0.004197 -0.001338 0.002587 -0.000587 0.030855 -0.005077
# 6 -0.002568 0.007714 -0.002375 0.002394 -0.005077 0.053774
#
#
# Mechanical properties :
#
#
# Convention : Reuss Voigt Hill
#
# Bulk Modulus (GPa) = 60.87328 69.82010 65.34669
# Shear Modulus (GPa) = 31.91318 39.91828 35.91573
#
# Velocity S-wave (km/s) = 3.76267 4.20821 3.99166
# Velocity P-wave (km/s) = 6.77364 7.38826 7.08762
#
# Compressibility (1/GPa) = 0.01642757
#
# Stress axis : x y z
#
# Youngs Moduli (GPa) = 91.70014 80.19030 112.33336
#
# Poissons Ratio (x) = 0.14059 0.19409
# Poissons Ratio (y) = 0.16077 0.49920
# Poissons Ratio (z) = 0.15844 0.35636
#
# Static dielectric constant tensor:
#      x y z
#    x 3.929620 -0.119270 -0.480570 
#    y -0.119270 4.095810 -0.356900 
#    z -0.480570 -0.356900 3.396010 
# 
# 
# High freq. dielectric constant tensor:
#      x y z
#    x 1.902750 -0.002230 -0.000080 
#    y -0.002230 1.898790 -0.000340 
#    z -0.000080 -0.000340 1.902750 
# 
# From -- ./inp_files/158115.got.cif
#   From: 2010.06.25/outbox.cif.g09.slc.cpg/sg2_80_cif.got.tgz:158115.got - 2010.06.27 13:26:56.
