data_PCOD8027932
_publ_section_title
;
Structure prediction by ZEFSAII (Michael W. Deem and Ramdas Pophale) SiO2 
 PCOD8027932
Probable space group: P -1
;
_chemical_formula_sum "Si O2"
_cell_formula_units_Z 16
_cell_length_a 9.105653
_cell_length_b 4.984820
_cell_length_c 21.618934
_cell_angle_alpha 97.585543
_cell_angle_beta 50.550613
_cell_angle_gamma 116.289215
_cell_volume 663.352037
_symmetry_space_group_name_H-M "P -1"
_symmetry_group_IT_number 2
_symmetry_cell_setting 'triclinic'
loop_
_space_group_symop_operation_xyz
x,y,z
-x,-y,-z
loop_
_atom_site_type_symbol
_atom_site_label
_atom_site_fract_x
_atom_site_fract_y
_atom_site_fract_z
Si Si1 0.367160 0.096943 0.698450
Si Si2 0.955345 0.225836 0.455245
Si Si3 0.108303 0.046865 0.886664
Si Si4 0.984727 0.240428 0.309777
Si Si5 0.642864 0.788510 0.614478
Si Si6 0.279254 0.700688 0.914212
Si Si7 0.215473 0.849605 0.202401
Si Si8 0.752346 0.147459 0.944635
O O1 0.214966 0.019068 0.794936
O O2 0.458796 0.437161 0.655819
O O3 0.232799 0.860081 0.673594
O O4 0.555621 0.020118 0.667494
O O5 0.917181 0.294432 0.397818
O O6 0.000000 0.500000 0.500000
O O7 0.163080 0.170316 0.391706
O O8 0.749215 0.908517 0.521787
O O9 0.224133 0.407656 0.879775
O O10 0.852769 0.926601 0.935509
O O11 0.152335 0.876103 0.926327
O O12 0.177057 0.557707 0.243867
O O13 0.065700 0.987180 0.273027
O O14 0.534648 0.911648 0.851890
O O15 0.192393 0.608843 0.005970
O O16 0.145781 0.727581 0.146205
O O17 0.500000 0.000000 0.000000
#
# Coordination Sequence:
#
# PCOD8027932 Si02
#       8
#     2   2   2   2   2   2   2   2
#     4  12  26  45  71 106 146 189 231 302 342 427
#     4  11  27  49  75 107 143 187 235 295 346 437
#     4  12  25  44  71 109 143 185 243 295 352 413
#     4  12  28  45  73 102 147 183 239 284 360 424
#     4  11  26  47  74 104 143 187 234 289 360 410
#     4  11  26  43  74 104 140 192 236 301 350 422
#     4  11  26  46  69 105 140 193 232 291 356 427
#     4  10  24  49  72 102 150 188 240 290 361 421
#
# _framework density 24.119923
#
# number of rings (size 3 to 8) (size 9 to 14) (size 15 to 20)
#    0.000    0.750    2.500    3.000   10.500    2.000 
#    0.000    5.625    0.000    0.000    0.000    0.000 
#    0.000    0.000    0.000    0.000    0.000    0.000 
#
# Total GULP energy -198282.741916 kJ/mol
# GULP energy per Si atom -12392.671370 kJ/mol
# Density = 2.406503 g / cm^3
# Si number density = 24.119923 Si / 1000 Ang^3
#
#
#
# Elastic Constant Matrix: (Units=GPa)
#
#
# Indices 1 2 3 4 5 6 
#
# 1 123.7953 27.1897 38.9254 18.7113 -2.8502 -1.1339
# 2 27.1897 77.6876 21.1768 3.0920 5.3914 -9.7942
# 3 38.9254 21.1768 92.6521 20.0935 11.7764 16.1661
# 4 18.7113 3.0920 20.0935 36.8673 4.7136 -1.6730
# 5 -2.8502 5.3914 11.7764 4.7136 51.3251 5.3962
# 6 -1.1339 -9.7942 16.1661 -1.6730 5.3962 31.2871
#
#
#
# Elastic Compliance Matrix: (Units=1/GPa)
#
#
# Indices 1 2 3 4 5 6 
#
# 1 0.010257 -0.002561 -0.003373 -0.003350 0.001834 0.000817
# 2 -0.002561 0.015901 -0.004261 0.002874 -0.001894 0.007567
# 3 -0.003373 -0.004261 0.016783 -0.007304 -0.001847 -0.010200
# 4 -0.003350 0.002874 -0.007304 0.033201 -0.002573 0.006772
# 5 0.001834 -0.001894 -0.001847 -0.002573 0.020791 -0.003296
# 6 0.000817 0.007567 -0.010200 0.006772 -0.003296 0.040561
#
#
# Mechanical properties :
#
#
# Convention : Reuss Voigt Hill
#
# Bulk Modulus (GPa) = 44.34658 52.07988 48.21323
# Shear Modulus (GPa) = 30.22942 37.68545 33.95744
#
# Velocity S-wave (km/s) = 3.54403 3.95703 3.75621
# Velocity P-wave (km/s) = 5.93066 6.52046 6.23254
#
# Compressibility (1/GPa) = 0.02254965
#
# Stress axis : x y z
#
# Youngs Moduli (GPa) = 97.49375 62.88862 59.58524
#
# Poissons Ratio (x) = 0.16108 0.20098
# Poissons Ratio (y) = 0.24971 0.25391
# Poissons Ratio (z) = 0.32885 0.26798
#
# Static dielectric constant tensor:
#      x y z
#    x 4.779340 0.035330 0.029860 
#    y 0.035330 4.208940 0.026430 
#    z 0.029860 0.026430 4.618970 
# 
# 
# High freq. dielectric constant tensor:
#      x y z
#    x 1.971450 -0.001810 -0.006080 
#    y -0.001810 1.946710 0.000820 
#    z -0.006080 0.000820 1.975000 
# 
# From -- ./inp_files/585726.got.cif
#   From: 2010.06.25/outbox.cif.g09.slc.cpg/sg2_293_cif.got.tgz:585726.got - 2010.06.27 13:26:56.
