data_PCOD8027064
_publ_section_title
;
Structure prediction by ZEFSAII (Michael W. Deem and Ramdas Pophale) SiO2 
 PCOD8027064
Probable space group: P -1
;
_chemical_formula_sum "Si O2"
_cell_formula_units_Z 16
_cell_length_a 9.473793
_cell_length_b 13.380992
_cell_length_c 17.193627
_cell_angle_alpha 154.794000
_cell_angle_beta 113.147316
_cell_angle_gamma 59.666153
_cell_volume 788.981683
_symmetry_space_group_name_H-M "P -1"
_symmetry_group_IT_number 2
_symmetry_cell_setting 'triclinic'
loop_
_space_group_symop_operation_xyz
x,y,z
-x,-y,-z
loop_
_atom_site_type_symbol
_atom_site_label
_atom_site_fract_x
_atom_site_fract_y
_atom_site_fract_z
Si Si1 0.327898 0.565353 0.553217
Si Si2 0.328040 0.970645 0.958805
Si Si3 0.691274 0.261538 0.049458
Si Si4 0.692219 0.872760 0.661434
Si Si5 0.892160 0.911547 0.470394
Si Si6 0.985846 0.321671 0.075407
Si Si7 0.479576 0.828260 0.442478
Si Si8 0.985960 0.917332 0.670992
O O1 0.500000 0.500000 0.500000
O O2 0.323248 0.727724 0.742576
O O3 0.302489 0.316309 0.400844
O O4 0.176174 0.718295 0.570903
O O5 0.303535 0.928743 0.014094
O O6 0.500000 0.000000 0.000000
O O7 0.175895 0.223237 0.076439
O O8 0.555952 0.536945 0.229698
O O9 0.873106 0.269379 0.081542
O O10 0.637125 0.153234 0.883928
O O11 0.557801 0.880062 0.574393
O O12 0.874181 0.793286 0.606172
O O13 0.921325 0.620014 0.256548
O O14 0.920576 0.970643 0.606950
O O15 0.712836 0.094108 0.530900
O O16 0.000000 0.000000 0.500000
O O17 0.973187 0.181244 0.893765
O O18 0.500000 0.000000 0.500000
#
# Coordination Sequence:
#
# PCOD8027064 Si02
#       8
#     2   2   2   2   2   2   2   2
#     4  11  24  41  65  99 136 169 219 276 332 393
#     4  11  24  41  65  99 136 169 219 276 332 393
#     4  11  23  42  69  98 130 174 217 276 330 386
#     4  11  23  42  69  98 130 174 217 276 330 386
#     4  12  28  44  70  94 136 182 216 272 326 394
#     4  10  24  44  66  97 130 172 222 270 328 393
#     4  12  24  46  68 100 132 174 232 264 320 404
#     4  10  24  44  66  97 130 172 222 270 328 393
#
# _framework density 20.279304
#
# number of rings (size 3 to 8) (size 9 to 14) (size 15 to 20)
#    0.000    1.000    3.750    1.500    7.000    2.000 
#    0.000    0.000    0.000    0.000    0.000    0.000 
#    0.000    0.000    0.000    0.000    0.000    0.000 
#
# Total GULP energy -198446.307710 kJ/mol
# GULP energy per Si atom -12402.894232 kJ/mol
# Density = 2.023315 g / cm^3
# Si number density = 20.279304 Si / 1000 Ang^3
#
#
#
# Elastic Constant Matrix: (Units=GPa)
#
#
# Indices 1 2 3 4 5 6 
#
# 1 169.8831 52.1996 54.7518 3.0966 -9.4743 -8.0357
# 2 52.1996 81.9257 64.0095 2.4364 -3.3547 -7.7377
# 3 54.7518 64.0095 121.0365 -8.5190 -1.4453 -16.2861
# 4 3.0966 2.4364 -8.5190 12.9183 1.4157 -3.8519
# 5 -9.4743 -3.3547 -1.4453 1.4157 29.5674 5.7755
# 6 -8.0357 -7.7377 -16.2861 -3.8519 5.7755 47.9520
#
#
#
# Elastic Compliance Matrix: (Units=1/GPa)
#
#
# Indices 1 2 3 4 5 6 
#
# 1 0.007671 -0.003154 -0.002041 -0.002959 0.002225 -0.000422
# 2 -0.003154 0.024374 -0.012655 -0.013086 0.002194 -0.002209
# 3 -0.002041 -0.012655 0.017718 0.016483 -0.003053 0.005325
# 4 -0.002959 -0.013086 0.016483 0.095882 -0.008507 0.011717
# 5 0.002225 0.002194 -0.003053 -0.008507 0.036084 -0.005339
# 6 -0.000422 -0.002209 0.005325 0.011717 -0.005339 0.023820
#
#
# Mechanical properties :
#
#
# Convention : Reuss Voigt Hill
#
# Bulk Modulus (GPa) = 71.10865 79.41859 75.26362
# Shear Modulus (GPa) = 20.33038 31.54650 25.93844
#
# Velocity S-wave (km/s) = 3.16969 3.94839 3.58027
# Velocity P-wave (km/s) = 6.96683 7.74815 7.36785
#
# Compressibility (1/GPa) = 0.01406299
#
# Stress axis : x y z
#
# Youngs Moduli (GPa) = 130.35582 41.02736 56.44010
#
# Poissons Ratio (x) = 0.12941 0.11517
# Poissons Ratio (y) = 0.41118 0.71426
# Poissons Ratio (z) = 0.26600 0.51921
#
# Static dielectric constant tensor:
#      x y z
#    x 3.905770 -0.041570 -0.011000 
#    y -0.041570 3.367880 -0.141360 
#    z -0.011000 -0.141360 3.886020 
# 
# 
# High freq. dielectric constant tensor:
#      x y z
#    x 1.806940 -0.002560 -0.000390 
#    y -0.002560 1.785850 -0.006370 
#    z -0.000390 -0.006370 1.808520 
# 
# From -- ./inp_files/282856.got.cif
#   From: 2010.06.25/outbox.cif.g09.slc.cpg/sg2_142_cif.got.tgz:282856.got - 2010.06.27 13:26:56.
