data_PCOD8027310
_publ_section_title
;
Structure prediction by ZEFSAII (Michael W. Deem and Ramdas Pophale) SiO2 
 PCOD8027310
Probable space group: P -1
;
_chemical_formula_sum "Si O2"
_cell_formula_units_Z 16
_cell_length_a 12.196369
_cell_length_b 7.916461
_cell_length_c 8.838842
_cell_angle_alpha 48.279081
_cell_angle_beta 100.374013
_cell_angle_gamma 91.857877
_cell_volume 622.110245
_symmetry_space_group_name_H-M "P -1"
_symmetry_group_IT_number 2
_symmetry_cell_setting 'triclinic'
loop_
_space_group_symop_operation_xyz
x,y,z
-x,-y,-z
loop_
_atom_site_type_symbol
_atom_site_label
_atom_site_fract_x
_atom_site_fract_y
_atom_site_fract_z
Si Si1 0.056769 0.947659 0.387886
Si Si2 0.084908 0.769359 0.033388
Si Si3 0.798866 0.670494 0.767872
Si Si4 0.308341 0.750110 0.268150
Si Si5 0.579378 0.885411 0.720056
Si Si6 0.428294 0.867450 0.951155
Si Si7 0.913609 0.557608 0.314092
Si Si8 0.263475 0.286600 0.605037
O O1 0.123218 0.695274 0.573193
O O2 0.143373 0.127291 0.263196
O O3 0.000000 0.000000 0.500000
O O4 0.959263 0.991109 0.205575
O O5 0.140999 0.585698 0.030884
O O6 0.173289 0.815049 0.162569
O O7 0.971960 0.672779 0.122642
O O8 0.671103 0.696487 0.781808
O O9 0.813697 0.682492 0.581999
O O10 0.332661 0.505612 0.502136
O O11 0.359604 0.930490 0.279266
O O12 0.365189 0.705778 0.141016
O O13 0.505773 0.754264 0.900678
O O14 0.500000 0.000000 0.500000
O O15 0.339205 0.051625 0.738476
O O16 0.500000 0.000000 0.000000
O O17 0.805258 0.721809 0.250002
O O18 0.000000 0.500000 0.500000
#
# Coordination Sequence:
#
# PCOD8027310 Si02
#       8
#     2   2   2   2   2   2   2   2
#     4  12  26  45  71 102 148 192 225 291 359 404
#     4  11  26  45  69 105 147 184 236 285 338 447
#     4  11  23  44  69 104 142 182 234 286 353 408
#     4  10  24  44  73 102 130 189 233 281 356 414
#     4  11  23  45  75 100 137 182 232 300 356 404
#     4  10  24  45  70  99 132 181 236 289 349 409
#     4  12  24  43  68 105 139 191 234 274 352 427
#     4  11  23  46  70 100 144 178 235 288 334 435
#
# _framework density 25.718913000000001
#
# number of rings (size 3 to 8) (size 9 to 14) (size 15 to 20)
#    0.000    1.000    5.000    1.125    3.500    5.500 
#    0.000    2.500    2.750    0.000    0.000    0.000 
#    0.000    0.000    0.000    0.000    0.000    0.000 
#
# Total GULP energy -198237.341689 kJ/mol
# GULP energy per Si atom -12389.833856 kJ/mol
# Density = 2.566038 g / cm^3
# Si number density = 25.718913 Si / 1000 Ang^3
#
#
#
# Elastic Constant Matrix: (Units=GPa)
#
#
# Indices 1 2 3 4 5 6 
#
# 1 132.8285 39.0278 42.2713 -0.6833 -18.0332 -34.0493
# 2 39.0278 88.3225 11.2398 8.0090 -3.5697 -9.6953
# 3 42.2713 11.2398 89.3863 11.2849 -14.8605 -9.6575
# 4 -0.6833 8.0090 11.2849 24.7743 3.5140 0.3120
# 5 -18.0332 -3.5697 -14.8605 3.5140 30.9228 11.7522
# 6 -34.0493 -9.6953 -9.6575 0.3120 11.7522 52.0767
#
#
#
# Elastic Compliance Matrix: (Units=1/GPa)
#
#
# Indices 1 2 3 4 5 6 
#
# 1 0.012021 -0.004336 -0.004689 0.003562 0.001651 0.005789
# 2 -0.004336 0.013554 0.000979 -0.004962 0.000119 -0.000127
# 3 -0.004689 0.000979 0.015190 -0.008219 0.006146 -0.001405
# 4 0.003562 -0.004962 -0.008219 0.046976 -0.008347 0.001483
# 5 0.001651 0.000119 0.006146 -0.008347 0.039756 -0.006680
# 6 0.005789 -0.000127 -0.001405 0.001483 -0.006680 0.024202
#
#
# Mechanical properties :
#
#
# Convention : Reuss Voigt Hill
#
# Bulk Modulus (GPa) = 40.53236 55.06833 47.80035
# Shear Modulus (GPa) = 28.40636 36.08799 32.24717
#
# Velocity S-wave (km/s) = 3.32700 3.74995 3.54479
# Velocity P-wave (km/s) = 5.52743 6.34095 5.94811
#
# Compressibility (1/GPa) = 0.02467165
#
# Stress axis : x y z
#
# Youngs Moduli (GPa) = 83.18512 73.77664 65.83463
#
# Poissons Ratio (x) = 0.31990 0.30873
# Poissons Ratio (y) = 0.36069 -0.06443
# Poissons Ratio (z) = 0.39010 -0.07220
#
# Static dielectric constant tensor:
#      x y z
#    x 8.204640 -2.172940 -1.175630 
#    y -2.172940 5.629820 1.210110 
#    z -1.175630 1.210110 4.407830 
# 
# 
# High freq. dielectric constant tensor:
#      x y z
#    x 2.033110 -0.005780 -0.013380 
#    y -0.005780 2.027550 0.002320 
#    z -0.013380 0.002320 2.019070 
# 
# From -- ./inp_files/242155.got.cif
#   From: 2010.06.25/outbox.cif.g09.slc.cpg/sg2_122_cif.got.tgz:242155.got - 2010.06.27 13:26:56.
