data_PCOD8027723
_publ_section_title
;
Structure prediction by ZEFSAII (Michael W. Deem and Ramdas Pophale) SiO2 
 PCOD8027723
Probable space group: P -1
;
_chemical_formula_sum "Si O2"
_cell_formula_units_Z 14
_cell_length_a 9.255785
_cell_length_b 8.605305
_cell_length_c 23.103485
_cell_angle_alpha 43.523101
_cell_angle_beta 151.126738
_cell_angle_gamma 131.703324
_cell_volume 609.361754
_symmetry_space_group_name_H-M "P -1"
_symmetry_group_IT_number 2
_symmetry_cell_setting 'triclinic'
loop_
_space_group_symop_operation_xyz
x,y,z
-x,-y,-z
loop_
_atom_site_type_symbol
_atom_site_label
_atom_site_fract_x
_atom_site_fract_y
_atom_site_fract_z
Si Si1 0.719992 0.793620 0.307366
Si Si2 0.829717 0.446001 0.615329
Si Si3 0.755034 0.947021 0.878728
Si Si4 0.804256 0.936242 0.767207
Si Si5 0.703517 0.469615 0.146245
Si Si6 0.258049 0.789607 0.879624
Si Si7 0.214178 0.671831 0.590871
O O1 0.482311 0.863053 0.252958
O O2 0.624905 0.536648 0.323599
O O3 0.056656 0.813022 0.447747
O O4 0.707209 0.960233 0.203057
O O5 0.500000 0.500000 0.500000
O O6 0.839614 0.178783 0.683247
O O7 0.046129 0.546718 0.714209
O O8 0.939850 0.570304 0.561955
O O9 0.896059 0.957428 0.861092
O O10 0.589519 0.699657 0.897325
O O11 0.000000 0.000000 0.000000
O O12 0.459813 0.831593 0.668617
O O13 0.025947 0.778845 0.854499
O O14 0.850332 0.398197 0.156374
O O15 0.584520 0.720911 0.034710
#
# Coordination Sequence:
#
# PCOD8027723 Si02
#       7
#     2   2   2   2   2   2   2
#     4  10  24  47  72  96 156 183 239 302 358 430
#     4  12  27  46  73 108 145 192 244 297 364 425
#     4  11  26  45  70 107 143 194 236 299 371 428
#     4  12  27  43  78 105 143 190 247 297 364 428
#     4  10  25  48  71 102 151 188 240 304 357 431
#     4  10  24  46  72 106 137 193 239 293 365 426
#     4  11  25  49  70 110 142 191 243 306 353 428
#
# _framework density 22.974858999999999
#
# number of rings (size 3 to 8) (size 9 to 14) (size 15 to 20)
#    0.000    1.143    2.857    0.857   12.000    6.286 
#    0.000    0.000    0.000    0.000    0.000    0.000 
#    0.000    0.000    0.000    0.000    0.000    0.000 
#
# Total GULP energy -173610.052218 kJ/mol
# GULP energy per Si atom -12400.718016 kJ/mol
# Density = 2.292257 g / cm^3
# Si number density = 22.974859 Si / 1000 Ang^3
#
#
#
# Elastic Constant Matrix: (Units=GPa)
#
#
# Indices 1 2 3 4 5 6 
#
# 1 141.6254 29.7564 33.6583 -6.2681 14.5814 -9.2783
# 2 29.7564 94.8168 51.2659 4.6518 4.8084 2.3506
# 3 33.6583 51.2659 126.9737 -2.7156 -5.4472 -8.5461
# 4 -6.2681 4.6518 -2.7156 42.7059 -7.5968 2.3932
# 5 14.5814 4.8084 -5.4472 -7.5968 35.0919 -6.5651
# 6 -9.2783 2.3506 -8.5461 2.3932 -6.5651 31.2551
#
#
#
# Elastic Compliance Matrix: (Units=1/GPa)
#
#
# Indices 1 2 3 4 5 6 
#
# 1 0.008207 -0.001674 -0.001515 0.000676 -0.002995 0.001467
# 2 -0.001674 0.014689 -0.005947 -0.002638 -0.003516 -0.003764
# 3 -0.001515 -0.005947 0.011153 0.001677 0.004252 0.003812
# 4 0.000676 -0.002638 0.001677 0.024926 0.005767 0.000161
# 5 -0.002995 -0.003516 0.004252 0.005767 0.033464 0.007125
# 6 0.001467 -0.003764 0.003812 0.000161 0.007125 0.035240
#
#
# Mechanical properties :
#
#
# Convention : Reuss Voigt Hill
#
# Bulk Modulus (GPa) = 63.38663 65.86412 64.62537
# Shear Modulus (GPa) = 33.06622 38.39292 35.72957
#
# Velocity S-wave (km/s) = 3.79784 4.09232 3.94783
# Velocity P-wave (km/s) = 6.84696 7.14560 6.99788
#
# Compressibility (1/GPa) = 0.01577620
#
# Stress axis : x y z
#
# Youngs Moduli (GPa) = 121.84640 68.07907 89.65898
#
# Poissons Ratio (x) = 0.11398 0.13582
# Poissons Ratio (y) = 0.20399 0.53324
# Poissons Ratio (z) = 0.18458 0.40490
#
# Static dielectric constant tensor:
#      x y z
#    x 4.213790 -0.120820 -0.002340 
#    y -0.120820 4.177560 -0.175320 
#    z -0.002340 -0.175320 4.198360 
# 
# 
# High freq. dielectric constant tensor:
#      x y z
#    x 1.912840 -0.008370 -0.003400 
#    y -0.008370 1.906120 -0.009950 
#    z -0.003400 -0.009950 1.912800 
# 
# From -- ./inp_files/606376.got.cif
#   From: 2010.06.25/outbox.cif.g09.slc.cpg/sg2_304_cif.got.tgz:606376.got - 2010.06.27 13:26:56.
