data_PCOD8027825
_publ_section_title
;
Structure prediction by ZEFSAII (Michael W. Deem and Ramdas Pophale) SiO2 
 PCOD8027825
Probable space group: P -1
;
_chemical_formula_sum "Si O2"
_cell_formula_units_Z 14
_cell_length_a 17.760415
_cell_length_b 9.004621
_cell_length_c 4.995121
_cell_angle_alpha 83.285874
_cell_angle_beta 94.790795
_cell_angle_gamma 132.575610
_cell_volume 584.215332
_symmetry_space_group_name_H-M "P -1"
_symmetry_group_IT_number 2
_symmetry_cell_setting 'triclinic'
loop_
_space_group_symop_operation_xyz
x,y,z
-x,-y,-z
loop_
_atom_site_type_symbol
_atom_site_label
_atom_site_fract_x
_atom_site_fract_y
_atom_site_fract_z
Si Si1 0.573292 0.993385 0.352280
Si Si2 0.926173 0.277392 0.399684
Si Si3 0.535917 0.769899 0.881132
Si Si4 0.892038 0.644547 0.762248
Si Si5 0.665979 0.670402 0.127212
Si Si6 0.810675 0.853547 0.639007
Si Si7 0.202095 0.626384 0.716836
O O1 0.476889 0.117501 0.923504
O O2 0.676713 0.216638 0.263222
O O3 0.500000 0.000000 0.500000
O O4 0.592681 0.884433 0.593409
O O5 0.836879 0.257278 0.239460
O O6 0.000000 0.500000 0.500000
O O7 0.990332 0.258521 0.216515
O O8 0.877090 0.094790 0.636432
O O9 0.606649 0.745413 0.055416
O O10 0.421035 0.570208 0.813064
O O11 0.886895 0.812790 0.648844
O O12 0.829489 0.460780 0.572769
O O13 0.844229 0.557437 0.058131
O O14 0.737855 0.727863 0.891106
O O15 0.738087 0.772027 0.380938
#
# Coordination Sequence:
#
# PCOD8027825 Si02
#       7
#     2   2   2   2   2   2   2
#     4  12  26  41  70 102 142 181 229 284 340 404
#     4  10  24  47  72 102 136 181 230 284 345 422
#     4  11  24  45  65 100 139 179 240 275 338 403
#     4  11  25  43  69 102 139 177 229 287 342 404
#     4  11  25  43  72  97 136 187 224 287 335 416
#     4  12  25  43  72 101 139 176 234 283 354 401
#     4  11  24  44  69  99 140 185 227 277 347 408
#
# _framework density 23.963768999999999
#
# number of rings (size 3 to 8) (size 9 to 14) (size 15 to 20)
#    0.000    0.857    0.000    6.429    6.000    8.000 
#    0.000    5.000    0.000    0.000    0.000    0.000 
#    0.000    0.000    0.000    0.000    0.000    0.000 
#
# Total GULP energy -173576.149762 kJ/mol
# GULP energy per Si atom -12398.296412 kJ/mol
# Density = 2.390923 g / cm^3
# Si number density = 23.963769 Si / 1000 Ang^3
#
#
#
# Elastic Constant Matrix: (Units=GPa)
#
#
# Indices 1 2 3 4 5 6 
#
# 1 125.8287 43.7380 -5.1180 -13.0721 -1.3981 -3.3548
# 2 43.7380 61.6524 -3.5421 -8.3698 4.9757 -10.7956
# 3 -5.1180 -3.5421 73.0091 -8.9834 -5.5676 3.4435
# 4 -13.0721 -8.3698 -8.9834 38.6141 -3.6020 0.5065
# 5 -1.3981 4.9757 -5.5676 -3.6020 32.9518 -9.0088
# 6 -3.3548 -10.7956 3.4435 0.5065 -9.0088 33.7887
#
#
#
# Elastic Compliance Matrix: (Units=1/GPa)
#
#
# Indices 1 2 3 4 5 6 
#
# 1 0.010891 -0.007671 0.000869 0.002403 0.001749 -0.001028
# 2 -0.007671 0.023212 0.000442 0.002285 -0.001843 0.006084
# 3 0.000869 0.000442 0.014508 0.004025 0.002700 -0.000592
# 4 0.002403 0.002285 0.004025 0.028488 0.003869 0.001163
# 5 0.001749 -0.001843 0.002700 0.003869 0.033841 0.008275
# 6 -0.001028 0.006084 -0.000592 0.001163 0.008275 0.033687
#
#
# Mechanical properties :
#
#
# Convention : Reuss Voigt Hill
#
# Bulk Modulus (GPa) = 27.86266 36.73843 32.30055
# Shear Modulus (GPa) = 29.53144 36.09839 32.81492
#
# Velocity S-wave (km/s) = 3.51427 3.88541 3.70449
# Velocity P-wave (km/s) = 5.30274 5.95757 5.63967
#
# Compressibility (1/GPa) = 0.03589032
#
# Stress axis : x y z
#
# Youngs Moduli (GPa) = 91.82020 43.08122 68.92609
#
# Poissons Ratio (x) = 0.33049 -0.05988
# Poissons Ratio (y) = 0.70438 -0.03047
# Poissons Ratio (z) = -0.07977 -0.01905
#
# Static dielectric constant tensor:
#      x y z
#    x 4.821910 -0.121710 0.189770 
#    y -0.121710 4.483740 -0.623670 
#    z 0.189770 -0.623670 5.251930 
# 
# 
# High freq. dielectric constant tensor:
#      x y z
#    x 1.972920 -0.002490 0.000860 
#    y -0.002490 1.949030 -0.012110 
#    z 0.000860 -0.012110 1.950440 
# 
# From -- ./inp_files/106712.got.cif
#   From: 2010.06.25/outbox.cif.g09.slc.cpg/sg2_54_cif.got.tgz:106712.got - 2010.06.27 13:26:56.
