data_PCOD8027163
_publ_section_title
;
Structure prediction by ZEFSAII (Michael W. Deem and Ramdas Pophale) SiO2 
 PCOD8027163
Probable space group: P -1
;
_chemical_formula_sum "Si O2"
_cell_formula_units_Z 16
_cell_length_a 7.055926
_cell_length_b 14.339628
_cell_length_c 7.878102
_cell_angle_alpha 109.417356
_cell_angle_beta 78.442474
_cell_angle_gamma 101.158322
_cell_volume 729.540344
_symmetry_space_group_name_H-M "P -1"
_symmetry_group_IT_number 2
_symmetry_cell_setting 'triclinic'
loop_
_space_group_symop_operation_xyz
x,y,z
-x,-y,-z
loop_
_atom_site_type_symbol
_atom_site_label
_atom_site_fract_x
_atom_site_fract_y
_atom_site_fract_z
Si Si1 0.664380 0.577491 0.449657
Si Si2 0.103682 0.333309 0.237463
Si Si3 0.474401 0.280147 0.960376
Si Si4 0.837206 0.436511 0.101963
Si Si5 0.929983 0.857095 0.651570
Si Si6 0.655847 0.055781 0.377812
Si Si7 0.583476 0.776302 0.452993
Si Si8 0.357299 0.072951 0.008688
O O1 0.500000 0.500000 0.500000
O O2 0.834375 0.597173 0.570345
O O3 0.741636 0.530513 0.240740
O O4 0.549580 0.670509 0.487500
O O5 0.029207 0.225072 0.264723
O O6 0.929339 0.374750 0.194827
O O7 0.287478 0.333466 0.076234
O O8 0.453262 0.236353 0.747912
O O9 0.469952 0.185268 0.030075
O O10 0.675393 0.357405 0.986278
O O11 0.000000 0.500000 0.000000
O O12 0.807966 0.818269 0.482919
O O13 0.132938 0.904596 0.557321
O O14 0.815621 0.932556 0.825385
O O15 0.557934 0.151908 0.390377
O O16 0.500000 0.000000 0.500000
O O17 0.718744 0.977140 0.184191
O O18 0.500000 0.000000 0.000000
#
# Coordination Sequence:
#
# PCOD8027163 Si02
#       8
#     2   2   2   2   2   2   2   2
#     4  11  24  44  72  97 135 182 226 285 342 403
#     4  10  24  44  69 101 134 179 233 282 343 406
#     4  11  25  46  67 102 145 177 228 293 342 409
#     4  12  27  44  70 103 136 184 232 281 353 410
#     4  10  25  44  72 102 137 179 236 280 341 420
#     4  12  25  46  70 104 140 184 224 285 356 411
#     4  11  25  45  68 101 143 178 230 286 346 403
#     4  11  23  46  71 103 134 185 232 287 347 407
#
# _framework density 21.931618
#
# number of rings (size 3 to 8) (size 9 to 14) (size 15 to 20)
#    0.000    1.000    3.750    1.500    5.250    4.500 
#    0.000    0.000    0.000    0.000    0.000    0.000 
#    0.000    0.000    0.000    0.000    0.000    0.000 
#
# Total GULP energy -198247.966080 kJ/mol
# GULP energy per Si atom -12390.497880 kJ/mol
# Density = 2.188170 g / cm^3
# Si number density = 21.931618 Si / 1000 Ang^3
#
#
#
# Elastic Constant Matrix: (Units=GPa)
#
#
# Indices 1 2 3 4 5 6 
#
# 1 118.4831 78.1808 30.9268 -4.2841 -4.7554 15.5465
# 2 78.1808 110.6726 45.7155 15.8491 -8.2437 7.9847
# 3 30.9268 45.7155 97.5373 5.4917 -4.4296 10.4573
# 4 -4.2841 15.8491 5.4917 32.4741 -2.8664 -6.8622
# 5 -4.7554 -8.2437 -4.4296 -2.8664 35.7421 -7.4362
# 6 15.5465 7.9847 10.4573 -6.8622 -7.4362 41.6710
#
#
#
# Elastic Compliance Matrix: (Units=1/GPa)
#
#
# Indices 1 2 3 4 5 6 
#
# 1 0.018418 -0.014372 0.000700 0.008629 -0.000709 -0.002998
# 2 -0.014372 0.023359 -0.005700 -0.012016 0.001948 0.000685
# 3 0.000700 -0.005700 0.012946 0.000166 -0.000105 -0.002409
# 4 0.008629 -0.012016 0.000166 0.039285 0.002798 0.006010
# 5 -0.000709 0.001948 -0.000105 0.002798 0.029727 0.005683
# 6 -0.002998 0.000685 -0.002409 0.006010 0.005683 0.027593
#
#
# Mechanical properties :
#
#
# Convention : Reuss Voigt Hill
#
# Bulk Modulus (GPa) = 62.58242 70.70435 66.64338
# Shear Modulus (GPa) = 25.58875 33.43541 29.51208
#
# Velocity S-wave (km/s) = 3.41948 3.90876 3.67228
# Velocity P-wave (km/s) = 6.64738 7.25808 6.95943
#
# Compressibility (1/GPa) = 0.01597893
#
# Stress axis : x y z
#
# Youngs Moduli (GPa) = 54.29617 42.81029 77.24226
#
# Poissons Ratio (x) = 0.61526 -0.05404
# Poissons Ratio (y) = 0.78033 0.44026
# Poissons Ratio (z) = -0.03799 0.24401
#
# Static dielectric constant tensor:
#      x y z
#    x 3.672050 0.621330 1.354720 
#    y 0.621330 2.101700 -3.717880 
#    z 1.354720 -3.717880 -3.704760 
# 
# 
# High freq. dielectric constant tensor:
#      x y z
#    x 1.861690 -0.003040 -0.000730 
#    y -0.003040 1.873080 0.013260 
#    z -0.000730 0.013260 1.868000 
# 
# From -- ./inp_files/135660.got.cif
#   From: 2010.06.25/outbox.cif.g09.slc.cpg/sg2_68_cif.got.tgz:135660.got - 2010.06.27 13:26:56.
