data_PCOD8027648
_publ_section_title
;
Structure prediction by ZEFSAII (Michael W. Deem and Ramdas Pophale) SiO2 
 PCOD8027648
Probable space group: P -1
;
_chemical_formula_sum "Si O2"
_cell_formula_units_Z 14
_cell_length_a 7.155404
_cell_length_b 7.151824
_cell_length_c 18.089864
_cell_angle_alpha 57.804178
_cell_angle_beta 130.123342
_cell_angle_gamma 98.539630
_cell_volume 571.213483
_symmetry_space_group_name_H-M "P -1"
_symmetry_group_IT_number 2
_symmetry_cell_setting 'triclinic'
loop_
_space_group_symop_operation_xyz
x,y,z
-x,-y,-z
loop_
_atom_site_type_symbol
_atom_site_label
_atom_site_fract_x
_atom_site_fract_y
_atom_site_fract_z
Si Si1 0.856541 0.452593 0.677010
Si Si2 0.096299 0.591193 0.578622
Si Si3 0.222889 0.012754 0.245294
Si Si4 0.272173 0.574438 0.983340
Si Si5 0.585933 0.708912 0.158774
Si Si6 0.229288 0.087535 0.067023
Si Si7 0.519281 0.175917 0.405627
O O1 0.670479 0.576487 0.668605
O O2 0.869306 0.629915 0.574842
O O3 0.146470 0.338475 0.808626
O O4 0.772748 0.237671 0.667887
O O5 0.349958 0.415646 0.718298
O O6 0.188904 0.813282 0.533114
O O7 0.000000 0.500000 0.500000
O O8 0.314233 0.976615 0.192023
O O9 0.430492 0.103109 0.320844
O O10 0.940203 0.193229 0.145429
O O11 0.385040 0.611084 0.084331
O O12 0.147684 0.364030 0.998787
O O13 0.500000 0.500000 0.000000
O O14 0.460570 0.983360 0.088606
O O15 0.000000 0.000000 0.000000
O O16 0.500000 0.000000 0.500000
#
# Coordination Sequence:
#
# PCOD8027648 Si02
#       7
#     2   2   2   2   2   2   2
#     4  10  26  47  74 102 145 187 239 287 364 416
#     4  10  24  47  74 101 141 184 239 287 357 421
#     4  12  26  44  73 103 143 187 239 292 357 420
#     4  12  26  42  69 102 144 188 239 290 353 422
#     4  10  24  46  69 101 144 190 237 286 353 419
#     4  12  26  41  71 104 145 187 237 292 354 419
#     4  12  27  48  75 108 142 183 240 299 356 425
#
# _framework density 24.509226000000002
#
# number of rings (size 3 to 8) (size 9 to 14) (size 15 to 20)
#    0.857    0.000    1.429    4.714    6.000    5.143 
#    0.000    0.000    0.000    0.000    0.000    0.000 
#    0.000    0.000    0.000    0.000    0.000    0.000 
#
# Total GULP energy -173513.273457 kJ/mol
# GULP energy per Si atom -12393.805247 kJ/mol
# Density = 2.445344 g / cm^3
# Si number density = 24.509226 Si / 1000 Ang^3
#
#
#
# Elastic Constant Matrix: (Units=GPa)
#
#
# Indices 1 2 3 4 5 6 
#
# 1 101.5931 52.2468 9.3620 9.2168 0.7677 8.4516
# 2 52.2468 167.9790 47.6407 28.3148 -1.5802 12.2006
# 3 9.3620 47.6407 83.7272 35.8113 -8.3958 3.9855
# 4 9.2168 28.3148 35.8113 55.3595 -2.5742 3.8221
# 5 0.7677 -1.5802 -8.3958 -2.5742 30.3734 -2.4341
# 6 8.4516 12.2006 3.9855 3.8221 -2.4341 49.4478
#
#
#
# Elastic Compliance Matrix: (Units=1/GPa)
#
#
# Indices 1 2 3 4 5 6 
#
# 1 0.011863 -0.003823 0.001177 -0.000718 -0.000325 -0.001140
# 2 -0.003823 0.008528 -0.003970 -0.001117 -0.000738 -0.001081
# 3 0.001177 -0.003970 0.018820 -0.010166 0.004125 0.000250
# 4 -0.000718 -0.001117 -0.010166 0.025349 -0.000764 -0.000779
# 5 -0.000325 -0.000738 0.004125 -0.000764 0.034100 0.001643
# 6 -0.001140 -0.001081 0.000250 -0.000779 0.001643 0.020806
#
#
# Mechanical properties :
#
#
# Convention : Reuss Voigt Hill
#
# Bulk Modulus (GPa) = 38.48975 63.53315 51.01145
# Shear Modulus (GPa) = 35.37131 43.30612 39.33871
#
# Velocity S-wave (km/s) = 3.80305 4.20805 4.01066
# Velocity P-wave (km/s) = 5.91798 7.04192 6.50427
#
# Compressibility (1/GPa) = 0.02598094
#
# Stress axis : x y z
#
# Youngs Moduli (GPa) = 84.29439 117.26197 53.13390
#
# Poissons Ratio (x) = 0.44830 -0.06256
# Poissons Ratio (y) = 0.32226 0.21093
# Poissons Ratio (z) = -0.09926 0.46550
#
# Static dielectric constant tensor:
#      x y z
#    x 4.484680 -0.012190 0.056650 
#    y -0.012190 4.378680 -0.207690 
#    z 0.056650 -0.207690 4.165030 
# 
# 
# High freq. dielectric constant tensor:
#      x y z
#    x 1.979800 -0.001020 0.001860 
#    y -0.001020 1.985150 0.008660 
#    z 0.001860 0.008660 1.961830 
# 
# From -- ./inp_files/584852.got.cif
#   From: 2010.06.25/outbox.cif.g09.slc.cpg/sg2_293_cif.got.tgz:584852.got - 2010.06.27 13:26:56.
