data_PCOD8027302
_publ_section_title
;
Structure prediction by ZEFSAII (Michael W. Deem and Ramdas Pophale) SiO2 
 PCOD8027302
Probable space group: P -1
;
_chemical_formula_sum "Si O2"
_cell_formula_units_Z 16
_cell_length_a 10.846740
_cell_length_b 8.773595
_cell_length_c 9.580671
_cell_angle_alpha 51.554089
_cell_angle_beta 89.727040
_cell_angle_gamma 82.498529
_cell_volume 704.526060
_symmetry_space_group_name_H-M "P -1"
_symmetry_group_IT_number 2
_symmetry_cell_setting 'triclinic'
loop_
_space_group_symop_operation_xyz
x,y,z
-x,-y,-z
loop_
_atom_site_type_symbol
_atom_site_label
_atom_site_fract_x
_atom_site_fract_y
_atom_site_fract_z
Si Si1 0.661948 0.247152 0.677550
Si Si2 0.197622 0.753053 0.048155
Si Si3 0.963386 0.788782 0.593419
Si Si4 0.396965 0.418712 0.140333
Si Si5 0.065504 0.364839 0.855710
Si Si6 0.601158 0.680669 0.482146
Si Si7 0.168310 0.169681 0.696130
Si Si8 0.227705 0.144153 0.220519
O O1 0.710704 0.185542 0.867419
O O2 0.672489 0.476913 0.527269
O O3 0.517306 0.229925 0.662021
O O4 0.745040 0.093823 0.660517
O O5 0.274259 0.584555 0.048243
O O6 0.074278 0.678258 0.151064
O O7 0.153942 0.944406 0.847979
O O8 0.944686 0.748055 0.453696
O O9 0.828884 0.797716 0.661311
O O10 0.061086 0.598956 0.754223
O O11 0.000000 0.000000 0.500000
O O12 0.439503 0.356193 0.335509
O O13 0.357419 0.232626 0.163050
O O14 0.500000 0.500000 0.000000
O O15 0.153796 0.300439 0.760404
O O16 0.124413 0.238582 0.056973
O O17 0.698509 0.830411 0.380142
#
# Coordination Sequence:
#
# PCOD8027302 Si02
#       8
#     2   2   2   2   2   2   2   2
#     4  10  24  44  72  96 139 181 234 285 350 409
#     4  11  24  47  69 103 141 187 235 283 351 430
#     4  12  27  42  68 106 146 179 233 294 353 411
#     4  11  26  47  71  99 142 190 230 292 358 412
#     4  12  26  47  70 101 146 187 232 284 354 424
#     4  10  24  49  67 102 142 179 236 299 339 422
#     4  12  25  44  73 100 138 191 230 289 351 418
#     4  12  25  46  70 105 138 185 237 289 347 425
#
# _framework density 22.710304000000001
#
# number of rings (size 3 to 8) (size 9 to 14) (size 15 to 20)
#    0.000    0.750    3.750    2.625    7.000    5.000 
#    0.000    0.000    0.000    0.000    0.000    0.000 
#    0.000    0.000    0.000    0.000    0.000    0.000 
#
# Total GULP energy -198344.257671 kJ/mol
# GULP energy per Si atom -12396.516104 kJ/mol
# Density = 2.265861 g / cm^3
# Si number density = 22.710304 Si / 1000 Ang^3
#
#
#
# Elastic Constant Matrix: (Units=GPa)
#
#
# Indices 1 2 3 4 5 6 
#
# 1 94.6348 13.6273 48.5972 8.8331 -0.2102 11.8060
# 2 13.6273 106.1600 41.3488 -9.4717 5.6859 -0.3854
# 3 48.5972 41.3488 96.9232 -5.0490 -0.6394 -3.2959
# 4 8.8331 -9.4717 -5.0490 39.1138 -3.9991 2.5188
# 5 -0.2102 5.6859 -0.6394 -3.9991 44.0508 -1.3820
# 6 11.8060 -0.3854 -3.2959 2.5188 -1.3820 30.6262
#
#
#
# Elastic Compliance Matrix: (Units=1/GPa)
#
#
# Indices 1 2 3 4 5 6 
#
# 1 0.016363 0.001097 -0.009136 -0.004242 -0.000800 -0.006964
# 2 0.001097 0.011643 -0.005470 0.001787 -0.001449 -0.001077
# 3 -0.009136 -0.005470 0.017563 0.002809 0.001335 0.005172
# 4 -0.004242 0.001787 0.002809 0.027567 0.002286 -0.000204
# 5 -0.000800 -0.001449 0.001335 0.002286 0.023152 0.001290
# 6 -0.006964 -0.001077 0.005172 -0.000204 0.001290 0.035954
#
#
# Mechanical properties :
#
#
# Convention : Reuss Voigt Hill
#
# Bulk Modulus (GPa) = 53.90515 56.09605 55.00060
# Shear Modulus (GPa) = 30.22202 35.70113 32.96157
#
# Velocity S-wave (km/s) = 3.65192 3.96918 3.81385
# Velocity P-wave (km/s) = 6.44744 6.76462 6.60794
#
# Compressibility (1/GPa) = 0.01855110
#
# Stress axis : x y z
#
# Youngs Moduli (GPa) = 61.11216 85.89184 56.93925
#
# Poissons Ratio (x) = -0.09421 0.52017
# Poissons Ratio (y) = -0.06703 0.31145
# Poissons Ratio (z) = 0.55830 0.46982
#
# Static dielectric constant tensor:
#      x y z
#    x 3.966630 0.005780 0.055770 
#    y 0.005780 4.160550 -0.108530 
#    z 0.055770 -0.108530 4.151620 
# 
# 
# High freq. dielectric constant tensor:
#      x y z
#    x 1.887330 0.006470 0.010500 
#    y 0.006470 1.906070 -0.007650 
#    z 0.010500 -0.007650 1.895940 
# 
# From -- ./inp_files/242075.got.cif
#   From: 2010.06.25/outbox.cif.g09.slc.cpg/sg2_122_cif.got.tgz:242075.got - 2010.06.27 13:26:56.
