data_PCOD8027845
_publ_section_title
;
Structure prediction by ZEFSAII (Michael W. Deem and Ramdas Pophale) SiO2 
 PCOD8027845
Probable space group: P -1
;
_chemical_formula_sum "Si O2"
_cell_formula_units_Z 16
_cell_length_a 18.538903
_cell_length_b 11.584559
_cell_length_c 22.675030
_cell_angle_alpha 151.710521
_cell_angle_beta 161.677399
_cell_angle_gamma 35.762064
_cell_volume 715.683576
_symmetry_space_group_name_H-M "P -1"
_symmetry_group_IT_number 2
_symmetry_cell_setting 'triclinic'
loop_
_space_group_symop_operation_xyz
x,y,z
-x,-y,-z
loop_
_atom_site_type_symbol
_atom_site_label
_atom_site_fract_x
_atom_site_fract_y
_atom_site_fract_z
Si Si1 0.989576 0.682601 0.397695
Si Si2 0.157787 0.972741 0.389473
Si Si3 0.348665 0.956539 0.977426
Si Si4 0.742439 0.796645 0.150845
Si Si5 0.334682 0.828404 0.340908
Si Si6 0.357675 0.552128 0.542504
Si Si7 0.284126 0.464430 0.774721
Si Si8 0.975525 0.460051 0.829318
O O1 0.193861 0.552843 0.472299
O O2 0.767238 0.645174 0.163279
O O3 0.940010 0.566851 0.371195
O O4 0.049096 0.974898 0.585371
O O5 0.241570 0.980185 0.390182
O O6 0.194682 0.728277 0.344821
O O7 0.293956 0.225995 0.635092
O O8 0.881932 0.943732 0.173956
O O9 0.490697 0.887299 0.998055
O O10 0.506201 0.166732 0.233752
O O11 0.261685 0.705520 0.830313
O O12 0.795461 0.636521 0.063886
O O13 0.470196 0.636141 0.393023
O O14 0.500000 0.000000 0.500000
O O15 0.097083 0.700310 0.067127
O O16 0.198578 0.468716 0.324280
O O17 0.500000 0.500000 0.000000
#
# Coordination Sequence:
#
# PCOD8027845 Si02
#       8
#     2   2   2   2   2   2   2   2
#     4   9  18  36  64 102 135 171 224 276 336 416
#     4  12  27  46  65 103 143 181 236 281 339 418
#     4  11  23  40  68 104 142 174 221 285 351 405
#     4   9  18  37  66 100 136 173 221 271 348 409
#     4  12  30  50  69  98 140 185 237 291 336 405
#     4  10  24  47  75 103 133 186 233 275 354 410
#     4  12  23  40  67 104 142 179 223 288 349 405
#     4  11  23  47  75  98 139 185 232 285 333 417
#
# _framework density 22.356248999999998
#
# number of rings (size 3 to 8) (size 9 to 14) (size 15 to 20)
#    0.000    1.250    3.750    2.250    3.500    2.500 
#    2.250    0.000    0.000    0.000    0.000    0.000 
#    0.000    0.000    0.000    0.000    0.000    0.000 
#
# Total GULP energy -198294.131741 kJ/mol
# GULP energy per Si atom -12393.383234 kJ/mol
# Density = 2.230537 g / cm^3
# Si number density = 22.356249 Si / 1000 Ang^3
#
#
#
# Elastic Constant Matrix: (Units=GPa)
#
#
# Indices 1 2 3 4 5 6 
#
# 1 139.9226 27.8986 49.8325 20.7678 -6.6097 9.8688
# 2 27.8986 60.1404 41.5429 9.8522 1.1228 8.0173
# 3 49.8325 41.5429 131.5711 13.9582 -17.2742 0.6177
# 4 20.7678 9.8522 13.9582 33.6246 -0.5726 9.6889
# 5 -6.6097 1.1228 -17.2742 -0.5726 32.1561 6.0622
# 6 9.8688 8.0173 0.6177 9.6889 6.0622 37.4498
#
#
#
# Elastic Compliance Matrix: (Units=1/GPa)
#
#
# Indices 1 2 3 4 5 6 
#
# 1 0.009011 -0.001827 -0.002329 -0.003729 0.000808 -0.001111
# 2 -0.001827 0.023094 -0.006954 -0.001919 -0.004359 -0.003146
# 3 -0.002329 -0.006954 0.011594 -0.001648 0.005696 0.001415
# 4 -0.003729 -0.001919 -0.001648 0.035566 0.000532 -0.007867
# 5 0.000808 -0.004359 0.005696 0.000532 0.035477 -0.005254
# 6 -0.001111 -0.003146 0.001415 -0.007867 -0.005254 0.030531
#
#
# Mechanical properties :
#
#
# Convention : Reuss Voigt Hill
#
# Bulk Modulus (GPa) = 46.55687 63.35356 54.95522
# Shear Modulus (GPa) = 28.62857 34.80345 31.71601
#
# Velocity S-wave (km/s) = 3.58238 3.94987 3.77060
# Velocity P-wave (km/s) = 6.16291 7.01439 6.60239
#
# Compressibility (1/GPa) = 0.02147911
#
# Stress axis : x y z
#
# Youngs Moduli (GPa) = 110.98072 43.30168 86.25073
#
# Poissons Ratio (x) = 0.07912 0.20087
# Poissons Ratio (y) = 0.20279 0.59975
# Poissons Ratio (z) = 0.25846 0.30110
#
# Static dielectric constant tensor:
#      x y z
#    x 4.265710 -0.131850 0.040170 
#    y -0.131850 3.663500 0.005590 
#    z 0.040170 0.005590 4.021700 
# 
# 
# High freq. dielectric constant tensor:
#      x y z
#    x 1.894120 0.002580 0.001990 
#    y 0.002580 1.865430 -0.003960 
#    z 0.001990 -0.003960 1.877700 
# 
# From -- ./inp_files/515843.got.cif
#   From: 2010.06.25/outbox.cif.g09.slc.cpg/sg2_258_cif.got.tgz:515843.got - 2010.06.27 13:26:56.
