data_PCOD8027863
_publ_section_title
;
Structure prediction by ZEFSAII (Michael W. Deem and Ramdas Pophale) SiO2 
 PCOD8027863
Probable space group: P -1
;
_chemical_formula_sum "Si O2"
_cell_formula_units_Z 16
_cell_length_a 12.155963
_cell_length_b 8.451731
_cell_length_c 16.286549
_cell_angle_alpha 60.998408
_cell_angle_beta 30.619854
_cell_angle_gamma 74.349183
_cell_volume 703.370190
_symmetry_space_group_name_H-M "P -1"
_symmetry_group_IT_number 2
_symmetry_cell_setting 'triclinic'
loop_
_space_group_symop_operation_xyz
x,y,z
-x,-y,-z
loop_
_atom_site_type_symbol
_atom_site_label
_atom_site_fract_x
_atom_site_fract_y
_atom_site_fract_z
Si Si1 0.969042 0.495041 0.321842
Si Si2 0.413936 0.126139 0.940991
Si Si3 0.920929 0.431985 0.953414
Si Si4 0.587733 0.766474 0.685758
Si Si5 0.219876 0.928432 0.389376
Si Si6 0.070313 0.137110 0.699467
Si Si7 0.607689 0.438094 0.865860
Si Si8 0.913545 0.768056 0.978088
O O1 0.830281 0.644931 0.383940
O O2 0.151643 0.571181 0.257693
O O3 0.837823 0.272349 0.475316
O O4 0.077358 0.527743 0.153990
O O5 0.647917 0.086225 0.776139
O O6 0.452583 0.236900 0.975951
O O7 0.344453 0.250329 0.881543
O O8 0.198158 0.930627 0.140661
O O9 0.661547 0.310617 0.175236
O O10 0.008177 0.634306 0.892568
O O11 0.076263 0.303615 0.916543
O O12 0.658077 0.594319 0.722305
O O13 0.773417 0.879919 0.471840
O O14 0.590171 0.917191 0.717750
O O15 0.000000 0.000000 0.500000
O O16 0.082808 0.987085 0.800821
O O17 0.500000 0.500000 0.000000
#
# Coordination Sequence:
#
# PCOD8027863 Si02
#       8
#     2   2   2   2   2   2   2   2
#     4  12  25  42  65 102 135 181 226 277 346 408
#     4  10  24  48  66 102 139 180 225 283 343 404
#     4  11  22  45  75  98 136 178 229 280 340 412
#     4  12  23  42  67 102 136 179 228 280 339 407
#     4  12  27  43  69  99 141 184 232 281 339 409
#     4  10  25  43  69 100 136 177 228 282 341 406
#     4  12  24  41  71  98 142 181 220 281 346 410
#     4   9  22  46  74  97 135 177 227 284 345 395
#
# _framework density 22.747622
#
# number of rings (size 3 to 8) (size 9 to 14) (size 15 to 20)
#    0.750    0.250    3.750    2.250    3.500    2.500 
#    0.000    0.625    0.000    0.000    0.000    0.000 
#    0.000    0.000    0.000    0.000    0.000    0.000 
#
# Total GULP energy -198237.059289 kJ/mol
# GULP energy per Si atom -12389.816206 kJ/mol
# Density = 2.269585 g / cm^3
# Si number density = 22.747622 Si / 1000 Ang^3
#
#
#
# Elastic Constant Matrix: (Units=GPa)
#
#
# Indices 1 2 3 4 5 6 
#
# 1 98.2859 21.7788 17.2388 -8.2006 4.4929 -17.0601
# 2 21.7788 119.2700 27.2107 -11.3490 3.3404 1.5704
# 3 17.2388 27.2107 86.4517 -0.3532 0.5032 1.1107
# 4 -8.2006 -11.3490 -0.3532 44.4695 -4.4739 3.0926
# 5 4.4929 3.3404 0.5032 -4.4739 19.7356 -5.6328
# 6 -17.0601 1.5704 1.1107 3.0926 -5.6328 33.7865
#
#
#
# Elastic Compliance Matrix: (Units=1/GPa)
#
#
# Indices 1 2 3 4 5 6 
#
# 1 0.012071 -0.001705 -0.001940 0.001316 -0.000384 0.006054
# 2 -0.001705 0.009548 -0.002630 0.002098 -0.001142 -0.001601
# 3 -0.001940 -0.002630 0.012793 -0.000841 0.000028 -0.001196
# 4 0.001316 0.002098 -0.000841 0.023771 0.004519 -0.000828
# 5 -0.000384 -0.001142 0.000028 0.004519 0.054405 0.008515
# 6 0.006054 -0.001601 -0.001196 -0.000828 0.008515 0.034263
#
#
# Mechanical properties :
#
#
# Convention : Reuss Voigt Hill
#
# Bulk Modulus (GPa) = 45.74097 48.49604 47.11850
# Shear Modulus (GPa) = 29.99594 35.45025 32.72309
#
# Velocity S-wave (km/s) = 3.63525 3.95196 3.79691
# Velocity P-wave (km/s) = 6.14587 6.49534 6.32302
#
# Compressibility (1/GPa) = 0.02186224
#
# Stress axis : x y z
#
# Youngs Moduli (GPa) = 82.84545 104.73058 78.16472
#
# Poissons Ratio (x) = 0.17859 0.15167
# Poissons Ratio (y) = 0.14127 0.20554
# Poissons Ratio (z) = 0.16075 0.27539
#
# Static dielectric constant tensor:
#      x y z
#    x 4.157340 -0.081700 0.091210 
#    y -0.081700 4.199930 -0.254100 
#    z 0.091210 -0.254100 3.834730 
# 
# 
# High freq. dielectric constant tensor:
#      x y z
#    x 1.885920 -0.001240 0.011960 
#    y -0.001240 1.912240 -0.020010 
#    z 0.011960 -0.020010 1.878580 
# 
# From -- ./inp_files/512891.got.cif
#   From: 2010.06.25/outbox.cif.g09.slc.cpg/sg2_257_cif.got.tgz:512891.got - 2010.06.27 13:26:56.
