data_PCOD8027453
_publ_section_title
;
Structure prediction by ZEFSAII (Michael W. Deem and Ramdas Pophale) SiO2 
 PCOD8027453
Probable space group: P -1
;
_chemical_formula_sum "Si O2"
_cell_formula_units_Z 14
_cell_length_a 18.594368
_cell_length_b 15.180393
_cell_length_c 9.215220
_cell_angle_alpha 49.799646
_cell_angle_beta 132.535471
_cell_angle_gamma 161.566662
_cell_volume 605.969195
_symmetry_space_group_name_H-M "P -1"
_symmetry_group_IT_number 2
_symmetry_cell_setting 'triclinic'
loop_
_space_group_symop_operation_xyz
x,y,z
-x,-y,-z
loop_
_atom_site_type_symbol
_atom_site_label
_atom_site_fract_x
_atom_site_fract_y
_atom_site_fract_z
Si Si1 0.609725 0.792771 0.597290
Si Si2 0.700439 0.621566 0.146887
Si Si3 0.350080 0.806199 0.747735
Si Si4 0.854562 0.452827 0.797530
Si Si5 0.660325 0.397219 0.817495
Si Si6 0.994459 0.622557 0.500507
Si Si7 0.793476 0.742490 0.831189
O O1 0.397205 0.575543 0.658156
O O2 0.554412 0.812938 0.361868
O O3 0.643644 0.698332 0.690574
O O4 0.849993 0.109225 0.651730
O O5 0.500000 0.500000 0.000000
O O6 0.754163 0.629246 0.049892
O O7 0.938639 0.940322 0.180881
O O8 0.261513 0.662128 0.624348
O O9 0.127215 0.642572 0.668108
O O10 0.588672 0.135298 0.721353
O O11 0.410117 0.766562 0.979672
O O12 0.866586 0.560172 0.829132
O O13 0.963346 0.629034 0.616788
O O14 0.000000 0.500000 0.000000
O O15 0.720355 0.586291 0.762602
#
# Coordination Sequence:
#
# PCOD8027453 Si02
#       7
#     2   2   2   2   2   2   2
#     4  11  24  45  71 102 141 178 230 287 343 408
#     4   9  22  46  70  96 139 178 232 282 334 414
#     4  11  25  47  69 101 137 182 243 282 344 412
#     4  12  24  47  69 101 140 184 228 289 350 405
#     4  12  25  44  69 101 143 179 227 286 347 414
#     4  11  25  46  72 100 139 183 234 290 340 414
#     4  10  24  45  69 103 138 182 228 281 346 411
#
# _framework density 23.103484999999999
#
# number of rings (size 3 to 8) (size 9 to 14) (size 15 to 20)
#    0.000    1.143    2.857    2.143    8.000    0.571 
#   15.429    0.000    0.000    0.000    0.000    0.000 
#    0.000    0.000    0.000    0.000    0.000    0.000 
#
# Total GULP energy -173461.859872 kJ/mol
# GULP energy per Si atom -12390.132848 kJ/mol
# Density = 2.305090 g / cm^3
# Si number density = 23.103485 Si / 1000 Ang^3
#
#
#
# Elastic Constant Matrix: (Units=GPa)
#
#
# Indices 1 2 3 4 5 6 
#
# 1 113.7674 26.7399 32.0326 -5.6887 -2.8916 -11.3697
# 2 26.7399 116.7903 41.6507 -7.0028 -15.0862 4.6497
# 3 32.0326 41.6507 107.6545 -5.7830 -12.1379 2.1317
# 4 -5.6887 -7.0028 -5.7830 35.9562 7.2507 -0.4693
# 5 -2.8916 -15.0862 -12.1379 7.2507 38.4415 -0.2599
# 6 -11.3697 4.6497 2.1317 -0.4693 -0.2599 35.3016
#
#
#
# Elastic Compliance Matrix: (Units=1/GPa)
#
#
# Indices 1 2 3 4 5 6 
#
# 1 0.010294 -0.001643 -0.002537 0.001122 -0.000858 0.003693
# 2 -0.001643 0.010560 -0.003203 0.000681 0.002869 -0.001696
# 3 -0.002537 -0.003203 0.011565 0.000393 0.002122 -0.001073
# 4 0.001122 0.000681 0.000393 0.029207 -0.005029 0.000599
# 5 -0.000858 0.002869 0.002122 -0.005029 0.028690 -0.000638
# 6 0.003693 -0.001696 -0.001073 0.000599 -0.000638 0.029808
#
#
# Mechanical properties :
#
#
# Convention : Reuss Voigt Hill
#
# Bulk Modulus (GPa) = 56.64825 59.89542 58.27183
# Shear Modulus (GPa) = 35.51833 37.79246 36.65540
#
# Velocity S-wave (km/s) = 3.92517 4.04888 3.98750
# Velocity P-wave (km/s) = 6.71678 6.91658 6.81741
#
# Compressibility (1/GPa) = 0.01765280
#
# Stress axis : x y z
#
# Youngs Moduli (GPa) = 97.14710 94.69930 86.46995
#
# Poissons Ratio (x) = 0.15556 0.21937
# Poissons Ratio (y) = 0.15958 0.27697
# Poissons Ratio (z) = 0.24646 0.30333
#
# Static dielectric constant tensor:
#      x y z
#    x 4.605250 0.551070 -0.531790 
#    y 0.551070 4.603860 -0.495020 
#    z -0.531790 -0.495020 4.901570 
# 
# 
# High freq. dielectric constant tensor:
#      x y z
#    x 1.916220 0.008140 0.004830 
#    y 0.008140 1.903220 0.004040 
#    z 0.004830 0.004040 1.923640 
# 
# From -- ./inp_files/38943.got.cif
#   From: 2010.06.25/outbox.cif.g09.slc.cpg/sg2_20_cif.got.tgz:38943.got - 2010.06.27 13:26:56.
