data_PCOD8027428
_publ_section_title
;
Structure prediction by ZEFSAII (Michael W. Deem and Ramdas Pophale) SiO2 
 PCOD8027428
Probable space group: P -1
;
_chemical_formula_sum "Si O2"
_cell_formula_units_Z 14
_cell_length_a 8.885428
_cell_length_b 14.352186
_cell_length_c 20.097195
_cell_angle_alpha 28.421720
_cell_angle_beta 36.178286
_cell_angle_gamma 29.534035
_cell_volume 591.595672
_symmetry_space_group_name_H-M "P -1"
_symmetry_group_IT_number 2
_symmetry_cell_setting 'triclinic'
loop_
_space_group_symop_operation_xyz
x,y,z
-x,-y,-z
loop_
_atom_site_type_symbol
_atom_site_label
_atom_site_fract_x
_atom_site_fract_y
_atom_site_fract_z
Si Si1 0.042590 0.867093 0.933442
Si Si2 0.301987 0.496780 0.630765
Si Si3 0.769746 0.006019 0.804839
Si Si4 0.782269 0.942889 0.479536
Si Si5 0.313735 0.352807 0.110163
Si Si6 0.492339 0.272843 0.949965
Si Si7 0.746302 0.333842 0.318319
O O1 0.376503 0.828707 0.843463
O O2 0.106828 0.605503 0.064494
O O3 0.854795 0.027488 0.835917
O O4 0.826400 0.021062 0.976723
O O5 0.500000 0.500000 0.500000
O O6 0.412722 0.226531 0.776337
O O7 0.385077 0.580160 0.615204
O O8 0.943836 0.679058 0.620473
O O9 0.996597 0.018838 0.667425
O O10 0.783033 0.765747 0.941749
O O11 0.698158 0.123216 0.456882
O O12 0.500000 0.000000 0.500000
O O13 0.106694 0.248885 0.240925
O O14 0.448562 0.369218 0.980425
O O15 0.454067 0.469338 0.790099
#
# Coordination Sequence:
#
# PCOD8027428 Si02
#       7
#     2   2   2   2   2   2   2
#     4  11  23  40  65 105 150 175 218 276 351 421
#     4  10  24  45  68  94 133 188 233 275 344 410
#     4  11  21  45  68  97 140 177 225 283 347 419
#     4  11  26  46  69  96 132 183 244 290 331 401
#     4  11  24  39  66 107 145 180 217 278 352 426
#     4  12  22  44  71 108 139 181 221 284 366 416
#     4  12  22  45  73  96 141 183 229 289 353 414
#
# _framework density 23.664811
#
# number of rings (size 3 to 8) (size 9 to 14) (size 15 to 20)
#    0.000    0.857    4.286    3.429    2.000    0.000 
#    5.143    2.857    0.000    0.000    0.000    0.000 
#    0.000    0.000    0.000    0.000    0.000    0.000 
#
# Total GULP energy -173513.103878 kJ/mol
# GULP energy per Si atom -12393.793134 kJ/mol
# Density = 2.361095 g / cm^3
# Si number density = 23.664811 Si / 1000 Ang^3
#
#
#
# Elastic Constant Matrix: (Units=GPa)
#
#
# Indices 1 2 3 4 5 6 
#
# 1 103.3437 32.5629 24.7409 -11.5910 1.3230 -10.2987
# 2 32.5629 104.2005 20.0364 -6.4750 3.3094 -1.3931
# 3 24.7409 20.0364 51.7321 -16.5064 11.0565 -9.7554
# 4 -11.5910 -6.4750 -16.5064 31.3090 -1.5079 16.5525
# 5 1.3230 3.3094 11.0565 -1.5079 40.6659 2.5627
# 6 -10.2987 -1.3931 -9.7554 16.5525 2.5627 45.5509
#
#
#
# Elastic Compliance Matrix: (Units=1/GPa)
#
#
# Indices 1 2 3 4 5 6 
#
# 1 0.011797 -0.002833 -0.004207 0.000927 0.000944 0.001289
# 2 -0.002833 0.011071 -0.003100 0.000155 0.000105 -0.001028
# 3 -0.004207 -0.003100 0.027916 0.011609 -0.006840 0.001099
# 4 0.000927 0.000155 0.011609 0.045747 -0.000627 -0.013888
# 5 0.000944 0.000105 -0.006840 -0.000627 0.026546 -0.002514
# 6 0.001289 -0.001028 0.001099 -0.013888 -0.002514 0.027637
#
#
# Mechanical properties :
#
#
# Convention : Reuss Voigt Hill
#
# Bulk Modulus (GPa) = 32.78270 45.99520 39.38895
# Shear Modulus (GPa) = 27.59967 35.63424 31.61696
#
# Velocity S-wave (km/s) = 3.41878 3.88466 3.65914
# Velocity P-wave (km/s) = 5.42836 6.29278 5.87649
#
# Compressibility (1/GPa) = 0.03050390
#
# Stress axis : x y z
#
# Youngs Moduli (GPa) = 84.76991 90.32851 35.82150
#
# Poissons Ratio (x) = 0.25586 0.15072
# Poissons Ratio (y) = 0.24012 0.11104
# Poissons Ratio (z) = 0.35666 0.28000
#
# Static dielectric constant tensor:
#      x y z
#    x 4.540700 0.130920 0.186200 
#    y 0.130920 4.851700 -0.383030 
#    z 0.186200 -0.383030 4.169870 
# 
# 
# High freq. dielectric constant tensor:
#      x y z
#    x 1.935820 0.009650 0.025510 
#    y 0.009650 1.951830 -0.006690 
#    z 0.025510 -0.006690 1.916960 
# 
# From -- ./inp_files/297624.got.cif
#   From: 2010.06.25/outbox.cif.g09.slc.cpg/sg2_149_cif.got.tgz:297624.got - 2010.06.27 13:26:56.
