data_PCOD8027384
_publ_section_title
;
Structure prediction by ZEFSAII (Michael W. Deem and Ramdas Pophale) SiO2 
 PCOD8027384
Probable space group: P -1
;
_chemical_formula_sum "Si O2"
_cell_formula_units_Z 14
_cell_length_a 8.908346
_cell_length_b 9.121336
_cell_length_c 11.821738
_cell_angle_alpha 119.688640
_cell_angle_beta 57.922695
_cell_angle_gamma 136.158204
_cell_volume 553.381269
_symmetry_space_group_name_H-M "P -1"
_symmetry_group_IT_number 2
_symmetry_cell_setting 'triclinic'
loop_
_space_group_symop_operation_xyz
x,y,z
-x,-y,-z
loop_
_atom_site_type_symbol
_atom_site_label
_atom_site_fract_x
_atom_site_fract_y
_atom_site_fract_z
Si Si1 0.965026 0.193289 0.617130
Si Si2 0.203459 0.332257 0.995476
Si Si3 0.969909 0.387343 0.293202
Si Si4 0.667723 0.530177 0.251575
Si Si5 0.725767 0.902169 0.960618
Si Si6 0.808625 0.721523 0.656606
Si Si7 0.549240 0.103501 0.222988
O O1 0.021533 0.406695 0.614184
O O2 0.113672 0.255842 0.695171
O O3 0.050426 0.124256 0.450936
O O4 0.702148 0.014483 0.677523
O O5 0.330933 0.467211 0.884207
O O6 0.356360 0.295636 0.996431
O O7 0.982672 0.099862 0.957957
O O8 0.133699 0.450658 0.144752
O O9 0.717129 0.162784 0.284531
O O10 0.056488 0.338137 0.349735
O O11 0.438322 0.493786 0.368930
O O12 0.666067 0.334697 0.210719
O O13 0.729596 0.840597 0.805641
O O14 0.556362 0.958125 0.071067
#
# Coordination Sequence:
#
# PCOD8027384 Si02
#       7
#     2   2   2   2   2   2   2
#     4  11  25  45  66  96 141 180 213 272 333 400
#     4   9  20  43  69 100 131 169 223 281 323 384
#     4   9  22  45  69  99 130 170 232 273 325 392
#     4  11  26  43  68  99 137 177 218 271 332 398
#     4   9  21  42  71 100 126 171 228 273 327 390
#     4  11  24  44  68 100 134 176 225 270 329 396
#     4  10  24  45  67 100 134 172 223 273 333 388
#
# _framework density 25.299012999999999
#
# number of rings (size 3 to 8) (size 9 to 14) (size 15 to 20)
#    0.000    2.000    0.000    1.714    6.000    8.000 
#    5.143    0.000    0.000    0.000    0.000    0.000 
#    0.000    0.000    0.000    0.000    0.000    0.000 
#
# Total GULP energy -173591.628710 kJ/mol
# GULP energy per Si atom -12399.402051 kJ/mol
# Density = 2.524143 g / cm^3
# Si number density = 25.299013 Si / 1000 Ang^3
#
#
#
# Elastic Constant Matrix: (Units=GPa)
#
#
# Indices 1 2 3 4 5 6 
#
# 1 136.1458 20.9421 51.8797 -14.5810 2.6483 19.5640
# 2 20.9421 66.9053 41.7487 -17.9677 -0.9511 10.5353
# 3 51.8797 41.7487 158.0358 -25.9594 -0.4965 6.9174
# 4 -14.5810 -17.9677 -25.9594 45.0667 -3.2453 -0.7221
# 5 2.6483 -0.9511 -0.4965 -3.2453 40.5187 -9.1610
# 6 19.5640 10.5353 6.9174 -0.7221 -9.1610 23.4725
#
#
#
# Elastic Compliance Matrix: (Units=1/GPa)
#
#
# Indices 1 2 3 4 5 6 
#
# 1 0.009719 0.000286 -0.002677 0.001407 -0.002436 -0.008347
# 2 0.000286 0.020247 -0.004169 0.005556 -0.001033 -0.008330
# 3 -0.002677 -0.004169 0.008642 0.002541 0.000829 0.001957
# 4 0.001407 0.005556 0.002541 0.026383 0.001500 -0.003018
# 5 -0.002436 -0.001033 0.000829 0.001500 0.027929 0.013196
# 6 -0.008347 -0.008330 0.001957 -0.003018 0.013196 0.057780
#
#
# Mechanical properties :
#
#
# Convention : Reuss Voigt Hill
#
# Bulk Modulus (GPa) = 39.23303 65.58087 52.40695
# Shear Modulus (GPa) = 29.01661 38.24603 33.63132
#
# Velocity S-wave (km/s) = 3.39033 3.89235 3.64998
# Velocity P-wave (km/s) = 5.55583 6.79552 6.20670
#
# Compressibility (1/GPa) = 0.02548873
#
# Stress axis : x y z
#
# Youngs Moduli (GPa) = 102.89311 49.38947 115.71252
#
# Poissons Ratio (x) = -0.01414 0.30979
# Poissons Ratio (y) = -0.02945 0.48237
# Poissons Ratio (z) = 0.27547 0.20589
#
# Static dielectric constant tensor:
#      x y z
#    x 4.954740 0.088130 0.042450 
#    y 0.088130 4.504750 0.173470 
#    z 0.042450 0.173470 4.564390 
# 
# 
# High freq. dielectric constant tensor:
#      x y z
#    x 2.032420 0.006480 0.001860 
#    y 0.006480 2.014810 0.002450 
#    z 0.001860 0.002450 2.007700 
# 
# From -- ./inp_files/382878.got.cif
#   From: 2010.06.25/outbox.cif.g09.slc.cpg/sg2_192_cif.got.tgz:382878.got - 2010.06.27 13:26:56.
