data_PCOD8027202
_publ_section_title
;
Structure prediction by ZEFSAII (Michael W. Deem and Ramdas Pophale) SiO2 
 PCOD8027202
Probable space group: P -1
;
_chemical_formula_sum "Si O2"
_cell_formula_units_Z 16
_cell_length_a 11.501593
_cell_length_b 10.257932
_cell_length_c 16.134516
_cell_angle_alpha 40.424388
_cell_angle_beta 116.832142
_cell_angle_gamma 141.240691
_cell_volume 723.789831
_symmetry_space_group_name_H-M "P -1"
_symmetry_group_IT_number 2
_symmetry_cell_setting 'triclinic'
loop_
_space_group_symop_operation_xyz
x,y,z
-x,-y,-z
loop_
_atom_site_type_symbol
_atom_site_label
_atom_site_fract_x
_atom_site_fract_y
_atom_site_fract_z
Si Si1 0.698112 0.889369 0.263116
Si Si2 0.046826 0.237806 0.089594
Si Si3 0.536322 0.106617 0.054163
Si Si4 0.108219 0.727527 0.138304
Si Si5 0.455629 0.236597 0.443157
Si Si6 0.688031 0.138274 0.572034
Si Si7 0.890293 0.073551 0.405213
Si Si8 0.978533 0.253674 0.717904
O O1 0.574006 0.579719 0.323926
O O2 0.904081 0.169253 0.146097
O O3 0.572140 0.948167 0.197129
O O4 0.740853 0.862839 0.382564
O O5 0.005498 0.296661 0.960997
O O6 0.000410 0.948508 0.208426
O O7 0.272594 0.528100 0.051667
O O8 0.346814 0.013318 0.069888
O O9 0.500000 0.000000 0.000000
O O10 0.029333 0.747655 0.184889
O O11 0.052291 0.428211 0.263634
O O12 0.562896 0.175236 0.554271
O O13 0.449647 0.174432 0.373610
O O14 0.234049 0.001093 0.519550
O O15 0.776194 0.117234 0.686248
O O16 0.843642 0.410804 0.424788
O O17 0.000000 0.000000 0.500000
#
# Coordination Sequence:
#
# PCOD8027202 Si02
#       8
#     2   2   2   2   2   2   2   2
#     4  12  25  45  72 103 143 181 233 288 351 426
#     4  12  26  48  71 102 141 188 234 288 349 416
#     4  12  26  45  70 103 141 188 232 281 348 423
#     4  12  26  48  70 102 144 184 235 291 348 417
#     4  11  24  44  70 103 137 178 232 288 354 414
#     4  10  24  44  70 101 132 185 231 294 346 413
#     4  12  27  43  71 105 145 183 230 292 354 419
#     4  11  25  45  72  95 139 182 236 293 347 405
#
# _framework density 22.105865999999999
#
# number of rings (size 3 to 8) (size 9 to 14) (size 15 to 20)
#    0.000    0.500    5.000    2.625    7.000    0.500 
#    0.000    0.000    0.000    0.000    0.000    0.000 
#    0.000    0.000    0.000    0.000    0.000    0.000 
#
# Total GULP energy -198491.751297 kJ/mol
# GULP energy per Si atom -12405.734456 kJ/mol
# Density = 2.205555 g / cm^3
# Si number density = 22.105866 Si / 1000 Ang^3
#
#
#
# Elastic Constant Matrix: (Units=GPa)
#
#
# Indices 1 2 3 4 5 6 
#
# 1 92.3478 4.8621 7.5259 10.3872 -1.1393 10.2462
# 2 4.8621 93.7997 18.8369 -0.9971 3.0144 4.3352
# 3 7.5259 18.8369 63.3663 6.3153 6.8769 2.8808
# 4 10.3872 -0.9971 6.3153 44.7775 3.3709 3.8369
# 5 -1.1393 3.0144 6.8769 3.3709 38.0876 -0.0714
# 6 10.2462 4.3352 2.8808 3.8369 -0.0714 38.5822
#
#
#
# Elastic Compliance Matrix: (Units=1/GPa)
#
#
# Indices 1 2 3 4 5 6 
#
# 1 0.011502 -0.000321 -0.000994 -0.002360 0.000753 -0.002708
# 2 -0.000321 0.011423 -0.003360 0.000921 -0.000390 -0.001040
# 3 -0.000994 -0.003360 0.017420 -0.002056 -0.002728 -0.000460
# 4 -0.002360 0.000921 -0.002056 0.023472 -0.001853 -0.001661
# 5 0.000753 -0.000390 -0.002728 -0.001853 0.026966 0.000282
# 6 -0.002708 -0.001040 -0.000460 -0.001661 0.000282 0.026955
#
#
# Mechanical properties :
#
#
# Convention : Reuss Voigt Hill
#
# Bulk Modulus (GPa) = 32.26281 34.66263 33.46272
# Shear Modulus (GPa) = 36.38533 38.84205 37.61369
#
# Velocity S-wave (km/s) = 4.06144 4.19632 4.12943
# Velocity P-wave (km/s) = 6.05146 6.26044 6.15683
#
# Compressibility (1/GPa) = 0.03099544
#
# Stress axis : x y z
#
# Youngs Moduli (GPa) = 86.94365 87.54468 57.40540
#
# Poissons Ratio (x) = 0.02807 0.05707
# Poissons Ratio (y) = 0.02788 0.19287
# Poissons Ratio (z) = 0.08643 0.29412
#
# Static dielectric constant tensor:
#      x y z
#    x 4.119950 0.138220 0.124040 
#    y 0.138220 4.120990 -0.027150 
#    z 0.124040 -0.027150 3.988100 
# 
# 
# High freq. dielectric constant tensor:
#      x y z
#    x 1.879540 0.004250 0.007300 
#    y 0.004250 1.883310 -0.002540 
#    z 0.007300 -0.002540 1.862710 
# 
# From -- ./inp_files/515080.got.cif
#   From: 2010.06.25/outbox.cif.g09.slc.cpg/sg2_258_cif.got.tgz:515080.got - 2010.06.27 13:26:56.
