data_PCOD8027881
_publ_section_title
;
Structure prediction by ZEFSAII (Michael W. Deem and Ramdas Pophale) SiO2 
 PCOD8027881
Probable space group: P -1
;
_chemical_formula_sum "Si O2"
_cell_formula_units_Z 16
_cell_length_a 6.113554
_cell_length_b 10.735467
_cell_length_c 26.399862
_cell_angle_alpha 149.399907
_cell_angle_beta 130.260666
_cell_angle_gamma 59.526983
_cell_volume 667.662128
_symmetry_space_group_name_H-M "P -1"
_symmetry_group_IT_number 2
_symmetry_cell_setting 'triclinic'
loop_
_space_group_symop_operation_xyz
x,y,z
-x,-y,-z
loop_
_atom_site_type_symbol
_atom_site_label
_atom_site_fract_x
_atom_site_fract_y
_atom_site_fract_z
Si Si1 0.806881 0.425507 0.536710
Si Si2 0.279170 0.751906 0.083954
Si Si3 0.843628 0.183800 0.074263
Si Si4 0.367250 0.756709 0.733285
Si Si5 0.780832 0.021470 0.113106
Si Si6 0.903051 0.015834 0.610185
Si Si7 0.310918 0.677918 0.402336
Si Si8 0.816595 0.592958 0.144511
O O1 0.500000 0.500000 0.500000
O O2 0.837866 0.402258 0.594175
O O3 0.051580 0.636257 0.623927
O O4 0.856732 0.164954 0.428608
O O5 0.470042 0.607136 0.099463
O O6 0.517663 0.970526 0.174445
O O7 0.129327 0.561758 0.952285
O O8 0.021274 0.856007 0.112723
O O9 0.945498 0.167427 0.141590
O O10 0.929155 0.454938 0.161289
O O11 0.497353 0.148532 0.007880
O O12 0.000000 0.000000 0.000000
O O13 0.318235 0.783872 0.795156
O O14 0.599017 0.568462 0.695804
O O15 0.897636 0.197834 0.624041
O O16 0.997677 0.143545 0.723663
O O17 0.589432 0.873480 0.523618
#
# Coordination Sequence:
#
# PCOD8027881 Si02
#       8
#     2   2   2   2   2   2   2   2
#     4  11  26  44  72 102 130 177 233 285 348 415
#     4  11  25  46  65 102 144 182 231 275 348 413
#     4  11  23  43  65 102 137 179 232 278 333 412
#     4  11  24  42  73  96 133 183 226 288 335 406
#     4  11  23  41  71  97 135 178 236 273 335 416
#     4  10  25  44  69 100 136 181 226 283 350 406
#     4  10  24  48  70  97 138 175 233 290 344 403
#     4  11  25  44  67  98 148 183 217 292 341 406
#
# _framework density 23.964217000000001
#
# number of rings (size 3 to 8) (size 9 to 14) (size 15 to 20)
#    0.000    1.250    2.500    1.125   10.500    1.500 
#    2.250    0.000    0.000    0.000    0.000    0.000 
#    0.000    0.000    0.000    0.000    0.000    0.000 
#
# Total GULP energy -198238.989515 kJ/mol
# GULP energy per Si atom -12389.936845 kJ/mol
# Density = 2.390967 g / cm^3
# Si number density = 23.964217 Si / 1000 Ang^3
#
#
#
# Elastic Constant Matrix: (Units=GPa)
#
#
# Indices 1 2 3 4 5 6 
#
# 1 87.8172 20.9252 38.0544 13.2550 -8.0156 -12.8053
# 2 20.9252 87.2360 26.4588 5.8050 -3.8550 -26.5602
# 3 38.0544 26.4588 143.4835 6.6039 -18.1807 -11.1184
# 4 13.2550 5.8050 6.6039 26.5674 -12.2256 -0.5691
# 5 -8.0156 -3.8550 -18.1807 -12.2256 33.8563 -6.9722
# 6 -12.8053 -26.5602 -11.1184 -0.5691 -6.9722 34.9630
#
#
#
# Elastic Compliance Matrix: (Units=1/GPa)
#
#
# Indices 1 2 3 4 5 6 
#
# 1 0.014392 -0.001076 -0.003055 -0.006035 0.000169 0.003418
# 2 -0.001076 0.015926 -0.001315 -0.001015 0.002927 0.011853
# 3 -0.003055 -0.001315 0.008670 0.001902 0.004805 0.001628
# 4 -0.006035 -0.001015 0.001902 0.048424 0.017348 0.001871
# 5 0.000169 0.002927 0.004805 0.017348 0.041294 0.012330
# 6 0.003418 0.011853 0.001628 0.001871 0.012330 0.041865
#
#
# Mechanical properties :
#
#
# Convention : Reuss Voigt Hill
#
# Bulk Modulus (GPa) = 35.59277 54.37929 44.98603
# Shear Modulus (GPa) = 26.20175 34.61722 30.40948
#
# Velocity S-wave (km/s) = 3.31020 3.80483 3.56610
# Velocity P-wave (km/s) = 5.43089 6.48409 5.98072
#
# Compressibility (1/GPa) = 0.02809559
#
# Stress axis : x y z
#
# Youngs Moduli (GPa) = 69.48260 62.79049 115.34633
#
# Poissons Ratio (x) = 0.06757 0.35233
# Poissons Ratio (y) = 0.07477 0.15172
# Poissons Ratio (z) = 0.21224 0.08259
#
# Static dielectric constant tensor:
#      x y z
#    x 4.234290 0.045630 0.138090 
#    y 0.045630 4.574190 0.146070 
#    z 0.138090 0.146070 4.517680 
# 
# 
# High freq. dielectric constant tensor:
#      x y z
#    x 1.936450 -0.014010 0.005060 
#    y -0.014010 1.956800 0.005420 
#    z 0.005060 0.005420 1.964900 
# 
# From -- ./inp_files/477372.got.cif
#   From: 2010.06.25/outbox.cif.g09.slc.cpg/sg2_239_cif.got.tgz:477372.got - 2010.06.27 13:26:56.
