data_PCOD8027130
_publ_section_title
;
Structure prediction by ZEFSAII (Michael W. Deem and Ramdas Pophale) SiO2 
 PCOD8027130
Probable space group: P -1
;
_chemical_formula_sum "Si O2"
_cell_formula_units_Z 14
_cell_length_a 11.847779
_cell_length_b 6.547994
_cell_length_c 17.577247
_cell_angle_alpha 137.906803
_cell_angle_beta 39.729591
_cell_angle_gamma 122.747471
_cell_volume 582.845568
_symmetry_space_group_name_H-M "P -1"
_symmetry_group_IT_number 2
_symmetry_cell_setting 'triclinic'
loop_
_space_group_symop_operation_xyz
x,y,z
-x,-y,-z
loop_
_atom_site_type_symbol
_atom_site_label
_atom_site_fract_x
_atom_site_fract_y
_atom_site_fract_z
Si Si1 0.172870 0.168068 0.052367
Si Si2 0.312038 0.867131 0.046735
Si Si3 0.753871 0.849067 0.544494
Si Si4 0.233224 0.794362 0.770986
Si Si5 0.500967 0.639744 0.414465
Si Si6 0.870433 0.164428 0.719069
Si Si7 0.455854 0.274444 0.747014
O O1 0.236338 0.501652 0.133187
O O2 0.965469 0.214570 0.153480
O O3 0.210590 0.963036 0.049325
O O4 0.267306 0.000248 0.885484
O O5 0.174656 0.976582 0.214726
O O6 0.346457 0.499249 0.924486
O O7 0.500000 0.000000 0.000000
O O8 0.663216 0.522402 0.505042
O O9 0.921722 0.793783 0.387292
O O10 0.806184 0.936959 0.626501
O O11 0.637488 0.137911 0.652077
O O12 0.324328 0.459629 0.652837
O O13 0.344841 0.976399 0.700861
O O14 0.512293 0.521645 0.288311
O O15 0.500000 0.000000 0.500000
#
# Coordination Sequence:
#
# PCOD8027130 Si02
#       7
#     2   2   2   2   2   2   2
#     4  11  24  43  69 105 144 182 228 295 360 413
#     4  12  25  42  75 108 135 185 242 291 357 415
#     4  10  26  47  68 103 144 187 236 285 362 423
#     4  10  24  44  68 105 143 181 234 289 356 421
#     4  11  25  44  74 102 139 189 237 292 351 424
#     4  11  25  46  71 102 144 188 229 298 352 425
#     4  11  23  43  71 103 141 182 236 296 343 426
#
# _framework density 24.020087
#
# number of rings (size 3 to 8) (size 9 to 14) (size 15 to 20)
#    0.000    1.143    2.857    1.714    6.000    5.143 
#    0.000    3.571    0.000    0.000    0.000    0.000 
#    0.000    0.000    0.000    0.000    0.000    0.000 
#
# Total GULP energy -173528.263185 kJ/mol
# GULP energy per Si atom -12394.875942 kJ/mol
# Density = 2.396542 g / cm^3
# Si number density = 24.020087 Si / 1000 Ang^3
#
#
#
# Elastic Constant Matrix: (Units=GPa)
#
#
# Indices 1 2 3 4 5 6 
#
# 1 102.1343 52.2221 31.5657 0.4302 -4.2777 -13.8955
# 2 52.2221 126.3139 42.9713 -0.3524 -7.5997 -9.6498
# 3 31.5657 42.9713 82.6839 -0.1627 -6.4410 -6.4448
# 4 0.4302 -0.3524 -0.1627 51.0156 -4.7909 7.5178
# 5 -4.2777 -7.5997 -6.4410 -4.7909 26.8083 6.5309
# 6 -13.8955 -9.6498 -6.4448 7.5178 6.5309 37.4010
#
#
#
# Elastic Compliance Matrix: (Units=1/GPa)
#
#
# Indices 1 2 3 4 5 6 
#
# 1 0.013300 -0.004393 -0.002571 -0.000761 -0.000766 0.003651
# 2 -0.004393 0.011208 -0.004011 0.000201 0.001483 0.000269
# 3 -0.002571 -0.004011 0.015344 0.000206 0.002117 0.000243
# 4 -0.000761 0.000201 0.000206 0.020854 0.004993 -0.005259
# 5 -0.000766 0.001483 0.002117 0.004993 0.040871 -0.007678
# 6 0.003651 0.000269 0.000243 -0.005259 -0.007678 0.030603
#
#
# Mechanical properties :
#
#
# Convention : Reuss Voigt Hill
#
# Bulk Modulus (GPa) = 55.85809 62.73892 59.29851
# Shear Modulus (GPa) = 31.23101 35.33652 33.28377
#
# Velocity S-wave (km/s) = 3.60975 3.83968 3.72649
# Velocity P-wave (km/s) = 6.37800 6.77005 6.57695
#
# Compressibility (1/GPa) = 0.01790251
#
# Stress axis : x y z
#
# Youngs Moduli (GPa) = 75.18947 89.22310 65.17065
#
# Poissons Ratio (x) = 0.39198 0.16754
# Poissons Ratio (y) = 0.33033 0.26138
# Poissons Ratio (z) = 0.19329 0.35785
#
# Static dielectric constant tensor:
#      x y z
#    x 4.387680 -0.154880 0.444350 
#    y -0.154880 4.346370 -0.131370 
#    z 0.444350 -0.131370 4.793790 
# 
# 
# High freq. dielectric constant tensor:
#      x y z
#    x 1.955020 -0.004160 0.024410 
#    y -0.004160 1.959240 0.002230 
#    z 0.024410 0.002230 1.976500 
# 
# From -- ./inp_files/90307.got.cif
#   From: 2010.06.25/outbox.cif.g09.slc.cpg/sg2_46_cif.got.tgz:90307.got - 2010.06.27 13:26:56.
