data_PCOD8027077
_publ_section_title
;
Structure prediction by ZEFSAII (Michael W. Deem and Ramdas Pophale) SiO2 
 PCOD8027077
Probable space group: P -1
;
_chemical_formula_sum "Si O2"
_cell_formula_units_Z 16
_cell_length_a 14.624445
_cell_length_b 8.360067
_cell_length_c 10.984298
_cell_angle_alpha 140.564745
_cell_angle_beta 118.357961
_cell_angle_gamma 85.566075
_cell_volume 642.132424
_symmetry_space_group_name_H-M "P -1"
_symmetry_group_IT_number 2
_symmetry_cell_setting 'triclinic'
loop_
_space_group_symop_operation_xyz
x,y,z
-x,-y,-z
loop_
_atom_site_type_symbol
_atom_site_label
_atom_site_fract_x
_atom_site_fract_y
_atom_site_fract_z
Si Si1 0.099341 0.518595 0.982634
Si Si2 0.691653 0.502075 0.764721
Si Si3 0.929915 0.756162 0.708351
Si Si4 0.277108 0.161811 0.387315
Si Si5 0.528101 0.941920 0.197281
Si Si6 0.051198 0.403607 0.619515
Si Si7 0.694917 0.022807 0.950335
Si Si8 0.480025 0.592000 0.196316
O O1 0.185031 0.444225 0.068820
O O2 0.164582 0.844573 0.162554
O O3 0.052468 0.313191 0.708770
O O4 0.000000 0.500000 0.000000
O O5 0.717676 0.823794 0.940500
O O6 0.582270 0.332050 0.691241
O O7 0.643533 0.269383 0.486006
O O8 0.786379 0.644678 0.558815
O O9 0.976723 0.850026 0.649858
O O10 0.946965 0.484882 0.591911
O O11 0.000000 0.000000 0.000000
O O12 0.346507 0.160484 0.309611
O O13 0.375515 0.277501 0.623777
O O14 0.460000 0.736375 0.150568
O O15 0.420055 0.953490 0.064206
O O16 0.579872 0.763556 0.053399
O O17 0.182113 0.669879 0.812629
#
# Coordination Sequence:
#
# PCOD8027077 Si02
#       8
#     2   2   2   2   2   2   2   2
#     4  11  25  44  71 101 141 186 233 293 345 413
#     4  12  25  43  67 102 141 180 232 287 349 410
#     4  11  21  41  75  95 131 178 242 286 346 410
#     4  11  22  41  71  94 133 187 227 285 356 412
#     4  11  23  42  68 100 136 179 235 283 350 416
#     4  10  24  44  67 101 133 187 238 283 348 428
#     4  11  23  41  67 100 142 181 225 293 348 419
#     4  11  23  43  70  98 134 184 226 286 352 421
#
# _framework density 24.916981
#
# number of rings (size 3 to 8) (size 9 to 14) (size 15 to 20)
#    0.000    1.000    5.000    3.000    3.500    1.500 
#    2.250    0.625    0.000    0.000    0.000    0.000 
#    0.000    0.000    0.000    0.000    0.000    0.000 
#
# Total GULP energy -198277.457075 kJ/mol
# GULP energy per Si atom -12392.341067 kJ/mol
# Density = 2.486027 g / cm^3
# Si number density = 24.916981 Si / 1000 Ang^3
#
#
#
# Elastic Constant Matrix: (Units=GPa)
#
#
# Indices 1 2 3 4 5 6 
#
# 1 95.9218 32.2180 34.6963 -15.2651 -3.2664 -16.7670
# 2 32.2180 92.8205 24.1433 -19.1391 10.9926 -26.0095
# 3 34.6963 24.1433 85.0427 -21.4888 -19.1505 -2.4336
# 4 -15.2651 -19.1391 -21.4888 36.8531 -5.6086 1.2503
# 5 -3.2664 10.9926 -19.1505 -5.6086 35.9773 -9.8261
# 6 -16.7670 -26.0095 -2.4336 1.2503 -9.8261 48.4692
#
#
#
# Elastic Compliance Matrix: (Units=1/GPa)
#
#
# Indices 1 2 3 4 5 6 
#
# 1 0.013658 -0.002451 -0.003996 0.002109 0.001114 0.003380
# 2 -0.002451 0.015640 -0.003071 0.004461 -0.004185 0.006427
# 3 -0.003996 -0.003071 0.019703 0.010165 0.012723 0.000276
# 4 0.002109 0.004461 0.010165 0.037833 0.011500 0.004989
# 5 0.001114 -0.004185 0.012723 0.011500 0.039514 0.006492
# 6 0.003380 0.006427 0.000276 0.004989 0.006492 0.026451
#
#
# Mechanical properties :
#
#
# Convention : Reuss Voigt Hill
#
# Bulk Modulus (GPa) = 33.37384 50.65558 42.01471
# Shear Modulus (GPa) = 27.49925 36.44174 31.97049
#
# Velocity S-wave (km/s) = 3.32570 3.82845 3.58590
# Velocity P-wave (km/s) = 5.30756 6.31796 5.83467
#
# Compressibility (1/GPa) = 0.02996359
#
# Stress axis : x y z
#
# Youngs Moduli (GPa) = 73.21528 63.94063 50.75481
#
# Poissons Ratio (x) = 0.15673 0.20281
# Poissons Ratio (y) = 0.17947 0.15588
# Poissons Ratio (z) = 0.29256 0.19638
#
# Static dielectric constant tensor:
#      x y z
#    x 4.512620 -0.137590 -0.464150 
#    y -0.137590 4.542530 -0.329920 
#    z -0.464150 -0.329920 4.616130 
# 
# 
# High freq. dielectric constant tensor:
#      x y z
#    x 1.990510 -0.021090 -0.016350 
#    y -0.021090 1.988890 -0.019030 
#    z -0.016350 -0.019030 1.989250 
# 
# From -- ./inp_files/448387.got.cif
#   From: 2010.06.25/outbox.cif.g09.slc.cpg/sg2_225_cif.got.tgz:448387.got - 2010.06.27 13:26:56.
