data_PCOD8027635
_publ_section_title
;
Structure prediction by ZEFSAII (Michael W. Deem and Ramdas Pophale) SiO2 
 PCOD8027635
Probable space group: P -1
;
_chemical_formula_sum "Si O2"
_cell_formula_units_Z 16
_cell_length_a 8.650492
_cell_length_b 13.967020
_cell_length_c 19.716193
_cell_angle_alpha 31.177772
_cell_angle_beta 141.606769
_cell_angle_gamma 145.993307
_cell_volume 666.489251
_symmetry_space_group_name_H-M "P -1"
_symmetry_group_IT_number 2
_symmetry_cell_setting 'triclinic'
loop_
_space_group_symop_operation_xyz
x,y,z
-x,-y,-z
loop_
_atom_site_type_symbol
_atom_site_label
_atom_site_fract_x
_atom_site_fract_y
_atom_site_fract_z
Si Si1 0.952981 0.773404 0.599581
Si Si2 0.193285 0.896124 0.146460
Si Si3 0.710924 0.001282 0.162280
Si Si4 0.241772 0.384330 0.073428
Si Si5 0.930992 0.741876 0.458783
Si Si6 0.429574 0.408362 0.698212
Si Si7 0.480430 0.785123 0.828666
Si Si8 0.720827 0.466486 0.291629
O O1 0.820079 0.700770 0.523031
O O2 0.754136 0.599316 0.691969
O O3 0.259363 0.784204 0.698771
O O4 0.000000 0.000000 0.500000
O O5 0.992385 0.641692 0.235066
O O6 0.435458 0.961407 0.133552
O O7 0.344525 0.982795 0.218450
O O8 0.000000 0.000000 0.000000
O O9 0.899975 0.245666 0.054996
O O10 0.945062 0.963900 0.308247
O O11 0.593326 0.826047 0.166716
O O12 0.300452 0.268429 0.101417
O O13 0.425445 0.398987 0.193548
O O14 0.316496 0.618901 0.934150
O O15 0.714438 0.566799 0.436329
O O16 0.229634 0.736565 0.559096
O O17 0.273600 0.429594 0.697409
#
# Coordination Sequence:
#
# PCOD8027635 Si02
#       8
#     2   2   2   2   2   2   2   2
#     4  12  25  43  72 106 145 188 235 295 354 421
#     4  12  26  47  72 101 140 193 231 293 360 426
#     4  10  26  45  74 103 142 184 238 295 355 416
#     4  11  25  47  72 105 143 185 237 300 343 428
#     4  10  24  46  68 105 142 190 230 296 348 425
#     4  10  26  43  69 108 142 187 238 289 357 421
#     4  11  26  45  71 104 142 187 237 288 365 413
#     4  12  24  45  73 104 148 186 240 291 358 416
#
# _framework density 24.006387
#
# number of rings (size 3 to 8) (size 9 to 14) (size 15 to 20)
#    0.750    0.250    2.500    3.000    7.000    3.000 
#    0.000    1.875    0.000    0.000    0.000    0.000 
#    0.000    0.000    0.000    0.000    0.000    0.000 
#
# Total GULP energy -198334.627776 kJ/mol
# GULP energy per Si atom -12395.914236 kJ/mol
# Density = 2.395175 g / cm^3
# Si number density = 24.006387 Si / 1000 Ang^3
#
#
#
# Elastic Constant Matrix: (Units=GPa)
#
#
# Indices 1 2 3 4 5 6 
#
# 1 129.9831 43.5932 8.7001 0.5998 0.6612 -1.8346
# 2 43.5932 108.3684 15.5807 -7.0228 -8.8162 12.1596
# 3 8.7001 15.5807 44.7664 4.1168 9.0752 -4.2195
# 4 0.5998 -7.0228 4.1168 33.1638 -1.0780 -6.2851
# 5 0.6612 -8.8162 9.0752 -1.0780 29.7113 -4.5034
# 6 -1.8346 12.1596 -4.2195 -6.2851 -4.5034 37.9219
#
#
#
# Elastic Compliance Matrix: (Units=1/GPa)
#
#
# Indices 1 2 3 4 5 6 
#
# 1 0.009047 -0.003960 0.000073 -0.000777 -0.001208 0.001443
# 2 -0.003960 0.012579 -0.005226 0.002835 0.004952 -0.003749
# 3 0.000073 -0.005226 0.026708 -0.004193 -0.009433 0.002836
# 4 -0.000777 0.002835 -0.004193 0.032252 0.003977 0.004405
# 5 -0.001208 0.004952 -0.009433 0.003977 0.038564 0.002543
# 6 0.001443 -0.003749 0.002836 0.004405 0.002543 0.028989
#
#
# Mechanical properties :
#
#
# Convention : Reuss Voigt Hill
#
# Bulk Modulus (GPa) = 33.21582 46.54065 39.87823
# Shear Modulus (GPa) = 28.34400 34.50900 31.42650
#
# Velocity S-wave (km/s) = 3.43984 3.79554 3.62206
# Velocity P-wave (km/s) = 5.44453 6.21587 5.84294
#
# Compressibility (1/GPa) = 0.03010614
#
# Stress axis : x y z
#
# Youngs Moduli (GPa) = 110.53737 79.49442 37.44162
#
# Poissons Ratio (x) = 0.31482 -0.00272
# Poissons Ratio (y) = 0.43775 0.19569
# Poissons Ratio (z) = -0.00802 0.41548
#
# Static dielectric constant tensor:
#      x y z
#    x 4.108200 -0.071390 0.025980 
#    y -0.071390 4.248420 -0.019860 
#    z 0.025980 -0.019860 4.249440 
# 
# 
# High freq. dielectric constant tensor:
#      x y z
#    x 1.950140 -0.008290 0.004580 
#    y -0.008290 1.952750 0.004290 
#    z 0.004580 0.004290 1.945100 
# 
# From -- ./inp_files/590459.got.cif
#   From: 2010.06.25/outbox.cif.g09.slc.cpg/sg2_296_cif.got.tgz:590459.got - 2010.06.27 13:26:56.
