data_PCOD8027612
_publ_section_title
;
Structure prediction by ZEFSAII (Michael W. Deem and Ramdas Pophale) SiO2 
 PCOD8027612
Probable space group: P -1
;
_chemical_formula_sum "Si O2"
_cell_formula_units_Z 16
_cell_length_a 13.187670
_cell_length_b 11.901629
_cell_length_c 9.176408
_cell_angle_alpha 130.844026
_cell_angle_beta 127.782731
_cell_angle_gamma 82.245377
_cell_volume 771.380078
_symmetry_space_group_name_H-M "P -1"
_symmetry_group_IT_number 2
_symmetry_cell_setting 'triclinic'
loop_
_space_group_symop_operation_xyz
x,y,z
-x,-y,-z
loop_
_atom_site_type_symbol
_atom_site_label
_atom_site_fract_x
_atom_site_fract_y
_atom_site_fract_z
Si Si1 0.651036 0.524167 0.089265
Si Si2 0.666423 0.767714 0.825684
Si Si3 0.144144 0.635903 0.820689
Si Si4 0.348034 0.532316 0.293024
Si Si5 0.867431 0.875982 0.604038
Si Si6 0.167578 0.963950 0.012856
Si Si7 0.119163 0.652104 0.153063
Si Si8 0.855301 0.009954 0.421072
O O1 0.714220 0.395994 0.082172
O O2 0.770600 0.689336 0.408124
O O3 0.500000 0.500000 0.000000
O O4 0.638091 0.530975 0.909290
O O5 0.497695 0.662898 0.602542
O O6 0.726031 0.632958 0.808138
O O7 0.709214 0.857412 0.781378
O O8 0.730388 0.927129 0.122534
O O9 0.000000 0.500000 0.500000
O O10 0.205969 0.810255 0.934192
O O11 0.097481 0.651934 0.959180
O O12 0.264484 0.642048 0.308278
O O13 0.878327 0.009349 0.845373
O O14 0.792066 0.904383 0.420960
O O15 0.029465 0.904746 0.734544
O O16 0.116449 0.805238 0.364233
O O17 0.000000 0.500000 0.000000
O O18 0.000000 0.000000 0.500000
#
# Coordination Sequence:
#
# PCOD8027612 Si02
#       8
#     2   2   2   2   2   2   2   2
#     4  11  23  44  68  95 135 181 218 272 346 398
#     4  11  23  42  69  92 133 174 220 272 342 394
#     4  11  24  45  66 103 135 168 226 282 324 398
#     4  10  24  46  65  95 134 174 226 277 329 411
#     4  11  22  39  65  95 132 169 228 269 333 396
#     4  11  23  40  66  99 131 172 218 284 329 399
#     4  11  26  43  69  97 134 177 224 275 335 393
#     4  12  23  41  67  98 130 174 219 276 333 393
#
# _framework density 20.742045000000001
#
# number of rings (size 3 to 8) (size 9 to 14) (size 15 to 20)
#    0.000    1.000    5.000    1.500    3.500    0.500 
#    9.000    1.875    0.000    0.000    0.000    0.000 
#    0.000    0.000    0.000    0.000    0.000    0.000 
#
# Total GULP energy -198243.790802 kJ/mol
# GULP energy per Si atom -12390.236925 kJ/mol
# Density = 2.069483 g / cm^3
# Si number density = 20.742045 Si / 1000 Ang^3
#
#
#
# Elastic Constant Matrix: (Units=GPa)
#
#
# Indices 1 2 3 4 5 6 
#
# 1 94.0498 49.0856 38.0943 11.9910 -1.5193 -14.0403
# 2 49.0856 146.4225 39.6884 20.3988 -2.3441 -4.5922
# 3 38.0943 39.6884 121.5015 11.2299 -2.5049 -12.1361
# 4 11.9910 20.3988 11.2299 41.0526 1.8518 -0.3597
# 5 -1.5193 -2.3441 -2.5049 1.8518 28.5166 7.5943
# 6 -14.0403 -4.5922 -12.1361 -0.3597 7.5943 31.8340
#
#
#
# Elastic Compliance Matrix: (Units=1/GPa)
#
#
# Indices 1 2 3 4 5 6 
#
# 1 0.014673 -0.003822 -0.002719 -0.001552 -0.001032 0.005112
# 2 -0.003822 0.008916 -0.001547 -0.002943 0.000915 -0.001241
# 3 -0.002719 -0.001547 0.009928 -0.001134 0.000051 0.002337
# 4 -0.001552 -0.002943 -0.001134 0.026666 -0.001949 -0.000775
# 5 -0.001032 0.000915 0.000051 -0.001949 0.037700 -0.009319
# 6 0.005112 -0.001241 0.002337 -0.000775 -0.009319 0.036594
#
#
# Mechanical properties :
#
#
# Convention : Reuss Voigt Hill
#
# Bulk Modulus (GPa) = 57.67020 68.41228 63.04124
# Shear Modulus (GPa) = 31.96239 35.95433 33.95836
#
# Velocity S-wave (km/s) = 3.92975 4.16793 4.05059
# Velocity P-wave (km/s) = 6.96092 7.49775 7.23432
#
# Compressibility (1/GPa) = 0.01733998
#
# Stress axis : x y z
#
# Youngs Moduli (GPa) = 68.15188 112.15988 100.72860
#
# Poissons Ratio (x) = 0.42866 0.27391
# Poissons Ratio (y) = 0.26047 0.15584
# Poissons Ratio (z) = 0.18532 0.17353
#
# Static dielectric constant tensor:
#      x y z
#    x 2.572410 0.728680 0.537920 
#    y 0.728680 3.577430 -0.548100 
#    z 0.537920 -0.548100 3.521270 
# 
# 
# High freq. dielectric constant tensor:
#      x y z
#    x 1.788570 0.001140 -0.007500 
#    y 0.001140 1.830300 -0.000690 
#    z -0.007500 -0.000690 1.823350 
# 
# From -- ./inp_files/263597.got.cif
#   From: 2010.06.25/outbox.cif.g09.slc.cpg/sg2_132_cif.got.tgz:263597.got - 2010.06.27 13:26:56.
