data_PCOD8027794
_publ_section_title
;
Structure prediction by ZEFSAII (Michael W. Deem and Ramdas Pophale) SiO2 
 PCOD8027794
Probable space group: P -1
;
_chemical_formula_sum "Si O2"
_cell_formula_units_Z 16
_cell_length_a 15.727108
_cell_length_b 11.744019
_cell_length_c 14.796700
_cell_angle_alpha 54.383120
_cell_angle_beta 151.794331
_cell_angle_gamma 142.139477
_cell_volume 729.681788
_symmetry_space_group_name_H-M "P -1"
_symmetry_group_IT_number 2
_symmetry_cell_setting 'triclinic'
loop_
_space_group_symop_operation_xyz
x,y,z
-x,-y,-z
loop_
_atom_site_type_symbol
_atom_site_label
_atom_site_fract_x
_atom_site_fract_y
_atom_site_fract_z
Si Si1 0.729390 0.131096 0.579799
Si Si2 0.096783 0.578719 0.153534
Si Si3 0.647489 0.999396 0.850851
Si Si4 0.538270 0.468684 0.450791
Si Si5 0.062886 0.050213 0.140054
Si Si6 0.203999 0.578272 0.884647
Si Si7 0.414529 0.950571 0.838137
Si Si8 0.709269 0.823800 0.339093
O O1 0.995305 0.348250 0.763992
O O2 0.500000 0.000000 0.500000
O O3 0.632647 0.163852 0.385855
O O4 0.808893 0.020962 0.671635
O O5 0.205980 0.796093 0.161309
O O6 0.315541 0.595822 0.383490
O O7 0.855525 0.417757 0.068278
O O8 0.000000 0.500000 0.000000
O O9 0.622806 0.017834 0.926198
O O10 0.806539 0.944866 0.007452
O O11 0.500000 0.500000 0.500000
O O12 0.261607 0.290419 0.226877
O O13 0.697522 0.675528 0.452929
O O14 0.000000 0.000000 0.000000
O O15 0.189910 0.704318 0.744875
O O16 0.506823 0.699340 0.121673
O O17 0.330260 0.061787 0.685531
O O18 0.500000 0.000000 0.000000
O O19 0.000000 0.000000 0.500000
#
# Coordination Sequence:
#
# PCOD8027794 Si02
#       8
#     2   2   2   2   2   2   2   2
#     4  12  23  45  71 106 143 186 236 293 350 425
#     4  12  22  40  67 101 137 181 235 296 359 419
#     4  12  24  43  71 104 143 188 236 290 356 422
#     4  12  24  39  67 106 139 175 236 298 354 423
#     4  12  24  42  72 108 148 185 234 296 360 429
#     4  11  23  45  68  94 139 189 232 285 357 420
#     4  10  24  47  68  96 142 186 234 296 355 417
#     4  11  24  42  67 101 136 182 233 290 357 417
#
# _framework density 21.927367
#
# number of rings (size 3 to 8) (size 9 to 14) (size 15 to 20)
#    0.000    0.500    3.750    6.000    0.000    3.500 
#    2.250    0.625    0.000    0.000    0.000    0.000 
#    0.000    0.000    0.000    0.000    0.000    0.000 
#
# Total GULP energy -198290.472860 kJ/mol
# GULP energy per Si atom -12393.154554 kJ/mol
# Density = 2.187746 g / cm^3
# Si number density = 21.927367 Si / 1000 Ang^3
#
#
#
# Elastic Constant Matrix: (Units=GPa)
#
#
# Indices 1 2 3 4 5 6 
#
# 1 138.0186 36.8015 57.7027 -0.7376 13.7434 -5.5175
# 2 36.8015 122.6416 46.3293 8.0021 10.7235 0.1346
# 3 57.7027 46.3293 137.1446 13.3841 6.5778 -5.0823
# 4 -0.7376 8.0021 13.3841 41.1254 -7.3553 1.5759
# 5 13.7434 10.7235 6.5778 -7.3553 39.2104 -2.6965
# 6 -5.5175 0.1346 -5.0823 1.5759 -2.6965 30.3729
#
#
#
# Elastic Compliance Matrix: (Units=1/GPa)
#
#
# Indices 1 2 3 4 5 6 
#
# 1 0.009290 -0.001395 -0.003421 0.001156 -0.002024 0.000882
# 2 -0.001395 0.009801 -0.002512 -0.001459 -0.002101 -0.000828
# 3 -0.003421 -0.002512 0.009916 -0.002888 -0.000238 0.001178
# 4 0.001156 -0.001459 -0.002888 0.026567 0.005382 -0.001167
# 5 -0.002024 -0.002101 -0.000238 0.005382 0.027961 0.001805
# 6 0.000882 -0.000828 0.001178 -0.001167 0.001805 0.033506
#
#
# Mechanical properties :
#
#
# Convention : Reuss Voigt Hill
#
# Bulk Modulus (GPa) = 69.67169 75.49689 72.58429
# Shear Modulus (GPa) = 36.63532 39.27317 37.95424
#
# Velocity S-wave (km/s) = 4.09192 4.23668 4.16493
# Velocity P-wave (km/s) = 7.35989 7.64446 7.50352
#
# Compressibility (1/GPa) = 0.01435303
#
# Stress axis : x y z
#
# Youngs Moduli (GPa) = 107.63789 102.03068 100.84617
#
# Poissons Ratio (x) = 0.14234 0.34496
# Poissons Ratio (y) = 0.15016 0.25328
# Poissons Ratio (z) = 0.36819 0.25625
#
# Static dielectric constant tensor:
#      x y z
#    x 3.916240 -0.192080 0.038780 
#    y -0.192080 6.034870 -0.514740 
#    z 0.038780 -0.514740 4.442890 
# 
# 
# High freq. dielectric constant tensor:
#      x y z
#    x 1.852110 -0.008980 0.001920 
#    y -0.008980 1.869570 0.002230 
#    z 0.001920 0.002230 1.866900 
# 
# From -- ./inp_files/532509.got.cif
#   From: 2010.06.25/outbox.cif.g09.slc.cpg/sg2_267_cif.got.tgz:532509.got - 2010.06.27 13:26:56.
