data_PCOD8027892
_publ_section_title
;
Structure prediction by ZEFSAII (Michael W. Deem and Ramdas Pophale) SiO2 
 PCOD8027892
Probable space group: P -1
;
_chemical_formula_sum "Si O2"
_cell_formula_units_Z 14
_cell_length_a 8.316977
_cell_length_b 16.790208
_cell_length_c 8.836047
_cell_angle_alpha 120.096120
_cell_angle_beta 146.548882
_cell_angle_gamma 72.906379
_cell_volume 568.070641
_symmetry_space_group_name_H-M "P -1"
_symmetry_group_IT_number 2
_symmetry_cell_setting 'triclinic'
loop_
_space_group_symop_operation_xyz
x,y,z
-x,-y,-z
loop_
_atom_site_type_symbol
_atom_site_label
_atom_site_fract_x
_atom_site_fract_y
_atom_site_fract_z
Si Si1 0.498177 0.459009 0.793856
Si Si2 0.634566 0.131337 0.666242
Si Si3 0.949673 0.097407 0.162988
Si Si4 0.222528 0.350475 0.975131
Si Si5 0.581251 0.933181 0.875651
Si Si6 0.028762 0.656638 0.908384
Si Si7 0.645760 0.230763 0.249440
O O1 0.634322 0.543140 0.864813
O O2 0.153544 0.406795 0.431168
O O3 0.500000 0.500000 0.000000
O O4 0.687015 0.381194 0.857397
O O5 0.299121 0.141680 0.447590
O O6 0.655700 0.091492 0.474620
O O7 0.861435 0.235446 0.958869
O O8 0.750936 0.069011 0.825386
O O9 0.809816 0.170825 0.214892
O O10 0.899633 0.995437 0.114857
O O11 0.440199 0.282246 0.037149
O O12 0.199354 0.351900 0.138812
O O13 0.895708 0.311085 0.607486
O O14 0.579350 0.834969 0.865460
O O15 0.500000 0.000000 0.000000
#
# Coordination Sequence:
#
# PCOD8027892 Si02
#       7
#     2   2   2   2   2   2   2
#     4  12  28  47  74 107 143 182 236 297 354 422
#     4  12  25  45  73 106 145 186 239 288 354 418
#     4  11  26  44  72 104 148 185 237 293 354 410
#     4  12  25  47  74 101 144 181 240 283 361 414
#     4  10  24  48  72 106 143 189 240 289 352 417
#     4  12  26  47  73 105 145 188 234 287 355 426
#     4  11  25  44  72 106 139 188 232 297 342 425
#
# _framework density 24.644825000000001
#
# number of rings (size 3 to 8) (size 9 to 14) (size 15 to 20)
#    0.000    0.571    1.429    5.571    8.000    1.143 
#    0.000    6.429    0.000    0.000    0.000    0.000 
#    0.000    0.000    0.000    0.000    0.000    0.000 
#
# Total GULP energy -173625.846206 kJ/mol
# GULP energy per Si atom -12401.846158 kJ/mol
# Density = 2.458873 g / cm^3
# Si number density = 24.644825 Si / 1000 Ang^3
#
#
#
# Elastic Constant Matrix: (Units=GPa)
#
#
# Indices 1 2 3 4 5 6 
#
# 1 113.3191 23.4518 47.2863 4.4075 -7.3828 4.5332
# 2 23.4518 51.9761 20.7587 7.4019 9.6844 6.7093
# 3 47.2863 20.7587 126.1577 12.3494 2.0487 10.3160
# 4 4.4075 7.4019 12.3494 43.9723 -5.6536 2.9622
# 5 -7.3828 9.6844 2.0487 -5.6536 39.3215 2.6539
# 6 4.5332 6.7093 10.3160 2.9622 2.6539 35.1314
#
#
#
# Elastic Compliance Matrix: (Units=1/GPa)
#
#
# Indices 1 2 3 4 5 6 
#
# 1 0.011519 -0.004553 -0.003747 0.001123 0.003633 0.000114
# 2 -0.004553 0.024139 -0.001547 -0.003903 -0.007098 -0.002703
# 3 -0.003747 -0.001547 0.009969 -0.002168 -0.001026 -0.001888
# 4 0.001123 -0.003903 -0.002168 0.024607 0.004905 -0.001208
# 5 0.003633 -0.007098 -0.001026 0.004905 0.028714 -0.001395
# 6 0.000114 -0.002703 -0.001888 -0.001208 -0.001395 0.029728
#
#
# Mechanical properties :
#
#
# Convention : Reuss Voigt Hill
#
# Bulk Modulus (GPa) = 38.55998 52.71629 45.63813
# Shear Modulus (GPa) = 31.84458 37.01544 34.43001
#
# Velocity S-wave (km/s) = 3.59854 3.87971 3.74177
# Velocity P-wave (km/s) = 5.73988 6.44255 6.10134
#
# Compressibility (1/GPa) = 0.02593362
#
# Stress axis : x y z
#
# Youngs Moduli (GPa) = 86.81589 41.42686 100.31320
#
# Poissons Ratio (x) = 0.18860 0.37583
# Poissons Ratio (y) = 0.39523 0.15521
# Poissons Ratio (z) = 0.32526 0.06410
#
# Static dielectric constant tensor:
#      x y z
#    x 4.824240 0.352940 -0.077550 
#    y 0.352940 4.728890 0.145330 
#    z -0.077550 0.145330 4.435150 
# 
# 
# High freq. dielectric constant tensor:
#      x y z
#    x 1.994190 0.005660 -0.004560 
#    y 0.005660 1.991920 0.013250 
#    z -0.004560 0.013250 1.986340 
# 
# From -- ./inp_files/46944.got.cif
#   From: 2010.06.25/outbox.cif.g09.slc.cpg/sg2_24_cif.got.tgz:46944.got - 2010.06.27 13:26:56.
