data_PCOD8027336
_publ_section_title
;
Structure prediction by ZEFSAII (Michael W. Deem and Ramdas Pophale) SiO2 
 PCOD8027336
Probable space group: P -1
;
_chemical_formula_sum "Si O2"
_cell_formula_units_Z 14
_cell_length_a 5.560875
_cell_length_b 7.448519
_cell_length_c 19.903364
_cell_angle_alpha 47.432986
_cell_angle_beta 98.769161
_cell_angle_gamma 111.745648
_cell_volume 558.118272
_symmetry_space_group_name_H-M "P -1"
_symmetry_group_IT_number 2
_symmetry_cell_setting 'triclinic'
loop_
_space_group_symop_operation_xyz
x,y,z
-x,-y,-z
loop_
_atom_site_type_symbol
_atom_site_label
_atom_site_fract_x
_atom_site_fract_y
_atom_site_fract_z
Si Si1 0.417795 0.600620 0.104837
Si Si2 0.533966 0.962140 0.900439
Si Si3 0.812302 0.604614 0.555221
Si Si4 0.893425 0.162254 0.200459
Si Si5 0.355702 0.779740 0.474537
Si Si6 0.362528 0.731040 0.718090
Si Si7 0.951618 0.269092 0.743758
O O1 0.521859 0.831186 0.105574
O O2 0.520059 0.374729 0.187476
O O3 0.104942 0.455483 0.123607
O O4 0.527016 0.713546 0.007512
O O5 0.820600 0.101785 0.846112
O O6 0.330807 0.871410 0.854608
O O7 0.630496 0.776245 0.519544
O O8 0.740092 0.470276 0.514094
O O9 0.761327 0.393891 0.667019
O O10 0.130226 0.765143 0.523664
O O11 0.814912 0.139582 0.281912
O O12 0.991208 0.921934 0.258362
O O13 0.413303 0.050261 0.369045
O O14 0.212947 0.501498 0.718652
#
# Coordination Sequence:
#
# PCOD8027336 Si02
#       7
#     2   2   2   2   2   2   2
#     4  11  25  46  74 108 146 193 249 306 375 451
#     4  11  25  46  74 108 146 193 249 306 375 451
#     4  10  24  44  75 108 148 197 251 310 379 450
#     4  12  25  46  74 104 146 202 236 310 375 444
#     4  10  24  44  75 108 148 197 251 310 379 450
#     4  12  27  46  73 106 149 192 249 309 373 451
#     4  12  27  46  73 106 149 192 249 309 373 451
#
# _framework density 25.084292000000001
#
# number of rings (size 3 to 8) (size 9 to 14) (size 15 to 20)
#    0.000    0.857    2.857    3.000   10.000    5.143 
#    0.000    0.000    0.000    0.000    0.000    0.000 
#    0.000    0.000    0.000    0.000    0.000    0.000 
#
# Total GULP energy -173579.004003 kJ/mol
# GULP energy per Si atom -12398.500286 kJ/mol
# Density = 2.502720 g / cm^3
# Si number density = 25.084292 Si / 1000 Ang^3
#
#
#
# Elastic Constant Matrix: (Units=GPa)
#
#
# Indices 1 2 3 4 5 6 
#
# 1 114.1907 4.0189 48.8654 -11.2809 -6.2927 15.3174
# 2 4.0189 87.6998 15.3683 -5.7375 -5.7096 3.8103
# 3 48.8654 15.3683 136.7320 -18.4883 0.5009 6.7096
# 4 -11.2809 -5.7375 -18.4883 27.2284 3.3085 -4.5044
# 5 -6.2927 -5.7096 0.5009 3.3085 45.5979 0.8595
# 6 15.3174 3.8103 6.7096 -4.5044 0.8595 16.9454
#
#
#
# Elastic Compliance Matrix: (Units=1/GPa)
#
#
# Indices 1 2 3 4 5 6 
#
# 1 0.011736 0.000684 -0.003729 0.000728 0.001867 -0.009187
# 2 0.000684 0.011892 -0.001286 0.001312 0.001550 -0.002513
# 3 -0.003729 -0.001286 0.009396 0.004921 -0.001161 0.001306
# 4 0.000728 0.001312 0.004921 0.042425 -0.003028 0.008529
# 5 0.001867 0.001550 -0.001161 -0.003028 0.022682 -0.003532
# 6 -0.009187 -0.002513 0.001306 0.008529 -0.003532 0.069812
#
#
# Mechanical properties :
#
#
# Convention : Reuss Voigt Hill
#
# Bulk Modulus (GPa) = 41.04578 52.79196 46.91887
# Shear Modulus (GPa) = 27.06715 35.97900 31.52308
#
# Velocity S-wave (km/s) = 3.28845 3.79136 3.54882
# Velocity P-wave (km/s) = 5.55132 6.34487 5.96132
#
# Compressibility (1/GPa) = 0.02436304
#
# Stress axis : x y z
#
# Youngs Moduli (GPa) = 85.20857 84.08679 106.42511
#
# Poissons Ratio (x) = -0.05751 0.39682
# Poissons Ratio (y) = -0.05827 0.13687
# Poissons Ratio (z) = 0.31771 0.10814
#
# Static dielectric constant tensor:
#      x y z
#    x 4.625730 0.169970 -0.043940 
#    y 0.169970 4.480060 -0.018300 
#    z -0.043940 -0.018300 4.540650 
# 
# 
# High freq. dielectric constant tensor:
#      x y z
#    x 1.988060 0.005480 -0.005360 
#    y 0.005480 2.014910 -0.002560 
#    z -0.005360 -0.002560 2.004040 
# 
# From -- ./inp_files/98477.got.cif
#   From: 2010.06.25/outbox.cif.g09.slc.cpg/sg2_50_cif.got.tgz:98477.got - 2010.06.27 13:26:56.
