data_PCOD8027040
_publ_section_title
;
Structure prediction by ZEFSAII (Michael W. Deem and Ramdas Pophale) SiO2 
 PCOD8027040
Probable space group: P -1
;
_chemical_formula_sum "Si O2"
_cell_formula_units_Z 14
_cell_length_a 11.221613
_cell_length_b 8.924157
_cell_length_c 6.737539
_cell_angle_alpha 90.471341
_cell_angle_beta 102.721450
_cell_angle_gamma 91.908115
_cell_volume 657.708674
_symmetry_space_group_name_H-M "P -1"
_symmetry_group_IT_number 2
_symmetry_cell_setting 'triclinic'
loop_
_space_group_symop_operation_xyz
x,y,z
-x,-y,-z
loop_
_atom_site_type_symbol
_atom_site_label
_atom_site_fract_x
_atom_site_fract_y
_atom_site_fract_z
Si Si1 0.475527 0.748259 0.476300
Si Si2 0.558005 0.006657 0.235069
Si Si3 0.884080 0.456754 0.332496
Si Si4 0.995783 0.171184 0.290530
Si Si5 0.692535 0.531839 0.577031
Si Si6 0.858474 0.666392 0.981783
Si Si7 0.826950 0.896870 0.298047
O O1 0.476705 0.882044 0.320721
O O2 0.597702 0.658151 0.499825
O O3 0.364366 0.631261 0.389080
O O4 0.461864 0.826002 0.687067
O O5 0.702119 0.976937 0.303893
O O6 0.500000 0.000000 0.000000
O O7 0.764454 0.513890 0.397210
O O8 0.000000 0.500000 0.500000
O O9 0.885952 0.276246 0.320659
O O10 0.909297 0.529412 0.126285
O O11 0.039356 0.232260 0.092962
O O12 0.113711 0.175514 0.482927
O O13 0.933203 0.007322 0.248100
O O14 0.767907 0.588337 0.792694
O O15 0.793185 0.773116 0.117739
#
# Coordination Sequence:
#
# PCOD8027040 Si02
#       7
#     2   2   2   2   2   2   2
#     4  10  24  44  65  95 125 169 211 265 317 368
#     4  11  23  44  67  93 125 167 217 263 319 371
#     4  12  23  41  62  94 130 165 205 264 318 372
#     4  11  24  41  62  95 132 171 208 258 322 383
#     4  11  24  42  67  93 130 165 213 263 317 378
#     4  12  22  40  65  94 128 169 211 255 318 385
#     4  11  24  42  64  92 131 167 213 266 313 381
#
# _framework density 21.286019
#
# number of rings (size 3 to 8) (size 9 to 14) (size 15 to 20)
#    0.000    0.857    2.857    4.286    0.000    3.429 
#    0.000    3.571    0.000    0.000    0.000    0.000 
#    0.000    0.000    0.000    0.000    0.000    0.000 
#
# Total GULP energy -173560.127363 kJ/mol
# GULP energy per Si atom -12397.151955 kJ/mol
# Density = 2.123757 g / cm^3
# Si number density = 21.286019 Si / 1000 Ang^3
#
#
#
# Elastic Constant Matrix: (Units=GPa)
#
#
# Indices 1 2 3 4 5 6 
#
# 1 100.1138 33.3743 40.4126 -2.4888 -11.2885 -11.2891
# 2 33.3743 108.9758 42.5684 2.0242 2.0955 -10.3556
# 3 40.4126 42.5684 123.4699 -2.7480 -1.7496 4.7903
# 4 -2.4888 2.0242 -2.7480 36.4565 -0.5976 -7.7592
# 5 -11.2885 2.0955 -1.7496 -0.5976 16.6201 10.3686
# 6 -11.2891 -10.3556 4.7903 -7.7592 10.3686 32.8778
#
#
#
# Elastic Compliance Matrix: (Units=1/GPa)
#
#
# Indices 1 2 3 4 5 6 
#
# 1 0.013434 -0.002774 -0.003378 0.001387 0.007873 0.002075
# 2 -0.002774 0.012113 -0.003594 -0.000042 -0.007342 0.005692
# 3 -0.003378 -0.003594 0.010647 -0.000162 0.002110 -0.004547
# 4 0.001387 -0.000042 -0.000162 0.029254 -0.003272 0.008423
# 5 0.007873 -0.007342 0.002110 -0.003272 0.083380 -0.026984
# 6 0.002075 0.005692 -0.004547 0.008423 -0.026984 0.044081
#
#
# Mechanical properties :
#
#
# Convention : Reuss Voigt Hill
#
# Bulk Modulus (GPa) = 59.88138 62.80781 61.34460
# Shear Modulus (GPa) = 22.93916 31.60449 27.27183
#
# Velocity S-wave (km/s) = 3.28634 3.85743 3.58328
# Velocity P-wave (km/s) = 6.52632 7.02925 6.78245
#
# Compressibility (1/GPa) = 0.01669968
#
# Stress axis : x y z
#
# Youngs Moduli (GPa) = 74.44041 82.55830 93.92612
#
# Poissons Ratio (x) = 0.22904 0.31733
# Poissons Ratio (y) = 0.20652 0.33755
# Poissons Ratio (z) = 0.25150 0.29670
#
# Static dielectric constant tensor:
#      x y z
#    x 3.480760 0.262210 0.008090 
#    y 0.262210 3.867410 -0.033800 
#    z 0.008090 -0.033800 3.646580 
# 
# 
# High freq. dielectric constant tensor:
#      x y z
#    x 1.829890 -0.002190 -0.010110 
#    y -0.002190 1.861090 0.001580 
#    z -0.010110 0.001580 1.834640 
# 
# From -- ./inp_files/26794.got.cif
#   From: 2010.06.25/outbox.cif.g09.slc.cpg/sg2_14_cif.got.tgz:26794.got - 2010.06.27 13:26:56.
