data_PCOD8027964
_publ_section_title
;
Structure prediction by ZEFSAII (Michael W. Deem and Ramdas Pophale) SiO2 
 PCOD8027964
Probable space group: P -1
;
_chemical_formula_sum "Si O2"
_cell_formula_units_Z 12
_cell_length_a 14.819524
_cell_length_b 11.673600
_cell_length_c 9.339789
_cell_angle_alpha 129.270096
_cell_angle_beta 146.526587
_cell_angle_gamma 30.076941
_cell_volume 422.919669
_symmetry_space_group_name_H-M "P -1"
_symmetry_group_IT_number 2
_symmetry_cell_setting 'triclinic'
loop_
_space_group_symop_operation_xyz
x,y,z
-x,-y,-z
loop_
_atom_site_type_symbol
_atom_site_label
_atom_site_fract_x
_atom_site_fract_y
_atom_site_fract_z
Si Si1 0.230706 0.286422 0.457481
Si Si2 0.075974 0.164066 0.949818
Si Si3 0.297129 0.821630 0.502629
Si Si4 0.306307 0.440687 0.423921
Si Si5 0.382893 0.211610 0.910670
Si Si6 0.747036 0.264431 0.225703
O O1 0.342714 0.329972 0.531991
O O2 0.422492 0.143338 0.739191
O O3 0.931266 0.545566 0.298736
O O4 0.754671 0.886952 0.735261
O O5 0.255150 0.913884 0.904460
O O6 0.790351 0.289920 0.719185
O O7 0.977294 0.377370 0.893274
O O8 0.437453 0.775114 0.505506
O O9 0.479220 0.733017 0.812805
O O10 0.020351 0.113427 0.383348
O O11 0.269220 0.645474 0.570330
O O12 0.500000 0.000000 0.000000
O O13 0.500000 0.500000 0.000000
#
# Coordination Sequence:
#
# PCOD8027964 Si02
#       6
#     2   2   2   2   2   2
#     4  11  26  49  87 126 169 222 283 346 427 510
#     4  10  24  50  82 124 171 218 279 353 418 500
#     4  10  25  48  88 116 171 220 280 350 420 494
#     4  12  23  49  84 128 163 222 282 351 420 505
#     4  11  25  51  81 124 174 226 276 347 429 512
#     4  10  26  49  78 123 167 223 285 340 421 503
#
# _framework density 28.374184
#
# number of rings (size 3 to 8) (size 9 to 14) (size 15 to 20)
#    1.000    0.333    1.667    2.500    0.000    3.333 
#    9.000    1.667    3.667    1.000    0.000    0.000 
#    0.000    0.000    0.000    0.000    0.000    0.000 
#
# Total GULP energy -148672.679690 kJ/mol
# GULP energy per Si atom -12389.389974 kJ/mol
# Density = 2.830960 g / cm^3
# Si number density = 28.374184 Si / 1000 Ang^3
#
#
#
# Elastic Constant Matrix: (Units=GPa)
#
#
# Indices 1 2 3 4 5 6 
#
# 1 112.4430 51.4438 91.4482 20.3570 -23.0125 -4.5845
# 2 51.4438 146.4857 63.8530 18.4497 -11.8250 -21.7282
# 3 91.4482 63.8530 188.6034 12.5167 -14.9986 -0.4993
# 4 20.3570 18.4497 12.5167 68.6964 8.4392 -5.7167
# 5 -23.0125 -11.8250 -14.9986 8.4392 45.1473 5.5429
# 6 -4.5845 -21.7282 -0.4993 -5.7167 5.5429 50.4911
#
#
#
# Elastic Compliance Matrix: (Units=1/GPa)
#
#
# Indices 1 2 3 4 5 6 
#
# 1 0.017837 -0.002162 -0.007068 -0.004339 0.007068 -0.000648
# 2 -0.002162 0.009136 -0.001918 -0.001225 0.000449 0.003528
# 3 -0.007068 -0.001918 0.009226 0.000966 -0.001080 -0.001148
# 4 -0.004339 -0.001225 0.000966 0.016811 -0.005551 0.001601
# 5 0.007068 0.000449 -0.001080 -0.005551 0.026887 -0.002756
# 6 -0.000648 0.003528 -0.001148 0.001601 -0.002756 0.021737
#
#
# Mechanical properties :
#
#
# Convention : Reuss Voigt Hill
#
# Bulk Modulus (GPa) = 71.93579 95.66913 83.80246
# Shear Modulus (GPa) = 38.89089 48.91945 43.90517
#
# Velocity S-wave (km/s) = 3.70624 4.15671 3.93792
# Velocity P-wave (km/s) = 6.61230 7.53842 7.09050
#
# Compressibility (1/GPa) = 0.01390129
#
# Stress axis : x y z
#
# Youngs Moduli (GPa) = 56.06423 109.45691 108.39239
#
# Poissons Ratio (x) = 0.23665 0.76614
# Poissons Ratio (y) = 0.12121 0.20794
# Poissons Ratio (z) = 0.39627 0.20998
#
# Static dielectric constant tensor:
#      x y z
#    x 5.444630 -0.227310 -0.318990 
#    y -0.227310 5.645120 0.530470 
#    z -0.318990 0.530470 6.110520 
# 
# 
# High freq. dielectric constant tensor:
#      x y z
#    x 2.128800 -0.009340 0.008720 
#    y -0.009340 2.170610 -0.000870 
#    z 0.008720 -0.000870 2.178570 
# 
# From -- ./inp_files/315686.got.cif
#   From: 2010.06.25/outbox.cif.g09.slc.cpg/sg2_158_cif.got.tgz:315686.got - 2010.06.27 13:26:56.
