data_PCOD8027630
_publ_section_title
;
Structure prediction by ZEFSAII (Michael W. Deem and Ramdas Pophale) SiO2 
 PCOD8027630
Probable space group: P -1
;
_chemical_formula_sum "Si O2"
_cell_formula_units_Z 16
_cell_length_a 6.320750
_cell_length_b 12.014020
_cell_length_c 21.756921
_cell_angle_alpha 149.797028
_cell_angle_beta 57.636941
_cell_angle_gamma 115.663193
_cell_volume 700.350253
_symmetry_space_group_name_H-M "P -1"
_symmetry_group_IT_number 2
_symmetry_cell_setting 'triclinic'
loop_
_space_group_symop_operation_xyz
x,y,z
-x,-y,-z
loop_
_atom_site_type_symbol
_atom_site_label
_atom_site_fract_x
_atom_site_fract_y
_atom_site_fract_z
Si Si1 0.281515 0.154930 0.078674
Si Si2 0.198842 0.348645 0.006219
Si Si3 0.079899 0.526668 0.570312
Si Si4 0.460455 0.311480 0.829080
Si Si5 0.240593 0.907983 0.844185
Si Si6 0.461975 0.516349 0.355165
Si Si7 0.498493 0.195751 0.398329
Si Si8 0.348878 0.497808 0.811240
O O1 0.398395 0.385385 0.157953
O O2 0.030043 0.186238 0.175220
O O3 0.500000 0.000000 0.000000
O O4 0.197668 0.056814 0.981756
O O5 0.242038 0.406347 0.955396
O O6 0.325979 0.094611 0.872010
O O7 0.310543 0.531759 0.120719
O O8 0.904335 0.344413 0.065975
O O9 0.246198 0.310144 0.463125
O O10 0.256203 0.740125 0.651142
O O11 0.000000 0.500000 0.500000
O O12 0.813979 0.538803 0.653721
O O13 0.355662 0.311755 0.775166
O O14 0.546715 0.060666 0.712927
O O15 0.439218 0.701112 0.725425
O O16 0.455252 0.721890 0.500365
O O17 0.632845 0.578623 0.299697
#
# Coordination Sequence:
#
# PCOD8027630 Si02
#       8
#     2   2   2   2   2   2   2   2
#     4  11  20  37  63  97 132 172 208 279 337 381
#     4  11  25  44  65  98 131 179 228 272 334 396
#     4   9  22  44  69 101 128 168 226 277 335 387
#     4  11  27  45  65  90 138 186 222 270 325 408
#     4  11  22  37  66 101 130 162 223 277 336 389
#     4  11  25  39  72 106 133 170 221 286 336 395
#     4  10  24  46  68 100 134 177 222 273 338 391
#     4  12  24  43  66 100 138 175 225 268 337 408
#
# _framework density 22.84571
#
# number of rings (size 3 to 8) (size 9 to 14) (size 15 to 20)
#    0.000    1.250    3.750    1.125    7.000    3.500 
#    2.250    1.250    0.000    0.000    0.000    0.000 
#    0.000    0.000    0.000    0.000    0.000    0.000 
#
# Total GULP energy -198243.110951 kJ/mol
# GULP energy per Si atom -12390.194434 kJ/mol
# Density = 2.279371 g / cm^3
# Si number density = 22.845710 Si / 1000 Ang^3
#
#
#
# Elastic Constant Matrix: (Units=GPa)
#
#
# Indices 1 2 3 4 5 6 
#
# 1 114.8202 52.4528 29.5162 3.4587 -16.5043 5.6240
# 2 52.4528 127.9629 37.9085 -6.2906 -13.3215 -3.9413
# 3 29.5162 37.9085 71.4490 18.9865 -4.0166 5.4269
# 4 3.4587 -6.2906 18.9865 40.7933 0.9280 -4.2179
# 5 -16.5043 -13.3215 -4.0166 0.9280 40.3976 -1.6017
# 6 5.6240 -3.9413 5.4269 -4.2179 -1.6017 44.8264
#
#
#
# Elastic Compliance Matrix: (Units=1/GPa)
#
#
# Indices 1 2 3 4 5 6 
#
# 1 0.011598 -0.003829 -0.002270 -0.000743 0.003208 -0.001472
# 2 -0.003829 0.011727 -0.006154 0.005250 0.001682 0.002811
# 3 -0.002270 -0.006154 0.021408 -0.011109 -0.000728 -0.003919
# 4 -0.000743 0.005250 -0.011109 0.031059 -0.000199 0.004815
# 5 0.003208 0.001682 -0.000728 -0.000199 0.026582 0.000765
# 6 -0.001472 0.002811 -0.003919 0.004815 0.000765 0.023695
#
#
# Mechanical properties :
#
#
# Convention : Reuss Voigt Hill
#
# Bulk Modulus (GPa) = 49.44146 61.55412 55.49779
# Shear Modulus (GPa) = 31.78281 38.16046 34.97163
#
# Velocity S-wave (km/s) = 3.73392 4.09143 3.91676
# Velocity P-wave (km/s) = 6.34649 7.02294 6.69327
#
# Compressibility (1/GPa) = 0.02022594
#
# Stress axis : x y z
#
# Youngs Moduli (GPa) = 86.22317 85.27082 46.71212
#
# Poissons Ratio (x) = 0.32654 0.10603
# Poissons Ratio (y) = 0.33018 0.28748
# Poissons Ratio (z) = 0.19571 0.52477
#
# Static dielectric constant tensor:
#      x y z
#    x 4.277150 0.132240 0.148270 
#    y 0.132240 4.575300 -0.117840 
#    z 0.148270 -0.117840 3.936080 
# 
# 
# High freq. dielectric constant tensor:
#      x y z
#    x 1.910230 -0.005190 0.013170 
#    y -0.005190 1.914940 -0.017990 
#    z 0.013170 -0.017990 1.890500 
# 
# From -- ./inp_files/604473.got.cif
#   From: 2010.06.25/outbox.cif.g09.slc.cpg/sg2_303_cif.got.tgz:604473.got - 2010.06.27 13:26:56.
