data_PCOD8027529
_publ_section_title
;
Structure prediction by ZEFSAII (Michael W. Deem and Ramdas Pophale) SiO2 
 PCOD8027529
Probable space group: P -1
;
_chemical_formula_sum "Si O2"
_cell_formula_units_Z 16
_cell_length_a 14.677901
_cell_length_b 12.115495
_cell_length_c 9.513907
_cell_angle_alpha 141.241844
_cell_angle_beta 76.026521
_cell_angle_gamma 128.817046
_cell_volume 711.290408
_symmetry_space_group_name_H-M "P -1"
_symmetry_group_IT_number 2
_symmetry_cell_setting 'triclinic'
loop_
_space_group_symop_operation_xyz
x,y,z
-x,-y,-z
loop_
_atom_site_type_symbol
_atom_site_label
_atom_site_fract_x
_atom_site_fract_y
_atom_site_fract_z
Si Si1 0.034329 0.975017 0.114852
Si Si2 0.503532 0.558580 0.395356
Si Si3 0.162718 0.821844 0.482637
Si Si4 0.244476 0.023768 0.955583
Si Si5 0.365333 0.384452 0.858753
Si Si6 0.115206 0.402693 0.704396
Si Si7 0.806463 0.525860 0.947446
Si Si8 0.379039 0.954086 0.051376
O O1 0.097811 0.213282 0.422006
O O2 0.141299 0.962168 0.047105
O O3 0.000000 0.000000 0.000000
O O4 0.898762 0.714397 0.972522
O O5 0.500000 0.500000 0.500000
O O6 0.606577 0.581978 0.286160
O O7 0.556397 0.830517 0.639676
O O8 0.350031 0.319902 0.158014
O O9 0.229229 0.728386 0.314266
O O10 0.004848 0.618126 0.295323
O O11 0.167783 0.842635 0.669804
O O12 0.239226 0.087760 0.645725
O O13 0.324871 0.977491 0.955894
O O14 0.500000 0.500000 0.000000
O O15 0.329348 0.537411 0.064792
O O16 0.112637 0.335677 0.799889
O O17 0.260261 0.685503 0.902482
O O18 0.500000 0.000000 0.000000
#
# Coordination Sequence:
#
# PCOD8027529 Si02
#       8
#     2   2   2   2   2   2   2   2
#     4  12  25  46  75 107 146 194 244 305 374 433
#     4  10  24  45  70  99 144 188 240 299 366 424
#     4  12  26  49  75 112 149 194 252 302 377 438
#     4  11  24  45  74 108 146 191 247 313 364 436
#     4  12  26  48  72 107 148 195 247 300 367 443
#     4  12  26  47  74 110 150 189 253 304 371 446
#     4  12  29  45  77 108 153 200 241 310 372 437
#     4  11  26  43  72 109 144 192 245 303 366 441
#
# _framework density 22.494329
#
# number of rings (size 3 to 8) (size 9 to 14) (size 15 to 20)
#    0.000    0.500    3.750    3.000    8.750    2.500 
#    0.000    0.000    0.000    0.000    0.000    0.000 
#    0.000    0.000    0.000    0.000    0.000    0.000 
#
# Total GULP energy -198440.622764 kJ/mol
# GULP energy per Si atom -12402.538923 kJ/mol
# Density = 2.244313 g / cm^3
# Si number density = 22.494329 Si / 1000 Ang^3
#
#
#
# Elastic Constant Matrix: (Units=GPa)
#
#
# Indices 1 2 3 4 5 6 
#
# 1 163.2907 38.9882 42.5236 -12.0883 -17.2695 18.9458
# 2 38.9882 109.2864 21.7862 -15.0329 -2.5059 12.0235
# 3 42.5236 21.7862 104.0149 -14.6205 -16.7562 3.9829
# 4 -12.0883 -15.0329 -14.6205 40.5373 5.3935 1.6686
# 5 -17.2695 -2.5059 -16.7562 5.3935 43.7799 -10.2405
# 6 18.9458 12.0235 3.9829 1.6686 -10.2405 41.7857
#
#
#
# Elastic Compliance Matrix: (Units=1/GPa)
#
#
# Indices 1 2 3 4 5 6 
#
# 1 0.007652 -0.001880 -0.002328 0.000660 0.001378 -0.002395
# 2 -0.001880 0.010770 -0.001176 0.003333 -0.001608 -0.002662
# 3 -0.002328 -0.001176 0.011686 0.002590 0.003404 0.001011
# 4 0.000660 0.003333 0.002590 0.027531 -0.002714 -0.003270
# 5 0.001378 -0.001608 0.003404 -0.002714 0.026353 0.006080
# 6 -0.002395 -0.002662 0.001011 -0.003270 0.006080 0.027308
#
#
# Mechanical properties :
#
#
# Convention : Reuss Voigt Hill
#
# Bulk Modulus (GPa) = 51.70671 64.79865 58.25268
# Shear Modulus (GPa) = 38.90672 43.44018 41.17345
#
# Velocity S-wave (km/s) = 4.16339 4.39927 4.28295
# Velocity P-wave (km/s) = 6.79324 7.39418 7.10007
#
# Compressibility (1/GPa) = 0.01933985
#
# Stress axis : x y z
#
# Youngs Moduli (GPa) = 130.69150 92.85310 85.57418
#
# Poissons Ratio (x) = 0.17454 0.19921
# Poissons Ratio (y) = 0.24566 0.10063
# Poissons Ratio (z) = 0.30424 0.10919
#
# Static dielectric constant tensor:
#      x y z
#    x 4.135780 0.189140 -0.072710 
#    y 0.189140 4.333700 -0.002010 
#    z -0.072710 -0.002010 4.536020 
# 
# 
# High freq. dielectric constant tensor:
#      x y z
#    x 1.886190 0.008310 -0.003160 
#    y 0.008310 1.901060 -0.008860 
#    z -0.003160 -0.008860 1.895690 
# 
# From -- ./inp_files/308751.got.cif
#   From: 2010.06.25/outbox.cif.g09.slc.cpg/sg2_155_cif.got.tgz:308751.got - 2010.06.27 13:26:56.
