data_PCOD8027280
_publ_section_title
;
Structure prediction by ZEFSAII (Michael W. Deem and Ramdas Pophale) SiO2 
 PCOD8027280
Probable space group: P -1
;
_chemical_formula_sum "Si O2"
_cell_formula_units_Z 14
_cell_length_a 6.799889
_cell_length_b 11.599595
_cell_length_c 15.239215
_cell_angle_alpha 45.434747
_cell_angle_beta 53.704990
_cell_angle_gamma 84.492560
_cell_volume 573.587890
_symmetry_space_group_name_H-M "P -1"
_symmetry_group_IT_number 2
_symmetry_cell_setting 'triclinic'
loop_
_space_group_symop_operation_xyz
x,y,z
-x,-y,-z
loop_
_atom_site_type_symbol
_atom_site_label
_atom_site_fract_x
_atom_site_fract_y
_atom_site_fract_z
Si Si1 0.803667 0.558441 0.292021
Si Si2 0.660455 0.848192 0.181475
Si Si3 0.783624 0.419851 0.681090
Si Si4 0.303140 0.849227 0.875080
Si Si5 0.153509 0.714152 0.805735
Si Si6 0.370023 0.273747 0.436298
Si Si7 0.101191 0.091622 0.326386
O O1 0.041852 0.583580 0.282171
O O2 0.623879 0.647881 0.330601
O O3 0.558142 0.336118 0.444850
O O4 0.000788 0.680280 0.090398
O O5 0.485160 0.797155 0.162143
O O6 0.548239 0.936987 0.234125
O O7 0.000000 0.000000 0.000000
O O8 0.656656 0.546202 0.675359
O O9 0.000000 0.500000 0.500000
O O10 0.223699 0.862592 0.788233
O O11 0.549494 0.799466 0.836596
O O12 0.460983 0.767214 0.659065
O O13 0.972284 0.746444 0.761968
O O14 0.000000 0.500000 0.000000
O O15 0.049484 0.074633 0.621977
O O16 0.000000 0.000000 0.500000
#
# Coordination Sequence:
#
# PCOD8027280 Si02
#       7
#     2   2   2   2   2   2   2
#     4  10  24  44  72 100 142 189 237 293 354 430
#     4   9  22  43  66 101 135 178 234 288 354 415
#     4  11  25  44  69 102 139 185 239 294 355 421
#     4  11  24  43  73 102 143 189 235 296 356 429
#     4  12  27  47  74 104 146 192 238 290 363 428
#     4  11  25  45  71 103 144 183 234 295 358 423
#     4  12  28  44  70 108 144 187 241 296 352 420
#
# _framework density 24.407765999999999
#
# number of rings (size 3 to 8) (size 9 to 14) (size 15 to 20)
#    0.000    1.143    2.857    1.286    4.000    8.571 
#    0.000    0.000    0.000    0.000    0.000    0.000 
#    0.000    0.000    0.000    0.000    0.000    0.000 
#
# Total GULP energy -173457.466758 kJ/mol
# GULP energy per Si atom -12389.819054 kJ/mol
# Density = 2.435221 g / cm^3
# Si number density = 24.407766 Si / 1000 Ang^3
#
#
#
# Elastic Constant Matrix: (Units=GPa)
#
#
# Indices 1 2 3 4 5 6 
#
# 1 169.3216 50.3619 19.3467 -0.6419 1.8133 11.8673
# 2 50.3619 129.1493 3.8964 -4.5535 5.8566 7.1387
# 3 19.3467 3.8964 30.8976 -9.7372 1.2254 2.6201
# 4 -0.6419 -4.5535 -9.7372 37.8893 5.9942 -16.8704
# 5 1.8133 5.8566 1.2254 5.9942 39.5810 -5.4626
# 6 11.8673 7.1387 2.6201 -16.8704 -5.4626 52.8757
#
#
#
# Elastic Compliance Matrix: (Units=1/GPa)
#
#
# Indices 1 2 3 4 5 6 
#
# 1 0.007384 -0.002731 -0.004862 -0.002279 0.000321 -0.001741
# 2 -0.002731 0.008911 0.001113 0.001387 -0.001487 -0.000356
# 3 -0.004862 0.001113 0.038790 0.011503 -0.002550 0.002426
# 4 -0.002279 0.001387 0.011503 0.034791 -0.004289 0.010411
# 5 0.000321 -0.001487 -0.002550 -0.004289 0.026422 0.001616
# 6 -0.001741 -0.000356 0.002426 0.010411 0.001616 0.022720
#
#
# Mechanical properties :
#
#
# Convention : Reuss Voigt Hill
#
# Bulk Modulus (GPa) = 23.74005 52.95317 38.34661
# Shear Modulus (GPa) = 30.11701 43.12010 36.61856
#
# Velocity S-wave (km/s) = 3.51652 4.20772 3.87755
# Velocity P-wave (km/s) = 5.12205 6.73416 5.98265
#
# Compressibility (1/GPa) = 0.04212291
#
# Stress axis : x y z
#
# Youngs Moduli (GPa) = 135.43100 112.22708 25.77995
#
# Poissons Ratio (x) = 0.30653 0.12535
# Poissons Ratio (y) = 0.36990 -0.02869
# Poissons Ratio (z) = 0.65850 -0.12490
#
# Static dielectric constant tensor:
#      x y z
#    x 4.467640 -0.024740 -0.533300 
#    y -0.024740 5.486970 -0.325750 
#    z -0.533300 -0.325750 4.074880 
# 
# 
# High freq. dielectric constant tensor:
#      x y z
#    x 1.983790 0.004870 -0.026630 
#    y 0.004870 1.988870 -0.003210 
#    z -0.026630 -0.003210 1.947620 
# 
# From -- ./inp_files/28268.got.cif
#   From: 2010.06.25/outbox.cif.g09.slc.cpg/sg2_15_cif.got.tgz:28268.got - 2010.06.27 13:26:56.
