data_PCOD8028165
_publ_section_title
;
Structure prediction by ZEFSAII (Michael W. Deem and Ramdas Pophale) SiO2 
 PCOD8028165
Probable space group: P -1
;
_chemical_formula_sum "Si O2"
_cell_formula_units_Z 16
_cell_length_a 11.876424
_cell_length_b 8.739774
_cell_length_c 12.362462
_cell_angle_alpha 126.657033
_cell_angle_beta 128.461960
_cell_angle_gamma 85.684858
_cell_volume 710.874820
_symmetry_space_group_name_H-M "P -1"
_symmetry_group_IT_number 2
_symmetry_cell_setting 'triclinic'
loop_
_space_group_symop_operation_xyz
x,y,z
-x,-y,-z
loop_
_atom_site_type_symbol
_atom_site_label
_atom_site_fract_x
_atom_site_fract_y
_atom_site_fract_z
Si Si1 0.362457 0.981685 0.246883
Si Si2 0.987414 0.240082 0.487898
Si Si3 0.004599 0.774603 0.894658
Si Si4 0.475423 0.364537 0.321248
Si Si5 0.184919 0.494132 0.526870
Si Si6 0.008076 0.179785 0.715650
Si Si7 0.669525 0.024141 0.541315
Si Si8 0.786133 0.523435 0.850967
O O1 0.351080 0.093633 0.402947
O O2 0.411930 0.125259 0.229136
O O3 0.502790 0.908620 0.321646
O O4 0.180996 0.792623 0.033858
O O5 0.152456 0.388426 0.581935
O O6 0.033387 0.294546 0.664031
O O7 0.842345 0.295460 0.396384
O O8 0.917066 0.985699 0.312365
O O9 0.953207 0.690941 0.707770
O O10 0.874315 0.594028 0.818386
O O11 0.000000 0.000000 0.000000
O O12 0.500000 0.500000 0.500000
O O13 0.634473 0.436759 0.374680
O O14 0.344585 0.388041 0.177382
O O15 0.815866 0.029512 0.562269
O O16 0.084476 0.366709 0.929316
O O17 0.702158 0.265861 0.696093
#
# Coordination Sequence:
#
# PCOD8028165 Si02
#       8
#     2   2   2   2   2   2   2   2
#     4  11  23  36  58 106 131 164 191 260 357 374
#     4  10  25  44  68  86 123 189 221 254 300 378
#     4  12  21  36  68 102 131 157 211 269 329 384
#     4  12  22  40  65 100 133 161 202 272 343 376
#     4  11  24  44  69  93 130 169 223 258 312 391
#     4  11  23  43  66  91 127 174 225 257 310 383
#     4  11  24  38  63  98 140 161 203 272 339 380
#     4  12  23  38  66 102 129 165 207 274 332 381
#
# _framework density 22.507480000000001
#
# number of rings (size 3 to 8) (size 9 to 14) (size 15 to 20)
#    0.000    0.750    5.000    2.625    3.500    0.000 
#    0.000    1.250   11.000    0.000    0.000    0.000 
#    0.000    0.000    0.000    0.000    0.000    0.000 
#
# Total GULP energy -198349.936476 kJ/mol
# GULP energy per Si atom -12396.871030 kJ/mol
# Density = 2.245625 g / cm^3
# Si number density = 22.507480 Si / 1000 Ang^3
#
#
#
# Elastic Constant Matrix: (Units=GPa)
#
#
# Indices 1 2 3 4 5 6 
#
# 1 140.1987 20.6766 29.8810 -12.0874 21.1394 19.3767
# 2 20.6766 61.7484 -1.0232 -13.0281 -0.1280 8.3362
# 3 29.8810 -1.0232 63.6865 -12.7956 19.7767 -6.6877
# 4 -12.0874 -13.0281 -12.7956 25.6055 -2.6049 -2.9302
# 5 21.1394 -0.1280 19.7767 -2.6049 42.5047 -4.7581
# 6 19.3767 8.3362 -6.6877 -2.9302 -4.7581 33.2011
#
#
#
# Elastic Compliance Matrix: (Units=1/GPa)
#
#
# Indices 1 2 3 4 5 6 
#
# 1 0.009849 -0.002456 -0.004155 0.000207 -0.003685 -0.006478
# 2 -0.002456 0.019473 0.003258 0.010180 0.000178 -0.001875
# 3 -0.004155 0.003258 0.022797 0.011063 -0.007164 0.006148
# 4 0.000207 0.010180 0.011063 0.050110 -0.001732 0.003726
# 5 -0.003685 0.000178 -0.007164 -0.001732 0.029112 0.004682
# 6 -0.006478 -0.001875 0.006148 0.003726 0.004682 0.036610
#
#
# Mechanical properties :
#
#
# Convention : Reuss Voigt Hill
#
# Bulk Modulus (GPa) = 22.02002 40.52248 31.27125
# Shear Modulus (GPa) = 26.34434 34.66887 30.50660
#
# Velocity S-wave (km/s) = 3.42493 3.92896 3.68557
# Velocity P-wave (km/s) = 5.04429 6.21493 5.65995
#
# Compressibility (1/GPa) = 0.04541322
#
# Stress axis : x y z
#
# Youngs Moduli (GPa) = 101.52846 51.35411 43.86548
#
# Poissons Ratio (x) = 0.12614 0.18226
# Poissons Ratio (y) = 0.24938 -0.14293
# Poissons Ratio (z) = 0.42185 -0.16733
#
# Static dielectric constant tensor:
#      x y z
#    x 4.246300 0.048570 0.211690 
#    y 0.048570 5.018670 -0.350600 
#    z 0.211690 -0.350600 3.868640 
# 
# 
# High freq. dielectric constant tensor:
#      x y z
#    x 1.889010 0.011970 0.017800 
#    y 0.011970 1.905950 -0.013390 
#    z 0.017800 -0.013390 1.854770 
# 
# From -- ./inp_files/270155.got.cif
#   From: 2010.06.25/outbox.cif.g09.slc.cpg/sg2_136_cif.got.tgz:270155.got - 2010.06.27 13:26:56.
