data_PCOD8028405
_publ_section_title
;
Structure prediction by ZEFSAII (Michael W. Deem and Ramdas Pophale) SiO2 
 PCOD8028405
Probable space group: P -1
;
_chemical_formula_sum "Si O2"
_cell_formula_units_Z 14
_cell_length_a 9.190665
_cell_length_b 22.691981
_cell_length_c 10.291330
_cell_angle_alpha 153.823356
_cell_angle_beta 43.802179
_cell_angle_gamma 136.134377
_cell_volume 636.221008
_symmetry_space_group_name_H-M "P -1"
_symmetry_group_IT_number 2
_symmetry_cell_setting 'triclinic'
loop_
_space_group_symop_operation_xyz
x,y,z
-x,-y,-z
loop_
_atom_site_type_symbol
_atom_site_label
_atom_site_fract_x
_atom_site_fract_y
_atom_site_fract_z
Si Si1 0.373571 0.117914 0.805854
Si Si2 0.448175 0.149755 0.318446
Si Si3 0.373063 0.575467 0.130842
Si Si4 0.617623 0.229675 0.093718
Si Si5 0.541926 0.599636 0.794317
Si Si6 0.074375 0.489792 0.577455
Si Si7 0.036465 0.948231 0.517016
O O1 0.500000 0.000000 0.500000
O O2 0.135607 0.066879 0.794553
O O3 0.386865 0.171519 0.053234
O O4 0.506544 0.251156 0.903771
O O5 0.543294 0.256787 0.584256
O O6 0.566566 0.232478 0.283064
O O7 0.192090 0.135051 0.444492
O O8 0.500000 0.000000 0.000000
O O9 0.118806 0.526663 0.228421
O O10 0.500000 0.500000 0.000000
O O11 0.405421 0.531398 0.874306
O O12 0.731727 0.377472 0.255406
O O13 0.790752 0.140797 0.782655
O O14 0.500000 0.500000 0.500000
O O15 0.801216 0.631989 0.725837
O O16 0.000000 0.500000 0.500000
O O17 0.000000 0.000000 0.500000
#
# Coordination Sequence:
#
# PCOD8028405 Si02
#       7
#     2   2   2   2   2   2   2
#     4  10  25  46  68  99 147 187 228 294 359 418
#     4  12  25  40  70 108 136 180 245 294 348 424
#     4  12  26  45  74 107 144 188 239 297 357 424
#     4  11  23  46  66 101 144 180 234 300 348 422
#     4  12  26  48  73 104 146 187 240 302 356 421
#     4  12  24  44  75 104 140 188 239 292 360 425
#     4  11  23  41  69  95 136 185 237 286 354 413
#
# _framework density 22.004933000000001
#
# number of rings (size 3 to 8) (size 9 to 14) (size 15 to 20)
#    0.000    0.571    5.714    1.714    6.000    1.143 
#    0.000    1.429    0.000    0.000    0.000    0.000 
#    0.000    0.000    0.000    0.000    0.000    0.000 
#
# Total GULP energy -173444.506841 kJ/mol
# GULP energy per Si atom -12388.893346 kJ/mol
# Density = 2.195485 g / cm^3
# Si number density = 22.004933 Si / 1000 Ang^3
#
#
#
# Elastic Constant Matrix: (Units=GPa)
#
#
# Indices 1 2 3 4 5 6 
#
# 1 123.0274 44.5251 49.5281 -4.9190 10.8281 3.3844
# 2 44.5251 136.1204 57.8813 -14.2178 -1.3035 9.1509
# 3 49.5281 57.8813 98.6123 -2.5397 11.6611 -3.8759
# 4 -4.9190 -14.2178 -2.5397 49.6940 -0.5181 -5.5267
# 5 10.8281 -1.3035 11.6611 -0.5181 43.7235 6.6851
# 6 3.3844 9.1509 -3.8759 -5.5267 6.6851 43.0376
#
#
#
# Elastic Compliance Matrix: (Units=1/GPa)
#
#
# Indices 1 2 3 4 5 6 
#
# 1 0.010558 -0.001609 -0.004204 0.000287 -0.001446 -0.000605
# 2 -0.001609 0.010867 -0.005949 0.002358 0.002772 -0.002848
# 3 -0.004204 -0.005949 0.016340 -0.000928 -0.004052 0.003577
# 4 0.000287 0.002358 -0.000928 0.021010 0.000180 0.002063
# 5 -0.001446 0.002772 -0.004052 0.000180 0.025116 -0.004719
# 6 -0.000605 -0.002848 0.003577 0.002063 -0.004719 0.025209
#
#
# Mechanical properties :
#
#
# Convention : Reuss Voigt Hill
#
# Bulk Modulus (GPa) = 70.22163 73.51435 71.86799
# Shear Modulus (GPa) = 36.39772 41.01273 38.70522
#
# Velocity S-wave (km/s) = 4.07144 4.32185 4.19851
# Velocity P-wave (km/s) = 7.35413 7.64102 7.49895
#
# Compressibility (1/GPa) = 0.01424063
#
# Stress axis : x y z
#
# Youngs Moduli (GPa) = 94.71099 92.02333 61.19981
#
# Poissons Ratio (x) = 0.14809 0.25728
# Poissons Ratio (y) = 0.15241 0.36409
# Poissons Ratio (z) = 0.39815 0.54746
#
# Static dielectric constant tensor:
#      x y z
#    x 4.407170 0.206360 0.096970 
#    y 0.206360 4.014230 -0.019520 
#    z 0.096970 -0.019520 4.676620 
# 
# 
# High freq. dielectric constant tensor:
#      x y z
#    x 1.880020 -0.009300 0.002660 
#    y -0.009300 1.855190 0.013850 
#    z 0.002660 0.013850 1.874380 
# 
# From -- ./inp_files/224321.got.cif
#   From: 2010.06.25/outbox.cif.g09.slc.cpg/sg2_113_cif.got.tgz:224321.got - 2010.06.27 13:26:56.
