data_PCOD8028242
_publ_section_title
;
Structure prediction by ZEFSAII (Michael W. Deem and Ramdas Pophale) SiO2 
 PCOD8028242
Probable space group: P -1
;
_chemical_formula_sum "Si O2"
_cell_formula_units_Z 14
_cell_length_a 8.427005
_cell_length_b 11.295712
_cell_length_c 8.192132
_cell_angle_alpha 135.915580
_cell_angle_beta 82.834811
_cell_angle_gamma 100.246727
_cell_volume 533.863180
_symmetry_space_group_name_H-M "P -1"
_symmetry_group_IT_number 2
_symmetry_cell_setting 'triclinic'
loop_
_space_group_symop_operation_xyz
x,y,z
-x,-y,-z
loop_
_atom_site_type_symbol
_atom_site_label
_atom_site_fract_x
_atom_site_fract_y
_atom_site_fract_z
Si Si1 0.488071 0.426228 0.107131
Si Si2 0.244136 0.205320 0.111969
Si Si3 0.229739 0.692876 0.897895
Si Si4 0.930861 0.681044 0.465003
Si Si5 0.468381 0.736688 0.630834
Si Si6 0.255174 0.900674 0.598730
Si Si7 0.165948 0.014711 0.401115
O O1 0.311345 0.330012 0.077301
O O2 0.624684 0.301716 0.984156
O O3 0.530449 0.566265 0.383932
O O4 0.500000 0.500000 0.000000
O O5 0.101798 0.285725 0.304832
O O6 0.392198 0.170651 0.179267
O O7 0.178100 0.026498 0.859218
O O8 0.105487 0.520065 0.771226
O O9 0.299322 0.694274 0.707188
O O10 0.152056 0.866209 0.116729
O O11 0.808419 0.796672 0.499610
O O12 0.116658 0.735961 0.443911
O O13 0.426156 0.853063 0.597682
O O14 0.294145 0.986941 0.500695
O O15 0.000000 0.000000 0.500000
#
# Coordination Sequence:
#
# PCOD8028242 Si02
#       7
#     2   2   2   2   2   2   2
#     4  11  23  42  70 104 136 177 236 290 347 412
#     4  11  22  43  68  98 142 184 230 289 341 414
#     4  11  22  45  73  96 138 192 227 287 351 402
#     4  11  23  46  71 100 143 185 233 284 348 420
#     4  11  22  45  67 102 139 181 240 277 346 419
#     4  11  25  40  65 106 137 184 233 286 347 407
#     4  10  25  45  65 102 144 182 233 282 347 410
#
# _framework density 26.223946999999999
#
# number of rings (size 3 to 8) (size 9 to 14) (size 15 to 20)
#    0.000    1.143    2.857    3.429    2.000    5.143 
#    5.143    4.286    0.000    0.000    0.000    0.000 
#    0.000    0.000    0.000    0.000    0.000    0.000 
#
# Total GULP energy -173570.051734 kJ/mol
# GULP energy per Si atom -12397.860838 kJ/mol
# Density = 2.616426 g / cm^3
# Si number density = 26.223947 Si / 1000 Ang^3
#
#
#
# Elastic Constant Matrix: (Units=GPa)
#
#
# Indices 1 2 3 4 5 6 
#
# 1 19.2246 11.8650 9.6648 0.0586 -4.6772 1.7140
# 2 11.8650 113.3274 7.7086 -10.9485 8.4212 -1.5098
# 3 9.6648 7.7086 107.8812 6.5245 -1.2627 -0.0581
# 4 0.0586 -10.9485 6.5245 40.0733 2.6512 -0.3288
# 5 -4.6772 8.4212 -1.2627 2.6512 34.2815 0.8313
# 6 1.7140 -1.5098 -0.0581 -0.3288 0.8313 40.1815
#
#
#
# Elastic Compliance Matrix: (Units=1/GPa)
#
#
# Indices 1 2 3 4 5 6 
#
# 1 0.061570 -0.007110 -0.004772 -0.001956 0.010198 -0.003127
# 2 -0.007110 0.010178 -0.000321 0.003097 -0.003741 0.000788
# 3 -0.004772 -0.000321 0.009820 -0.001672 -0.000086 0.000194
# 4 -0.001956 0.003097 -0.001672 0.026287 -0.003134 0.000477
# 5 0.010198 -0.003741 -0.000086 -0.003134 0.031750 -0.001258
# 6 -0.003127 0.000788 0.000194 0.000477 -0.001258 0.025080
#
#
# Mechanical properties :
#
#
# Convention : Reuss Voigt Hill
#
# Bulk Modulus (GPa) = 17.49408 33.21222 25.35315
# Shear Modulus (GPa) = 24.02169 36.98692 30.50430
#
# Velocity S-wave (km/s) = 3.02987 3.75964 3.41431
# Velocity P-wave (km/s) = 4.35036 5.61594 5.02317
#
# Compressibility (1/GPa) = 0.05716220
#
# Stress axis : x y z
#
# Youngs Moduli (GPa) = 16.24170 98.25201 101.83165
#
# Poissons Ratio (x) = 0.69857 0.48593
# Poissons Ratio (y) = 0.11548 0.03268
# Poissons Ratio (z) = 0.07750 0.03154
#
# Static dielectric constant tensor:
#      x y z
#    x 4.469610 -0.408360 0.026870 
#    y -0.408360 5.845790 -0.324780 
#    z 0.026870 -0.324780 4.705290 
# 
# 
# High freq. dielectric constant tensor:
#      x y z
#    x 2.031890 -0.001500 -0.006070 
#    y -0.001500 2.062310 -0.005670 
#    z -0.006070 -0.005670 2.045980 
# 
# From -- ./inp_files/191071.got.cif
#   From: 2010.06.25/outbox.cif.g09.slc.cpg/sg2_96_cif.got.tgz:191071.got - 2010.06.27 13:26:56.
