data_PCOD8028234
_publ_section_title
;
Structure prediction by ZEFSAII (Michael W. Deem and Ramdas Pophale) SiO2 
 PCOD8028234
Probable space group: P -1
;
_chemical_formula_sum "Si O2"
_cell_formula_units_Z 16
_cell_length_a 11.074760
_cell_length_b 8.836710
_cell_length_c 17.164128
_cell_angle_alpha 128.162061
_cell_angle_beta 147.465646
_cell_angle_gamma 49.259015
_cell_volume 674.960083
_symmetry_space_group_name_H-M "P -1"
_symmetry_group_IT_number 2
_symmetry_cell_setting 'triclinic'
loop_
_space_group_symop_operation_xyz
x,y,z
-x,-y,-z
loop_
_atom_site_type_symbol
_atom_site_label
_atom_site_fract_x
_atom_site_fract_y
_atom_site_fract_z
Si Si1 0.312940 0.628912 0.281195
Si Si2 0.145511 0.063001 0.306263
Si Si3 0.023518 0.106171 0.466096
Si Si4 0.451913 0.990734 0.297414
Si Si5 0.886939 0.613639 0.794279
Si Si6 0.676671 0.133701 0.144106
Si Si7 0.170069 0.475378 0.443014
Si Si8 0.355629 0.592325 0.114243
O O1 0.128439 0.560146 0.209906
O O2 0.576255 0.491219 0.399350
O O3 0.252071 0.621227 0.154664
O O4 0.293148 0.860577 0.368041
O O5 0.163428 0.271552 0.421136
O O6 0.868604 0.072781 0.158733
O O7 0.257983 0.054254 0.280342
O O8 0.284647 0.002396 0.538631
O O9 0.824665 0.089850 0.291641
O O10 0.010247 0.336149 0.551977
O O11 0.000000 0.000000 0.500000
O O12 0.475472 0.763815 0.210307
O O13 0.322072 0.178779 0.229350
O O14 0.881572 0.531717 0.678331
O O15 0.143750 0.634228 0.951493
O O16 0.538958 0.369931 0.133982
O O17 0.500000 0.000000 0.000000
#
# Coordination Sequence:
#
# PCOD8028234 Si02
#       8
#     2   2   2   2   2   2   2   2
#     4  11  22  42  71 104 147 183 247 292 353 423
#     4  10  25  44  75 107 141 185 242 298 351 421
#     4  12  28  48  74 107 149 188 239 301 360 432
#     4  10  25  48  74 109 145 190 242 294 362 422
#     4  11  24  43  71 106 152 190 235 295 362 427
#     4  12  28  48  75 107 144 190 243 297 363 426
#     4  11  24  44  67 107 140 190 238 292 359 427
#     4  11  24  46  69 108 143 192 241 298 353 427
#
# _framework density 23.705107000000002
#
# number of rings (size 3 to 8) (size 9 to 14) (size 15 to 20)
#    0.000    1.000    1.250    3.750   10.500    2.000 
#    4.500    3.125    0.000    0.000    0.000    0.000 
#    0.000    0.000    0.000    0.000    0.000    0.000 
#
# Total GULP energy -198301.391652 kJ/mol
# GULP energy per Si atom -12393.836978 kJ/mol
# Density = 2.365115 g / cm^3
# Si number density = 23.705107 Si / 1000 Ang^3
#
#
#
# Elastic Constant Matrix: (Units=GPa)
#
#
# Indices 1 2 3 4 5 6 
#
# 1 96.2653 36.9132 24.5035 2.6163 18.2266 -8.2457
# 2 36.9132 134.9465 30.2809 -4.0474 -1.6447 -4.9405
# 3 24.5035 30.2809 107.5488 -15.1491 15.8558 -4.3714
# 4 2.6163 -4.0474 -15.1491 37.7536 -0.6354 9.3719
# 5 18.2266 -1.6447 15.8558 -0.6354 35.4912 -5.2400
# 6 -8.2457 -4.9405 -4.3714 9.3719 -5.2400 35.3945
#
#
#
# Elastic Compliance Matrix: (Units=1/GPa)
#
#
# Indices 1 2 3 4 5 6 
#
# 1 0.013506 -0.003433 -0.001472 -0.002557 -0.006151 0.002252
# 2 -0.003433 0.008898 -0.002140 0.000240 0.003223 0.000591
# 3 -0.001472 -0.002140 0.011527 0.004704 -0.004577 -0.001141
# 4 -0.002557 0.000240 0.004704 0.030615 -0.001455 -0.008303
# 5 -0.006151 0.003223 -0.004577 -0.001455 0.034076 0.003882
# 6 0.002252 0.000591 -0.001141 -0.008303 0.003882 0.031492
#
#
# Mechanical properties :
#
#
# Convention : Reuss Voigt Hill
#
# Bulk Modulus (GPa) = 50.40516 58.01731 54.21124
# Shear Modulus (GPa) = 33.15215 38.19874 35.67545
#
# Velocity S-wave (km/s) = 3.74374 4.01860 3.88360
# Velocity P-wave (km/s) = 6.32432 6.78674 6.55961
#
# Compressibility (1/GPa) = 0.01983924
#
# Stress axis : x y z
#
# Youngs Moduli (GPa) = 74.03989 112.38595 86.75093
#
# Poissons Ratio (x) = 0.38586 0.12774
# Poissons Ratio (y) = 0.25420 0.18568
# Poissons Ratio (z) = 0.10902 0.24054
#
# Static dielectric constant tensor:
#      x y z
#    x 4.213970 -0.001610 0.151990 
#    y -0.001610 4.904820 0.126230 
#    z 0.151990 0.126230 4.076060 
# 
# 
# High freq. dielectric constant tensor:
#      x y z
#    x 1.931370 0.000050 0.013130 
#    y 0.000050 1.968020 0.001330 
#    z 0.013130 0.001330 1.928730 
# 
# From -- ./inp_files/566997.got.cif
#   From: 2010.06.25/outbox.cif.g09.slc.cpg/sg2_284_cif.got.tgz:566997.got - 2010.06.27 13:26:56.
