data_PCOD8028008
_publ_section_title
;
Structure prediction by ZEFSAII (Michael W. Deem and Ramdas Pophale) SiO2 
 PCOD8028008
Probable space group: P -1
;
_chemical_formula_sum "Si O2"
_cell_formula_units_Z 14
_cell_length_a 17.658151
_cell_length_b 8.742902
_cell_length_c 9.280747
_cell_angle_alpha 56.708898
_cell_angle_beta 130.042408
_cell_angle_gamma 82.814667
_cell_volume 609.278810
_symmetry_space_group_name_H-M "P -1"
_symmetry_group_IT_number 2
_symmetry_cell_setting 'triclinic'
loop_
_space_group_symop_operation_xyz
x,y,z
-x,-y,-z
loop_
_atom_site_type_symbol
_atom_site_label
_atom_site_fract_x
_atom_site_fract_y
_atom_site_fract_z
Si Si1 0.374917 0.785162 0.333467
Si Si2 0.077912 0.868147 0.506669
Si Si3 0.591081 0.041849 0.269115
Si Si4 0.520087 0.740685 0.287582
Si Si5 0.905844 0.776874 0.827455
Si Si6 0.411251 0.303108 0.183509
Si Si7 0.058412 0.249050 0.791341
O O1 0.379913 0.915230 0.134567
O O2 0.369420 0.581968 0.380360
O O3 0.524169 0.611128 0.698605
O O4 0.234834 0.029004 0.130907
O O5 0.977344 0.887200 0.266824
O O6 0.101805 0.029033 0.376152
O O7 0.235329 0.541482 0.878617
O O8 0.000000 0.000000 0.500000
O O9 0.615849 0.789586 0.410079
O O10 0.739905 0.928401 0.570212
O O11 0.448042 0.278073 0.072948
O O12 0.546770 0.186341 0.988950
O O13 0.988336 0.692947 0.127014
O O14 0.000000 0.500000 0.000000
O O15 0.500000 0.000000 0.500000
O O16 0.000000 0.500000 0.500000
#
# Coordination Sequence:
#
# PCOD8028008 Si02
#       7
#     2   2   2   2   2   2   2
#     4  11  24  44  74 105 148 186 252 299 375 439
#     4  12  31  50  78 112 157 202 254 315 390 453
#     4  11  25  46  73 107 144 188 256 303 376 434
#     4  10  25  41  73 107 141 187 241 320 359 441
#     4  12  29  49  75 107 157 204 256 313 384 455
#     4  12  25  47  78 107 148 196 251 308 371 453
#     4  12  28  48  74 111 153 200 249 311 386 454
#
# _framework density 22.977985
#
# number of rings (size 3 to 8) (size 9 to 14) (size 15 to 20)
#    0.000    0.571    2.857    3.000   14.000    2.286 
#    0.000    0.000    0.000    0.000    0.000    0.000 
#    0.000    0.000    0.000    0.000    0.000    0.000 
#
# Total GULP energy -173556.828934 kJ/mol
# GULP energy per Si atom -12396.916352 kJ/mol
# Density = 2.292569 g / cm^3
# Si number density = 22.977985 Si / 1000 Ang^3
#
#
#
# Elastic Constant Matrix: (Units=GPa)
#
#
# Indices 1 2 3 4 5 6 
#
# 1 122.4650 62.4145 55.1560 6.5358 -14.5494 -4.1911
# 2 62.4145 135.7661 48.1351 17.7831 -7.9240 -14.3612
# 3 55.1560 48.1351 94.7723 3.8692 0.6481 -9.4558
# 4 6.5358 17.7831 3.8692 42.8056 -5.2775 -8.7242
# 5 -14.5494 -7.9240 0.6481 -5.2775 41.6630 -2.9153
# 6 -4.1911 -14.3612 -9.4558 -8.7242 -2.9153 55.2512
#
#
#
# Elastic Compliance Matrix: (Units=1/GPa)
#
#
# Indices 1 2 3 4 5 6 
#
# 1 0.013200 -0.003915 -0.005812 0.000477 0.003965 -0.000727
# 2 -0.003915 0.010820 -0.002935 -0.003269 0.000428 0.001520
# 3 -0.005812 -0.002935 0.015558 0.000664 -0.002646 0.001424
# 4 0.000477 -0.003269 0.000664 0.025677 0.003033 0.003515
# 5 0.003965 0.000428 -0.002646 0.003033 0.026020 0.001811
# 6 -0.000727 0.001520 0.001424 0.003515 0.001811 0.019333
#
#
# Mechanical properties :
#
#
# Convention : Reuss Voigt Hill
#
# Bulk Modulus (GPa) = 70.16245 76.04604 73.10425
# Shear Modulus (GPa) = 35.54066 40.43047 37.98557
#
# Velocity S-wave (km/s) = 3.93711 4.19923 4.07028
# Velocity P-wave (km/s) = 7.16022 7.52850 7.34667
#
# Compressibility (1/GPa) = 0.01425264
#
# Stress axis : x y z
#
# Youngs Moduli (GPa) = 75.76003 92.42112 64.27575
#
# Poissons Ratio (x) = 0.36186 0.37360
# Poissons Ratio (y) = 0.29663 0.18863
# Poissons Ratio (z) = 0.44035 0.27123
#
# Static dielectric constant tensor:
#      x y z
#    x 4.466960 -0.055410 -0.004460 
#    y -0.055410 4.445370 0.067720 
#    z -0.004460 0.067720 4.105460 
# 
# 
# High freq. dielectric constant tensor:
#      x y z
#    x 1.924250 -0.002480 -0.008330 
#    y -0.002480 1.932540 0.008530 
#    z -0.008330 0.008530 1.890480 
# 
# From -- ./inp_files/328610.got.cif
#   From: 2010.06.25/outbox.cif.g09.slc.cpg/sg2_165_cif.got.tgz:328610.got - 2010.06.27 13:26:56.
