data_PCOD8028013
_publ_section_title
;
Structure prediction by ZEFSAII (Michael W. Deem and Ramdas Pophale) SiO2 
 PCOD8028013
Probable space group: P -1
;
_chemical_formula_sum "Si O2"
_cell_formula_units_Z 16
_cell_length_a 9.790957
_cell_length_b 15.817384
_cell_length_c 9.117309
_cell_angle_alpha 96.175623
_cell_angle_beta 74.203111
_cell_angle_gamma 145.083539
_cell_volume 760.327555
_symmetry_space_group_name_H-M "P -1"
_symmetry_group_IT_number 2
_symmetry_cell_setting 'triclinic'
loop_
_space_group_symop_operation_xyz
x,y,z
-x,-y,-z
loop_
_atom_site_type_symbol
_atom_site_label
_atom_site_fract_x
_atom_site_fract_y
_atom_site_fract_z
Si Si1 0.487244 0.409790 0.826331
Si Si2 0.139671 0.656129 0.130555
Si Si3 0.054973 0.935852 0.035945
Si Si4 0.925763 0.521016 0.659572
Si Si5 0.460984 0.054171 0.736263
Si Si6 0.447747 0.193304 0.186374
Si Si7 0.386429 0.544113 0.870137
Si Si8 0.427998 0.852981 0.602256
O O1 0.652693 0.426897 0.683534
O O2 0.501043 0.511408 0.772425
O O3 0.198785 0.238823 0.884986
O O4 0.626959 0.472958 0.954150
O O5 0.075147 0.534695 0.202307
O O6 0.291364 0.790178 0.224327
O O7 0.889848 0.581106 0.140342
O O8 0.300223 0.713248 0.951303
O O9 0.208492 0.027244 0.156844
O O10 0.210752 0.956941 0.878217
O O11 0.000000 0.000000 0.000000
O O12 0.000000 0.500000 0.500000
O O13 0.126568 0.696443 0.647138
O O14 0.442814 0.083112 0.583042
O O15 0.485897 0.965216 0.701725
O O16 0.429212 0.286779 0.197027
O O17 0.460964 0.173405 0.348895
#
# Coordination Sequence:
#
# PCOD8028013 Si02
#       8
#     2   2   2   2   2   2   2   2
#     4  11  25  40  63 101 130 168 210 267 335 370
#     4  11  21  40  66  99 127 166 227 261 311 381
#     4  11  23  41  66  89 137 169 214 262 320 387
#     4  12  23  42  71  91 125 172 216 263 321 389
#     4  10  25  42  63  96 130 172 213 262 322 385
#     4  11  22  38  67  99 125 174 217 265 312 386
#     4  11  22  38  64 100 131 158 217 274 314 372
#     4  11  24  41  67  95 130 166 220 264 320 375
#
# _framework density 21.043562999999999
#
# number of rings (size 3 to 8) (size 9 to 14) (size 15 to 20)
#    0.000    1.000    5.000    1.875    7.000    1.000 
#    0.000    1.250    2.750    0.000    0.000    0.000 
#    0.000    0.000    0.000    0.000    0.000    0.000 
#
# Total GULP energy -198427.741081 kJ/mol
# GULP energy per Si atom -12401.733818 kJ/mol
# Density = 2.099567 g / cm^3
# Si number density = 21.043563 Si / 1000 Ang^3
#
#
#
# Elastic Constant Matrix: (Units=GPa)
#
#
# Indices 1 2 3 4 5 6 
#
# 1 150.5050 54.1580 52.3949 -0.1298 -4.3880 -6.8709
# 2 54.1580 122.3797 53.7386 4.0319 -10.8875 -7.0429
# 3 52.3949 53.7386 74.3542 3.2520 -5.2448 3.6926
# 4 -0.1298 4.0319 3.2520 23.8699 -0.9908 -1.6225
# 5 -4.3880 -10.8875 -5.2448 -0.9908 32.1289 -3.6302
# 6 -6.8709 -7.0429 3.6926 -1.6225 -3.6302 41.3753
#
#
#
# Elastic Compliance Matrix: (Units=1/GPa)
#
#
# Indices 1 2 3 4 5 6 
#
# 1 0.009210 -0.001606 -0.005466 0.001191 0.000061 0.001796
# 2 -0.001606 0.012902 -0.008082 -0.000760 0.003137 0.002896
# 3 -0.005466 -0.008082 0.023444 -0.002173 -0.000232 -0.004481
# 4 0.001191 -0.000760 -0.002173 0.042507 0.001090 0.002025
# 5 0.000061 0.003137 -0.000232 0.001090 0.032584 0.003466
# 6 0.001796 0.002896 -0.004481 0.002025 0.003466 0.025744
#
#
# Mechanical properties :
#
#
# Convention : Reuss Voigt Hill
#
# Bulk Modulus (GPa) = 65.58905 74.20245 69.89575
# Shear Modulus (GPa) = 27.50560 31.93796 29.72178
#
# Velocity S-wave (km/s) = 3.61928 3.90000 3.76226
# Velocity P-wave (km/s) = 6.97864 7.45774 7.22217
#
# Compressibility (1/GPa) = 0.01524645
#
# Stress axis : x y z
#
# Youngs Moduli (GPa) = 108.57869 77.50831 42.65549
#
# Poissons Ratio (x) = 0.12447 0.23316
# Poissons Ratio (y) = 0.17437 0.34476
# Poissons Ratio (z) = 0.59352 0.62645
#
# Static dielectric constant tensor:
#      x y z
#    x 4.010740 -0.019690 -0.012510 
#    y -0.019690 4.606570 -0.062560 
#    z -0.012510 -0.062560 3.738150 
# 
# 
# High freq. dielectric constant tensor:
#      x y z
#    x 1.827340 -0.005920 0.005670 
#    y -0.005920 1.842350 0.009350 
#    z 0.005670 0.009350 1.803480 
# 
# From -- ./inp_files/182690.got.cif
#   From: 2010.06.25/outbox.cif.g09.slc.cpg/sg2_92_cif.got.tgz:182690.got - 2010.06.27 13:26:56.
