data_PCOD8028734
_publ_section_title
;
Structure prediction by ZEFSAII (Michael W. Deem and Ramdas Pophale) SiO2 
 PCOD8028734
Probable space group: P -1
;
_chemical_formula_sum "Si O2"
_cell_formula_units_Z 16
_cell_length_a 8.574850
_cell_length_b 9.322043
_cell_length_c 15.400414
_cell_angle_alpha 67.142863
_cell_angle_beta 130.812456
_cell_angle_gamma 83.448946
_cell_volume 729.329452
_symmetry_space_group_name_H-M "P -1"
_symmetry_group_IT_number 2
_symmetry_cell_setting 'triclinic'
loop_
_space_group_symop_operation_xyz
x,y,z
-x,-y,-z
loop_
_atom_site_type_symbol
_atom_site_label
_atom_site_fract_x
_atom_site_fract_y
_atom_site_fract_z
Si Si1 0.039962 0.104812 0.367123
Si Si2 0.346785 0.952411 0.676316
Si Si3 0.069757 0.928171 0.250674
Si Si4 0.616151 0.260819 0.931463
Si Si5 0.472323 0.791992 0.281041
Si Si6 0.243490 0.536945 0.426871
Si Si7 0.856551 0.516144 0.190761
Si Si8 0.758675 0.554968 0.948893
O O1 0.876819 0.023814 0.355530
O O2 0.873446 0.323652 0.251090
O O3 0.262025 0.039832 0.529170
O O4 0.143459 0.025155 0.327927
O O5 0.546213 0.740193 0.785354
O O6 0.451791 0.059548 0.739581
O O7 0.255463 0.869674 0.252809
O O8 0.077862 0.752580 0.338064
O O9 0.797085 0.063985 0.086311
O O10 0.622138 0.240116 0.835408
O O11 0.347404 0.338839 0.851998
O O12 0.706508 0.394819 0.958349
O O13 0.707443 0.596855 0.442340
O O14 0.500000 0.500000 0.500000
O O15 0.114050 0.491332 0.313774
O O16 0.783144 0.592773 0.049283
O O17 0.000000 0.500000 0.000000
#
# Coordination Sequence:
#
# PCOD8028734 Si02
#       8
#     2   2   2   2   2   2   2   2
#     4  11  24  46  73  98 139 181 239 287 340 406
#     4  11  25  44  68 106 136 182 233 285 348 407
#     4  11  25  45  69  99 139 187 227 283 342 414
#     4  12  26  45  71 101 145 181 230 287 343 419
#     4  11  26  45  68 101 143 180 231 287 346 405
#     4  10  26  46  69  99 140 182 231 284 343 416
#     4  12  25  49  72 100 140 187 232 288 346 409
#     4  12  27  43  71 104 141 183 232 287 347 411
#
# _framework density 21.937958999999999
#
# number of rings (size 3 to 8) (size 9 to 14) (size 15 to 20)
#    0.000    0.750    3.750    2.250    8.750    2.500 
#    0.000    0.000    0.000    0.000    0.000    0.000 
#    0.000    0.000    0.000    0.000    0.000    0.000 
#
# Total GULP energy -198481.298296 kJ/mol
# GULP energy per Si atom -12405.081144 kJ/mol
# Density = 2.188803 g / cm^3
# Si number density = 21.937959 Si / 1000 Ang^3
#
#
#
# Elastic Constant Matrix: (Units=GPa)
#
#
# Indices 1 2 3 4 5 6 
#
# 1 88.3748 33.5597 25.2828 5.8686 6.2815 -14.3316
# 2 33.5597 110.6128 53.1621 -4.2979 2.5494 -6.9348
# 3 25.2828 53.1621 135.1189 -11.3884 -5.8242 -15.8836
# 4 5.8686 -4.2979 -11.3884 53.7667 2.7810 -4.2503
# 5 6.2815 2.5494 -5.8242 2.7810 25.3460 6.2372
# 6 -14.3316 -6.9348 -15.8836 -4.2503 6.2372 41.8747
#
#
#
# Elastic Compliance Matrix: (Units=1/GPa)
#
#
# Indices 1 2 3 4 5 6 
#
# 1 0.014026 -0.003425 -0.001078 -0.001471 -0.004279 0.004312
# 2 -0.003425 0.012113 -0.004201 0.000476 -0.001258 -0.000524
# 3 -0.001078 -0.004201 0.009809 0.001952 0.002104 0.002541
# 4 -0.001471 0.000476 0.001952 0.019520 -0.002016 0.002597
# 5 -0.004279 -0.001258 0.002104 -0.002016 0.043195 -0.007513
# 6 0.004312 -0.000524 0.002541 0.002597 -0.007513 0.027616
#
#
# Mechanical properties :
#
#
# Convention : Reuss Voigt Hill
#
# Bulk Modulus (GPa) = 53.93816 62.01288 57.97552
# Shear Modulus (GPa) = 33.36262 39.00427 36.18344
#
# Velocity S-wave (km/s) = 3.90394 4.22113 4.06563
# Velocity P-wave (km/s) = 6.70530 7.21706 6.96588
#
# Compressibility (1/GPa) = 0.01853975
#
# Stress axis : x y z
#
# Youngs Moduli (GPa) = 71.29728 82.55343 101.94428
#
# Poissons Ratio (x) = 0.28277 0.10992
# Poissons Ratio (y) = 0.24422 0.42824
# Poissons Ratio (z) = 0.07688 0.34678
#
# Static dielectric constant tensor:
#      x y z
#    x 3.700190 0.133060 -0.051180 
#    y 0.133060 4.101600 -0.215180 
#    z -0.051180 -0.215180 4.331350 
# 
# 
# High freq. dielectric constant tensor:
#      x y z
#    x 1.852470 0.005590 -0.001100 
#    y 0.005590 1.872260 -0.006940 
#    z -0.001100 -0.006940 1.882820 
# 
# From -- ./inp_files/200889.got.cif
#   From: 2010.06.25/outbox.cif.g09.slc.cpg/sg2_101_cif.got.tgz:200889.got - 2010.06.27 13:26:56.
