data_PCOD8028810
_publ_section_title
;
Structure prediction by ZEFSAII (Michael W. Deem and Ramdas Pophale) SiO2 
 PCOD8028810
Probable space group: P -1
;
_chemical_formula_sum "Si O2"
_cell_formula_units_Z 14
_cell_length_a 17.353090
_cell_length_b 9.521081
_cell_length_c 4.816337
_cell_angle_alpha 75.200909
_cell_angle_beta 91.785956
_cell_angle_gamma 131.861252
_cell_volume 562.167004
_symmetry_space_group_name_H-M "P -1"
_symmetry_group_IT_number 2
_symmetry_cell_setting 'triclinic'
loop_
_space_group_symop_operation_xyz
x,y,z
-x,-y,-z
loop_
_atom_site_type_symbol
_atom_site_label
_atom_site_fract_x
_atom_site_fract_y
_atom_site_fract_z
Si Si1 0.153685 0.972153 0.229729
Si Si2 0.908555 0.807902 0.760419
Si Si3 0.365237 0.137091 0.403764
Si Si4 0.958986 0.284886 0.132537
Si Si5 0.495210 0.368059 0.829998
Si Si6 0.310601 0.574972 0.204282
Si Si7 0.625329 0.165152 0.425820
O O1 0.144801 0.871029 0.992763
O O2 0.130060 0.111306 0.081659
O O3 0.268447 0.111815 0.308963
O O4 0.068416 0.787822 0.517638
O O5 0.807848 0.633711 0.651245
O O6 0.000000 0.000000 0.500000
O O7 0.952539 0.718775 0.961670
O O8 0.431344 0.316954 0.554642
O O9 0.330879 0.936078 0.620816
O O10 0.429488 0.170567 0.113585
O O11 0.000000 0.500000 0.000000
O O12 0.607657 0.449950 0.710643
O O13 0.500000 0.500000 0.000000
O O14 0.332226 0.741772 0.312862
O O15 0.326715 0.647614 0.855043
O O16 0.500000 0.000000 0.500000
#
# Coordination Sequence:
#
# PCOD8028810 Si02
#       7
#     2   2   2   2   2   2   2
#     4  11  25  46  70  99 141 185 232 293 361 418
#     4  10  26  49  74 103 142 187 244 298 358 419
#     4  12  25  42  69 100 146 182 229 291 351 428
#     4  11  25  45  71 102 135 179 242 300 355 417
#     4  12  24  42  67 102 141 185 233 284 347 432
#     4  12  25  43  72 102 140 190 233 292 356 423
#     4  12  24  44  68 102 145 186 233 286 360 424
#
# _framework density 24.903632999999999
#
# number of rings (size 3 to 8) (size 9 to 14) (size 15 to 20)
#    0.000    0.571    2.857    4.286    4.000    5.714 
#    0.000    0.000    0.000    0.000    0.000    0.000 
#    0.000    0.000    0.000    0.000    0.000    0.000 
#
# Total GULP energy -173523.260575 kJ/mol
# GULP energy per Si atom -12394.518613 kJ/mol
# Density = 2.484695 g / cm^3
# Si number density = 24.903633 Si / 1000 Ang^3
#
#
#
# Elastic Constant Matrix: (Units=GPa)
#
#
# Indices 1 2 3 4 5 6 
#
# 1 141.5425 72.1807 28.2708 -6.3870 19.2730 -7.4815
# 2 72.1807 172.5496 24.7017 19.3642 1.0371 6.4166
# 3 28.2708 24.7017 86.9232 17.3196 5.9732 9.7899
# 4 -6.3870 19.3642 17.3196 40.5357 1.8723 -5.5786
# 5 19.2730 1.0371 5.9732 1.8723 30.0382 -3.9238
# 6 -7.4815 6.4166 9.7899 -5.5786 -3.9238 44.9695
#
#
#
# Elastic Compliance Matrix: (Units=1/GPa)
#
#
# Indices 1 2 3 4 5 6 
#
# 1 0.011947 -0.005338 -0.003706 0.006850 -0.006672 0.003824
# 2 -0.005338 0.008679 0.000501 -0.005710 0.003032 -0.002679
# 3 -0.003706 0.000501 0.014716 -0.007754 -0.000725 -0.004917
# 4 0.006850 -0.005710 -0.007754 0.032982 -0.003744 0.007407
# 5 -0.006672 0.003032 -0.000725 -0.003744 0.038036 0.001470
# 6 0.003824 -0.002679 -0.004917 0.007407 0.001470 0.025373
#
#
# Mechanical properties :
#
#
# Convention : Reuss Voigt Hill
#
# Bulk Modulus (GPa) = 54.77636 72.36908 63.57272
# Shear Modulus (GPa) = 32.27798 41.49951 36.88874
#
# Velocity S-wave (km/s) = 3.60407 4.08659 3.85289
# Velocity P-wave (km/s) = 6.27392 7.16866 6.73616
#
# Compressibility (1/GPa) = 0.01825605
#
# Stress axis : x y z
#
# Youngs Moduli (GPa) = 83.70313 115.22198 67.95383
#
# Poissons Ratio (x) = 0.61505 0.25182
# Poissons Ratio (y) = 0.44681 -0.03404
# Poissons Ratio (z) = 0.31018 -0.05771
#
# Static dielectric constant tensor:
#      x y z
#    x 4.799410 -0.217960 0.159150 
#    y -0.217960 5.057070 -0.816430 
#    z 0.159150 -0.816430 5.991110 
# 
# 
# High freq. dielectric constant tensor:
#      x y z
#    x 1.991350 -0.006160 0.010310 
#    y -0.006160 2.010620 -0.002450 
#    z 0.010310 -0.002450 1.987860 
# 
# From -- ./inp_files/104983.got.cif
#   From: 2010.06.25/outbox.cif.g09.slc.cpg/sg2_53_cif.got.tgz:104983.got - 2010.06.27 13:26:56.
