data_PCOD8028481
_publ_section_title
;
Structure prediction by ZEFSAII (Michael W. Deem and Ramdas Pophale) SiO2 
 PCOD8028481
Probable space group: P -1
;
_chemical_formula_sum "Si O2"
_cell_formula_units_Z 16
_cell_length_a 9.628251
_cell_length_b 11.078053
_cell_length_c 20.031296
_cell_angle_alpha 20.238371
_cell_angle_beta 76.702037
_cell_angle_gamma 78.848333
_cell_volume 717.688607
_symmetry_space_group_name_H-M "P -1"
_symmetry_group_IT_number 2
_symmetry_cell_setting 'triclinic'
loop_
_space_group_symop_operation_xyz
x,y,z
-x,-y,-z
loop_
_atom_site_type_symbol
_atom_site_label
_atom_site_fract_x
_atom_site_fract_y
_atom_site_fract_z
Si Si1 0.487865 0.306579 0.893728
Si Si2 0.553279 0.866054 0.773971
Si Si3 0.992318 0.882667 0.272192
Si Si4 0.696754 0.082441 0.774239
Si Si5 0.731058 0.876938 0.389478
Si Si6 0.999718 0.184718 0.975669
Si Si7 0.753514 0.257654 0.327488
Si Si8 0.753587 0.690536 0.726460
O O1 0.409390 0.631771 0.702144
O O2 0.647617 0.435335 0.827639
O O3 0.500000 0.000000 0.000000
O O4 0.401423 0.185532 0.032039
O O5 0.682883 0.820630 0.733522
O O6 0.616458 0.125071 0.690567
O O7 0.423361 0.026851 0.667490
O O8 0.500000 0.500000 0.000000
O O9 0.856117 0.039835 0.241693
O O10 0.000000 0.500000 0.500000
O O11 0.147731 0.079699 0.169376
O O12 0.966255 0.897713 0.186949
O O13 0.724145 0.456228 0.613186
O O14 0.769015 0.028234 0.378998
O O15 0.153463 0.375245 0.875105
O O16 0.888903 0.482017 0.838109
O O17 0.000000 0.000000 0.000000
O O18 0.802558 0.033021 0.500885
#
# Coordination Sequence:
#
# PCOD8028481 Si02
#       8
#     2   2   2   2   2   2   2   2
#     4  12  24  44  73 100 140 185 239 287 356 424
#     4  12  24  45  68 105 143 178 242 297 358 423
#     4  10  25  46  75 102 138 191 240 295 356 426
#     4  11  24  45  71 103 139 188 236 294 351 431
#     4  11  25  45  72 102 145 180 244 289 365 421
#     4  12  28  49  73 105 147 188 244 295 357 431
#     4  12  26  47  72 106 143 191 236 297 357 434
#     4  12  27  44  72 105 147 187 235 297 366 420
#
# _framework density 22.293790999999999
#
# number of rings (size 3 to 8) (size 9 to 14) (size 15 to 20)
#    0.000    0.500    3.750    3.375    7.000    2.500 
#    0.000    0.000    0.000    0.000    0.000    0.000 
#    0.000    0.000    0.000    0.000    0.000    0.000 
#
# Total GULP energy -198430.798455 kJ/mol
# GULP energy per Si atom -12401.924903 kJ/mol
# Density = 2.224305 g / cm^3
# Si number density = 22.293791 Si / 1000 Ang^3
#
#
#
# Elastic Constant Matrix: (Units=GPa)
#
#
# Indices 1 2 3 4 5 6 
#
# 1 64.5497 26.1022 5.1291 5.6618 8.5393 1.5273
# 2 26.1022 142.0590 38.1748 8.0244 6.0775 7.4697
# 3 5.1291 38.1748 101.2814 17.2903 12.3998 5.0742
# 4 5.6618 8.0244 17.2903 40.1208 7.1226 -3.4141
# 5 8.5393 6.0775 12.3998 7.1226 39.6369 -4.0582
# 6 1.5273 7.4697 5.0742 -3.4141 -4.0582 42.2722
#
#
#
# Elastic Compliance Matrix: (Units=1/GPa)
#
#
# Indices 1 2 3 4 5 6 
#
# 1 0.017305 -0.003191 0.001061 -0.001725 -0.003327 -0.000647
# 2 -0.003191 0.008479 -0.002999 -0.000081 0.000237 -0.001007
# 3 0.001061 -0.002999 0.012141 -0.004396 -0.002941 -0.001603
# 4 -0.001725 -0.000081 -0.004396 0.027826 -0.002978 0.002566
# 5 -0.003327 0.000237 -0.002941 -0.002978 0.027656 0.002846
# 6 -0.000647 -0.001007 -0.001603 0.002566 0.002846 0.024530
#
#
# Mechanical properties :
#
#
# Convention : Reuss Voigt Hill
#
# Bulk Modulus (GPa) = 36.14513 49.63361 42.88937
# Shear Modulus (GPa) = 36.38544 40.30490 38.34517
#
# Velocity S-wave (km/s) = 4.04429 4.25655 4.15178
# Velocity P-wave (km/s) = 6.16901 6.81685 6.50100
#
# Compressibility (1/GPa) = 0.02766624
#
# Stress axis : x y z
#
# Youngs Moduli (GPa) = 57.78771 117.93993 82.36510
#
# Poissons Ratio (x) = 0.37632 -0.08736
# Poissons Ratio (y) = 0.18439 0.24702
# Poissons Ratio (z) = -0.06129 0.35371
#
# Static dielectric constant tensor:
#      x y z
#    x 4.472790 -0.217110 0.057310 
#    y -0.217110 4.187910 0.163060 
#    z 0.057310 0.163060 4.084230 
# 
# 
# High freq. dielectric constant tensor:
#      x y z
#    x 1.895120 -0.006590 0.003900 
#    y -0.006590 1.882760 0.009100 
#    z 0.003900 0.009100 1.880950 
# 
# From -- ./inp_files/589310.got.cif
#   From: 2010.06.25/outbox.cif.g09.slc.cpg/sg2_295_cif.got.tgz:589310.got - 2010.06.27 13:26:56.
