data_PCOD8028084
_publ_section_title
;
Structure prediction by ZEFSAII (Michael W. Deem and Ramdas Pophale) SiO2 
 PCOD8028084
Probable space group: P -1
;
_chemical_formula_sum "Si O2"
_cell_formula_units_Z 14
_cell_length_a 8.998744
_cell_length_b 18.001199
_cell_length_c 5.043826
_cell_angle_alpha 89.783733
_cell_angle_beta 88.828917
_cell_angle_gamma 131.737078
_cell_volume 609.388775
_symmetry_space_group_name_H-M "P -1"
_symmetry_group_IT_number 2
_symmetry_cell_setting 'triclinic'
loop_
_space_group_symop_operation_xyz
x,y,z
-x,-y,-z
loop_
_atom_site_type_symbol
_atom_site_label
_atom_site_fract_x
_atom_site_fract_y
_atom_site_fract_z
Si Si1 0.491073 0.579841 0.603008
Si Si2 0.047494 0.467001 0.748278
Si Si3 0.680978 0.124119 0.245682
Si Si4 0.900815 0.255959 0.738346
Si Si5 0.710605 0.699756 0.109935
Si Si6 0.271064 0.013086 0.510679
Si Si7 0.106765 0.090547 0.797967
O O1 0.500000 0.500000 0.500000
O O2 0.278983 0.525033 0.736984
O O3 0.539563 0.647029 0.343871
O O4 0.647018 0.643870 0.834065
O O5 0.000000 0.500000 0.500000
O O6 0.912482 0.348460 0.762848
O O7 0.000000 0.500000 0.000000
O O8 0.826727 0.212217 0.447792
O O9 0.451959 0.071408 0.295230
O O10 0.699868 0.040926 0.266987
O O11 0.740318 0.168828 0.949118
O O12 0.117167 0.294190 0.777216
O O13 0.780853 0.807217 0.049401
O O14 0.266716 0.094664 0.629990
O O15 0.058938 0.925991 0.381288
O O16 0.000000 0.000000 0.000000
#
# Coordination Sequence:
#
# PCOD8028084 Si02
#       7
#     2   2   2   2   2   2   2
#     4  12  27  49  78 107 141 188 248 302 355 442
#     4  12  28  49  71 106 148 182 228 312 375 421
#     4  11  25  44  72 104 138 194 240 287 356 431
#     4  12  25  45  74 101 142 184 244 293 358 438
#     4  12  26  45  79 106 140 193 249 290 361 428
#     4  10  25  43  68 103 147 188 237 299 354 419
#     4  11  25  45  69 103 151 188 236 302 355 422
#
# _framework density 22.973841
#
# number of rings (size 3 to 8) (size 9 to 14) (size 15 to 20)
#    0.000    0.571    2.857    3.857    8.000    4.571 
#    0.000    0.000    0.000    0.000    0.000    0.000 
#    0.000    0.000    0.000    0.000    0.000    0.000 
#
# Total GULP energy -173675.698638 kJ/mol
# GULP energy per Si atom -12405.407046 kJ/mol
# Density = 2.292155 g / cm^3
# Si number density = 22.973841 Si / 1000 Ang^3
#
#
#
# Elastic Constant Matrix: (Units=GPa)
#
#
# Indices 1 2 3 4 5 6 
#
# 1 115.9108 39.9133 27.1493 6.4537 -23.4797 -4.2037
# 2 39.9133 134.6693 39.4637 13.1050 -7.6219 -13.4037
# 3 27.1493 39.4637 111.7067 5.1709 -7.8042 -2.3986
# 4 6.4537 13.1050 5.1709 60.2179 0.4621 0.7494
# 5 -23.4797 -7.6219 -7.8042 0.4621 35.0665 -5.3752
# 6 -4.2037 -13.4037 -2.3986 0.7494 -5.3752 27.5121
#
#
#
# Elastic Compliance Matrix: (Units=1/GPa)
#
#
# Indices 1 2 3 4 5 6 
#
# 1 0.011267 -0.002288 -0.001367 -0.000670 0.007040 0.001881
# 2 -0.002288 0.009475 -0.002581 -0.001652 0.000620 0.004207
# 3 -0.001367 -0.002581 0.010247 -0.000172 0.000742 -0.000423
# 4 -0.000670 -0.001652 -0.000172 0.017083 -0.001323 -0.001646
# 5 0.007040 0.000620 0.000742 -0.001323 0.034817 0.008281
# 6 0.001881 0.004207 -0.000423 -0.001646 0.008281 0.040311
#
#
# Mechanical properties :
#
#
# Convention : Reuss Voigt Hill
#
# Bulk Modulus (GPa) = 54.00518 63.92660 58.96589
# Shear Modulus (GPa) = 35.25019 41.61000 38.43010
#
# Velocity S-wave (km/s) = 3.92134 4.26043 4.09440
# Velocity P-wave (km/s) = 6.63784 7.21719 6.93357
#
# Compressibility (1/GPa) = 0.01851674
#
# Stress axis : x y z
#
# Youngs Moduli (GPa) = 88.75618 105.54463 97.59215
#
# Poissons Ratio (x) = 0.24147 0.13339
# Poissons Ratio (y) = 0.20306 0.25189
# Poissons Ratio (z) = 0.12131 0.27241
#
# Static dielectric constant tensor:
#      x y z
#    x 4.213010 -0.079620 -0.119690 
#    y -0.079620 4.335630 0.034920 
#    z -0.119690 0.034920 4.225230 
# 
# 
# High freq. dielectric constant tensor:
#      x y z
#    x 1.911930 -0.001850 -0.007340 
#    y -0.001850 1.919380 0.000970 
#    z -0.007340 0.000970 1.918400 
# 
# From -- ./inp_files/44944.got.cif
#   From: 2010.06.25/outbox.cif.g09.slc.cpg/sg2_23_cif.got.tgz:44944.got - 2010.06.27 13:26:56.
