data_PCOD8028542
_publ_section_title
;
Structure prediction by ZEFSAII (Michael W. Deem and Ramdas Pophale) SiO2 
 PCOD8028542
Probable space group: P -1
;
_chemical_formula_sum "Si O2"
_cell_formula_units_Z 16
_cell_length_a 28.602475
_cell_length_b 5.088132
_cell_length_c 12.688532
_cell_angle_alpha 54.697490
_cell_angle_beta 28.253070
_cell_angle_gamma 63.727190
_cell_volume 702.763794
_symmetry_space_group_name_H-M "P -1"
_symmetry_group_IT_number 2
_symmetry_cell_setting 'triclinic'
loop_
_space_group_symop_operation_xyz
x,y,z
-x,-y,-z
loop_
_atom_site_type_symbol
_atom_site_label
_atom_site_fract_x
_atom_site_fract_y
_atom_site_fract_z
Si Si1 0.880956 0.537449 0.507901
Si Si2 0.786044 0.877684 0.432827
Si Si3 0.547556 0.679475 0.966818
Si Si4 0.201064 0.375657 0.759156
Si Si5 0.399366 0.233011 0.486166
Si Si6 0.806365 0.789835 0.806001
Si Si7 0.604145 0.502844 0.345681
Si Si8 0.070806 0.298157 0.233237
O O1 0.850318 0.684771 0.425645
O O2 0.855703 0.758772 0.602821
O O3 0.001303 0.553536 0.272532
O O4 0.823157 0.167271 0.719694
O O5 0.667669 0.745419 0.712012
O O6 0.822717 0.832872 0.251386
O O7 0.815388 0.256912 0.314690
O O8 0.500000 0.500000 0.000000
O O9 0.510037 0.433967 0.194660
O O10 0.500000 0.000000 0.000000
O O11 0.317234 0.401541 0.551327
O O12 0.130217 0.202665 0.034305
O O13 0.382940 0.249283 0.639503
O O14 0.386948 0.864117 0.553662
O O15 0.849122 0.571773 0.863540
O O16 0.689170 0.648779 0.059647
O O17 0.500000 0.500000 0.500000
O O18 0.000000 0.000000 0.500000
#
# Coordination Sequence:
#
# PCOD8028542 Si02
#       8
#     2   2   2   2   2   2   2   2
#     4  11  26  45  69 101 136 182 223 293 343 395
#     4  12  26  44  68 103 140 178 228 280 338 405
#     4  12  23  41  65  95 131 177 225 261 325 401
#     4  12  25  45  72 100 136 180 228 280 337 410
#     4  12  24  44  66  98 138 182 223 279 333 407
#     4  11  24  45  70  98 139 177 233 279 344 412
#     4  12  27  41  66 103 136 179 222 281 349 395
#     4  10  25  47  74 100 132 178 235 283 349 406
#
# _framework density 22.767251999999999
#
# number of rings (size 3 to 8) (size 9 to 14) (size 15 to 20)
#    0.000    0.500    3.750    3.750    5.250    3.000 
#    0.000    0.000    0.000    0.000    0.000    0.000 
#    0.000    0.000    0.000    0.000    0.000    0.000 
#
# Total GULP energy -198425.069025 kJ/mol
# GULP energy per Si atom -12401.566814 kJ/mol
# Density = 2.271543 g / cm^3
# Si number density = 22.767252 Si / 1000 Ang^3
#
#
#
# Elastic Constant Matrix: (Units=GPa)
#
#
# Indices 1 2 3 4 5 6 
#
# 1 125.4682 29.4136 18.2775 24.3335 5.5213 -17.9127
# 2 29.4136 88.8645 21.1628 2.8951 -4.7464 0.8627
# 3 18.2775 21.1628 113.9527 13.8073 7.7593 -5.8303
# 4 24.3335 2.8951 13.8073 34.0535 5.6241 1.9619
# 5 5.5213 -4.7464 7.7593 5.6241 37.6631 6.3825
# 6 -17.9127 0.8627 -5.8303 1.9619 6.3825 42.5267
#
#
#
# Elastic Compliance Matrix: (Units=1/GPa)
#
#
# Indices 1 2 3 4 5 6 
#
# 1 0.011159 -0.003652 0.000237 -0.007758 -0.001910 0.005451
# 2 -0.003652 0.013151 -0.002448 0.002171 0.002824 -0.002665
# 3 0.000237 -0.002448 0.009894 -0.003731 -0.002164 0.002003
# 4 -0.007758 0.002171 -0.003731 0.036941 -0.002463 -0.005158
# 5 -0.001910 0.002824 -0.002164 -0.002463 0.028913 -0.005384
# 6 0.005451 -0.002665 0.002003 -0.005158 -0.005384 0.027186
#
#
# Mechanical properties :
#
#
# Convention : Reuss Voigt Hill
#
# Bulk Modulus (GPa) = 44.48863 51.77702 48.13283
# Shear Modulus (GPa) = 34.13842 40.14410 37.14126
#
# Velocity S-wave (km/s) = 3.87648 4.20365 4.04337
# Velocity P-wave (km/s) = 6.29437 6.80824 6.55634
#
# Compressibility (1/GPa) = 0.02247765
#
# Stress axis : x y z
#
# Youngs Moduli (GPa) = 89.61614 76.03979 101.07031
#
# Poissons Ratio (x) = 0.27772 -0.02400
# Poissons Ratio (y) = 0.32730 0.24745
# Poissons Ratio (z) = -0.02128 0.18617
#
# Static dielectric constant tensor:
#      x y z
#    x 4.268780 -0.201750 0.045870 
#    y -0.201750 3.761320 0.388640 
#    z 0.045870 0.388640 4.414850 
# 
# 
# High freq. dielectric constant tensor:
#      x y z
#    x 1.900350 0.003260 -0.000760 
#    y 0.003260 1.900520 0.008410 
#    z -0.000760 0.008410 1.910420 
# 
# From -- ./inp_files/475966.got.cif
#   From: 2010.06.25/outbox.cif.g09.slc.cpg/sg2_238_cif.got.tgz:475966.got - 2010.06.27 13:26:56.
