data_PCOD8028103
_publ_section_title
;
Structure prediction by ZEFSAII (Michael W. Deem and Ramdas Pophale) SiO2 
 PCOD8028103
Probable space group: P -1
;
_chemical_formula_sum "Si O2"
_cell_formula_units_Z 16
_cell_length_a 8.647956
_cell_length_b 9.466561
_cell_length_c 15.975489
_cell_angle_alpha 143.071441
_cell_angle_beta 67.334690
_cell_angle_gamma 105.401813
_cell_volume 722.970411
_symmetry_space_group_name_H-M "P -1"
_symmetry_group_IT_number 2
_symmetry_cell_setting 'triclinic'
loop_
_space_group_symop_operation_xyz
x,y,z
-x,-y,-z
loop_
_atom_site_type_symbol
_atom_site_label
_atom_site_fract_x
_atom_site_fract_y
_atom_site_fract_z
Si Si1 0.559242 0.312412 0.082563
Si Si2 0.259947 0.584427 0.193356
Si Si3 0.191157 0.435078 0.955312
Si Si4 0.159275 0.457875 0.502896
Si Si5 0.322792 0.912917 0.718880
Si Si6 0.589185 0.949967 0.545080
Si Si7 0.927364 0.752294 0.410346
Si Si8 0.456502 0.176662 0.212884
O O1 0.377078 0.368316 0.103791
O O2 0.690230 0.497417 0.113863
O O3 0.541520 0.326876 0.193711
O O4 0.625737 0.047054 0.917125
O O5 0.069035 0.559336 0.254386
O O6 0.340708 0.820668 0.318127
O O7 0.250317 0.578165 0.091642
O O8 0.217085 0.156938 0.835196
O O9 0.000000 0.500000 0.000000
O O10 0.197676 0.707388 0.652031
O O11 0.109372 0.279568 0.499861
O O12 0.315210 0.347171 0.365791
O O13 0.000000 0.500000 0.500000
O O14 0.461010 0.844694 0.586457
O O15 0.406130 0.923960 0.797145
O O16 0.746582 0.757135 0.403610
O O17 0.500000 0.000000 0.500000
O O18 0.000000 0.000000 0.500000
#
# Coordination Sequence:
#
# PCOD8028103 Si02
#       8
#     2   2   2   2   2   2   2   2
#     4  11  24  46  77 101 143 190 242 290 359 437
#     4  11  23  46  71 105 144 187 242 300 356 414
#     4  12  28  46  75 107 143 194 246 300 353 435
#     4  12  28  45  71 104 148 184 238 301 360 424
#     4  12  26  47  71 105 145 188 240 298 363 427
#     4  11  25  41  74 107 142 186 243 298 354 433
#     4  10  25  43  70 105 140 189 236 295 355 428
#     4  11  25  47  73 106 140 192 236 293 367 424
#
# _framework density 22.130921000000001
#
# number of rings (size 3 to 8) (size 9 to 14) (size 15 to 20)
#    0.000    0.750    3.750    2.250   10.500    1.000 
#    0.000    1.250    0.000    0.000    0.000    0.000 
#    0.000    0.000    0.000    0.000    0.000    0.000 
#
# Total GULP energy -198426.993633 kJ/mol
# GULP energy per Si atom -12401.687102 kJ/mol
# Density = 2.208055 g / cm^3
# Si number density = 22.130921 Si / 1000 Ang^3
#
#
#
# Elastic Constant Matrix: (Units=GPa)
#
#
# Indices 1 2 3 4 5 6 
#
# 1 139.0800 68.7497 39.9741 -3.6608 -23.4499 -18.9451
# 2 68.7497 172.5314 53.1034 -21.9863 -3.0740 -11.7245
# 3 39.9741 53.1034 91.7778 -1.0277 -11.4963 6.1406
# 4 -3.6608 -21.9863 -1.0277 39.8661 -1.6723 0.4539
# 5 -23.4499 -3.0740 -11.4963 -1.6723 41.7938 3.3592
# 6 -18.9451 -11.7245 6.1406 0.4539 3.3592 33.9438
#
#
#
# Elastic Compliance Matrix: (Units=1/GPa)
#
#
# Indices 1 2 3 4 5 6 
#
# 1 0.011037 -0.003230 -0.002686 -0.000694 0.004781 0.005066
# 2 -0.003230 0.009068 -0.004231 0.004473 -0.002312 0.002264
# 3 -0.002686 -0.004231 0.015238 -0.002003 0.002772 -0.005965
# 4 -0.000694 0.004473 -0.002003 0.027439 0.000397 0.001113
# 5 0.004781 -0.002312 0.002772 0.000397 0.027326 -0.001341
# 6 0.005066 0.002264 -0.005965 0.001113 -0.001341 0.034267
#
#
# Mechanical properties :
#
#
# Convention : Reuss Voigt Hill
#
# Bulk Modulus (GPa) = 66.45202 80.78262 73.61732
# Shear Modulus (GPa) = 33.40350 39.22488 36.31419
#
# Velocity S-wave (km/s) = 3.88926 4.21456 4.05517
# Velocity P-wave (km/s) = 7.08946 7.76304 7.43388
#
# Compressibility (1/GPa) = 0.01504845
#
# Stress axis : x y z
#
# Youngs Moduli (GPa) = 90.60558 110.27742 65.62657
#
# Poissons Ratio (x) = 0.35622 0.17627
# Poissons Ratio (y) = 0.29268 0.27766
# Poissons Ratio (z) = 0.24336 0.46657
#
# Static dielectric constant tensor:
#      x y z
#    x 4.283600 -0.034720 -0.353810 
#    y -0.034720 4.019990 -0.200980 
#    z -0.353810 -0.200980 4.038330 
# 
# 
# High freq. dielectric constant tensor:
#      x y z
#    x 1.875450 -0.008990 -0.010500 
#    y -0.008990 1.883000 -0.003070 
#    z -0.010500 -0.003070 1.873260 
# 
# From -- ./inp_files/299103.got.cif
#   From: 2010.06.25/outbox.cif.g09.slc.cpg/sg2_150_cif.got.tgz:299103.got - 2010.06.27 13:26:56.
