data_PCOD8028604
_publ_section_title
;
Structure prediction by ZEFSAII (Michael W. Deem and Ramdas Pophale) SiO2 
 PCOD8028604
Probable space group: P -1
;
_chemical_formula_sum "Si O2"
_cell_formula_units_Z 16
_cell_length_a 11.610215
_cell_length_b 13.084639
_cell_length_c 5.678658
_cell_angle_alpha 69.091426
_cell_angle_beta 92.481237
_cell_angle_gamma 56.295173
_cell_volume 637.264211
_symmetry_space_group_name_H-M "P -1"
_symmetry_group_IT_number 2
_symmetry_cell_setting 'triclinic'
loop_
_space_group_symop_operation_xyz
x,y,z
-x,-y,-z
loop_
_atom_site_type_symbol
_atom_site_label
_atom_site_fract_x
_atom_site_fract_y
_atom_site_fract_z
Si Si1 0.853295 0.946816 0.040856
Si Si2 0.776678 0.578299 0.292555
Si Si3 0.081496 0.312436 0.508517
Si Si4 0.401524 0.664312 0.870787
Si Si5 0.320456 0.234669 0.277307
Si Si6 0.436766 0.967471 0.231148
Si Si7 0.911714 0.118096 0.206026
Si Si8 0.506309 0.627452 0.409987
O O1 0.874334 0.838488 0.321437
O O2 0.858278 0.063797 0.051610
O O3 0.978846 0.858275 0.925433
O O4 0.691552 0.038467 0.848304
O O5 0.849331 0.651671 0.310983
O O6 0.673207 0.576964 0.472688
O O7 0.907914 0.419217 0.379919
O O8 0.678154 0.663874 0.983990
O O9 0.153618 0.314529 0.274151
O O10 0.227383 0.739791 0.807352
O O11 0.429556 0.710195 0.583390
O O12 0.500000 0.500000 0.000000
O O13 0.437884 0.708226 0.084359
O O14 0.433980 0.189205 0.539971
O O15 0.374226 0.086788 0.315372
O O16 0.500000 0.000000 0.000000
O O17 0.000000 0.000000 0.500000
O O18 0.500000 0.500000 0.500000
#
# Coordination Sequence:
#
# PCOD8028604 Si02
#       8
#     2   2   2   2   2   2   2   2
#     4  11  26  48  71 108 152 200 254 312 399 460
#     4  11  25  45  72 109 148 193 258 309 388 459
#     4  11  25  46  73 103 151 195 244 319 381 465
#     4  10  25  50  78 109 151 199 261 318 387 452
#     4  11  23  43  70 112 139 195 250 308 383 457
#     4  11  23  45  71 102 149 193 243 309 386 455
#     4  11  29  48  76 110 146 204 259 324 385 476
#     4  10  25  48  74 113 151 201 248 319 384 458
#
# _framework density 25.107327999999999
#
# number of rings (size 3 to 8) (size 9 to 14) (size 15 to 20)
#    0.000    1.250    2.500    0.375   10.500    4.000 
#    0.000    0.000    0.000    0.000    0.000    0.000 
#    0.000    0.000    0.000    0.000    0.000    0.000 
#
# Total GULP energy -198270.254629 kJ/mol
# GULP energy per Si atom -12391.890914 kJ/mol
# Density = 2.505018 g / cm^3
# Si number density = 25.107328 Si / 1000 Ang^3
#
#
#
# Elastic Constant Matrix: (Units=GPa)
#
#
# Indices 1 2 3 4 5 6 
#
# 1 147.7127 39.1207 46.1964 0.6694 -7.5928 -41.2555
# 2 39.1207 103.1829 36.2793 1.8857 -2.2410 -42.2569
# 3 46.1964 36.2793 144.4253 11.1814 2.5400 -23.0753
# 4 0.6694 1.8857 11.1814 41.0687 -10.0927 -10.9781
# 5 -7.5928 -2.2410 2.5400 -10.0927 38.5480 -2.5564
# 6 -41.2555 -42.2569 -23.0753 -10.9781 -2.5564 48.5906
#
#
#
# Elastic Compliance Matrix: (Units=1/GPa)
#
#
# Indices 1 2 3 4 5 6 
#
# 1 0.010012 0.000762 -0.002295 0.003792 0.003766 0.009128
# 2 0.000762 0.016383 -0.002390 0.004762 0.003503 0.015020
# 3 -0.002295 -0.002390 0.008386 -0.002821 -0.001934 -0.000784
# 4 0.003792 0.004762 -0.002821 0.030972 0.010218 0.013556
# 5 0.003766 0.003503 -0.001934 0.010218 0.030302 0.009228
# 6 0.009128 0.015020 -0.000784 0.013556 0.009228 0.044568
#
#
# Mechanical properties :
#
#
# Convention : Reuss Voigt Hill
#
# Bulk Modulus (GPa) = 37.12738 70.94598 54.03668
# Shear Modulus (GPa) = 31.75706 43.88975 37.82340
#
# Velocity S-wave (km/s) = 3.56033 4.18555 3.88554
# Velocity P-wave (km/s) = 5.63213 7.18866 6.45746
#
# Compressibility (1/GPa) = 0.02693430
#
# Stress axis : x y z
#
# Youngs Moduli (GPa) = 99.88350 61.03910 119.25235
#
# Poissons Ratio (x) = -0.04650 0.27370
# Poissons Ratio (y) = -0.07609 0.28496
# Poissons Ratio (z) = 0.22925 0.14585
#
# Static dielectric constant tensor:
#      x y z
#    x 4.801500 -0.482290 0.093690 
#    y -0.482290 4.173930 0.220480 
#    z 0.093690 0.220480 4.907510 
# 
# 
# High freq. dielectric constant tensor:
#      x y z
#    x 2.008180 -0.017400 -0.001060 
#    y -0.017400 2.002300 0.004590 
#    z -0.001060 0.004590 2.003710 
# 
# From -- ./inp_files/77396.got.cif
#   From: 2010.06.25/outbox.cif.g09.slc.cpg/sg2_39_cif.got.tgz:77396.got - 2010.06.27 13:26:56.
