data_PCOD8028828
_publ_section_title
;
Structure prediction by ZEFSAII (Michael W. Deem and Ramdas Pophale) SiO2 
 PCOD8028828
Probable space group: P -1
;
_chemical_formula_sum "Si O2"
_cell_formula_units_Z 12
_cell_length_a 6.829015
_cell_length_b 9.351882
_cell_length_c 10.293514
_cell_angle_alpha 98.628609
_cell_angle_beta 109.915930
_cell_angle_gamma 72.259338
_cell_volume 587.893294
_symmetry_space_group_name_H-M "P -1"
_symmetry_group_IT_number 2
_symmetry_cell_setting 'triclinic'
loop_
_space_group_symop_operation_xyz
x,y,z
-x,-y,-z
loop_
_atom_site_type_symbol
_atom_site_label
_atom_site_fract_x
_atom_site_fract_y
_atom_site_fract_z
Si Si1 0.144122 0.034261 0.923668
Si Si2 0.498861 0.757903 0.579246
Si Si3 0.104377 0.774803 0.326159
Si Si4 0.552291 0.498073 0.735617
Si Si5 0.543784 0.797749 0.876998
Si Si6 0.817316 0.636995 0.419846
O O1 0.999825 0.085230 0.770822
O O2 0.328382 0.881544 0.916272
O O3 0.248331 0.166945 0.008040
O O4 0.000000 0.000000 0.000000
O O5 0.270777 0.828040 0.465310
O O6 0.503757 0.588264 0.600331
O O7 0.523145 0.851777 0.727195
O O8 0.697087 0.746907 0.523612
O O9 0.225471 0.632696 0.245211
O O10 0.914396 0.736961 0.359723
O O11 0.572126 0.617442 0.868670
O O12 0.354804 0.426138 0.709233
O O13 0.000000 0.500000 0.500000
#
# Coordination Sequence:
#
# PCOD8028828 Si02
#       6
#     2   2   2   2   2   2
#     4  11  26  44  58  74 119 166 202 235 279 337
#     4   9  19  35  59  92 121 139 184 241 290 345
#     4  11  21  36  62  94 113 151 194 231 292 351
#     4   9  19  35  59  92 121 139 184 241 290 345
#     4   9  22  43  58  82 120 153 194 243 284 340
#     4  11  15  31  62  93 121 144 171 242 302 340
#
# _framework density 20.411867000000001
#
# number of rings (size 3 to 8) (size 9 to 14) (size 15 to 20)
#    1.000    1.000    3.333    1.000    0.000   10.667 
#    0.000    3.333    0.000    0.000    0.000    0.000 
#    0.000    0.000    0.000    0.000    0.000    0.000 
#
# Total GULP energy -148743.391857 kJ/mol
# GULP energy per Si atom -12395.282655 kJ/mol
# Density = 2.036541 g / cm^3
# Si number density = 20.411867 Si / 1000 Ang^3
#
#
#
# Elastic Constant Matrix: (Units=GPa)
#
#
# Indices 1 2 3 4 5 6 
#
# 1 138.9731 10.4662 24.4996 -5.3693 -18.4391 -4.3399
# 2 10.4662 12.0312 5.4027 3.3151 -8.5140 -4.0156
# 3 24.4996 5.4027 55.3876 2.3325 -0.3339 -0.6824
# 4 -5.3693 3.3151 2.3325 45.9079 -0.7255 -7.9171
# 5 -18.4391 -8.5140 -0.3339 -0.7255 31.7072 -5.0101
# 6 -4.3399 -4.0156 -0.6824 -7.9171 -5.0101 12.0339
#
#
#
# Elastic Compliance Matrix: (Units=1/GPa)
#
#
# Indices 1 2 3 4 5 6 
#
# 1 0.009104 0.000455 -0.004048 0.002677 0.006658 0.007739
# 2 0.000455 0.148729 -0.013643 0.003364 0.051626 0.072727
# 3 -0.004048 -0.013643 0.021113 -0.002294 -0.007329 -0.009376
# 4 0.002677 0.003364 -0.002294 0.025798 0.006441 0.021613
# 5 0.006658 0.051626 -0.007329 0.006441 0.056784 0.047092
# 6 0.007739 0.072727 -0.009376 0.021613 0.047092 0.143451
#
#
# Mechanical properties :
#
#
# Convention : Reuss Voigt Hill
#
# Bulk Modulus (GPa) = 6.92173 31.90319 19.41246
# Shear Modulus (GPa) = 10.25412 28.99803 19.62608
#
# Velocity S-wave (km/s) = 2.24377 3.77323 3.10418
# Velocity P-wave (km/s) = 3.17979 5.88615 4.73063
#
# Compressibility (1/GPa) = 0.14447264
#
# Stress axis : x y z
#
# Youngs Moduli (GPa) = 109.84777 6.72365 47.36421
#
# Poissons Ratio (x) = -0.00306 0.19175
# Poissons Ratio (y) = -0.05001 0.64620
# Poissons Ratio (z) = 0.44471 0.09173
#
# Static dielectric constant tensor:
#      x y z
#    x 3.747420 -0.063670 -0.028860 
#    y -0.063670 3.365690 0.113190 
#    z -0.028860 0.113190 3.572710 
# 
# 
# High freq. dielectric constant tensor:
#      x y z
#    x 1.808000 -0.009340 0.000440 
#    y -0.009340 1.774450 0.010740 
#    z 0.000440 0.010740 1.786020 
# 
# From -- ./inp_files/360762.got.cif
#   From: 2010.06.25/outbox.cif.g09.slc.cpg/sg2_181_cif.got.tgz:360762.got - 2010.06.27 13:26:56.
