data_PCOD8028470
_publ_section_title
;
Structure prediction by ZEFSAII (Michael W. Deem and Ramdas Pophale) SiO2 
 PCOD8028470
Probable space group: P -1
;
_chemical_formula_sum "Si O2"
_cell_formula_units_Z 14
_cell_length_a 20.973825
_cell_length_b 9.380599
_cell_length_c 8.673607
_cell_angle_alpha 54.814476
_cell_angle_beta 45.750020
_cell_angle_gamma 26.114429
_cell_volume 531.146892
_symmetry_space_group_name_H-M "P -1"
_symmetry_group_IT_number 2
_symmetry_cell_setting 'triclinic'
loop_
_space_group_symop_operation_xyz
x,y,z
-x,-y,-z
loop_
_atom_site_type_symbol
_atom_site_label
_atom_site_fract_x
_atom_site_fract_y
_atom_site_fract_z
Si Si1 0.469458 0.300442 0.947872
Si Si2 0.684255 0.520206 0.586392
Si Si3 0.747285 0.578811 0.942203
Si Si4 0.069144 0.156886 0.508571
Si Si5 0.604740 0.177825 0.271111
Si Si6 0.857382 0.811493 0.322996
Si Si7 0.845806 0.537371 0.120615
O O1 0.405326 0.310533 0.204188
O O2 0.353667 0.429608 0.921156
O O3 0.467471 0.511021 0.839955
O O4 0.654631 0.915553 0.841587
O O5 0.544295 0.715682 0.567318
O O6 0.795470 0.508756 0.374780
O O7 0.810996 0.148193 0.615776
O O8 0.919845 0.282824 0.742783
O O9 0.776316 0.533869 0.102381
O O10 0.177835 0.034258 0.552250
O O11 0.995426 0.435621 0.359321
O O12 0.680589 0.046508 0.399732
O O13 0.751763 0.880047 0.087433
O O14 0.955546 0.764981 0.056117
#
# Coordination Sequence:
#
# PCOD8028470 Si02
#       7
#     2   2   2   2   2   2   2
#     4  11  26  46  76 107 146 194 243 296 363 431
#     4  12  27  44  78 109 148 187 246 299 364 424
#     4  10  25  47  74 103 151 192 240 295 367 431
#     4  10  25  47  74 105 149 191 240 299 367 431
#     4  12  26  44  75 108 144 190 244 301 352 434
#     4  10  25  46  73 104 150 191 241 297 365 430
#     4  11  25  47  73 106 150 189 240 304 360 426
#
# _framework density 26.358056999999999
#
# number of rings (size 3 to 8) (size 9 to 14) (size 15 to 20)
#    0.000    1.143    1.429    2.143   12.000    3.429 
#    0.000    0.000    0.000    0.000    0.000    0.000 
#    0.000    0.000    0.000    0.000    0.000    0.000 
#
# Total GULP energy -173574.212217 kJ/mol
# GULP energy per Si atom -12398.158016 kJ/mol
# Density = 2.629806 g / cm^3
# Si number density = 26.358057 Si / 1000 Ang^3
#
#
#
# Elastic Constant Matrix: (Units=GPa)
#
#
# Indices 1 2 3 4 5 6 
#
# 1 86.0137 14.5831 4.3865 0.3342 -3.5596 -3.7108
# 2 14.5831 65.4325 -1.9528 13.1576 5.7307 6.8580
# 3 4.3865 -1.9528 48.7325 -9.8270 0.1191 -2.3597
# 4 0.3342 13.1576 -9.8270 25.9031 2.4971 -0.0754
# 5 -3.5596 5.7307 0.1191 2.4971 22.3502 -6.2508
# 6 -3.7108 6.8580 -2.3597 -0.0754 -6.2508 39.8453
#
#
#
# Elastic Compliance Matrix: (Units=1/GPa)
#
#
# Indices 1 2 3 4 5 6 
#
# 1 0.012513 -0.003545 -0.000977 0.000944 0.003433 0.002258
# 2 -0.003545 0.018905 -0.001029 -0.009419 -0.005625 -0.004545
# 3 -0.000977 -0.001029 0.022474 0.009129 -0.000659 0.001331
# 4 0.000944 -0.009419 0.009129 0.047057 -0.002182 0.001996
# 5 0.003433 -0.005625 -0.000659 -0.002182 0.049499 0.009010
# 6 0.002258 -0.004545 0.001331 0.001996 0.009010 0.027586
#
#
# Mechanical properties :
#
#
# Convention : Reuss Voigt Hill
#
# Bulk Modulus (GPa) = 23.37008 26.02359 24.69683
# Shear Modulus (GPa) = 24.58228 29.83052 27.20640
#
# Velocity S-wave (km/s) = 3.05721 3.36779 3.21625
# Velocity P-wave (km/s) = 4.62036 5.00172 4.81481
#
# Compressibility (1/GPa) = 0.04278976
#
# Stress axis : x y z
#
# Youngs Moduli (GPa) = 79.91840 52.89495 44.49639
#
# Poissons Ratio (x) = 0.18752 0.04347
# Poissons Ratio (y) = 0.28332 0.04578
# Poissons Ratio (z) = 0.07808 0.05443
#
# Static dielectric constant tensor:
#      x y z
#    x 4.828900 0.042800 -0.009410 
#    y 0.042800 4.639470 0.254570 
#    z -0.009410 0.254570 4.409480 
# 
# 
# High freq. dielectric constant tensor:
#      x y z
#    x 2.060490 0.005420 -0.001760 
#    y 0.005420 2.055840 0.018380 
#    z -0.001760 0.018380 2.044340 
# 
# From -- ./inp_files/343404.got.cif
#   From: 2010.06.25/outbox.cif.g09.slc.cpg/sg2_172_cif.got.tgz:343404.got - 2010.06.27 13:26:56.
