data_PCOD8028946
_publ_section_title
;
Structure prediction by ZEFSAII (Michael W. Deem and Ramdas Pophale) SiO2 
 PCOD8028946
Probable space group: P -1
;
_chemical_formula_sum "Si O2"
_cell_formula_units_Z 16
_cell_length_a 12.225950
_cell_length_b 19.693789
_cell_length_c 18.080231
_cell_angle_alpha 20.267291
_cell_angle_beta 32.771253
_cell_angle_gamma 32.900561
_cell_volume 785.674310
_symmetry_space_group_name_H-M "P -1"
_symmetry_group_IT_number 2
_symmetry_cell_setting 'triclinic'
loop_
_space_group_symop_operation_xyz
x,y,z
-x,-y,-z
loop_
_atom_site_type_symbol
_atom_site_label
_atom_site_fract_x
_atom_site_fract_y
_atom_site_fract_z
Si Si1 0.566798 0.074387 0.681031
Si Si2 0.180627 0.421622 0.571960
Si Si3 0.576300 0.725125 0.929111
Si Si4 0.870648 0.305889 0.240876
Si Si5 0.113507 0.775444 0.135487
Si Si6 0.017760 0.231764 0.398296
Si Si7 0.811631 0.886674 0.860397
Si Si8 0.280808 0.453974 0.650610
O O1 0.517504 0.878395 0.875016
O O2 0.607222 0.037090 0.784098
O O3 0.385327 0.278316 0.562887
O O4 0.781034 0.106716 0.490228
O O5 0.109725 0.633070 0.353451
O O6 0.233857 0.474759 0.569731
O O7 0.005476 0.296206 0.792797
O O8 0.730623 0.796493 0.710782
O O9 0.682309 0.500912 0.128485
O O10 0.349725 0.744413 0.001637
O O11 0.949710 0.325546 0.259196
O O12 0.063314 0.277051 0.104162
O O13 0.000000 0.000000 0.000000
O O14 0.908705 0.389712 0.360824
O O15 0.963535 0.020932 0.664639
O O16 0.724670 0.773367 0.090775
O O17 0.500000 0.500000 0.500000
#
# Coordination Sequence:
#
# PCOD8028946 Si02
#       8
#     2   2   2   2   2   2   2   2
#     4  11  20  35  65  96 129 161 210 265 312 377
#     4  11  26  45  61  96 131 167 218 265 319 381
#     4  12  20  35  68  95 116 163 219 269 319 358
#     4  11  19  35  60  98 133 160 214 265 313 373
#     4  11  25  44  71  92 119 167 225 280 317 361
#     4  11  22  37  61  97 130 169 210 260 320 380
#     4  11  22  37  61  98 136 171 201 258 323 385
#     4  12  27  41  62  94 139 178 203 248 326 406
#
# _framework density 20.364673
#
# number of rings (size 3 to 8) (size 9 to 14) (size 15 to 20)
#    0.000    0.750    6.250    3.375    1.750    3.000 
#    0.000    0.625    0.000    1.500    0.000    0.000 
#    0.000    0.000    0.000    0.000    0.000    0.000 
#
# Total GULP energy -198374.205458 kJ/mol
# GULP energy per Si atom -12398.387841 kJ/mol
# Density = 2.031832 g / cm^3
# Si number density = 20.364673 Si / 1000 Ang^3
#
#
#
# Elastic Constant Matrix: (Units=GPa)
#
#
# Indices 1 2 3 4 5 6 
#
# 1 102.5449 29.3522 35.2912 9.0942 -19.1591 -7.7804
# 2 29.3522 90.4042 27.6490 -1.0670 -9.3796 -16.9565
# 3 35.2912 27.6490 109.4754 3.8343 -15.0950 -8.8846
# 4 9.0942 -1.0670 3.8343 39.5687 -8.0814 -7.4577
# 5 -19.1591 -9.3796 -15.0950 -8.0814 32.5081 6.7627
# 6 -7.7804 -16.9565 -8.8846 -7.4577 6.7627 28.5011
#
#
#
# Elastic Compliance Matrix: (Units=1/GPa)
#
#
# Indices 1 2 3 4 5 6 
#
# 1 0.012528 -0.002919 -0.002607 -0.001827 0.005044 -0.000804
# 2 -0.002919 0.014144 -0.002040 0.002788 0.000528 0.007586
# 3 -0.002607 -0.002040 0.010944 0.000227 0.002831 0.000873
# 4 -0.001827 0.002788 0.000227 0.028217 0.005318 0.007352
# 5 0.005044 0.000528 0.002831 0.005318 0.037552 -0.004945
# 6 -0.000804 0.007586 0.000873 0.007352 -0.004945 0.042749
#
#
# Mechanical properties :
#
#
# Convention : Reuss Voigt Hill
#
# Bulk Modulus (GPa) = 44.48026 54.11213 49.29620
# Shear Modulus (GPa) = 29.62761 34.12438 31.87599
#
# Velocity S-wave (km/s) = 3.81839 4.09793 3.96063
# Velocity P-wave (km/s) = 6.42880 7.00143 6.72121
#
# Compressibility (1/GPa) = 0.02248188
#
# Stress axis : x y z
#
# Youngs Moduli (GPa) = 79.82074 70.70243 91.37836
#
# Poissons Ratio (x) = 0.20641 0.23824
# Poissons Ratio (y) = 0.23303 0.18643
# Poissons Ratio (z) = 0.20810 0.14425
#
# Static dielectric constant tensor:
#      x y z
#    x 3.515790 -0.185580 -0.333720 
#    y -0.185580 3.755910 -0.003250 
#    z -0.333720 -0.003250 3.899820 
# 
# 
# High freq. dielectric constant tensor:
#      x y z
#    x 1.759780 -0.004670 -0.031050 
#    y -0.004670 1.806410 -0.008900 
#    z -0.031050 -0.008900 1.809900 
# 
# From -- ./inp_files/570656.got.cif
#   From: 2010.06.25/outbox.cif.g09.slc.cpg/sg2_286_cif.got.tgz:570656.got - 2010.06.27 13:26:56.
