data_PCOD8028437
_publ_section_title
;
Structure prediction by ZEFSAII (Michael W. Deem and Ramdas Pophale) SiO2 
 PCOD8028437
Probable space group: P -1
;
_chemical_formula_sum "Si O2"
_cell_formula_units_Z 12
_cell_length_a 9.539458
_cell_length_b 12.417141
_cell_length_c 5.326640
_cell_angle_alpha 95.022475
_cell_angle_beta 123.721750
_cell_angle_gamma 103.997127
_cell_volume 489.598166
_symmetry_space_group_name_H-M "P -1"
_symmetry_group_IT_number 2
_symmetry_cell_setting 'triclinic'
loop_
_space_group_symop_operation_xyz
x,y,z
-x,-y,-z
loop_
_atom_site_type_symbol
_atom_site_label
_atom_site_fract_x
_atom_site_fract_y
_atom_site_fract_z
Si Si1 0.139193 0.627541 0.566111
Si Si2 0.487085 0.274266 0.835335
Si Si3 0.987648 0.066964 0.752804
Si Si4 0.189166 0.312413 0.865813
Si Si5 0.596020 0.984404 0.343387
Si Si6 0.765156 0.454554 0.862428
O O1 0.126771 0.568886 0.268178
O O2 0.995536 0.692806 0.460012
O O3 0.344160 0.718474 0.813684
O O4 0.115956 0.536665 0.758401
O O5 0.349603 0.328318 0.832683
O O6 0.383576 0.140835 0.643886
O O7 0.571111 0.351687 0.685743
O O8 0.145064 0.192126 0.946659
O O9 0.793722 0.081405 0.561580
O O10 0.000000 0.000000 0.500000
O O11 0.000000 0.000000 0.000000
O O12 0.255760 0.419961 0.149578
O O13 0.500000 0.000000 0.500000
O O14 0.500000 0.000000 0.000000
#
# Coordination Sequence:
#
# PCOD8028437 Si02
#       6
#     2   2   2   2   2   2
#     4  10  25  46  70 109 145 187 240 292 364 430
#     4  10  26  46  76 105 146 183 247 288 366 428
#     4  12  28  48  71 108 143 188 248 299 361 433
#     4  12  24  49  75 105 148 192 238 304 358 433
#     4  12  27  49  76 102 147 194 241 305 366 429
#     4  10  25  47  71 109 146 189 238 299 364 427
#
# _framework density 24.509893999999999
#
# number of rings (size 3 to 8) (size 9 to 14) (size 15 to 20)
#    1.000    0.000    1.667    3.500    4.667    3.333 
#    3.000    0.000    0.000    0.000    0.000    0.000 
#    0.000    0.000    0.000    0.000    0.000    0.000 
#
# Total GULP energy -148789.487617 kJ/mol
# GULP energy per Si atom -12399.123968 kJ/mol
# Density = 2.445411 g / cm^3
# Si number density = 24.509894 Si / 1000 Ang^3
#
#
#
# Elastic Constant Matrix: (Units=GPa)
#
#
# Indices 1 2 3 4 5 6 
#
# 1 194.6550 30.7135 40.9816 -14.2893 -1.4567 -0.1818
# 2 30.7135 126.8853 9.8579 5.3310 -11.2564 16.6345
# 3 40.9816 9.8579 78.6030 -14.7575 -13.6227 8.0162
# 4 -14.2893 5.3310 -14.7575 34.6547 2.6819 -0.3473
# 5 -1.4567 -11.2564 -13.6227 2.6819 50.4392 -1.8777
# 6 -0.1818 16.6345 8.0162 -0.3473 -1.8777 49.1825
#
#
#
# Elastic Compliance Matrix: (Units=1/GPa)
#
#
# Indices 1 2 3 4 5 6 
#
# 1 0.006116 -0.001537 -0.002978 0.001579 -0.001017 0.001000
# 2 -0.001537 0.008911 -0.000100 -0.002226 0.001926 -0.002946
# 3 -0.002978 -0.000100 0.016219 0.005368 0.003896 -0.002434
# 4 0.001579 -0.002226 0.005368 0.032191 -0.000710 0.000084
# 5 -0.001017 0.001926 0.003896 -0.000710 0.021298 -0.000482
# 6 0.001000 -0.002946 -0.002434 0.000084 -0.000482 0.021711
#
#
# Mechanical properties :
#
#
# Convention : Reuss Voigt Hill
#
# Bulk Modulus (GPa) = 45.42018 62.58328 54.00173
# Shear Modulus (GPa) = 40.64548 48.09464 44.37006
#
# Velocity S-wave (km/s) = 4.07668 4.43454 4.25937
# Velocity P-wave (km/s) = 6.38206 7.19788 6.80221
#
# Compressibility (1/GPa) = 0.02201665
#
# Stress axis : x y z
#
# Youngs Moduli (GPa) = 163.50760 112.21561 61.65769
#
# Poissons Ratio (x) = 0.17245 0.18361
# Poissons Ratio (y) = 0.25127 0.00617
# Poissons Ratio (z) = 0.48690 0.01123
#
# Static dielectric constant tensor:
#      x y z
#    x 4.548720 0.276550 0.247160 
#    y 0.276550 4.530850 0.160910 
#    z 0.247160 0.160910 4.289030 
# 
# 
# High freq. dielectric constant tensor:
#      x y z
#    x 1.999480 0.018880 0.016740 
#    y 0.018880 1.978300 0.012280 
#    z 0.016740 0.012280 1.969790 
# 
# From -- ./inp_files/28594.got.cif
#   From: 2010.06.25/outbox.cif.g09.slc.cpg/sg2_15_cif.got.tgz:28594.got - 2010.06.27 13:26:56.
