data_PCOD8028801
_publ_section_title
;
Structure prediction by ZEFSAII (Michael W. Deem and Ramdas Pophale) SiO2 
 PCOD8028801
Probable space group: P -1
;
_chemical_formula_sum "Si O2"
_cell_formula_units_Z 16
_cell_length_a 10.883254
_cell_length_b 12.289382
_cell_length_c 13.356593
_cell_angle_alpha 145.260036
_cell_angle_beta 76.080952
_cell_angle_gamma 79.197109
_cell_volume 709.274737
_symmetry_space_group_name_H-M "P -1"
_symmetry_group_IT_number 2
_symmetry_cell_setting 'triclinic'
loop_
_space_group_symop_operation_xyz
x,y,z
-x,-y,-z
loop_
_atom_site_type_symbol
_atom_site_label
_atom_site_fract_x
_atom_site_fract_y
_atom_site_fract_z
Si Si1 0.502384 0.754428 0.739681
Si Si2 0.802167 0.166759 0.204669
Si Si3 0.864500 0.905484 0.190872
Si Si4 0.706515 0.114047 0.751984
Si Si5 0.065527 0.569808 0.267139
Si Si6 0.142878 0.644151 0.094865
Si Si7 0.569151 0.760536 0.949083
Si Si8 0.323339 0.074736 0.589134
O O1 0.658161 0.480421 0.442438
O O2 0.296248 0.914242 0.884221
O O3 0.550502 0.664351 0.777569
O O4 0.522356 0.943219 0.834726
O O5 0.815614 0.122943 0.288016
O O6 0.000000 0.000000 0.000000
O O7 0.692646 0.013530 0.367027
O O8 0.984973 0.878109 0.231331
O O9 0.949968 0.638641 0.911650
O O10 0.710023 0.342860 0.927111
O O11 0.690123 0.059155 0.599725
O O12 0.535143 0.231102 0.934722
O O13 0.883267 0.833849 0.553266
O O14 0.083528 0.680385 0.247855
O O15 0.227124 0.436689 0.209542
O O16 0.183533 0.393762 0.850134
O O17 0.500000 0.000000 0.500000
#
# Coordination Sequence:
#
# PCOD8028801 Si02
#       8
#     2   2   2   2   2   2   2   2
#     4  10  26  49  65 101 141 170 240 303 338 412
#     4  11  26  45  76 102 129 186 240 289 355 412
#     4  11  22  44  67 101 140 178 230 289 347 413
#     4  12  25  42  71 103 138 188 232 276 345 431
#     4  11  22  44  68  97 141 187 222 281 349 418
#     4  11  24  42  64 103 143 174 236 276 340 426
#     4  11  26  45  69  99 139 184 228 292 352 405
#     4  11  24  42  68 101 145 187 223 283 352 417
#
# _framework density 22.558254000000002
#
# number of rings (size 3 to 8) (size 9 to 14) (size 15 to 20)
#    0.000    1.000    3.750    2.625    5.250    3.000 
#    0.000    2.500    0.000    0.000    0.000    0.000 
#    0.000    0.000    0.000    0.000    0.000    0.000 
#
# Total GULP energy -198273.766619 kJ/mol
# GULP energy per Si atom -12392.110414 kJ/mol
# Density = 2.250691 g / cm^3
# Si number density = 22.558254 Si / 1000 Ang^3
#
#
#
# Elastic Constant Matrix: (Units=GPa)
#
#
# Indices 1 2 3 4 5 6 
#
# 1 110.3540 31.3812 20.8488 -9.1881 -17.6796 -4.8050
# 2 31.3812 108.8424 11.5740 -1.3785 -4.3547 -11.4196
# 3 20.8488 11.5740 43.0198 -3.1331 -19.7856 4.6779
# 4 -9.1881 -1.3785 -3.1331 23.8001 -5.8361 -2.2932
# 5 -17.6796 -4.3547 -19.7856 -5.8361 39.1167 1.9012
# 6 -4.8050 -11.4196 4.6779 -2.2932 1.9012 46.4684
#
#
#
# Elastic Compliance Matrix: (Units=1/GPa)
#
#
# Indices 1 2 3 4 5 6 
#
# 1 0.011465 -0.002706 -0.002579 0.005064 0.004290 0.000855
# 2 -0.002706 0.010436 -0.002598 -0.000937 -0.001640 0.002567
# 3 -0.002579 -0.002598 0.034063 0.007069 0.017057 -0.004683
# 4 0.005064 -0.000937 0.007069 0.048142 0.012873 0.001431
# 5 0.004290 -0.001640 0.017057 0.012873 0.037995 -0.002596
# 6 0.000855 0.002567 -0.004683 0.001431 -0.002596 0.022888
#
#
# Mechanical properties :
#
#
# Convention : Reuss Voigt Hill
#
# Bulk Modulus (GPa) = 24.87723 43.31377 34.09550
# Shear Modulus (GPa) = 25.75285 35.10452 30.42868
#
# Velocity S-wave (km/s) = 3.38245 3.94911 3.67671
# Velocity P-wave (km/s) = 5.12899 6.32744 5.75947
#
# Compressibility (1/GPa) = 0.04019739
#
# Stress axis : x y z
#
# Youngs Moduli (GPa) = 87.22535 95.82366 29.35750
#
# Poissons Ratio (x) = 0.25927 0.07572
# Poissons Ratio (y) = 0.23601 0.07627
# Poissons Ratio (z) = 0.22498 0.24894
#
# Static dielectric constant tensor:
#      x y z
#    x 4.658550 -0.630070 -0.495690 
#    y -0.630070 4.624970 0.697550 
#    z -0.495690 0.697550 4.565540 
# 
# 
# High freq. dielectric constant tensor:
#      x y z
#    x 1.903500 -0.008950 0.004760 
#    y -0.008950 1.885210 0.012620 
#    z 0.004760 0.012620 1.880080 
# 
# From -- ./inp_files/429076.got.cif
#   From: 2010.06.25/outbox.cif.g09.slc.cpg/sg2_215_cif.got.tgz:429076.got - 2010.06.27 13:26:56.
