data_PCOD8028587
_publ_section_title
;
Structure prediction by ZEFSAII (Michael W. Deem and Ramdas Pophale) SiO2 
 PCOD8028587
Probable space group: P -1
;
_chemical_formula_sum "Si O2"
_cell_formula_units_Z 16
_cell_length_a 14.205503
_cell_length_b 11.956620
_cell_length_c 11.733495
_cell_angle_alpha 91.114366
_cell_angle_beta 151.546737
_cell_angle_gamma 106.711776
_cell_volume 729.792517
_symmetry_space_group_name_H-M "P -1"
_symmetry_group_IT_number 2
_symmetry_cell_setting 'triclinic'
loop_
_space_group_symop_operation_xyz
x,y,z
-x,-y,-z
loop_
_atom_site_type_symbol
_atom_site_label
_atom_site_fract_x
_atom_site_fract_y
_atom_site_fract_z
Si Si1 0.595028 0.781846 0.360404
Si Si2 0.903848 0.060360 0.251197
Si Si3 0.361981 0.559641 0.303252
Si Si4 0.076397 0.816545 0.491795
Si Si5 0.767454 0.322140 0.634592
Si Si6 0.262826 0.658915 0.789876
Si Si7 0.582814 0.722433 0.928818
Si Si8 0.412976 0.978778 0.640179
O O1 0.539326 0.665258 0.390421
O O2 0.844521 0.839835 0.555890
O O3 0.628220 0.915088 0.461858
O O4 0.352506 0.703085 0.015605
O O5 0.960466 0.108320 0.443982
O O6 0.769323 0.892313 0.100092
O O7 0.711884 0.080200 0.991404
O O8 0.500000 0.500000 0.500000
O O9 0.340210 0.655805 0.368412
O O10 0.074601 0.427213 0.953917
O O11 0.222681 0.761976 0.688529
O O12 0.254984 0.933248 0.588044
O O13 0.782553 0.689370 0.127661
O O14 0.659688 0.358057 0.415688
O O15 0.675490 0.159276 0.532429
O O16 0.480058 0.676446 0.947051
O O17 0.000000 0.500000 0.500000
#
# Coordination Sequence:
#
# PCOD8028587 Si02
#       8
#     2   2   2   2   2   2   2   2
#     4  12  25  43  69 106 139 177 238 289 342 407
#     4  11  21  38  64 107 138 179 222 267 340 411
#     4  11  28  52  75  92 134 186 232 296 354 411
#     4  12  21  38  66 100 146 187 210 264 341 406
#     4  10  25  48  72 102 129 185 236 278 355 412
#     4  12  25  40  61 103 147 186 228 272 334 417
#     4  11  22  39  69 100 141 176 221 274 339 412
#     4  11  23  40  74 104 139 183 225 289 338 410
#
# _framework density 21.924039
#
# number of rings (size 3 to 8) (size 9 to 14) (size 15 to 20)
#    0.000    0.750    6.250    2.250    1.750    3.000 
#    2.250    4.375    0.000    0.000    0.000    0.000 
#    0.000    0.000    0.000    0.000    0.000    0.000 
#
# Total GULP energy -198313.882355 kJ/mol
# GULP energy per Si atom -12394.617647 kJ/mol
# Density = 2.187414 g / cm^3
# Si number density = 21.924039 Si / 1000 Ang^3
#
#
#
# Elastic Constant Matrix: (Units=GPa)
#
#
# Indices 1 2 3 4 5 6 
#
# 1 93.0313 34.1135 55.2341 8.6953 17.1364 1.5607
# 2 34.1135 96.2587 47.5893 0.2972 9.7859 13.8413
# 3 55.2341 47.5893 136.6299 -7.7090 13.8731 -3.8700
# 4 8.6953 0.2972 -7.7090 32.8851 -0.8867 3.5773
# 5 17.1364 9.7859 13.8731 -0.8867 36.6899 0.1917
# 6 1.5607 13.8413 -3.8700 3.5773 0.1917 29.6464
#
#
#
# Elastic Compliance Matrix: (Units=1/GPa)
#
#
# Indices 1 2 3 4 5 6 
#
# 1 0.016469 -0.002613 -0.005554 -0.005808 -0.005038 0.000361
# 2 -0.002613 0.014458 -0.004055 0.000362 -0.001056 -0.007179
# 3 -0.005554 -0.004055 0.011336 0.003799 -0.000536 0.003211
# 4 -0.005808 0.000362 0.003799 0.033255 0.002001 -0.003393
# 5 -0.005038 -0.001056 -0.000536 0.002001 0.030140 0.000252
# 6 0.000361 -0.007179 0.003211 -0.003393 0.000252 0.037890
#
#
# Mechanical properties :
#
#
# Convention : Reuss Voigt Hill
#
# Bulk Modulus (GPa) = 56.11663 66.64376 61.38019
# Shear Modulus (GPa) = 28.74678 32.44315 30.59497
#
# Velocity S-wave (km/s) = 3.62498 3.85099 3.73969
# Velocity P-wave (km/s) = 6.57055 7.08781 6.83407
#
# Compressibility (1/GPa) = 0.01782003
#
# Stress axis : x y z
#
# Youngs Moduli (GPa) = 60.71928 69.16572 88.21129
#
# Poissons Ratio (x) = 0.18071 0.48991
# Poissons Ratio (y) = 0.15864 0.35772
# Poissons Ratio (z) = 0.33722 0.28049
#
# Static dielectric constant tensor:
#      x y z
#    x 4.020970 -0.244890 0.098270 
#    y -0.244890 3.829440 -0.239540 
#    z 0.098270 -0.239540 4.395280 
# 
# 
# High freq. dielectric constant tensor:
#      x y z
#    x 1.858130 -0.010810 0.018130 
#    y -0.010810 1.849940 -0.008880 
#    z 0.018130 -0.008880 1.879330 
# 
# From -- ./inp_files/452304.got.cif
#   From: 2010.06.25/outbox.cif.g09.slc.cpg/sg2_227_cif.got.tgz:452304.got - 2010.06.27 13:26:56.
