data_PCOD8028729
_publ_section_title
;
Structure prediction by ZEFSAII (Michael W. Deem and Ramdas Pophale) SiO2 
 PCOD8028729
Probable space group: P -1
;
_chemical_formula_sum "Si O2"
_cell_formula_units_Z 14
_cell_length_a 9.645427
_cell_length_b 11.669961
_cell_length_c 6.485923
_cell_angle_alpha 48.881905
_cell_angle_beta 81.539697
_cell_angle_gamma 70.210198
_cell_volume 514.572007
_symmetry_space_group_name_H-M "P -1"
_symmetry_group_IT_number 2
_symmetry_cell_setting 'triclinic'
loop_
_space_group_symop_operation_xyz
x,y,z
-x,-y,-z
loop_
_atom_site_type_symbol
_atom_site_label
_atom_site_fract_x
_atom_site_fract_y
_atom_site_fract_z
Si Si1 0.291932 0.136915 0.358505
Si Si2 0.898385 0.065777 0.641403
Si Si3 0.116385 0.175654 0.744973
Si Si4 0.195012 0.591478 0.828351
Si Si5 0.049367 0.406817 0.833236
Si Si6 0.569623 0.218073 0.302116
Si Si7 0.495518 0.496539 0.264640
O O1 0.257053 0.146378 0.600590
O O2 0.159534 0.268553 0.117243
O O3 0.450626 0.160084 0.267271
O O4 0.298728 0.957099 0.482080
O O5 0.773155 0.235717 0.401845
O O6 0.986982 0.137961 0.698635
O O7 0.000000 0.000000 0.500000
O O8 0.840023 0.938183 0.925711
O O9 0.070868 0.357758 0.642910
O O10 0.358684 0.466841 0.907139
O O11 0.119005 0.573108 0.083483
O O12 0.088223 0.568111 0.692267
O O13 0.490501 0.322025 0.399311
O O14 0.626774 0.343559 0.996072
O O15 0.500000 0.500000 0.500000
#
# Coordination Sequence:
#
# PCOD8028729 Si02
#       7
#     2   2   2   2   2   2   2
#     4  11  23  46  68  97 135 173 228 280 324 404
#     4  11  23  43  62 104 137 169 214 276 336 403
#     4  11  24  39  70 100 130 175 226 260 344 412
#     4  11  24  44  69  94 147 169 211 291 337 383
#     4  11  24  45  66 105 135 175 215 283 344 393
#     4  10  26  46  67  93 136 183 222 276 332 381
#     4  11  26  46  67 100 131 181 228 269 330 407
#
# _framework density 27.207076000000001
#
# number of rings (size 3 to 8) (size 9 to 14) (size 15 to 20)
#    0.000    1.143    4.286    0.000    8.000    0.571 
#    2.571    2.857    0.000    0.000    0.000    0.000 
#    0.000    0.000    0.000    0.000    0.000    0.000 
#
# Total GULP energy -173504.879827 kJ/mol
# GULP energy per Si atom -12393.205702 kJ/mol
# Density = 2.714515 g / cm^3
# Si number density = 27.207076 Si / 1000 Ang^3
#
#
#
# Elastic Constant Matrix: (Units=GPa)
#
#
# Indices 1 2 3 4 5 6 
#
# 1 54.6008 5.3680 -8.1918 -1.0154 -10.3557 -2.2308
# 2 5.3680 196.9382 47.8340 7.8321 -4.9947 21.8577
# 3 -8.1918 47.8340 97.4881 28.0328 7.0257 -8.9589
# 4 -1.0154 7.8321 28.0328 51.1411 7.2520 2.9140
# 5 -10.3557 -4.9947 7.0257 7.2520 35.8692 -6.1715
# 6 -2.2308 21.8577 -8.9589 2.9140 -6.1715 45.5670
#
#
#
# Elastic Compliance Matrix: (Units=1/GPa)
#
#
# Indices 1 2 3 4 5 6 
#
# 1 0.020086 -0.001330 0.002748 -0.001931 0.005999 0.003097
# 2 -0.001330 0.006513 -0.004109 0.001409 0.000348 -0.004040
# 3 0.002748 -0.004109 0.015339 -0.008016 -0.000198 0.005607
# 4 -0.001931 0.001409 -0.008016 0.024596 -0.004544 -0.004535
# 5 0.005999 0.000348 -0.000198 -0.004544 0.031414 0.004633
# 6 0.003097 -0.004040 0.005607 -0.004535 0.004633 0.026055
#
#
# Mechanical properties :
#
#
# Convention : Reuss Voigt Hill
#
# Bulk Modulus (GPa) = 27.35493 48.78303 38.06898
# Shear Modulus (GPa) = 35.31766 46.78325 41.05045
#
# Velocity S-wave (km/s) = 3.60683 4.15121 3.88856
# Velocity P-wave (km/s) = 5.23658 6.39890 5.84670
#
# Compressibility (1/GPa) = 0.03655648
#
# Stress axis : x y z
#
# Youngs Moduli (GPa) = 49.78549 153.53309 65.19202
#
# Poissons Ratio (x) = 0.20416 -0.17914
# Poissons Ratio (y) = 0.06620 0.26789
# Poissons Ratio (z) = -0.13680 0.63090
#
# Static dielectric constant tensor:
#      x y z
#    x 5.196840 0.419510 0.296660 
#    y 0.419510 5.685500 -0.389180 
#    z 0.296660 -0.389180 5.285140 
# 
# 
# High freq. dielectric constant tensor:
#      x y z
#    x 2.111450 0.032550 0.031860 
#    y 0.032550 2.136930 -0.026020 
#    z 0.031860 -0.026020 2.096280 
# 
# From -- ./inp_files/65455.got.cif
#   From: 2010.06.25/outbox.cif.g09.slc.cpg/sg2_33_cif.got.tgz:65455.got - 2010.06.27 13:26:56.
