data_PCOD8028193
_publ_section_title
;
Structure prediction by ZEFSAII (Michael W. Deem and Ramdas Pophale) SiO2 
 PCOD8028193
Probable space group: P -1
;
_chemical_formula_sum "Si O2"
_cell_formula_units_Z 16
_cell_length_a 12.432126
_cell_length_b 24.086701
_cell_length_c 9.885136
_cell_angle_alpha 126.936912
_cell_angle_beta 126.441007
_cell_angle_gamma 17.919947
_cell_volume 725.012821
_symmetry_space_group_name_H-M "P -1"
_symmetry_group_IT_number 2
_symmetry_cell_setting 'triclinic'
loop_
_space_group_symop_operation_xyz
x,y,z
-x,-y,-z
loop_
_atom_site_type_symbol
_atom_site_label
_atom_site_fract_x
_atom_site_fract_y
_atom_site_fract_z
Si Si1 0.609515 0.657359 0.463659
Si Si2 0.806592 0.905693 0.072683
Si Si3 0.307548 0.640877 0.830918
Si Si4 0.577982 0.776357 0.831745
Si Si5 0.628828 0.623700 0.137661
Si Si6 0.808261 0.907366 0.610710
Si Si7 0.236022 0.709891 0.366617
Si Si8 0.376564 0.852453 0.083359
O O1 0.418657 0.804668 0.634469
O O2 0.428043 0.735368 0.294395
O O3 0.563477 0.606293 0.436968
O O4 0.000000 0.500000 0.500000
O O5 0.949750 0.861588 0.259135
O O6 0.646819 0.045997 0.074154
O O7 0.103956 0.724549 0.941289
O O8 0.500000 0.000000 0.000000
O O9 0.626807 0.434337 0.754060
O O10 0.063662 0.749234 0.677939
O O11 0.442916 0.654690 0.954976
O O12 0.993021 0.586874 0.842508
O O13 0.559210 0.751442 0.928659
O O14 0.615898 0.700167 0.152732
O O15 0.033206 0.816508 0.512097
O O16 0.500000 0.000000 0.500000
O O17 0.638660 0.059557 0.761177
O O18 0.000000 0.000000 0.000000
#
# Coordination Sequence:
#
# PCOD8028193 Si02
#       8
#     2   2   2   2   2   2   2   2
#     4  10  25  44  70 108 139 179 240 299 354 432
#     4  12  25  43  73 104 139 184 234 295 356 429
#     4  12  25  48  72 100 143 187 246 285 363 436
#     4  11  25  45  70 103 142 182 238 291 359 424
#     4  11  24  45  73 102 139 190 236 297 351 439
#     4  12  28  48  71 109 147 187 243 303 359 428
#     4  12  27  45  74 103 144 193 233 298 365 422
#     4  12  24  47  73  99 143 188 245 293 360 427
#
# _framework density 22.068576
#
# number of rings (size 3 to 8) (size 9 to 14) (size 15 to 20)
#    0.000    0.500    3.750    3.375    7.000    2.500 
#    0.000    0.000    0.000    0.000    0.000    0.000 
#    0.000    0.000    0.000    0.000    0.000    0.000 
#
# Total GULP energy -198368.728167 kJ/mol
# GULP energy per Si atom -12398.045510 kJ/mol
# Density = 2.201835 g / cm^3
# Si number density = 22.068576 Si / 1000 Ang^3
#
#
#
# Elastic Constant Matrix: (Units=GPa)
#
#
# Indices 1 2 3 4 5 6 
#
# 1 118.4704 22.2477 53.3905 3.4889 3.7949 -4.6307
# 2 22.2477 75.5392 32.8735 -0.1640 6.3414 8.5634
# 3 53.3905 32.8735 141.1468 2.8924 -12.8089 -5.3486
# 4 3.4889 -0.1640 2.8924 36.3932 -6.9705 -3.4549
# 5 3.7949 6.3414 -12.8089 -6.9705 45.5409 -5.0088
# 6 -4.6307 8.5634 -5.3486 -3.4549 -5.0088 37.2314
#
#
#
# Elastic Compliance Matrix: (Units=1/GPa)
#
#
# Indices 1 2 3 4 5 6 
#
# 1 0.010518 -0.001392 -0.003770 -0.000991 -0.001812 0.000751
# 2 -0.001392 0.016179 -0.003767 -0.000710 -0.003857 -0.005020
# 3 -0.003770 -0.003767 0.009826 0.000547 0.003949 0.002391
# 4 -0.000991 -0.000710 0.000547 0.028840 0.005133 0.003485
# 5 -0.001812 -0.003857 0.003949 0.005133 0.025102 0.005082
# 6 0.000751 -0.005020 0.002391 0.003485 0.005082 0.029458
#
#
# Mechanical properties :
#
#
# Convention : Reuss Voigt Hill
#
# Bulk Modulus (GPa) = 53.57883 61.35331 57.46607
# Shear Modulus (GPa) = 34.72154 38.94275 36.83215
#
# Velocity S-wave (km/s) = 3.97085 4.20530 4.08975
# Velocity P-wave (km/s) = 6.73458 7.17224 6.95685
#
# Compressibility (1/GPa) = 0.01866409
#
# Stress axis : x y z
#
# Youngs Moduli (GPa) = 95.07557 61.80826 101.77051
#
# Poissons Ratio (x) = 0.08606 0.38367
# Poissons Ratio (y) = 0.13237 0.38339
# Poissons Ratio (z) = 0.35843 0.23285
#
# Static dielectric constant tensor:
#      x y z
#    x 3.699600 0.055950 0.128680 
#    y 0.055950 4.000500 0.085490 
#    z 0.128680 0.085490 4.347120 
# 
# 
# High freq. dielectric constant tensor:
#      x y z
#    x 1.876530 -0.005620 -0.006270 
#    y -0.005620 1.859980 0.001190 
#    z -0.006270 0.001190 1.890870 
# 
# From -- ./inp_files/285190.got.cif
#   From: 2010.06.25/outbox.cif.g09.slc.cpg/sg2_143_cif.got.tgz:285190.got - 2010.06.27 13:26:56.
