data_PCOD8028829
_publ_section_title
;
Structure prediction by ZEFSAII (Michael W. Deem and Ramdas Pophale) SiO2 
 PCOD8028829
Probable space group: P -1
;
_chemical_formula_sum "Si O2"
_cell_formula_units_Z 14
_cell_length_a 10.829094
_cell_length_b 12.985268
_cell_length_c 14.537398
_cell_angle_alpha 50.917352
_cell_angle_beta 76.909156
_cell_angle_gamma 34.747490
_cell_volume 680.320041
_symmetry_space_group_name_H-M "P -1"
_symmetry_group_IT_number 2
_symmetry_cell_setting 'triclinic'
loop_
_space_group_symop_operation_xyz
x,y,z
-x,-y,-z
loop_
_atom_site_type_symbol
_atom_site_label
_atom_site_fract_x
_atom_site_fract_y
_atom_site_fract_z
Si Si1 0.646723 0.646645 0.033803
Si Si2 0.030882 0.125554 0.910883
Si Si3 0.556433 0.010347 0.886191
Si Si4 0.841317 0.472767 0.909308
Si Si5 0.166485 0.515088 0.410605
Si Si6 0.782803 0.838349 0.675687
Si Si7 0.977796 0.622963 0.571166
O O1 0.933888 0.366368 0.207284
O O2 0.671076 0.565421 0.971701
O O3 0.370255 0.844709 0.020741
O O4 0.596918 0.847958 0.902774
O O5 0.826399 0.392778 0.868226
O O6 0.900373 0.285638 0.742879
O O7 0.000000 0.000000 0.000000
O O8 0.296551 0.346740 0.711357
O O9 0.500000 0.000000 0.000000
O O10 0.833734 0.840448 0.932594
O O11 0.753615 0.706692 0.767649
O O12 0.960876 0.712817 0.424997
O O13 0.075185 0.483278 0.374956
O O14 0.501981 0.177711 0.572012
O O15 0.777659 0.869104 0.547878
#
# Coordination Sequence:
#
# PCOD8028829 Si02
#       7
#     2   2   2   2   2   2   2
#     4  11  21  37  62  88 116 155 202 242 294 352
#     4  12  26  44  59  79 121 169 205 236 278 356
#     4  11  15  34  60  94 123 150 181 245 306 352
#     4  11  21  35  63  91 120 150 200 242 298 349
#     4  11  23  35  55  92 122 153 190 239 305 351
#     4  11  20  35  62  96 121 141 181 258 314 345
#     4  11  19  32  58  88 129 149 177 241 311 349
#
# _framework density 20.578551000000001
#
# number of rings (size 3 to 8) (size 9 to 14) (size 15 to 20)
#    0.000    0.857    7.143    3.857    2.000    0.571 
#    0.000    0.714    0.000    6.000    0.000    0.000 
#    0.000    0.000    0.000    0.000    0.000    0.000 
#
# Total GULP energy -173466.995074 kJ/mol
# GULP energy per Si atom -12390.499648 kJ/mol
# Density = 2.053171 g / cm^3
# Si number density = 20.578551 Si / 1000 Ang^3
#
#
#
# Elastic Constant Matrix: (Units=GPa)
#
#
# Indices 1 2 3 4 5 6 
#
# 1 46.5112 14.0769 35.5370 4.8365 -6.5163 1.6445
# 2 14.0769 115.2725 27.1091 30.5907 1.1115 16.6451
# 3 35.5370 27.1091 92.7550 7.6398 -4.2079 -0.6480
# 4 4.8365 30.5907 7.6398 37.0461 -2.7687 15.3133
# 5 -6.5163 1.1115 -4.2079 -2.7687 24.5687 0.2893
# 6 1.6445 16.6451 -0.6480 15.3133 0.2893 18.2738
#
#
#
# Elastic Compliance Matrix: (Units=1/GPa)
#
#
# Indices 1 2 3 4 5 6 
#
# 1 0.031621 -0.000959 -0.011633 0.000891 0.006577 -0.003236
# 2 -0.000959 0.012123 -0.002680 -0.007545 -0.002057 -0.004696
# 3 -0.011633 -0.002680 0.016207 -0.002034 -0.000485 0.005775
# 4 0.000891 -0.007545 -0.002034 0.047792 0.006009 -0.033424
# 5 0.006577 -0.002057 -0.000485 0.006009 0.043186 -0.004455
# 6 -0.003236 -0.004696 0.005775 -0.033424 -0.004455 0.087576
#
#
# Mechanical properties :
#
#
# Convention : Reuss Voigt Hill
#
# Bulk Modulus (GPa) = 34.00431 45.33163 39.66797
# Shear Modulus (GPa) = 17.93071 27.83210 22.88140
#
# Velocity S-wave (km/s) = 2.95503 3.68160 3.33814
# Velocity P-wave (km/s) = 5.31065 6.33629 5.84601
#
# Compressibility (1/GPa) = 0.02940804
#
# Stress axis : x y z
#
# Youngs Moduli (GPa) = 31.62425 82.48986 61.70148
#
# Poissons Ratio (x) = 0.07907 0.71774
# Poissons Ratio (y) = 0.03031 0.16539
# Poissons Ratio (z) = 0.36787 0.22111
#
# Static dielectric constant tensor:
#      x y z
#    x 3.286330 0.057170 0.371290 
#    y 0.057170 4.301200 0.089900 
#    z 0.371290 0.089900 3.528420 
# 
# 
# High freq. dielectric constant tensor:
#      x y z
#    x 1.740270 -0.001000 0.047450 
#    y -0.001000 1.836840 0.009420 
#    z 0.047450 0.009420 1.788470 
# 
# From -- ./inp_files/424195.got.cif
#   From: 2010.06.25/outbox.cif.g09.slc.cpg/sg2_213_cif.got.tgz:424195.got - 2010.06.27 13:26:56.
