data_PCOD8028527
_publ_section_title
;
Structure prediction by ZEFSAII (Michael W. Deem and Ramdas Pophale) SiO2 
 PCOD8028527
Probable space group: P -1
;
_chemical_formula_sum "Si O2"
_cell_formula_units_Z 14
_cell_length_a 8.957900
_cell_length_b 14.215933
_cell_length_c 14.175790
_cell_angle_alpha 29.318178
_cell_angle_beta 121.458378
_cell_angle_gamma 102.553259
_cell_volume 620.030116
_symmetry_space_group_name_H-M "P -1"
_symmetry_group_IT_number 2
_symmetry_cell_setting 'triclinic'
loop_
_space_group_symop_operation_xyz
x,y,z
-x,-y,-z
loop_
_atom_site_type_symbol
_atom_site_label
_atom_site_fract_x
_atom_site_fract_y
_atom_site_fract_z
Si Si1 0.223512 0.202512 0.307236
Si Si2 0.389349 0.435648 0.796937
Si Si3 0.226579 0.547288 0.122208
Si Si4 0.419156 0.335985 0.099213
Si Si5 0.563832 0.957527 0.951092
Si Si6 0.319170 0.479078 0.416818
Si Si7 0.042639 0.753778 0.255137
O O1 0.245662 0.304479 0.323981
O O2 0.253015 0.348890 0.107164
O O3 0.380122 0.928629 0.597834
O O4 0.992232 0.250121 0.176610
O O5 0.568903 0.483791 0.832475
O O6 0.192681 0.649515 0.487495
O O7 0.311225 0.402685 0.901077
O O8 0.509339 0.192277 0.991442
O O9 0.211371 0.625162 0.158515
O O10 0.500000 0.500000 0.000000
O O11 0.437298 0.217928 0.641278
O O12 0.500000 0.000000 0.000000
O O13 0.818456 0.797646 0.164536
O O14 0.500000 0.500000 0.500000
O O15 0.144193 0.569093 0.362953
O O16 0.000000 0.000000 0.000000
#
# Coordination Sequence:
#
# PCOD8028527 Si02
#       7
#     2   2   2   2   2   2   2
#     4  10  25  47  72 100 142 188 240 300 357 421
#     4  12  25  44  70 104 143 189 239 301 359 430
#     4  11  23  46  70 100 139 191 237 291 366 422
#     4  11  24  47  69 104 138 181 244 297 358 424
#     4  12  25  44  66 103 145 182 239 296 352 432
#     4  12  23  45  69 102 143 187 235 296 360 435
#     4  12  26  44  70 101 145 191 238 289 364 437
#
# _framework density 22.579547999999999
#
# number of rings (size 3 to 8) (size 9 to 14) (size 15 to 20)
#    0.000    0.571    5.714    1.286    2.000    1.714 
#    2.571    0.000    0.000    0.000    0.000    0.000 
#    0.000    0.000    0.000    0.000    0.000    0.000 
#
# Total GULP energy -173531.315465 kJ/mol
# GULP energy per Si atom -12395.093962 kJ/mol
# Density = 2.252816 g / cm^3
# Si number density = 22.579548 Si / 1000 Ang^3
#
#
#
# Elastic Constant Matrix: (Units=GPa)
#
#
# Indices 1 2 3 4 5 6 
#
# 1 95.2802 24.4527 42.9028 13.8579 9.4550 -12.6025
# 2 24.4527 118.6522 49.7106 7.6269 -3.8071 -4.2711
# 3 42.9028 49.7106 119.3201 -6.7398 0.9778 3.3753
# 4 13.8579 7.6269 -6.7398 39.1813 -5.4989 -5.1014
# 5 9.4550 -3.8071 0.9778 -5.4989 46.2597 2.8182
# 6 -12.6025 -4.2711 3.3753 -5.1014 2.8182 42.9064
#
#
#
# Elastic Compliance Matrix: (Units=1/GPa)
#
#
# Indices 1 2 3 4 5 6 
#
# 1 0.015024 -0.000263 -0.005736 -0.006240 -0.003978 0.004357
# 2 -0.000263 0.010582 -0.004489 -0.002518 0.000660 0.000987
# 3 -0.005736 -0.004489 0.012655 0.004917 0.001280 -0.002627
# 4 -0.006240 -0.002518 0.004917 0.029793 0.004458 0.000779
# 5 -0.003978 0.000660 0.001280 0.004458 0.023121 -0.002192
# 6 0.004357 0.000987 -0.002627 0.000779 -0.002192 0.025128
#
#
# Mechanical properties :
#
#
# Convention : Reuss Voigt Hill
#
# Bulk Modulus (GPa) = 57.85457 63.04275 60.44866
# Shear Modulus (GPa) = 34.95518 40.08192 37.51855
#
# Velocity S-wave (km/s) = 3.93885 4.21781 4.08072
# Velocity P-wave (km/s) = 6.80913 7.19033 7.00232
#
# Compressibility (1/GPa) = 0.01728472
#
# Stress axis : x y z
#
# Youngs Moduli (GPa) = 66.55894 94.50327 79.01954
#
# Poissons Ratio (x) = 0.02485 0.45324
# Poissons Ratio (y) = 0.01750 0.35476
# Poissons Ratio (z) = 0.38176 0.42427
#
# Static dielectric constant tensor:
#      x y z
#    x 4.520230 -1.734470 2.280700 
#    y -1.734470 11.776190 -11.405850 
#    z 2.280700 -11.405850 21.211490 
# 
# 
# High freq. dielectric constant tensor:
#      x y z
#    x 1.890920 -0.005540 -0.000960 
#    y -0.005540 1.904930 -0.000390 
#    z -0.000960 -0.000390 1.889630 
# 
# From -- ./inp_files/505145.got.cif
#   From: 2010.06.25/outbox.cif.g09.slc.cpg/sg2_253_cif.got.tgz:505145.got - 2010.06.27 13:26:56.
