data_PCOD8028661
_publ_section_title
;
Structure prediction by ZEFSAII (Michael W. Deem and Ramdas Pophale) SiO2 
 PCOD8028661
Probable space group: P -1
;
_chemical_formula_sum "Si O2"
_cell_formula_units_Z 8
_cell_length_a 5.336773
_cell_length_b 8.568887
_cell_length_c 11.460343
_cell_angle_alpha 139.548508
_cell_angle_beta 127.929099
_cell_angle_gamma 57.632969
_cell_volume 265.854670
_symmetry_space_group_name_H-M "P -1"
_symmetry_group_IT_number 2
_symmetry_cell_setting 'triclinic'
loop_
_space_group_symop_operation_xyz
x,y,z
-x,-y,-z
loop_
_atom_site_type_symbol
_atom_site_label
_atom_site_fract_x
_atom_site_fract_y
_atom_site_fract_z
Si Si1 0.950748 0.308863 0.225364
Si Si2 0.887332 0.741230 0.301135
Si Si3 0.773380 0.719373 0.952837
Si Si4 0.278034 0.988630 0.316836
O O1 0.929527 0.598785 0.358507
O O2 0.605176 0.233950 0.118304
O O3 0.098905 0.172456 0.071594
O O4 0.196123 0.241203 0.365412
O O5 0.505850 0.789555 0.187527
O O6 0.088336 0.568764 0.164211
O O7 0.000000 0.000000 0.500000
O O8 0.945454 0.878726 0.188774
O O9 0.500000 0.000000 0.500000
#
# Coordination Sequence:
#
# PCOD8028661 Si02
#       4
#     2   2   2   2
#     4  10  26  51  84 112 161 210 268 325 401 478
#     4  10  27  48  81 116 158 210 272 325 396 475
#     4  10  25  54  82 112 161 210 266 328 399 478
#     4  12  27  48  81 123 159 207 264 337 403 475
#
# _framework density 30.091631
#
# number of rings (size 3 to 8) (size 9 to 14) (size 15 to 20)
#    1.500    0.000    0.000    2.250    3.500    7.000 
#    0.000    0.000    0.000    1.500    0.000    0.000 
#    0.000    0.000    0.000    0.000    0.000    0.000 
#
# Total GULP energy -99109.813974 kJ/mol
# GULP energy per Si atom -12388.726747 kJ/mol
# Density = 3.002314 g / cm^3
# Si number density = 30.091631 Si / 1000 Ang^3
#
#
#
# Elastic Constant Matrix: (Units=GPa)
#
#
# Indices 1 2 3 4 5 6 
#
# 1 166.7460 69.8243 56.1493 -6.0045 32.6476 4.5802
# 2 69.8243 262.1612 82.8084 -37.8924 21.0551 -7.2505
# 3 56.1493 82.8084 183.0273 -14.8444 9.3653 14.2132
# 4 -6.0045 -37.8924 -14.8444 30.1326 -5.5720 -10.8049
# 5 32.6476 21.0551 9.3653 -5.5720 36.5350 -9.9562
# 6 4.5802 -7.2505 14.2132 -10.8049 -9.9562 45.8086
#
#
#
# Elastic Compliance Matrix: (Units=1/GPa)
#
#
# Indices 1 2 3 4 5 6 
#
# 1 0.008803 -0.001921 -0.001492 -0.004085 -0.007928 -0.003408
# 2 -0.001921 0.006086 -0.001867 0.007882 0.000924 0.003795
# 3 -0.001492 -0.001867 0.006942 -0.000057 -0.000010 -0.002316
# 4 -0.004085 0.007882 -0.000057 0.049996 0.011073 0.015873
# 5 -0.007928 0.000924 -0.000010 0.011073 0.038886 0.012006
# 6 -0.003408 0.003795 -0.002316 0.015873 0.012006 0.029843
#
#
# Mechanical properties :
#
#
# Convention : Reuss Voigt Hill
#
# Bulk Modulus (GPa) = 88.73122 114.38871 101.55996
# Shear Modulus (GPa) = 32.28458 49.37206 40.82832
#
# Velocity S-wave (km/s) = 3.27903 4.05498 3.68747
# Velocity P-wave (km/s) = 6.62473 7.74724 7.20787
#
# Compressibility (1/GPa) = 0.01126999
#
# Stress axis : x y z
#
# Youngs Moduli (GPa) = 113.59806 164.31802 144.05539
#
# Poissons Ratio (x) = 0.31568 0.21498
# Poissons Ratio (y) = 0.21824 0.26891
# Poissons Ratio (z) = 0.16953 0.30674
#
# Static dielectric constant tensor:
#      x y z
#    x 10.229960 -0.894610 -0.152330 
#    y -0.894610 6.252030 -0.202790 
#    z -0.152330 -0.202790 4.889910 
# 
# 
# High freq. dielectric constant tensor:
#      x y z
#    x 2.257900 0.007660 -0.009210 
#    y 0.007660 2.287080 -0.003100 
#    z -0.009210 -0.003100 2.200290 
# 
# From -- ./inp_files/17633.got.cif
#   From: 2010.06.25/outbox.cif.g09.slc.cpg/sg2_9_cif.got.tgz:17633.got - 2010.06.27 13:26:56.
