data_PCOD8028490
_publ_section_title
;
Structure prediction by ZEFSAII (Michael W. Deem and Ramdas Pophale) SiO2 
 PCOD8028490
Probable space group: P -1
;
_chemical_formula_sum "Si O2"
_cell_formula_units_Z 16
_cell_length_a 8.889461
_cell_length_b 12.128347
_cell_length_c 15.249999
_cell_angle_alpha 130.656594
_cell_angle_beta 49.382315
_cell_angle_gamma 145.063265
_cell_volume 687.956908
_symmetry_space_group_name_H-M "P -1"
_symmetry_group_IT_number 2
_symmetry_cell_setting 'triclinic'
loop_
_space_group_symop_operation_xyz
x,y,z
-x,-y,-z
loop_
_atom_site_type_symbol
_atom_site_label
_atom_site_fract_x
_atom_site_fract_y
_atom_site_fract_z
Si Si1 0.832545 0.958739 0.863255
Si Si2 0.661541 0.946689 0.246588
Si Si3 0.466699 0.533723 0.127503
Si Si4 0.246577 0.553805 0.706290
Si Si5 0.260192 0.541328 0.890790
Si Si6 0.101631 0.812752 0.881426
Si Si7 0.823439 0.934935 0.658673
Si Si8 0.172359 0.878941 0.417246
O O1 0.529579 0.776665 0.917902
O O2 0.823396 0.012998 0.794673
O O3 0.031316 0.916978 0.762056
O O4 0.964344 0.138323 0.975987
O O5 0.487974 0.717048 0.215638
O O6 0.482648 0.986396 0.378736
O O7 0.675664 0.986527 0.156544
O O8 0.689422 0.576247 0.130363
O O9 0.158027 0.327433 0.158644
O O10 0.500000 0.500000 0.000000
O O11 0.224917 0.471112 0.768048
O O12 0.190364 0.696389 0.812176
O O13 0.553948 0.697366 0.626425
O O14 0.035046 0.363178 0.625317
O O15 0.000000 0.500000 0.000000
O O16 0.082428 0.957626 0.560392
O O17 0.831945 0.063850 0.650393
#
# Coordination Sequence:
#
# PCOD8028490 Si02
#       8
#     2   2   2   2   2   2   2   2
#     4  11  25  43  65  98 141 174 210 282 326 395
#     4  12  24  41  70  97 132 178 221 271 329 396
#     4  12  23  41  62  95 136 179 213 261 330 403
#     4  11  24  42  70  97 133 173 219 278 328 393
#     4  11  26  40  61  99 139 175 219 263 333 404
#     4  12  23  43  65 103 137 172 215 264 339 403
#     4  10  25  47  64  97 136 171 230 276 324 386
#     4  11  24  44  73  93 125 184 228 273 326 388
#
# _framework density 23.257270999999999
#
# number of rings (size 3 to 8) (size 9 to 14) (size 15 to 20)
#    0.000    0.750    5.000    2.250    3.500    2.500 
#    0.000    0.000    0.000    2.250    0.000    0.000 
#    0.000    0.000    0.000    0.000    0.000    0.000 
#
# Total GULP energy -198308.172477 kJ/mol
# GULP energy per Si atom -12394.260780 kJ/mol
# Density = 2.320434 g / cm^3
# Si number density = 23.257271 Si / 1000 Ang^3
#
#
#
# Elastic Constant Matrix: (Units=GPa)
#
#
# Indices 1 2 3 4 5 6 
#
# 1 104.4704 31.4510 33.4911 -7.5390 -26.9539 2.5908
# 2 31.4510 98.0906 32.7797 -11.3521 -4.7104 5.0275
# 3 33.4911 32.7797 64.9110 -13.0880 -20.8814 0.4875
# 4 -7.5390 -11.3521 -13.0880 30.5510 8.0196 -5.9740
# 5 -26.9539 -4.7104 -20.8814 8.0196 43.2806 -8.5763
# 6 2.5908 5.0275 0.4875 -5.9740 -8.5763 46.8552
#
#
#
# Elastic Compliance Matrix: (Units=1/GPa)
#
#
# Indices 1 2 3 4 5 6 
#
# 1 0.013138 -0.002901 -0.003393 -0.000866 0.006529 0.000705
# 2 -0.002901 0.013305 -0.006026 0.002384 -0.004033 -0.001639
# 3 -0.003393 -0.006026 0.023979 0.005561 0.008328 0.002818
# 4 -0.000866 0.002384 0.005561 0.037530 -0.003793 0.003825
# 5 0.006529 -0.004033 0.008328 -0.003793 0.032534 0.005456
# 6 0.000705 -0.001639 0.002818 0.003825 0.005456 0.022936
#
#
# Mechanical properties :
#
#
# Convention : Reuss Voigt Hill
#
# Bulk Modulus (GPa) = 38.78864 51.43505 45.11184
# Shear Modulus (GPa) = 28.30344 35.45404 31.87874
#
# Velocity S-wave (km/s) = 3.49230 3.90863 3.70631
# Velocity P-wave (km/s) = 5.74246 6.52177 6.14448
#
# Compressibility (1/GPa) = 0.02578074
#
# Stress axis : x y z
#
# Youngs Moduli (GPa) = 76.11596 75.15941 41.70391
#
# Poissons Ratio (x) = 0.21807 0.14149
# Poissons Ratio (y) = 0.22084 0.25132
# Poissons Ratio (z) = 0.25824 0.45293
#
# Static dielectric constant tensor:
#      x y z
#    x 4.800580 0.917520 -0.111670 
#    y 0.917520 5.807240 -0.176230 
#    z -0.111670 -0.176230 3.794680 
# 
# 
# High freq. dielectric constant tensor:
#      x y z
#    x 1.926660 0.000230 -0.016620 
#    y 0.000230 1.935850 -0.023360 
#    z -0.016620 -0.023360 1.886750 
# 
# From -- ./inp_files/500805.got.cif
#   From: 2010.06.25/outbox.cif.g09.slc.cpg/sg2_251_cif.got.tgz:500805.got - 2010.06.27 13:26:56.
