data_PCOD8028806
_publ_section_title
;
Structure prediction by ZEFSAII (Michael W. Deem and Ramdas Pophale) SiO2 
 PCOD8028806
Probable space group: P -1
;
_chemical_formula_sum "Si O2"
_cell_formula_units_Z 16
_cell_length_a 9.306143
_cell_length_b 14.172982
_cell_length_c 14.905949
_cell_angle_alpha 30.594672
_cell_angle_beta 89.729455
_cell_angle_gamma 110.902517
_cell_volume 705.659836
_symmetry_space_group_name_H-M "P -1"
_symmetry_group_IT_number 2
_symmetry_cell_setting 'triclinic'
loop_
_space_group_symop_operation_xyz
x,y,z
-x,-y,-z
loop_
_atom_site_type_symbol
_atom_site_label
_atom_site_fract_x
_atom_site_fract_y
_atom_site_fract_z
Si Si1 0.587770 0.879065 0.606636
Si Si2 0.240125 0.175818 0.859568
Si Si3 0.207652 0.867136 0.776631
Si Si4 0.462722 0.215420 0.655645
Si Si5 0.269058 0.532829 0.114296
Si Si6 0.188613 0.333995 0.093617
Si Si7 0.891324 0.133723 0.556587
Si Si8 0.350368 0.017472 0.154102
O O1 0.500000 0.000000 0.500000
O O2 0.728864 0.964316 0.451259
O O3 0.700747 0.978208 0.619183
O O4 0.409799 0.563866 0.862667
O O5 0.326338 0.158645 0.784687
O O6 0.359635 0.479037 0.623526
O O7 0.277501 0.061681 0.031505
O O8 0.000000 0.000000 0.000000
O O9 0.960935 0.636576 0.961998
O O10 0.302691 0.059489 0.703178
O O11 0.287688 0.730305 0.888500
O O12 0.562806 0.106979 0.767715
O O13 0.213621 0.325630 0.209706
O O14 0.095244 0.410452 0.289393
O O15 0.480118 0.698045 0.030577
O O16 0.075329 0.055146 0.277789
O O17 0.839903 0.180209 0.614538
#
# Coordination Sequence:
#
# PCOD8028806 Si02
#       8
#     2   2   2   2   2   2   2   2
#     4  12  22  39  61  89 134 183 232 276 323 399
#     4  11  27  48  80 105 133 172 232 293 366 424
#     4  11  24  40  68  95 135 187 227 283 340 401
#     4  10  26  49  72 107 138 178 231 289 355 420
#     4  11  23  43  62  97 142 189 233 274 342 405
#     4  12  24  37  62  95 140 185 230 277 326 396
#     4  12  26  37  62  99 137 186 234 277 338 402
#     4  11  26  47  71 104 143 184 227 293 348 417
#
# _framework density 22.673814
#
# number of rings (size 3 to 8) (size 9 to 14) (size 15 to 20)
#    0.000    0.750    3.750    3.000    5.250    3.500 
#    0.000    0.000    0.000    0.000    0.000    0.000 
#    0.000    0.000    0.000    0.000    0.000    0.000 
#
# Total GULP energy -198389.550120 kJ/mol
# GULP energy per Si atom -12399.346882 kJ/mol
# Density = 2.262221 g / cm^3
# Si number density = 22.673814 Si / 1000 Ang^3
#
#
#
# Elastic Constant Matrix: (Units=GPa)
#
#
# Indices 1 2 3 4 5 6 
#
# 1 75.7402 19.9528 30.0486 11.9080 -2.4886 7.4460
# 2 19.9528 86.0006 36.6802 14.9008 2.0347 3.3842
# 3 30.0486 36.6802 119.5517 17.4738 -17.0289 4.4067
# 4 11.9080 14.9008 17.4738 34.3192 -1.5189 -0.8965
# 5 -2.4886 2.0347 -17.0289 -1.5189 39.3028 2.4183
# 6 7.4460 3.3842 4.4067 -0.8965 2.4183 42.5455
#
#
#
# Elastic Compliance Matrix: (Units=1/GPa)
#
#
# Indices 1 2 3 4 5 6 
#
# 1 0.015520 -0.001736 -0.002824 -0.003261 -0.000133 -0.002347
# 2 -0.001736 0.014383 -0.003773 -0.003847 -0.002614 -0.000382
# 3 -0.002824 -0.003773 0.011390 -0.002984 0.004881 -0.000726
# 4 -0.003261 -0.003847 -0.002984 0.033504 -0.000122 0.001899
# 5 -0.000133 -0.002614 0.004881 -0.000122 0.027795 -0.001857
# 6 -0.002347 -0.000382 -0.000726 0.001899 -0.001857 0.024166
#
#
# Mechanical properties :
#
#
# Convention : Reuss Voigt Hill
#
# Bulk Modulus (GPa) = 40.60418 50.51730 45.56074
# Shear Modulus (GPa) = 32.97466 36.20755 34.59111
#
# Velocity S-wave (km/s) = 3.81767 4.00044 3.91013
# Velocity P-wave (km/s) = 6.11389 6.60806 6.36577
#
# Compressibility (1/GPa) = 0.02462801
#
# Stress axis : x y z
#
# Youngs Moduli (GPa) = 64.43430 69.52594 87.79586
#
# Poissons Ratio (x) = 0.12068 0.24794
# Poissons Ratio (y) = 0.11184 0.33122
# Poissons Ratio (z) = 0.18196 0.26230
#
# Static dielectric constant tensor:
#      x y z
#    x 3.809340 0.043980 -0.183080 
#    y 0.043980 4.059820 0.179510 
#    z -0.183080 0.179510 4.265590 
# 
# 
# High freq. dielectric constant tensor:
#      x y z
#    x 1.910960 0.000760 -0.003950 
#    y 0.000760 1.882080 0.007030 
#    z -0.003950 0.007030 1.902940 
# 
# From -- ./inp_files/333448.got.cif
#   From: 2010.06.25/outbox.cif.g09.slc.cpg/sg2_167_cif.got.tgz:333448.got - 2010.06.27 13:26:56.
