data_PCOD8028760
_publ_section_title
;
Structure prediction by ZEFSAII (Michael W. Deem and Ramdas Pophale) SiO2 
 PCOD8028760
Probable space group: P -1
;
_chemical_formula_sum "Si O2"
_cell_formula_units_Z 16
_cell_length_a 9.079862
_cell_length_b 18.125944
_cell_length_c 9.467621
_cell_angle_alpha 38.421635
_cell_angle_beta 121.993359
_cell_angle_gamma 102.831769
_cell_volume 764.202875
_symmetry_space_group_name_H-M "P -1"
_symmetry_group_IT_number 2
_symmetry_cell_setting 'triclinic'
loop_
_space_group_symop_operation_xyz
x,y,z
-x,-y,-z
loop_
_atom_site_type_symbol
_atom_site_label
_atom_site_fract_x
_atom_site_fract_y
_atom_site_fract_z
Si Si1 0.690932 0.507959 0.040408
Si Si2 0.055957 0.278891 0.504751
Si Si3 0.696420 0.839266 0.951462
Si Si4 0.783841 0.565238 0.290189
Si Si5 0.655342 0.591471 0.590705
Si Si6 0.997466 0.155424 0.373188
Si Si7 0.716202 0.371324 0.750572
Si Si8 0.732173 0.007769 0.464174
O O1 0.735464 0.588483 0.066344
O O2 0.847424 0.366401 0.313633
O O3 0.500000 0.500000 0.000000
O O4 0.664240 0.593057 0.760884
O O5 0.179408 0.367243 0.440868
O O6 0.057206 0.218945 0.441885
O O7 0.154429 0.168672 0.835746
O O8 0.487406 0.916367 0.783047
O O9 0.758428 0.902777 0.755666
O O10 0.703408 0.698921 0.127362
O O11 0.710087 0.463296 0.477974
O O12 0.000000 0.500000 0.500000
O O13 0.685230 0.449374 0.764591
O O14 0.451655 0.680444 0.291722
O O15 0.845929 0.096522 0.437546
O O16 0.183910 0.053390 0.552872
O O17 0.906740 0.252586 0.051191
#
# Coordination Sequence:
#
# PCOD8028760 Si02
#       8
#     2   2   2   2   2   2   2   2
#     4  12  25  39  58 106 138 168 210 258 343 396
#     4  12  25  41  68  98 132 171 217 281 321 389
#     4  11  24  46  69  94 132 171 224 271 324 387
#     4  12  23  39  68 102 134 170 205 269 339 397
#     4  11  23  40  62 102 137 171 209 259 344 403
#     4  11  25  44  70  94 130 174 226 270 322 388
#     4  11  22  40  69  98 133 174 207 269 335 399
#     4  10  26  47  67  91 124 185 227 267 320 385
#
# _framework density 20.936848999999999
#
# number of rings (size 3 to 8) (size 9 to 14) (size 15 to 20)
#    0.000    0.750    5.000    1.875    7.000    1.000 
#    0.000    0.000    0.000    0.000    0.000    0.000 
#    0.000    0.000    0.000    0.000    0.000    0.000 
#
# Total GULP energy -198351.953153 kJ/mol
# GULP energy per Si atom -12396.997072 kJ/mol
# Density = 2.088920 g / cm^3
# Si number density = 20.936849 Si / 1000 Ang^3
#
#
#
# Elastic Constant Matrix: (Units=GPa)
#
#
# Indices 1 2 3 4 5 6 
#
# 1 119.8008 35.6203 44.3150 5.9775 11.7551 -0.8528
# 2 35.6203 110.9154 51.4168 21.7381 9.8221 -5.9496
# 3 44.3150 51.4168 109.0747 13.6532 8.7290 -3.7177
# 4 5.9775 21.7381 13.6532 34.7575 0.1801 -2.9260
# 5 11.7551 9.8221 8.7290 0.1801 41.0875 -0.6866
# 6 -0.8528 -5.9496 -3.7177 -2.9260 -0.6866 34.4202
#
#
#
# Elastic Compliance Matrix: (Units=1/GPa)
#
#
# Indices 1 2 3 4 5 6 
#
# 1 0.010222 -0.001741 -0.003274 0.000594 -0.001822 -0.000387
# 2 -0.001741 0.013052 -0.004527 -0.005977 -0.001614 0.001184
# 3 -0.003274 -0.004527 0.012907 -0.001640 -0.000710 0.000377
# 4 0.000594 -0.005977 -0.001640 0.033183 0.001490 0.001655
# 5 -0.001822 -0.001614 -0.000710 0.001490 0.025394 0.000232
# 6 -0.000387 0.001184 0.000377 0.001655 0.000232 0.029434
#
#
# Mechanical properties :
#
#
# Convention : Reuss Voigt Hill
#
# Bulk Modulus (GPa) = 58.49238 66.94390 62.71814
# Shear Modulus (GPa) = 33.56269 35.94897 34.75583
#
# Velocity S-wave (km/s) = 4.00815 4.14819 4.07877
# Velocity P-wave (km/s) = 7.02983 7.41532 7.22514
#
# Compressibility (1/GPa) = 0.01709624
#
# Stress axis : x y z
#
# Youngs Moduli (GPa) = 97.82487 76.61919 77.47478
#
# Poissons Ratio (x) = 0.13338 0.25367
# Poissons Ratio (y) = 0.17030 0.35076
# Poissons Ratio (z) = 0.32030 0.34689
#
# Static dielectric constant tensor:
#      x y z
#    x 3.864710 -0.084870 -0.105870 
#    y -0.084870 3.802040 0.521500 
#    z -0.105870 0.521500 5.289610 
# 
# 
# High freq. dielectric constant tensor:
#      x y z
#    x 1.837560 -0.003380 0.005530 
#    y -0.003380 1.810880 0.018570 
#    z 0.005530 0.018570 1.821960 
# 
# From -- ./inp_files/216578.got.cif
#   From: 2010.06.25/outbox.cif.g09.slc.cpg/sg2_109_cif.got.tgz:216578.got - 2010.06.27 13:26:56.
