data_PCOD8029140
_publ_section_title
;
Structure prediction by ZEFSAII (Michael W. Deem and Ramdas Pophale) SiO2 
 PCOD8029140
Probable space group: P -1
;
_chemical_formula_sum "Si O2"
_cell_formula_units_Z 14
_cell_length_a 10.358607
_cell_length_b 11.811437
_cell_length_c 9.989956
_cell_angle_alpha 119.125815
_cell_angle_beta 140.534756
_cell_angle_gamma 79.578117
_cell_volume 635.484819
_symmetry_space_group_name_H-M "P -1"
_symmetry_group_IT_number 2
_symmetry_cell_setting 'triclinic'
loop_
_space_group_symop_operation_xyz
x,y,z
-x,-y,-z
loop_
_atom_site_type_symbol
_atom_site_label
_atom_site_fract_x
_atom_site_fract_y
_atom_site_fract_z
Si Si1 0.529155 0.227340 0.656786
Si Si2 0.053626 0.060200 0.223581
Si Si3 0.337638 0.840672 0.999252
Si Si4 0.721396 0.094167 0.523824
Si Si5 0.161424 0.572308 0.551959
Si Si6 0.988569 0.612793 0.163546
Si Si7 0.465695 0.502396 0.315534
O O1 0.279169 0.188396 0.474958
O O2 0.670499 0.237294 0.909922
O O3 0.564651 0.108510 0.525429
O O4 0.599621 0.367318 0.708057
O O5 0.080265 0.945066 0.279611
O O6 0.865299 0.109856 0.153929
O O7 0.000000 0.000000 0.000000
O O8 0.563638 0.970075 0.233899
O O9 0.311627 0.728899 0.797845
O O10 0.822699 0.238219 0.611371
O O11 0.327471 0.495004 0.602352
O O12 0.000000 0.500000 0.500000
O O13 0.007870 0.560282 0.296250
O O14 0.752186 0.628141 0.968092
O O15 0.000000 0.500000 0.000000
O O16 0.500000 0.500000 0.500000
#
# Coordination Sequence:
#
# PCOD8029140 Si02
#       7
#     2   2   2   2   2   2   2
#     4  11  21  38  66 103 140 181 244 290 346 428
#     4  11  20  35  67 100 137 190 234 284 355 424
#     4  11  24  43  65 104 147 182 234 301 359 413
#     4  11  23  40  68 104 141 185 237 294 348 432
#     4  12  28  48  74 108 148 186 236 306 361 416
#     4  12  26  47  72 105 144 188 244 290 351 438
#     4  12  26  45  75 103 141 196 240 290 362 429
#
# _framework density 22.030425000000001
#
# number of rings (size 3 to 8) (size 9 to 14) (size 15 to 20)
#    0.000    0.571    5.714    2.571    2.000    6.286 
#    0.000    1.429    0.000    0.000    0.000    0.000 
#    0.000    0.000    0.000    0.000    0.000    0.000 
#
# Total GULP energy -173576.954206 kJ/mol
# GULP energy per Si atom -12398.353872 kJ/mol
# Density = 2.198028 g / cm^3
# Si number density = 22.030425 Si / 1000 Ang^3
#
#
#
# Elastic Constant Matrix: (Units=GPa)
#
#
# Indices 1 2 3 4 5 6 
#
# 1 110.1615 49.3461 49.9372 -8.8799 8.3975 3.6101
# 2 49.3461 119.4603 50.2569 -8.5292 4.9668 4.3295
# 3 49.9372 50.2569 140.0862 -8.8691 0.8982 0.7793
# 4 -8.8799 -8.5292 -8.8691 42.3043 -4.0319 7.6060
# 5 8.3975 4.9668 0.8982 -4.0319 40.8928 -0.4824
# 6 3.6101 4.3295 0.7793 7.6060 -0.4824 38.9967
#
#
#
# Elastic Compliance Matrix: (Units=1/GPa)
#
#
# Indices 1 2 3 4 5 6 
#
# 1 0.012341 -0.003635 -0.003001 0.001215 -0.001918 -0.000940
# 2 -0.003635 0.011105 -0.002611 0.001076 -0.000451 -0.001060
# 3 -0.003001 -0.002611 0.009189 0.000805 0.000814 0.000237
# 4 0.001215 0.001076 0.000805 0.025405 0.002046 -0.005178
# 5 -0.001918 -0.000451 0.000814 0.002046 0.025088 0.000123
# 6 -0.000940 -0.001060 0.000237 -0.005178 0.000123 0.026854
#
#
# Mechanical properties :
#
#
# Convention : Reuss Voigt Hill
#
# Bulk Modulus (GPa) = 70.71385 74.30980 72.51182
# Shear Modulus (GPa) = 37.54013 39.11661 38.32837
#
# Velocity S-wave (km/s) = 4.13245 4.21833 4.17561
# Velocity P-wave (km/s) = 7.41198 7.58482 7.49890
#
# Compressibility (1/GPa) = 0.01414150
#
# Stress axis : x y z
#
# Youngs Moduli (GPa) = 81.03090 90.04928 108.82030
#
# Poissons Ratio (x) = 0.32731 0.32655
# Poissons Ratio (y) = 0.29453 0.28417
# Poissons Ratio (z) = 0.24316 0.23515
#
# Static dielectric constant tensor:
#      x y z
#    x 3.499650 0.386930 -0.214440 
#    y 0.386930 3.258930 0.521950 
#    z -0.214440 0.521950 3.752240 
# 
# 
# High freq. dielectric constant tensor:
#      x y z
#    x 1.853910 -0.000350 0.014690 
#    y -0.000350 1.871620 -0.007060 
#    z 0.014690 -0.007060 1.880620 
# 
# From -- ./inp_files/190531.got.cif
#   From: 2010.06.25/outbox.cif.g09.slc.cpg/sg2_96_cif.got.tgz:190531.got - 2010.06.27 13:26:56.
