data_PCOD8029691
_publ_section_title
;
Structure prediction by ZEFSAII (Michael W. Deem and Ramdas Pophale) SiO2 
 PCOD8029691
Probable space group: P -1
;
_chemical_formula_sum "Si O2"
_cell_formula_units_Z 12
_cell_length_a 15.544406
_cell_length_b 9.327581
_cell_length_c 8.956343
_cell_angle_alpha 129.056826
_cell_angle_beta 128.275559
_cell_angle_gamma 38.369625
_cell_volume 604.371080
_symmetry_space_group_name_H-M "P -1"
_symmetry_group_IT_number 2
_symmetry_cell_setting 'triclinic'
loop_
_space_group_symop_operation_xyz
x,y,z
-x,-y,-z
loop_
_atom_site_type_symbol
_atom_site_label
_atom_site_fract_x
_atom_site_fract_y
_atom_site_fract_z
Si Si1 0.120112 0.245162 0.386510
Si Si2 0.048089 0.271622 0.993870
Si Si3 0.750744 0.071576 0.261619
Si Si4 0.557428 0.647858 0.832796
Si Si5 0.653356 0.886806 0.244883
Si Si6 0.831635 0.183919 0.701540
O O1 0.277267 0.150029 0.542843
O O2 0.000000 0.500000 0.500000
O O3 0.114331 0.267153 0.217075
O O4 0.094796 0.060906 0.287711
O O5 0.170017 0.024542 0.874222
O O6 0.913354 0.284882 0.885279
O O7 0.000000 0.500000 0.000000
O O8 0.580605 0.303720 0.208901
O O9 0.826638 0.144562 0.493681
O O10 0.762489 0.861001 0.223133
O O11 0.667050 0.379196 0.709661
O O12 0.501737 0.843438 0.765992
O O13 0.637692 0.685632 0.068507
#
# Coordination Sequence:
#
# PCOD8029691 Si02
#       6
#     2   2   2   2   2   2
#     4  11  23  39  59  89 120 158 201 242 288 355
#     4  12  24  38  59  89 123 155 195 251 300 338
#     4   9  19  34  56  88 115 149 193 241 291 338
#     4   9  17  36  65  86 112 159 199 235 287 360
#     4   8  18  35  63  81 120 151 206 225 292 353
#     4  11  21  38  65  86 116 160 205 232 291 362
#
# _framework density 19.855352
#
# number of rings (size 3 to 8) (size 9 to 14) (size 15 to 20)
#    1.000    1.000    0.000    5.500    0.000    0.000 
#    0.000    1.667    0.000    0.000    0.000    0.000 
#    0.000    0.000    0.000    0.000    0.000    0.000 
#
# Total GULP energy -148738.701731 kJ/mol
# GULP energy per Si atom -12394.891811 kJ/mol
# Density = 1.981016 g / cm^3
# Si number density = 19.855352 Si / 1000 Ang^3
#
#
#
# Elastic Constant Matrix: (Units=GPa)
#
#
# Indices 1 2 3 4 5 6 
#
# 1 65.9388 40.1483 34.5373 -7.3130 -14.8100 -12.2131
# 2 40.1483 104.7778 47.0726 5.3189 -10.1922 -4.9827
# 3 34.5373 47.0726 139.0377 -26.1274 -11.6026 5.6910
# 4 -7.3130 5.3189 -26.1274 33.8766 -3.5406 -2.7461
# 5 -14.8100 -10.1922 -11.6026 -3.5406 38.2758 7.4418
# 6 -12.2131 -4.9827 5.6910 -2.7461 7.4418 30.5311
#
#
#
# Elastic Compliance Matrix: (Units=1/GPa)
#
#
# Indices 1 2 3 4 5 6 
#
# 1 0.024499 -0.007787 -0.002153 0.006106 0.005747 0.008079
# 2 -0.007787 0.014885 -0.004643 -0.007736 -0.001125 -0.000242
# 3 -0.002153 -0.004643 0.011396 0.009065 0.002932 -0.003642
# 4 0.006106 -0.007736 0.009065 0.039838 0.006443 0.001503
# 5 0.005747 -0.001125 0.002932 0.006443 0.030566 -0.005302
# 6 0.008079 -0.000242 -0.003642 0.001503 -0.005302 0.038052
#
#
# Mechanical properties :
#
#
# Convention : Reuss Voigt Hill
#
# Bulk Modulus (GPa) = 46.26456 61.47452 53.86954
# Shear Modulus (GPa) = 25.56138 33.06978 29.31558
#
# Velocity S-wave (km/s) = 3.59190 4.08552 3.84664
# Velocity P-wave (km/s) = 6.36818 7.29957 6.84972
#
# Compressibility (1/GPa) = 0.02161482
#
# Stress axis : x y z
#
# Youngs Moduli (GPa) = 40.81825 67.17951 87.74848
#
# Poissons Ratio (x) = 0.52312 0.18891
# Poissons Ratio (y) = 0.31785 0.40743
# Poissons Ratio (z) = 0.08787 0.31192
#
# Static dielectric constant tensor:
#      x y z
#    x 3.224280 -0.178600 0.069860 
#    y -0.178600 3.500930 -0.078840 
#    z 0.069860 -0.078840 3.721290 
# 
# 
# High freq. dielectric constant tensor:
#      x y z
#    x 1.732170 -0.021580 0.010510 
#    y -0.021580 1.762380 0.002350 
#    z 0.010510 0.002350 1.793120 
# 
# From -- ./inp_files/293591.got.cif
#   From: 2010.06.25/outbox.cif.g09.slc.cpg/sg2_147_cif.got.tgz:293591.got - 2010.06.27 13:26:56.
