data_PCOD8029544
_publ_section_title
;
Structure prediction by ZEFSAII (Michael W. Deem and Ramdas Pophale) SiO2 
 PCOD8029544
Probable space group: P -1
;
_chemical_formula_sum "Si O2"
_cell_formula_units_Z 16
_cell_length_a 8.992207
_cell_length_b 17.899451
_cell_length_c 14.733581
_cell_angle_alpha 31.838526
_cell_angle_beta 141.853648
_cell_angle_gamma 142.747682
_cell_volume 710.724327
_symmetry_space_group_name_H-M "P -1"
_symmetry_group_IT_number 2
_symmetry_cell_setting 'triclinic'
loop_
_space_group_symop_operation_xyz
x,y,z
-x,-y,-z
loop_
_atom_site_type_symbol
_atom_site_label
_atom_site_fract_x
_atom_site_fract_y
_atom_site_fract_z
Si Si1 0.355145 0.804571 0.296104
Si Si2 0.765381 0.616983 0.181785
Si Si3 0.848705 0.323946 0.308963
Si Si4 0.730224 0.349571 0.033770
Si Si5 0.862209 0.660049 0.985090
Si Si6 0.400697 0.849219 0.997366
Si Si7 0.605660 0.673377 0.404840
Si Si8 0.440517 0.712127 0.617171
O O1 0.439684 0.689281 0.395452
O O2 0.484798 0.829857 0.433334
O O3 0.041020 0.741329 0.220105
O O4 0.459056 0.968614 0.127911
O O5 0.773941 0.448018 0.360472
O O6 0.528725 0.612131 0.137705
O O7 0.702194 0.647796 0.014357
O O8 0.710950 0.262641 0.209918
O O9 0.668552 0.236171 0.398383
O O10 0.096389 0.278269 0.473860
O O11 0.924175 0.507930 0.158653
O O12 0.710735 0.228100 0.072499
O O13 0.000000 0.500000 0.000000
O O14 0.702795 0.685937 0.796539
O O15 0.140934 0.803041 0.983047
O O16 0.597934 0.782728 0.205466
O O17 0.500000 0.500000 0.500000
#
# Coordination Sequence:
#
# PCOD8029544 Si02
#       8
#     2   2   2   2   2   2   2   2
#     4  12  29  46  67 105 145 191 226 284 360 419
#     4  11  22  43  72  98 140 184 231 285 344 416
#     4  11  22  42  69 107 131 176 239 299 335 400
#     4  12  23  43  74 104 133 179 236 293 346 405
#     4  11  20  44  73 100 139 182 230 290 350 400
#     4  12  27  46  69 103 148 182 231 289 357 414
#     4  12  24  44  73 102 137 181 238 291 339 417
#     4  11  23  43  71 104 140 182 238 288 346 415
#
# _framework density 22.512245
#
# number of rings (size 3 to 8) (size 9 to 14) (size 15 to 20)
#    0.000    0.500    6.250    2.250    7.000    1.000 
#    0.000    0.625    0.000    0.000    0.000    0.000 
#    0.000    0.000    0.000    0.000    0.000    0.000 
#
# Total GULP energy -198408.892858 kJ/mol
# GULP energy per Si atom -12400.555804 kJ/mol
# Density = 2.246101 g / cm^3
# Si number density = 22.512245 Si / 1000 Ang^3
#
#
#
# Elastic Constant Matrix: (Units=GPa)
#
#
# Indices 1 2 3 4 5 6 
#
# 1 115.2153 19.4529 31.4172 5.3413 10.5214 4.0648
# 2 19.4529 60.5216 25.8307 4.2580 12.6545 7.1729
# 3 31.4172 25.8307 117.1710 12.9391 -7.9502 7.4330
# 4 5.3413 4.2580 12.9391 31.3627 1.5799 -2.9607
# 5 10.5214 12.6545 -7.9502 1.5799 36.3620 11.0331
# 6 4.0648 7.1729 7.4330 -2.9607 11.0331 38.9925
#
#
#
# Elastic Compliance Matrix: (Units=1/GPa)
#
#
# Indices 1 2 3 4 5 6 
#
# 1 0.009896 -0.001510 -0.002540 -0.000224 -0.003059 0.000579
# 2 -0.001510 0.020638 -0.004576 -0.000340 -0.007531 -0.000662
# 3 -0.002540 -0.004576 0.011278 -0.004182 0.005894 -0.003029
# 4 -0.000224 -0.000340 -0.004182 0.034300 -0.003588 0.004503
# 5 -0.003059 -0.007531 0.005894 -0.003588 0.035397 -0.009708
# 6 0.000579 -0.000662 -0.003029 0.004503 -0.009708 0.029373
#
#
# Mechanical properties :
#
#
# Convention : Reuss Voigt Hill
#
# Bulk Modulus (GPa) = 40.71648 49.58995 45.15321
# Shear Modulus (GPa) = 30.06175 35.75723 32.90949
#
# Velocity S-wave (km/s) = 3.65821 3.98973 3.82756
# Velocity P-wave (km/s) = 5.99741 6.58025 6.29558
#
# Compressibility (1/GPa) = 0.02456008
#
# Stress axis : x y z
#
# Youngs Moduli (GPa) = 101.04733 48.45315 88.66494
#
# Poissons Ratio (x) = 0.07316 0.22523
# Poissons Ratio (y) = 0.15257 0.40577
# Poissons Ratio (z) = 0.25669 0.22174
#
# Static dielectric constant tensor:
#      x y z
#    x 4.378070 -0.033550 -0.151800 
#    y -0.033550 3.848050 0.299620 
#    z -0.151800 0.299620 4.019110 
# 
# 
# High freq. dielectric constant tensor:
#      x y z
#    x 1.900240 -0.000650 -0.009180 
#    y -0.000650 1.867440 0.030770 
#    z -0.009180 0.030770 1.877120 
# 
# From -- ./inp_files/262781.got.cif
#   From: 2010.06.25/outbox.cif.g09.slc.cpg/sg2_132_cif.got.tgz:262781.got - 2010.06.27 13:26:56.
