data_PCOD8029958
_publ_section_title
;
Structure prediction by ZEFSAII (Michael W. Deem and Ramdas Pophale) SiO2 
 PCOD8029958
Probable space group: P -1
;
_chemical_formula_sum "Si O2"
_cell_formula_units_Z 16
_cell_length_a 9.460043
_cell_length_b 8.751892
_cell_length_c 12.394367
_cell_angle_alpha 130.287014
_cell_angle_beta 85.239605
_cell_angle_gamma 93.416650
_cell_volume 780.053955
_symmetry_space_group_name_H-M "P -1"
_symmetry_group_IT_number 2
_symmetry_cell_setting 'triclinic'
loop_
_space_group_symop_operation_xyz
x,y,z
-x,-y,-z
loop_
_atom_site_type_symbol
_atom_site_label
_atom_site_fract_x
_atom_site_fract_y
_atom_site_fract_z
Si Si1 0.782928 0.526745 0.877346
Si Si2 0.545811 0.086359 0.422382
Si Si3 0.083793 0.848237 0.205091
Si Si4 0.953777 0.218229 0.067805
Si Si5 0.238156 0.242104 0.795995
Si Si6 0.600761 0.526244 0.684897
Si Si7 0.271788 0.220604 0.390603
Si Si8 0.279697 0.518987 0.715348
O O1 0.821909 0.298160 0.795396
O O2 0.649561 0.526791 0.806021
O O3 0.915788 0.629851 0.856394
O O4 0.740854 0.645073 0.041227
O O5 0.613226 0.306147 0.532507
O O6 0.408627 0.094108 0.358550
O O7 0.500000 0.000000 0.500000
O O8 0.660880 0.948751 0.295065
O O9 0.921338 0.836276 0.247062
O O10 0.137454 0.074378 0.318966
O O11 0.099641 0.776182 0.048649
O O12 0.824490 0.291946 0.184285
O O13 0.000000 0.000000 0.000000
O O14 0.279690 0.389064 0.764315
O O15 0.699085 0.675030 0.677988
O O16 0.438623 0.600868 0.723259
O O17 0.229783 0.382959 0.556776
#
# Coordination Sequence:
#
# PCOD8029958 Si02
#       8
#     2   2   2   2   2   2   2   2
#     4  11  23  42  65  95 128 168 214 262 309 378
#     4  11  21  41  66  96 125 167 213 258 313 373
#     4  11  23  42  65  95 128 168 214 262 309 378
#     4  11  23  43  67  94 130 166 208 264 324 373
#     4  11  22  41  68  98 120 167 219 261 312 367
#     4  11  25  42  63  95 134 167 207 263 319 374
#     4  11  25  42  63  95 134 167 207 263 319 374
#     4  11  22  43  67  93 127 168 211 263 316 374
#
# _framework density 20.511400999999999
#
# number of rings (size 3 to 8) (size 9 to 14) (size 15 to 20)
#    0.000    1.000    5.000    3.750    0.000    7.000 
#    0.000    3.750    0.000    0.000    0.000    0.000 
#    0.000    0.000    0.000    0.000    0.000    0.000 
#
# Total GULP energy -198494.498663 kJ/mol
# GULP energy per Si atom -12405.906166 kJ/mol
# Density = 2.046472 g / cm^3
# Si number density = 20.511401 Si / 1000 Ang^3
#
#
#
# Elastic Constant Matrix: (Units=GPa)
#
#
# Indices 1 2 3 4 5 6 
#
# 1 61.6033 9.8309 48.5218 15.1342 -12.4008 -11.0871
# 2 9.8309 86.6007 5.2273 11.0573 -14.1276 -0.2407
# 3 48.5218 5.2273 73.7184 6.4956 -21.4805 -3.3197
# 4 15.1342 11.0573 6.4956 31.2422 -2.5061 -1.1505
# 5 -12.4008 -14.1276 -21.4805 -2.5061 44.9980 11.2848
# 6 -11.0871 -0.2407 -3.3197 -1.1505 11.2848 27.1324
#
#
#
# Elastic Compliance Matrix: (Units=1/GPa)
#
#
# Indices 1 2 3 4 5 6 
#
# 1 0.045419 -0.002685 -0.029886 -0.014820 -0.007806 0.017497
# 2 -0.002685 0.012967 0.002501 -0.003511 0.005065 -0.002931
# 3 -0.029886 0.002501 0.035740 0.006744 0.013257 -0.013045
# 4 -0.014820 -0.003511 0.006744 0.038975 0.001238 -0.004124
# 5 -0.007806 0.005065 0.013257 0.001238 0.031739 -0.014671
# 6 0.017497 -0.002931 -0.013045 -0.004124 -0.014671 0.048311
#
#
# Mechanical properties :
#
#
# Convention : Reuss Voigt Hill
#
# Bulk Modulus (GPa) = 29.42254 38.78693 34.10473
# Shear Modulus (GPa) = 17.56732 31.23069 24.39900
#
# Velocity S-wave (km/s) = 2.92972 3.90629 3.45270
# Velocity P-wave (km/s) = 5.08133 6.26869 5.70598
#
# Compressibility (1/GPa) = 0.03398755
#
# Stress axis : x y z
#
# Youngs Moduli (GPa) = 22.01708 77.11651 27.97996
#
# Poissons Ratio (x) = 0.20703 0.83620
# Poissons Ratio (y) = 0.05911 -0.06997
# Poissons Ratio (z) = 0.65799 -0.19284
#
# Static dielectric constant tensor:
#      x y z
#    x 3.817100 -0.045040 -0.099580 
#    y -0.045040 3.892070 0.015060 
#    z -0.099580 0.015060 3.765900 
# 
# 
# High freq. dielectric constant tensor:
#      x y z
#    x 1.803510 -0.000240 -0.000510 
#    y -0.000240 1.812920 -0.001790 
#    z -0.000510 -0.001790 1.802800 
# 
# From -- ./inp_files/186617.got.cif
#   From: 2010.06.25/outbox.cif.g09.slc.cpg/sg2_94_cif.got.tgz:186617.got - 2010.06.27 13:26:56.
