data_PCOD8029712
_publ_section_title
;
Structure prediction by ZEFSAII (Michael W. Deem and Ramdas Pophale) SiO2 
 PCOD8029712
Probable space group: P -1
;
_chemical_formula_sum "Si O2"
_cell_formula_units_Z 16
_cell_length_a 8.867940
_cell_length_b 25.102097
_cell_length_c 15.889251
_cell_angle_alpha 18.190959
_cell_angle_beta 47.845802
_cell_angle_gamma 48.144015
_cell_volume 811.833246
_symmetry_space_group_name_H-M "P -1"
_symmetry_group_IT_number 2
_symmetry_cell_setting 'triclinic'
loop_
_space_group_symop_operation_xyz
x,y,z
-x,-y,-z
loop_
_atom_site_type_symbol
_atom_site_label
_atom_site_fract_x
_atom_site_fract_y
_atom_site_fract_z
Si Si1 0.925935 0.509058 0.256468
Si Si2 0.062873 0.943668 0.793774
Si Si3 0.904112 0.610768 0.294444
Si Si4 0.120602 0.113422 0.347090
Si Si5 0.566517 0.324119 0.654608
Si Si6 0.295956 0.982948 0.053202
Si Si7 0.845813 0.857566 0.288565
Si Si8 0.586961 0.091610 0.155176
O O1 0.986915 0.521012 0.312829
O O2 0.683540 0.492717 0.361471
O O3 0.055426 0.334642 0.434833
O O4 0.966262 0.684489 0.932782
O O5 0.274398 0.874666 0.866275
O O6 0.095352 0.082259 0.502435
O O7 0.896878 0.023454 0.804009
O O8 0.975409 0.796513 0.994294
O O9 0.660275 0.625517 0.369463
O O10 0.000000 0.500000 0.500000
O O11 0.359133 0.068586 0.302809
O O12 0.000000 0.000000 0.500000
O O13 0.687579 0.192138 0.742612
O O14 0.577439 0.248434 0.858250
O O15 0.500000 0.000000 0.000000
O O16 0.267622 0.144891 0.755903
O O17 0.687978 0.916669 0.333963
O O18 0.000000 0.000000 0.000000
#
# Coordination Sequence:
#
# PCOD8029712 Si02
#       8
#     2   2   2   2   2   2   2   2
#     4  12  23  42  65  97 131 172 218 264 335 384
#     4  12  23  43  65  95 132 174 217 266 319 399
#     4  12  24  35  64 100 134 155 217 279 329 379
#     4  12  27  46  63  90 137 185 220 258 321 398
#     4  11  21  39  66 101 127 167 209 282 334 378
#     4  11  21  38  68 100 129 163 210 271 336 381
#     4  11  21  41  70  98 128 159 208 281 337 379
#     4  11  22  44  71  94 130 173 222 266 332 385
#
# _framework density 19.708483000000001
#
# number of rings (size 3 to 8) (size 9 to 14) (size 15 to 20)
#    0.000    0.500    7.500    2.250    3.500    0.000 
#    0.000    3.125    0.000    0.000    0.000    0.000 
#    0.000    0.000    0.000    0.000    0.000    0.000 
#
# Total GULP energy -198359.031509 kJ/mol
# GULP energy per Si atom -12397.439469 kJ/mol
# Density = 1.966363 g / cm^3
# Si number density = 19.708483 Si / 1000 Ang^3
#
#
#
# Elastic Constant Matrix: (Units=GPa)
#
#
# Indices 1 2 3 4 5 6 
#
# 1 131.3048 8.0347 36.9665 0.1931 7.6799 0.4733
# 2 8.0347 82.9926 23.8298 -6.5877 3.8936 1.1547
# 3 36.9665 23.8298 111.5286 -10.6291 7.2448 1.0162
# 4 0.1931 -6.5877 -10.6291 30.5035 -0.9476 4.9489
# 5 7.6799 3.8936 7.2448 -0.9476 27.8002 -3.8485
# 6 0.4733 1.1547 1.0162 4.9489 -3.8485 30.9432
#
#
#
# Elastic Compliance Matrix: (Units=1/GPa)
#
#
# Indices 1 2 3 4 5 6 
#
# 1 0.008507 -0.000024 -0.002809 -0.001078 -0.001661 -0.000071
# 2 -0.000024 0.012997 -0.002487 0.002046 -0.001218 -0.000882
# 3 -0.002809 -0.002487 0.010871 0.003373 -0.001729 -0.000976
# 4 -0.001078 0.002046 0.003373 0.035347 -0.000477 -0.005883
# 5 -0.001661 -0.001218 -0.001729 -0.000477 0.037712 0.004894
# 6 -0.000071 -0.000882 -0.000976 -0.005883 0.004894 0.033933
#
#
# Mechanical properties :
#
#
# Convention : Reuss Voigt Hill
#
# Bulk Modulus (GPa) = 46.00508 51.49866 48.75187
# Shear Modulus (GPa) = 31.79588 34.98239 33.38913
#
# Velocity S-wave (km/s) = 4.02096 4.21764 4.12047
# Velocity P-wave (km/s) = 6.70455 7.06434 6.88679
#
# Compressibility (1/GPa) = 0.02173673
#
# Stress axis : x y z
#
# Youngs Moduli (GPa) = 117.54901 76.93796 91.98443
#
# Poissons Ratio (x) = 0.00182 0.25836
# Poissons Ratio (y) = 0.00279 0.22878
# Poissons Ratio (z) = 0.33017 0.19136
#
# Static dielectric constant tensor:
#      x y z
#    x 3.967340 -0.121810 0.157100 
#    y -0.121810 3.600160 -0.002010 
#    z 0.157100 -0.002010 3.601880 
# 
# 
# High freq. dielectric constant tensor:
#      x y z
#    x 1.794490 0.003300 0.004550 
#    y 0.003300 1.770900 -0.013010 
#    z 0.004550 -0.013010 1.747780 
# 
# From -- ./inp_files/508694.got.cif
#   From: 2010.06.25/outbox.cif.g09.slc.cpg/sg2_255_cif.got.tgz:508694.got - 2010.06.27 13:26:56.
