data_PCOD8029703
_publ_section_title
;
Structure prediction by ZEFSAII (Michael W. Deem and Ramdas Pophale) SiO2 
 PCOD8029703
Probable space group: P -1
;
_chemical_formula_sum "Si O2"
_cell_formula_units_Z 16
_cell_length_a 15.586826
_cell_length_b 15.665133
_cell_length_c 11.792196
_cell_angle_alpha 153.860784
_cell_angle_beta 143.110128
_cell_angle_gamma 39.865165
_cell_volume 747.953117
_symmetry_space_group_name_H-M "P -1"
_symmetry_group_IT_number 2
_symmetry_cell_setting 'triclinic'
loop_
_space_group_symop_operation_xyz
x,y,z
-x,-y,-z
loop_
_atom_site_type_symbol
_atom_site_label
_atom_site_fract_x
_atom_site_fract_y
_atom_site_fract_z
Si Si1 0.001502 0.883968 0.704194
Si Si2 0.451438 0.447737 0.218912
Si Si3 0.426663 0.076230 0.397125
Si Si4 0.685680 0.918937 0.329365
Si Si5 0.733256 0.178107 0.225675
Si Si6 0.066457 0.693329 0.778978
Si Si7 0.636431 0.524232 0.101518
Si Si8 0.636254 0.107501 0.275847
O O1 0.099453 0.807023 0.605468
O O2 0.067612 0.737525 0.699790
O O3 0.834092 0.863132 0.489986
O O4 0.017064 0.110499 0.012812
O O5 0.625037 0.390096 0.357232
O O6 0.403112 0.657222 0.475065
O O7 0.376231 0.280611 0.999943
O O8 0.408545 0.444943 0.039304
O O9 0.322646 0.282677 0.564745
O O10 0.500000 0.000000 0.500000
O O11 0.559867 0.077145 0.449077
O O12 0.317963 0.944953 0.078177
O O13 0.728405 0.016838 0.374282
O O14 0.727510 0.067356 0.208164
O O15 0.230306 0.656384 0.957607
O O16 0.000000 0.500000 0.500000
O O17 0.500000 0.500000 0.000000
O O18 0.500000 0.000000 0.000000
#
# Coordination Sequence:
#
# PCOD8029703 Si02
#       8
#     2   2   2   2   2   2   2   2
#     4  11  25  43  62  94 141 177 213 267 342 384
#     4  11  23  42  68  96 127 165 226 272 328 383
#     4  11  21  38  66  97 130 165 217 268 328 381
#     4  11  24  43  67  94 131 180 210 274 333 387
#     4  11  24  42  67  98 131 175 218 273 321 395
#     4  11  24  40  62  93 139 182 215 256 325 408
#     4  12  22  36  64  98 128 166 217 265 321 387
#     4  12  24  45  71  96 125 170 231 276 324 382
#
# _framework density 21.391714
#
# number of rings (size 3 to 8) (size 9 to 14) (size 15 to 20)
#    0.000    0.750    5.000    4.875    3.500    0.500 
#    2.250    0.625    0.000    0.000    0.000    0.000 
#    0.000    0.000    0.000    0.000    0.000    0.000 
#
# Total GULP energy -198342.769160 kJ/mol
# GULP energy per Si atom -12396.423072 kJ/mol
# Density = 2.134303 g / cm^3
# Si number density = 21.391714 Si / 1000 Ang^3
#
#
#
# Elastic Constant Matrix: (Units=GPa)
#
#
# Indices 1 2 3 4 5 6 
#
# 1 119.7924 48.3184 23.5922 4.4103 0.9520 7.0931
# 2 48.3184 107.8866 7.8672 5.5985 3.0916 10.7540
# 3 23.5922 7.8672 68.9674 18.2797 -9.8224 -3.7396
# 4 4.4103 5.5985 18.2797 34.0970 2.5447 5.1987
# 5 0.9520 3.0916 -9.8224 2.5447 25.1924 -11.7559
# 6 7.0931 10.7540 -3.7396 5.1987 -11.7559 32.8299
#
#
#
# Elastic Compliance Matrix: (Units=1/GPa)
#
#
# Indices 1 2 3 4 5 6 
#
# 1 0.011142 -0.004375 -0.004620 0.002480 -0.003385 -0.003105
# 2 -0.004375 0.011787 -0.000499 -0.000216 -0.003392 -0.004153
# 3 -0.004620 -0.000499 0.022985 -0.014673 0.016242 0.011919
# 4 0.002480 -0.000216 -0.014673 0.040357 -0.016621 -0.014479
# 5 -0.003385 -0.003392 0.016242 -0.016621 0.061474 0.028338
# 6 -0.003105 -0.004153 0.011919 -0.014479 0.028338 0.046289
#
#
# Mechanical properties :
#
#
# Convention : Reuss Voigt Hill
#
# Bulk Modulus (GPa) = 37.13942 50.68912 43.91427
# Shear Modulus (GPa) = 22.52261 32.88176 27.70218
#
# Velocity S-wave (km/s) = 3.24831 3.92487 3.60251
# Velocity P-wave (km/s) = 5.60963 6.65482 6.15445
#
# Compressibility (1/GPa) = 0.02692557
#
# Stress axis : x y z
#
# Youngs Moduli (GPa) = 89.75106 84.83702 43.50578
#
# Poissons Ratio (x) = 0.37119 0.20100
# Poissons Ratio (y) = 0.39269 0.02171
# Poissons Ratio (z) = 0.41466 0.04234
#
# Static dielectric constant tensor:
#      x y z
#    x 3.931470 0.175930 0.002470 
#    y 0.175930 3.797740 -0.068050 
#    z 0.002470 -0.068050 3.746550 
# 
# 
# High freq. dielectric constant tensor:
#      x y z
#    x 1.836380 0.011150 -0.004070 
#    y 0.011150 1.845340 0.004530 
#    z -0.004070 0.004530 1.835860 
# 
# From -- ./inp_files/455293.got.cif
#   From: 2010.06.25/outbox.cif.g09.slc.cpg/sg2_228_cif.got.tgz:455293.got - 2010.06.27 13:26:56.
