data_PCOD8029312
_publ_section_title
;
Structure prediction by ZEFSAII (Michael W. Deem and Ramdas Pophale) SiO2 
 PCOD8029312
Probable space group: P -1
;
_chemical_formula_sum "Si O2"
_cell_formula_units_Z 16
_cell_length_a 21.788819
_cell_length_b 18.709910
_cell_length_c 8.379207
_cell_angle_alpha 148.379950
_cell_angle_beta 136.399046
_cell_angle_gamma 25.340151
_cell_volume 750.607810
_symmetry_space_group_name_H-M "P -1"
_symmetry_group_IT_number 2
_symmetry_cell_setting 'triclinic'
loop_
_space_group_symop_operation_xyz
x,y,z
-x,-y,-z
loop_
_atom_site_type_symbol
_atom_site_label
_atom_site_fract_x
_atom_site_fract_y
_atom_site_fract_z
Si Si1 0.404788 0.305326 0.597350
Si Si2 0.999176 0.581607 0.485703
Si Si3 0.136452 0.703598 0.035281
Si Si4 0.792688 0.885843 0.115585
Si Si5 0.531985 0.044749 0.806865
Si Si6 0.276570 0.398075 0.213062
Si Si7 0.010758 0.849087 0.415084
Si Si8 0.275558 0.082194 0.604952
O O1 0.337957 0.413650 0.503228
O O2 0.405860 0.140546 0.304206
O O3 0.571262 0.156410 0.635816
O O4 0.308188 0.498220 0.918353
O O5 0.839256 0.802749 0.533967
O O6 0.000000 0.500000 0.500000
O O7 0.075133 0.634041 0.734705
O O8 0.090919 0.378085 0.150368
O O9 0.115195 0.747805 0.267439
O O10 0.050030 0.932265 0.220145
O O11 0.871058 0.922188 0.252853
O O12 0.747530 0.974075 0.381258
O O13 0.657934 0.008719 0.975892
O O14 0.500000 0.000000 0.500000
O O15 0.379864 0.295780 0.057881
O O16 0.111843 0.651745 0.359839
O O17 0.276528 0.239194 0.952241
#
# Coordination Sequence:
#
# PCOD8029312 Si02
#       8
#     2   2   2   2   2   2   2   2
#     4  11  22  39  63  91 133 166 214 266 322 386
#     4  12  23  39  68 101 127 160 223 269 317 377
#     4  11  24  46  60  96 127 173 214 264 326 385
#     4  12  22  41  63 101 123 170 210 268 322 374
#     4  11  22  35  66  99 132 163 212 272 322 378
#     4  11  20  40  60  99 128 170 211 259 333 376
#     4  11  26  41  67  87 136 171 212 267 323 391
#     4  11  22  39  63  98 133 161 211 277 317 373
#
# _framework density 21.316058999999999
#
# number of rings (size 3 to 8) (size 9 to 14) (size 15 to 20)
#    0.000    0.750    6.250    1.875    5.250    0.500 
#    0.000    1.875    0.000    3.750    0.000    0.000 
#    0.000    0.000    0.000    0.000    0.000    0.000 
#
# Total GULP energy -198332.766539 kJ/mol
# GULP energy per Si atom -12395.797909 kJ/mol
# Density = 2.126754 g / cm^3
# Si number density = 21.316059 Si / 1000 Ang^3
#
#
#
# Elastic Constant Matrix: (Units=GPa)
#
#
# Indices 1 2 3 4 5 6 
#
# 1 80.6705 41.9276 43.1251 7.5548 -16.7322 -11.7060
# 2 41.9276 121.1502 28.0070 1.3390 -11.7146 -9.1347
# 3 43.1251 28.0070 85.1973 20.6325 0.6923 -9.3663
# 4 7.5548 1.3390 20.6325 34.7116 0.8734 -11.6457
# 5 -16.7322 -11.7146 0.6923 0.8734 30.9496 3.0235
# 6 -11.7060 -9.1347 -9.3663 -11.6457 3.0235 28.8705
#
#
#
# Elastic Compliance Matrix: (Units=1/GPa)
#
#
# Indices 1 2 3 4 5 6 
#
# 1 0.022615 -0.004129 -0.010314 0.002610 0.010383 0.004483
# 2 -0.004129 0.010304 -0.001603 0.001992 0.001480 0.001714
# 3 -0.010314 -0.001603 0.019734 -0.009802 -0.006192 -0.001592
# 4 0.002610 0.001992 -0.009802 0.038738 -0.000090 0.014144
# 5 0.010383 0.001480 -0.006192 -0.000090 0.038764 -0.001427
# 6 0.004483 0.001714 -0.001592 0.014144 -0.001427 0.042336
#
#
# Mechanical properties :
#
#
# Convention : Reuss Voigt Hill
#
# Bulk Modulus (GPa) = 48.63493 57.01527 52.82510
# Shear Modulus (GPa) = 23.64767 30.50354 27.07561
#
# Velocity S-wave (km/s) = 3.33435 3.78698 3.56785
# Velocity P-wave (km/s) = 6.13918 6.77696 6.46594
#
# Compressibility (1/GPa) = 0.02056135
#
# Stress axis : x y z
#
# Youngs Moduli (GPa) = 44.21774 97.04733 50.67404
#
# Poissons Ratio (x) = 0.40074 0.52263
# Poissons Ratio (y) = 0.18259 0.08124
# Poissons Ratio (z) = 0.45605 0.15558
#
# Static dielectric constant tensor:
#      x y z
#    x 3.914200 -0.227770 -0.211020 
#    y -0.227770 4.033350 0.261380 
#    z -0.211020 0.261380 3.718090 
# 
# 
# High freq. dielectric constant tensor:
#      x y z
#    x 1.829690 -0.011880 -0.025270 
#    y -0.011880 1.841710 0.008420 
#    z -0.025270 0.008420 1.808220 
# 
# From -- ./inp_files/203685.got.cif
#   From: 2010.06.25/outbox.cif.g09.slc.cpg/sg2_102_cif.got.tgz:203685.got - 2010.06.27 13:26:56.
