data_PCOD8029444
_publ_section_title
;
Structure prediction by ZEFSAII (Michael W. Deem and Ramdas Pophale) SiO2 
 PCOD8029444
Probable space group: P -1
;
_chemical_formula_sum "Si O2"
_cell_formula_units_Z 12
_cell_length_a 18.388716
_cell_length_b 21.652832
_cell_length_c 12.618748
_cell_angle_alpha 20.258840
_cell_angle_beta 28.894943
_cell_angle_gamma 19.348529
_cell_volume 574.362248
_symmetry_space_group_name_H-M "P -1"
_symmetry_group_IT_number 2
_symmetry_cell_setting 'triclinic'
loop_
_space_group_symop_operation_xyz
x,y,z
-x,-y,-z
loop_
_atom_site_type_symbol
_atom_site_label
_atom_site_fract_x
_atom_site_fract_y
_atom_site_fract_z
Si Si1 0.044820 0.313225 0.830437
Si Si2 0.752538 0.733371 0.131409
Si Si3 0.180295 0.729437 0.263119
Si Si4 0.953677 0.869756 0.547334
Si Si5 0.702317 0.238228 0.603948
Si Si6 0.660066 0.377775 0.207949
O O1 0.000000 0.500000 0.500000
O O2 0.152595 0.297355 0.825097
O O3 0.806614 0.424618 0.970687
O O4 0.222512 0.017875 0.031494
O O5 0.793380 0.488719 0.467356
O O6 0.885002 0.723467 0.885243
O O7 0.500000 0.000000 0.000000
O O8 0.403127 0.651023 0.084289
O O9 0.110446 0.768149 0.411597
O O10 0.000000 0.000000 0.000000
O O11 0.093085 0.802887 0.581253
O O12 0.743235 0.187975 0.306442
O O13 0.500000 0.500000 0.500000
O O14 0.657076 0.247311 0.523203
#
# Coordination Sequence:
#
# PCOD8029444 Si02
#       6
#     2   2   2   2   2   2
#     4  11  25  43  70 104 137 177 225 288 342 389
#     4  12  24  46  70 100 140 181 230 276 336 415
#     4  12  28  43  68 103 138 176 226 287 348 397
#     4  11  22  43  71  96 131 182 228 273 333 413
#     4  11  20  41  76  97 127 176 234 271 329 410
#     4  11  22  47  70  97 135 182 226 274 340 416
#
# _framework density 20.892737
#
# number of rings (size 3 to 8) (size 9 to 14) (size 15 to 20)
#    0.000    0.667    6.667    1.500    4.667    2.000 
#    3.000    1.667    0.000    0.000    0.000    0.000 
#    0.000    0.000    0.000    0.000    0.000    0.000 
#
# Total GULP energy -148682.847847 kJ/mol
# GULP energy per Si atom -12390.237321 kJ/mol
# Density = 2.084518 g / cm^3
# Si number density = 20.892737 Si / 1000 Ang^3
#
#
#
# Elastic Constant Matrix: (Units=GPa)
#
#
# Indices 1 2 3 4 5 6 
#
# 1 102.5508 58.4418 51.4591 -5.8517 -8.5731 -13.6876
# 2 58.4418 157.4519 62.3277 -16.9118 -5.5512 -7.8940
# 3 51.4591 62.3277 134.5105 -17.5145 -3.3608 -13.1624
# 4 -5.8517 -16.9118 -17.5145 35.2246 -1.3360 2.1321
# 5 -8.5731 -5.5512 -3.3608 -1.3360 27.0459 -4.2147
# 6 -13.6876 -7.8940 -13.1624 2.1321 -4.2147 35.3518
#
#
#
# Elastic Compliance Matrix: (Units=1/GPa)
#
#
# Indices 1 2 3 4 5 6 
#
# 1 0.014426 -0.003787 -0.003433 -0.001222 0.003932 0.004004
# 2 -0.003787 0.008975 -0.002418 0.002521 0.000393 -0.000468
# 3 -0.003433 -0.002418 0.010494 0.003381 0.000176 0.001855
# 4 -0.001222 0.002521 0.003381 0.031173 0.002045 -0.000287
# 5 0.003932 0.000393 0.000176 0.002045 0.039398 0.006250
# 6 0.004004 -0.000468 0.001855 -0.000287 0.006250 0.031186
#
#
# Mechanical properties :
#
#
# Convention : Reuss Voigt Hill
#
# Bulk Modulus (GPa) = 68.40275 82.10782 75.25529
# Shear Modulus (GPa) = 31.28902 34.34343 32.81623
#
# Velocity S-wave (km/s) = 3.87409 4.05878 3.96751
# Velocity P-wave (km/s) = 7.26790 7.83262 7.55554
#
# Compressibility (1/GPa) = 0.01461929
#
# Stress axis : x y z
#
# Youngs Moduli (GPa) = 69.32109 111.41969 95.29189
#
# Poissons Ratio (x) = 0.42199 0.32712
# Poissons Ratio (y) = 0.26254 0.23037
# Poissons Ratio (z) = 0.23797 0.26936
#
# Static dielectric constant tensor:
#      x y z
#    x 6.533970 0.825410 -0.964190 
#    y 0.825410 4.587820 -0.345020 
#    z -0.964190 -0.345020 4.023100 
# 
# 
# High freq. dielectric constant tensor:
#      x y z
#    x 1.821140 -0.010760 -0.007950 
#    y -0.010760 1.831720 -0.003370 
#    z -0.007950 -0.003370 1.807320 
# 
# From -- ./inp_files/159809.got.cif
#   From: 2010.06.25/outbox.cif.g09.slc.cpg/sg2_80_cif.got.tgz:159809.got - 2010.06.27 13:26:56.
