data_PCOD8029980
_publ_section_title
;
Structure prediction by ZEFSAII (Michael W. Deem and Ramdas Pophale) SiO2 
 PCOD8029980
Probable space group: P -1
;
_chemical_formula_sum "Si O2"
_cell_formula_units_Z 16
_cell_length_a 11.675411
_cell_length_b 8.996501
_cell_length_c 14.829261
_cell_angle_alpha 140.788862
_cell_angle_beta 58.486239
_cell_angle_gamma 102.733640
_cell_volume 788.704742
_symmetry_space_group_name_H-M "P -1"
_symmetry_group_IT_number 2
_symmetry_cell_setting 'triclinic'
loop_
_space_group_symop_operation_xyz
x,y,z
-x,-y,-z
loop_
_atom_site_type_symbol
_atom_site_label
_atom_site_fract_x
_atom_site_fract_y
_atom_site_fract_z
Si Si1 0.644963 0.059235 0.754834
Si Si2 0.363316 0.091651 0.972143
Si Si3 0.661905 0.280688 0.042396
Si Si4 0.900124 0.615009 0.476757
Si Si5 0.935224 0.784441 0.920064
Si Si6 0.884383 0.220702 0.430093
Si Si7 0.034107 0.707988 0.031318
Si Si8 0.626768 0.378438 0.732950
O O1 0.503188 0.996094 0.806782
O O2 0.620509 0.240916 0.764693
O O3 0.769376 0.797094 0.557876
O O4 0.691937 0.180255 0.880391
O O5 0.378291 0.918457 0.972616
O O6 0.234461 0.085883 0.958917
O O7 0.335668 0.373936 0.147084
O O8 0.527211 0.541682 0.216524
O O9 0.798526 0.328684 0.050438
O O10 0.837284 0.482103 0.517557
O O11 0.009415 0.399870 0.272317
O O12 0.983943 0.788021 0.564087
O O13 0.985405 0.636669 0.921544
O O14 0.000000 0.000000 0.000000
O O15 0.750202 0.203388 0.534720
O O16 0.936964 0.985998 0.231178
O O17 0.000000 0.500000 0.000000
#
# Coordination Sequence:
#
# PCOD8029980 Si02
#       8
#     2   2   2   2   2   2   2   2
#     4  11  24  38  65 100 130 166 220 276 320 374
#     4  11  21  41  68  93 130 173 218 268 320 386
#     4  11  21  43  65  95 128 176 219 262 328 383
#     4  11  22  41  71  94 130 164 231 265 313 384
#     4  12  24  44  66 100 129 174 215 265 325 394
#     4  11  22  43  66  99 124 175 219 270 314 388
#     4  12  28  42  68  96 140 171 211 266 339 388
#     4  11  24  38  65  98 133 165 220 274 321 375
#
# _framework density 20.286425999999999
#
# number of rings (size 3 to 8) (size 9 to 14) (size 15 to 20)
#    0.000    0.750    5.000    4.500    5.250    0.500 
#    0.000    2.500    0.000    0.000    0.000    0.000 
#    0.000    0.000    0.000    0.000    0.000    0.000 
#
# Total GULP energy -198380.343154 kJ/mol
# GULP energy per Si atom -12398.771447 kJ/mol
# Density = 2.024025 g / cm^3
# Si number density = 20.286426 Si / 1000 Ang^3
#
#
#
# Elastic Constant Matrix: (Units=GPa)
#
#
# Indices 1 2 3 4 5 6 
#
# 1 103.2528 37.2813 34.2698 -0.8911 -21.6947 -16.1039
# 2 37.2813 146.1881 27.5836 -5.7936 -15.9946 -18.0418
# 3 34.2698 27.5836 62.9364 -4.9929 -19.8473 2.8514
# 4 -0.8911 -5.7936 -4.9929 31.3681 -2.3668 0.1467
# 5 -21.6947 -15.9946 -19.8473 -2.3668 34.3911 1.1673
# 6 -16.1039 -18.0418 2.8514 0.1467 1.1673 32.9141
#
#
#
# Elastic Compliance Matrix: (Units=1/GPa)
#
#
# Indices 1 2 3 4 5 6 
#
# 1 0.014113 -0.001149 -0.006064 -0.000460 0.004612 0.006639
# 2 -0.001149 0.008369 -0.002638 0.001193 0.001585 0.004192
# 3 -0.006064 -0.002638 0.023871 0.003868 0.009222 -0.006825
# 4 -0.000460 0.001193 0.003868 0.033064 0.004780 -0.000223
# 5 0.004612 0.001585 0.009222 0.004780 0.038343 0.000945
# 6 0.006639 0.004192 -0.006825 -0.000223 0.000945 0.036487
#
#
# Mechanical properties :
#
#
# Convention : Reuss Voigt Hill
#
# Bulk Modulus (GPa) = 37.52086 56.73853 47.12969
# Shear Modulus (GPa) = 27.34725 33.95083 30.64904
#
# Velocity S-wave (km/s) = 3.67557 4.09537 3.89114
# Velocity P-wave (km/s) = 6.04556 7.09875 6.59322
#
# Compressibility (1/GPa) = 0.02665184
#
# Stress axis : x y z
#
# Youngs Moduli (GPa) = 70.85636 119.48267 41.89129
#
# Poissons Ratio (x) = 0.13732 0.25403
# Poissons Ratio (y) = 0.08143 0.11050
# Poissons Ratio (z) = 0.42967 0.31517
#
# Static dielectric constant tensor:
#      x y z
#    x 3.568280 -0.002710 -0.328470 
#    y -0.002710 3.859870 0.008130 
#    z -0.328470 0.008130 3.648830 
# 
# 
# High freq. dielectric constant tensor:
#      x y z
#    x 1.794430 -0.007260 -0.020720 
#    y -0.007260 1.805870 -0.004260 
#    z -0.020720 -0.004260 1.779520 
# 
# From -- ./inp_files/271218.got.cif
#   From: 2010.06.25/outbox.cif.g09.slc.cpg/sg2_136_cif.got.tgz:271218.got - 2010.06.27 13:26:56.
