data_PCOD8029458
_publ_section_title
;
Structure prediction by ZEFSAII (Michael W. Deem and Ramdas Pophale) SiO2 
 PCOD8029458
Probable space group: P -1
;
_chemical_formula_sum "Si O2"
_cell_formula_units_Z 16
_cell_length_a 17.688277
_cell_length_b 21.315937
_cell_length_c 6.679226
_cell_angle_alpha 67.127307
_cell_angle_beta 64.900329
_cell_angle_gamma 17.752061
_cell_volume 694.265040
_symmetry_space_group_name_H-M "P -1"
_symmetry_group_IT_number 2
_symmetry_cell_setting 'triclinic'
loop_
_space_group_symop_operation_xyz
x,y,z
-x,-y,-z
loop_
_atom_site_type_symbol
_atom_site_label
_atom_site_fract_x
_atom_site_fract_y
_atom_site_fract_z
Si Si1 0.670745 0.737740 0.716564
Si Si2 0.104180 0.167454 0.756549
Si Si3 0.365408 0.558745 0.910073
Si Si4 0.293579 0.924887 0.546719
Si Si5 0.015157 0.593356 0.509230
Si Si6 0.727226 0.598011 0.153061
Si Si7 0.009926 0.913131 0.626620
Si Si8 0.567700 0.261327 0.981736
O O1 0.756713 0.749452 0.575481
O O2 0.750537 0.631919 0.561528
O O3 0.374133 0.957431 0.827246
O O4 0.805436 0.604136 0.928719
O O5 0.002406 0.322322 0.692185
O O6 0.891555 0.281507 0.937011
O O7 0.172896 0.088486 0.555150
O O8 0.560362 0.349433 0.885793
O O9 0.500000 0.500000 0.000000
O O10 0.285531 0.671495 0.680287
O O11 0.485377 0.796002 0.317391
O O12 0.063262 0.061065 0.537721
O O13 0.426541 0.776291 0.755816
O O14 0.044357 0.590403 0.714933
O O15 0.673539 0.578571 0.077997
O O16 0.819648 0.041591 0.862344
O O17 0.000000 0.000000 0.500000
#
# Coordination Sequence:
#
# PCOD8029458 Si02
#       8
#     2   2   2   2   2   2   2   2
#     4  11  23  47  67  99 142 178 228 280 342 405
#     4  12  23  45  69  96 139 180 225 278 345 400
#     4  12  27  44  72 103 133 183 230 282 341 405
#     4  11  22  43  69  94 133 186 218 278 345 400
#     4  11  25  41  72 103 134 182 227 282 338 408
#     4  11  20  42  68  99 134 180 222 276 338 397
#     4  11  26  44  68  98 133 176 228 285 345 403
#     4  11  24  46  68  96 138 179 227 281 338 406
#
# _framework density 23.045954999999999
#
# number of rings (size 3 to 8) (size 9 to 14) (size 15 to 20)
#    0.000    0.750    3.750    3.750    3.500    2.500 
#    2.250    0.625    0.000    0.000    0.000    0.000 
#    0.000    0.000    0.000    0.000    0.000    0.000 
#
# Total GULP energy -198284.212936 kJ/mol
# GULP energy per Si atom -12392.763308 kJ/mol
# Density = 2.299350 g / cm^3
# Si number density = 23.045955 Si / 1000 Ang^3
#
#
#
# Elastic Constant Matrix: (Units=GPa)
#
#
# Indices 1 2 3 4 5 6 
#
# 1 133.9775 31.7532 30.4936 -20.5826 2.8358 9.2626
# 2 31.7532 76.1896 12.9999 -13.4162 3.3580 4.0183
# 3 30.4936 12.9999 94.3757 -18.9475 9.6050 2.0598
# 4 -20.5826 -13.4162 -18.9475 30.6075 -0.4158 -2.7446
# 5 2.8358 3.3580 9.6050 -0.4158 42.4142 -1.7765
# 6 9.2626 4.0183 2.0598 -2.7446 -1.7765 41.0809
#
#
#
# Elastic Compliance Matrix: (Units=1/GPa)
#
#
# Indices 1 2 3 4 5 6 
#
# 1 0.009212 -0.002798 -0.001812 0.003715 -0.000009 -0.001465
# 2 -0.002798 0.015204 -0.000151 0.004624 -0.000961 -0.000581
# 3 -0.001812 -0.000151 0.012802 0.006613 -0.002697 0.000107
# 4 0.003715 0.004624 0.006613 0.041364 -0.001662 0.001070
# 5 -0.000009 -0.000961 -0.002697 -0.001662 0.024297 0.001171
# 6 -0.001465 -0.000581 0.000107 0.001070 0.001171 0.024846
#
#
# Mechanical properties :
#
#
# Convention : Reuss Voigt Hill
#
# Bulk Modulus (GPa) = 36.10798 50.55957 43.33377
# Shear Modulus (GPa) = 34.13425 38.10694 36.12060
#
# Velocity S-wave (km/s) = 3.85273 4.07076 3.96325
# Velocity P-wave (km/s) = 5.95762 6.63935 6.30770
#
# Compressibility (1/GPa) = 0.02769471
#
# Stress axis : x y z
#
# Youngs Moduli (GPa) = 108.55746 65.77033 78.11184
#
# Poissons Ratio (x) = 0.18403 0.14156
# Poissons Ratio (y) = 0.30376 0.01182
# Poissons Ratio (z) = 0.19674 0.00996
#
# Static dielectric constant tensor:
#      x y z
#    x 4.459760 -0.057680 0.157710 
#    y -0.057680 4.078760 0.043030 
#    z 0.157710 0.043030 4.193860 
# 
# 
# High freq. dielectric constant tensor:
#      x y z
#    x 1.927070 -0.005340 0.000740 
#    y -0.005340 1.897170 0.002180 
#    z 0.000740 0.002180 1.909390 
# 
# From -- ./inp_files/112341.got.cif
#   From: 2010.06.25/outbox.cif.g09.slc.cpg/sg2_57_cif.got.tgz:112341.got - 2010.06.27 13:26:56.
