data_PCOD8029594
_publ_section_title
;
Structure prediction by ZEFSAII (Michael W. Deem and Ramdas Pophale) SiO2 
 PCOD8029594
Probable space group: P -1
;
_chemical_formula_sum "Si O2"
_cell_formula_units_Z 16
_cell_length_a 15.584430
_cell_length_b 11.963064
_cell_length_c 21.647170
_cell_angle_alpha 30.695418
_cell_angle_beta 30.083703
_cell_angle_gamma 26.262811
_cell_volume 828.622224
_symmetry_space_group_name_H-M "P -1"
_symmetry_group_IT_number 2
_symmetry_cell_setting 'triclinic'
loop_
_space_group_symop_operation_xyz
x,y,z
-x,-y,-z
loop_
_atom_site_type_symbol
_atom_site_label
_atom_site_fract_x
_atom_site_fract_y
_atom_site_fract_z
Si Si1 0.197213 0.565540 0.556999
Si Si2 0.994988 0.094228 0.362505
Si Si3 0.066064 0.619133 0.171077
Si Si4 0.651708 0.841922 0.924691
Si Si5 0.115932 0.602767 0.916687
Si Si6 0.510601 0.954609 0.832414
Si Si7 0.097342 0.053351 0.005884
Si Si8 0.626132 0.462632 0.326352
O O1 0.132931 0.693890 0.603901
O O2 0.449752 0.407347 0.464856
O O3 0.146884 0.344607 0.690069
O O4 0.061070 0.797555 0.479666
O O5 0.842338 0.211896 0.342343
O O6 0.217086 0.046629 0.232822
O O7 0.253610 0.295366 0.218013
O O8 0.107395 0.791702 0.107289
O O9 0.047295 0.708085 0.068731
O O10 0.499224 0.879382 0.946291
O O11 0.811778 0.539622 0.993605
O O12 0.500000 0.000000 0.000000
O O13 0.307505 0.548981 0.781220
O O14 0.962450 0.896030 0.906721
O O15 0.000000 0.500000 0.000000
O O16 0.470333 0.248120 0.717450
O O17 0.334495 0.973318 0.890984
#
# Coordination Sequence:
#
# PCOD8029594 Si02
#       8
#     2   2   2   2   2   2   2   2
#     4  11  21  39  54  84 122 161 197 239 294 356
#     4  11  21  36  56  87 123 155 197 244 299 348
#     4  11  24  42  62  83 126 160 200 243 287 363
#     4  12  19  33  57  94 124 148 185 249 310 350
#     4  12  20  37  61  91 122 148 196 252 306 347
#     4  12  20  36  60  90 120 149 197 243 299 349
#     4  11  24  41  62  91 117 159 200 246 298 352
#     4  12  23  34  62  93 118 156 193 252 300 355
#
# _framework density 19.309159999999999
#
# number of rings (size 3 to 8) (size 9 to 14) (size 15 to 20)
#    0.000    0.500    7.500    2.250    0.000    1.000 
#    0.000    0.625    0.000    0.750    0.000    0.000 
#    0.000    0.000    0.000    0.000    0.000    0.000 
#
# Total GULP energy -198252.735046 kJ/mol
# GULP energy per Si atom -12390.795940 kJ/mol
# Density = 1.926521 g / cm^3
# Si number density = 19.309160 Si / 1000 Ang^3
#
#
#
# Elastic Constant Matrix: (Units=GPa)
#
#
# Indices 1 2 3 4 5 6 
#
# 1 99.6225 32.7518 31.6450 -0.3397 -10.1134 6.4913
# 2 32.7518 68.2256 30.6860 12.1157 -7.8637 3.4336
# 3 31.6450 30.6860 105.5492 17.5161 -11.0317 16.2421
# 4 -0.3397 12.1157 17.5161 34.6145 -6.2638 7.4292
# 5 -10.1134 -7.8637 -11.0317 -6.2638 29.4775 3.5883
# 6 6.4913 3.4336 16.2421 7.4292 3.5883 27.1223
#
#
#
# Elastic Compliance Matrix: (Units=1/GPa)
#
#
# Indices 1 2 3 4 5 6 
#
# 1 0.013123 -0.005525 -0.002280 0.004430 0.003451 -0.002746
# 2 -0.005525 0.019822 -0.003470 -0.005631 0.000611 0.002353
# 3 -0.002280 -0.003470 0.013048 -0.003479 0.003203 -0.006300
# 4 0.004430 -0.005631 -0.003479 0.035970 0.007468 -0.009105
# 5 0.003451 0.000611 0.003203 0.007468 0.039282 -0.010064
# 6 -0.002746 0.002353 -0.006300 -0.009105 -0.010064 0.044827
#
#
# Mechanical properties :
#
#
# Convention : Reuss Voigt Hill
#
# Bulk Modulus (GPa) = 42.65688 51.50698 47.08193
# Shear Modulus (GPa) = 25.45345 30.13048 27.79197
#
# Velocity S-wave (km/s) = 3.63465 3.95451 3.79795
# Velocity P-wave (km/s) = 6.30506 6.89809 6.60823
#
# Compressibility (1/GPa) = 0.02344288
#
# Stress axis : x y z
#
# Youngs Moduli (GPa) = 76.20268 50.44845 76.63881
#
# Poissons Ratio (x) = 0.27872 0.17475
# Poissons Ratio (y) = 0.42101 0.26595
# Poissons Ratio (z) = 0.17376 0.17506
#
# Static dielectric constant tensor:
#      x y z
#    x 5.196620 1.233900 -3.352360 
#    y 1.233900 3.759550 -1.824480 
#    z -3.352360 -1.824480 9.986470 
# 
# 
# High freq. dielectric constant tensor:
#      x y z
#    x 1.745750 -0.024510 0.012820 
#    y -0.024510 1.746480 0.012790 
#    z 0.012820 0.012790 1.741930 
# 
# From -- ./inp_files/425271.got.cif
#   From: 2010.06.25/outbox.cif.g09.slc.cpg/sg2_213_cif.got.tgz:425271.got - 2010.06.27 13:26:56.
