data_PCOD8029008
_publ_section_title
;
Structure prediction by ZEFSAII (Michael W. Deem and Ramdas Pophale) SiO2 
 PCOD8029008
Probable space group: P -1
;
_chemical_formula_sum "Si O2"
_cell_formula_units_Z 16
_cell_length_a 14.980851
_cell_length_b 12.203153
_cell_length_c 15.548470
_cell_angle_alpha 67.665482
_cell_angle_beta 132.804088
_cell_angle_gamma 151.356128
_cell_volume 788.233264
_symmetry_space_group_name_H-M "P -1"
_symmetry_group_IT_number 2
_symmetry_cell_setting 'triclinic'
loop_
_space_group_symop_operation_xyz
x,y,z
-x,-y,-z
loop_
_atom_site_type_symbol
_atom_site_label
_atom_site_fract_x
_atom_site_fract_y
_atom_site_fract_z
Si Si1 0.570201 0.045705 0.893319
Si Si2 0.195455 0.580469 0.550235
Si Si3 0.803675 0.153878 0.843613
Si Si4 0.806647 0.763850 0.571250
Si Si5 0.019140 0.305173 0.209314
Si Si6 0.650358 0.381708 0.841675
Si Si7 0.973777 0.134053 0.478515
Si Si8 0.907751 0.434454 0.685688
O O1 0.731462 0.178993 0.867018
O O2 0.634885 0.234866 0.912455
O O3 0.224038 0.712388 0.760962
O O4 0.699531 0.068863 0.040843
O O5 0.000000 0.500000 0.500000
O O6 0.004928 0.292938 0.490339
O O7 0.304256 0.742017 0.484561
O O8 0.498862 0.809123 0.730209
O O9 0.868660 0.282591 0.760845
O O10 0.093122 0.332765 0.011745
O O11 0.500000 0.500000 0.500000
O O12 0.016336 0.863005 0.735059
O O13 0.762099 0.668727 0.473506
O O14 0.952336 0.023734 0.577635
O O15 0.258199 0.529103 0.223963
O O16 0.139371 0.489119 0.312608
O O17 0.318582 0.140148 0.694292
#
# Coordination Sequence:
#
# PCOD8029008 Si02
#       8
#     2   2   2   2   2   2   2   2
#     4  11  20  35  58  94 127 156 201 263 313 367
#     4  12  24  41  59  92 137 168 198 250 317 380
#     4  11  23  36  54  91 127 164 195 243 318 381
#     4  11  23  41  63  95 118 162 218 265 296 353
#     4  11  20  34  63  94 122 158 208 265 309 357
#     4  11  19  38  63  91 127 155 205 267 310 365
#     4  11  24  41  66  91 123 166 209 260 307 358
#     4  12  21  35  61  89 128 166 201 243 322 377
#
# _framework density 20.298562
#
# number of rings (size 3 to 8) (size 9 to 14) (size 15 to 20)
#    0.000    0.750    7.500    1.500    1.750    0.000 
#    2.250    0.000    0.000    6.000    0.000    0.000 
#    0.000    0.000    0.000    0.000    0.000    0.000 
#
# Total GULP energy -198214.045441 kJ/mol
# GULP energy per Si atom -12388.377840 kJ/mol
# Density = 2.025236 g / cm^3
# Si number density = 20.298562 Si / 1000 Ang^3
#
#
#
# Elastic Constant Matrix: (Units=GPa)
#
#
# Indices 1 2 3 4 5 6 
#
# 1 77.9850 37.3808 18.4730 -9.0664 -7.4107 4.8973
# 2 37.3808 92.4700 31.0113 -22.6722 6.4828 4.3270
# 3 18.4730 31.0113 107.3814 -7.1928 -4.3108 -4.0004
# 4 -9.0664 -22.6722 -7.1928 40.1208 -2.5322 2.9643
# 5 -7.4107 6.4828 -4.3108 -2.5322 27.1972 -6.2486
# 6 4.8973 4.3270 -4.0004 2.9643 -6.2486 30.8999
#
#
#
# Elastic Compliance Matrix: (Units=1/GPa)
#
#
# Indices 1 2 3 4 5 6 
#
# 1 0.016965 -0.006984 -0.000667 0.000193 0.006064 -0.000589
# 2 -0.006984 0.017375 -0.003739 0.007427 -0.006843 -0.003907
# 3 -0.000667 -0.003739 0.010702 -0.000353 0.002982 0.002652
# 4 0.000193 0.007427 -0.000353 0.029396 0.000062 -0.003924
# 5 0.006064 -0.006843 0.002982 0.000062 0.042596 0.008991
# 6 -0.000589 -0.003907 0.002652 -0.003924 0.008991 0.035541
#
#
# Mechanical properties :
#
#
# Convention : Reuss Voigt Hill
#
# Bulk Modulus (GPa) = 44.92171 50.17407 47.54789
# Shear Modulus (GPa) = 27.35587 32.37499 29.86543
#
# Velocity S-wave (km/s) = 3.67505 3.99800 3.83992
# Velocity P-wave (km/s) = 6.33929 6.78850 6.56773
#
# Compressibility (1/GPa) = 0.02226095
#
# Stress axis : x y z
#
# Youngs Moduli (GPa) = 58.94651 57.55330 93.43991
#
# Poissons Ratio (x) = 0.40197 0.06232
# Poissons Ratio (y) = 0.41170 0.34939
# Poissons Ratio (z) = 0.03931 0.21520
#
# Static dielectric constant tensor:
#      x y z
#    x 3.584250 0.254010 0.076250 
#    y 0.254010 3.731820 -0.134790 
#    z 0.076250 -0.134790 4.093360 
# 
# 
# High freq. dielectric constant tensor:
#      x y z
#    x 1.768260 0.037990 0.006480 
#    y 0.037990 1.789230 -0.017020 
#    z 0.006480 -0.017020 1.795010 
# 
# From -- ./inp_files/450453.got.cif
#   From: 2010.06.25/outbox.cif.g09.slc.cpg/sg2_226_cif.got.tgz:450453.got - 2010.06.27 13:26:56.
