data_PCOD8029590
_publ_section_title
;
Structure prediction by ZEFSAII (Michael W. Deem and Ramdas Pophale) SiO2 
 PCOD8029590
Probable space group: P -1
;
_chemical_formula_sum "Si O2"
_cell_formula_units_Z 16
_cell_length_a 11.242827
_cell_length_b 10.131064
_cell_length_c 16.563354
_cell_angle_alpha 76.622115
_cell_angle_beta 122.150044
_cell_angle_gamma 53.945837
_cell_volume 782.375255
_symmetry_space_group_name_H-M "P -1"
_symmetry_group_IT_number 2
_symmetry_cell_setting 'triclinic'
loop_
_space_group_symop_operation_xyz
x,y,z
-x,-y,-z
loop_
_atom_site_type_symbol
_atom_site_label
_atom_site_fract_x
_atom_site_fract_y
_atom_site_fract_z
Si Si1 0.748334 0.908532 0.189605
Si Si2 0.281167 0.844437 0.150402
Si Si3 0.240030 0.643092 0.341411
Si Si4 0.042245 0.089283 0.190659
Si Si5 0.532010 0.360813 0.329902
Si Si6 0.411225 0.257385 0.858224
Si Si7 0.485528 0.672356 0.850121
Si Si8 0.028439 0.825150 0.672323
O O1 0.724591 0.769254 0.216952
O O2 0.078486 0.668377 0.334040
O O3 0.626611 0.088281 0.197345
O O4 0.576160 0.099246 0.022579
O O5 0.531575 0.525644 0.297615
O O6 0.367530 0.879457 0.109308
O O7 0.241255 0.959993 0.204505
O O8 0.000000 0.000000 0.000000
O O9 0.500000 0.500000 0.500000
O O10 0.329181 0.492807 0.312411
O O11 0.013453 0.949394 0.195151
O O12 0.150186 0.038285 0.327237
O O13 0.753040 0.408159 0.035186
O O14 0.427825 0.386218 0.204140
O O15 0.835263 0.045015 0.500489
O O16 0.155882 0.574621 0.730265
O O17 0.267755 0.736327 0.782287
#
# Coordination Sequence:
#
# PCOD8029590 Si02
#       8
#     2   2   2   2   2   2   2   2
#     4  11  24  41  65  92 131 169 210 257 324 383
#     4  11  21  37  63  94 126 158 209 260 312 365
#     4  11  21  39  64  94 126 165 212 258 312 374
#     4  11  21  35  63  93 118 160 214 261 304 365
#     4  11  23  35  63  97 124 159 213 268 309 362
#     4  11  24  42  63  95 130 168 205 266 325 376
#     4  12  21  37  63  95 122 162 217 262 303 373
#     4  12  21  39  63  94 125 163 214 262 309 375
#
# _framework density 20.450545000000002
#
# number of rings (size 3 to 8) (size 9 to 14) (size 15 to 20)
#    0.000    0.750    6.250    3.000    0.000    0.000 
#    0.000    3.125    0.000    0.000    0.000    0.000 
#    0.000    0.000    0.000    0.000    0.000    0.000 
#
# Total GULP energy -198314.073824 kJ/mol
# GULP energy per Si atom -12394.629614 kJ/mol
# Density = 2.040400 g / cm^3
# Si number density = 20.450545 Si / 1000 Ang^3
#
#
#
# Elastic Constant Matrix: (Units=GPa)
#
#
# Indices 1 2 3 4 5 6 
#
# 1 113.1084 66.2530 31.2117 1.6586 2.2036 -3.6397
# 2 66.2530 149.3476 26.4578 -5.6526 0.4396 -2.9566
# 3 31.2117 26.4578 76.0496 -9.7334 -8.4539 9.7147
# 4 1.6586 -5.6526 -9.7334 29.6658 -0.8333 -10.8445
# 5 2.2036 0.4396 -8.4539 -0.8333 25.4215 5.1678
# 6 -3.6397 -2.9566 9.7147 -10.8445 5.1678 37.1504
#
#
#
# Elastic Compliance Matrix: (Units=1/GPa)
#
#
# Indices 1 2 3 4 5 6 
#
# 1 0.013256 -0.005133 -0.004551 -0.002668 -0.003011 0.001720
# 2 -0.005133 0.009256 -0.001012 0.002133 -0.000216 0.001151
# 3 -0.004551 -0.001012 0.017336 0.004180 0.007301 -0.004855
# 4 -0.002668 0.002133 0.004180 0.039388 0.000802 0.010202
# 5 -0.003011 -0.000216 0.007301 0.000802 0.043695 -0.008066
# 6 0.001720 0.001151 -0.004855 0.010202 -0.008066 0.032547
#
#
# Mechanical properties :
#
#
# Convention : Reuss Voigt Hill
#
# Bulk Modulus (GPa) = 54.17728 65.15010 59.66369
# Shear Modulus (GPa) = 27.31917 32.75306 30.03611
#
# Velocity S-wave (km/s) = 3.65891 4.00631 3.83655
# Velocity P-wave (km/s) = 6.66330 7.30255 6.99024
#
# Compressibility (1/GPa) = 0.01845792
#
# Stress axis : x y z
#
# Youngs Moduli (GPa) = 75.43514 108.03691 57.68412
#
# Poissons Ratio (x) = 0.55451 0.26251
# Poissons Ratio (y) = 0.38718 0.05836
# Poissons Ratio (z) = 0.34330 0.10930
#
# Static dielectric constant tensor:
#      x y z
#    x 3.711280 -0.419070 -0.196540 
#    y -0.419070 4.042290 -0.179840 
#    z -0.196540 -0.179840 3.746950 
# 
# 
# High freq. dielectric constant tensor:
#      x y z
#    x 1.772230 -0.036940 -0.024270 
#    y -0.036940 1.805010 -0.015790 
#    z -0.024270 -0.015790 1.796550 
# 
# From -- ./inp_files/565938.got.cif
#   From: 2010.06.25/outbox.cif.g09.slc.cpg/sg2_283_cif.got.tgz:565938.got - 2010.06.27 13:26:56.
