data_PCOD8029280
_publ_section_title
;
Structure prediction by ZEFSAII (Michael W. Deem and Ramdas Pophale) SiO2 
 PCOD8029280
Probable space group: P -1
;
_chemical_formula_sum "Si O2"
_cell_formula_units_Z 14
_cell_length_a 12.513621
_cell_length_b 20.769041
_cell_length_c 21.673858
_cell_angle_alpha 160.070877
_cell_angle_beta 159.636745
_cell_angle_gamma 31.479450
_cell_volume 648.491504
_symmetry_space_group_name_H-M "P -1"
_symmetry_group_IT_number 2
_symmetry_cell_setting 'triclinic'
loop_
_space_group_symop_operation_xyz
x,y,z
-x,-y,-z
loop_
_atom_site_type_symbol
_atom_site_label
_atom_site_fract_x
_atom_site_fract_y
_atom_site_fract_z
Si Si1 0.233476 0.068682 0.333255
Si Si2 0.571159 0.273351 0.584022
Si Si3 0.702959 0.697308 0.990200
Si Si4 0.749436 0.872839 0.468429
Si Si5 0.449650 0.058049 0.202325
Si Si6 0.729818 0.727982 0.894025
Si Si7 0.180792 0.674327 0.455800
O O1 0.377635 0.217707 0.491735
O O2 0.270511 0.188075 0.525278
O O3 0.411588 0.893661 0.278771
O O4 0.868644 0.969320 0.033965
O O5 0.577681 0.497870 0.779171
O O6 0.391228 0.140173 0.311479
O O7 0.918290 0.236155 0.744109
O O8 0.584445 0.672005 0.832652
O O9 0.555547 0.857588 0.087992
O O10 0.853519 0.711285 0.337591
O O11 0.994508 0.080371 0.780406
O O12 0.727651 0.214001 0.458600
O O13 0.449529 0.762014 0.730240
O O14 0.873416 0.555325 0.789464
#
# Coordination Sequence:
#
# PCOD8029280 Si02
#       7
#     2   2   2   2   2   2   2
#     4  11  24  41  63  88 133 163 196 246 316 363
#     4  11  24  43  59  92 126 161 205 254 295 369
#     4  11  23  40  69  88 119 163 212 251 300 350
#     4  11  22  43  64  91 124 164 198 254 304 365
#     4  12  22  40  64  94 121 165 201 253 303 363
#     4  11  20  39  66  95 119 150 210 263 291 355
#     4  11  22  37  69  96 117 155 213 252 304 352
#
# _framework density 21.588564000000002
#
# number of rings (size 3 to 8) (size 9 to 14) (size 15 to 20)
#    0.000    0.857    5.714    2.143    0.000    0.571 
#    0.000    5.714    0.000    0.000    0.000    0.000 
#    0.000    0.000    0.000    0.000    0.000    0.000 
#
# Total GULP energy -173690.019478 kJ/mol
# GULP energy per Si atom -12406.429963 kJ/mol
# Density = 2.153943 g / cm^3
# Si number density = 21.588564 Si / 1000 Ang^3
#
#
#
# Elastic Constant Matrix: (Units=GPa)
#
#
# Indices 1 2 3 4 5 6 
#
# 1 128.9520 21.3359 1.4575 5.9573 11.7139 13.2215
# 2 21.3359 98.0525 14.7443 4.8056 2.4061 -8.7537
# 3 1.4575 14.7443 24.0526 1.3103 -5.2499 -3.0114
# 4 5.9573 4.8056 1.3103 19.7201 -4.3430 -5.7481
# 5 11.7139 2.4061 -5.2499 -4.3430 20.3874 -5.6398
# 6 13.2215 -8.7537 -3.0114 -5.7481 -5.6398 35.7476
#
#
#
# Elastic Compliance Matrix: (Units=1/GPa)
#
#
# Indices 1 2 3 4 5 6 
#
# 1 0.009927 -0.001936 -0.001927 -0.006408 -0.009215 -0.006792
# 2 -0.001936 0.012058 -0.007270 -0.001533 -0.001811 0.002524
# 3 -0.001927 -0.007270 0.050652 0.004930 0.017946 0.006823
# 4 -0.006408 -0.001533 0.004930 0.062407 0.022867 0.016052
# 5 -0.009215 -0.001811 0.017946 0.022867 0.069332 0.019092
# 6 -0.006792 0.002524 0.006823 0.016052 0.019092 0.037272
#
#
# Mechanical properties :
#
#
# Convention : Reuss Voigt Hill
#
# Bulk Modulus (GPa) = 19.85341 36.23692 28.04517
# Shear Modulus (GPa) = 17.81235 29.40565 23.60900
#
# Velocity S-wave (km/s) = 2.87554 3.69466 3.31053
# Velocity P-wave (km/s) = 4.49902 5.91797 5.25659
#
# Compressibility (1/GPa) = 0.05036917
#
# Stress axis : x y z
#
# Youngs Moduli (GPa) = 100.74005 82.93176 19.74270
#
# Poissons Ratio (x) = 0.16059 0.03805
# Poissons Ratio (y) = 0.19507 0.14353
# Poissons Ratio (z) = 0.19414 0.60291
#
# Static dielectric constant tensor:
#      x y z
#    x 4.095570 0.069680 -0.072490 
#    y 0.069680 3.990610 -0.120940 
#    z -0.072490 -0.120940 3.657340 
# 
# 
# High freq. dielectric constant tensor:
#      x y z
#    x 1.858950 0.007630 -0.006090 
#    y 0.007630 1.855180 -0.004080 
#    z -0.006090 -0.004080 1.827380 
# 
# From -- ./inp_files/187140.got.cif
#   From: 2010.06.25/outbox.cif.g09.slc.cpg/sg2_94_cif.got.tgz:187140.got - 2010.06.27 13:26:56.
