data_PCOD8029897
_publ_section_title
;
Structure prediction by ZEFSAII (Michael W. Deem and Ramdas Pophale) SiO2 
 PCOD8029897
Probable space group: P -1
;
_chemical_formula_sum "Si O2"
_cell_formula_units_Z 16
_cell_length_a 17.503939
_cell_length_b 18.843385
_cell_length_c 7.934898
_cell_angle_alpha 137.040937
_cell_angle_beta 145.037513
_cell_angle_gamma 31.853409
_cell_volume 785.949110
_symmetry_space_group_name_H-M "P -1"
_symmetry_group_IT_number 2
_symmetry_cell_setting 'triclinic'
loop_
_space_group_symop_operation_xyz
x,y,z
-x,-y,-z
loop_
_atom_site_type_symbol
_atom_site_label
_atom_site_fract_x
_atom_site_fract_y
_atom_site_fract_z
Si Si1 0.792272 0.713229 0.755521
Si Si2 0.887927 0.978720 0.654916
Si Si3 0.083255 0.881064 0.317356
Si Si4 0.174838 0.173265 0.317686
Si Si5 0.871696 0.438850 0.362693
Si Si6 0.562903 0.038523 0.333284
Si Si7 0.702866 0.406733 0.688164
Si Si8 0.088194 0.668611 0.397563
O O1 0.808734 0.796478 0.791508
O O2 0.838702 0.577701 0.531786
O O3 0.595233 0.809558 0.631871
O O4 0.925736 0.673419 0.076773
O O5 0.009770 0.823574 0.541515
O O6 0.817444 0.089579 0.575357
O O7 0.721889 0.027691 0.542527
O O8 0.000000 0.000000 0.000000
O O9 0.230189 0.743606 0.437733
O O10 0.000000 0.000000 0.500000
O O11 0.938306 0.876856 0.965259
O O12 0.075177 0.311379 0.485689
O O13 0.364457 0.064267 0.554771
O O14 0.817266 0.416799 0.407503
O O15 0.769154 0.441621 0.025132
O O16 0.500000 0.000000 0.000000
O O17 0.500000 0.500000 0.500000
O O18 0.771508 0.413818 0.643393
#
# Coordination Sequence:
#
# PCOD8029897 Si02
#       8
#     2   2   2   2   2   2   2   2
#     4  12  24  43  70 101 139 181 228 284 353 409
#     4  12  22  42  71  97 136 182 229 281 345 412
#     4  11  21  40  70  93 129 180 228 271 347 405
#     4  11  22  44  67  98 138 180 225 287 336 412
#     4  11  24  44  70  98 134 186 230 275 352 418
#     4  12  25  42  65 106 139 173 236 289 334 402
#     4  11  26  45  66 101 139 178 236 289 339 413
#     4  12  23  45  72  95 141 182 225 292 346 409
#
# _framework density 20.357552999999999
#
# number of rings (size 3 to 8) (size 9 to 14) (size 15 to 20)
#    0.000    0.500    7.500    1.875    0.000    3.500 
#    2.250    0.000    0.000    0.000    0.000    0.000 
#    0.000    0.000    0.000    0.000    0.000    0.000 
#
# Total GULP energy -198320.071513 kJ/mol
# GULP energy per Si atom -12395.004470 kJ/mol
# Density = 2.031122 g / cm^3
# Si number density = 20.357553 Si / 1000 Ang^3
#
#
#
# Elastic Constant Matrix: (Units=GPa)
#
#
# Indices 1 2 3 4 5 6 
#
# 1 120.6837 24.3576 37.9800 -2.0700 -1.4001 -6.5792
# 2 24.3576 122.1251 60.3938 8.8633 4.7427 -19.6547
# 3 37.9800 60.3938 101.8325 6.5976 -0.9657 -15.1121
# 4 -2.0700 8.8633 6.5976 37.5543 -1.4755 5.8352
# 5 -1.4001 4.7427 -0.9657 -1.4755 32.5737 0.1968
# 6 -6.5792 -19.6547 -15.1121 5.8352 0.1968 37.0430
#
#
#
# Elastic Compliance Matrix: (Units=1/GPa)
#
#
# Indices 1 2 3 4 5 6 
#
# 1 0.009449 -0.000305 -0.003430 0.001223 0.000405 -0.000078
# 2 -0.000305 0.012407 -0.006459 -0.002564 -0.002153 0.004309
# 3 -0.003430 -0.006459 0.015427 -0.001721 0.001157 0.002522
# 4 0.001223 -0.002564 -0.001721 0.028660 0.001712 -0.006369
# 5 0.000405 -0.002153 0.001157 0.001712 0.031149 -0.001034
# 6 -0.000078 0.004309 0.002522 -0.006369 -0.001034 0.031306
#
#
# Mechanical properties :
#
#
# Convention : Reuss Voigt Hill
#
# Bulk Modulus (GPa) = 59.19450 65.56713 62.38082
# Shear Modulus (GPa) = 32.38012 36.22819 34.30415
#
# Velocity S-wave (km/s) = 3.99252 4.22310 4.10943
# Velocity P-wave (km/s) = 7.09889 7.48713 7.29559
#
# Compressibility (1/GPa) = 0.01689346
#
# Stress axis : x y z
#
# Youngs Moduli (GPa) = 105.83571 80.60287 64.82302
#
# Poissons Ratio (x) = 0.02462 0.22234
# Poissons Ratio (y) = 0.03232 0.41868
# Poissons Ratio (z) = 0.36300 0.52060
#
# Static dielectric constant tensor:
#      x y z
#    x 3.818620 0.003740 -0.214540 
#    y 0.003740 3.764730 -0.017130 
#    z -0.214540 -0.017130 3.740720 
# 
# 
# High freq. dielectric constant tensor:
#      x y z
#    x 1.812030 0.002810 -0.013190 
#    y 0.002810 1.797370 0.009210 
#    z -0.013190 0.009210 1.791150 
# 
# From -- ./inp_files/281424.got.cif
#   From: 2010.06.25/outbox.cif.g09.slc.cpg/sg2_141_cif.got.tgz:281424.got - 2010.06.27 13:26:56.
