data_PCOD8029301
_publ_section_title
;
Structure prediction by ZEFSAII (Michael W. Deem and Ramdas Pophale) SiO2 
 PCOD8029301
Probable space group: P -1
;
_chemical_formula_sum "Si O2"
_cell_formula_units_Z 16
_cell_length_a 9.387053
_cell_length_b 17.162441
_cell_length_c 12.437899
_cell_angle_alpha 45.816886
_cell_angle_beta 45.949522
_cell_angle_gamma 35.878306
_cell_volume 800.476197
_symmetry_space_group_name_H-M "P -1"
_symmetry_group_IT_number 2
_symmetry_cell_setting 'triclinic'
loop_
_space_group_symop_operation_xyz
x,y,z
-x,-y,-z
loop_
_atom_site_type_symbol
_atom_site_label
_atom_site_fract_x
_atom_site_fract_y
_atom_site_fract_z
Si Si1 0.283722 0.440974 0.936143
Si Si2 0.669213 0.614411 0.422206
Si Si3 0.332391 0.743650 0.276183
Si Si4 0.954354 0.967102 0.938629
Si Si5 0.496119 0.741760 0.795793
Si Si6 0.525303 0.559940 0.768365
Si Si7 0.926108 0.710301 0.488675
Si Si8 0.062090 0.271364 0.776522
O O1 0.460402 0.376623 0.799307
O O2 0.283047 0.566852 0.858353
O O3 0.402059 0.322969 0.077731
O O4 0.000000 0.500000 0.000000
O O5 0.427060 0.693463 0.395611
O O6 0.582668 0.624736 0.580278
O O7 0.796058 0.688026 0.265390
O O8 0.879483 0.454765 0.430253
O O9 0.061930 0.776204 0.380836
O O10 0.272673 0.889926 0.139942
O O11 0.213055 0.888014 0.810443
O O12 0.867522 0.872078 0.080959
O O13 0.000000 0.000000 0.000000
O O14 0.487926 0.639438 0.820613
O O15 0.673670 0.777784 0.625928
O O16 0.756860 0.394117 0.821837
O O17 0.834175 0.745848 0.380660
#
# Coordination Sequence:
#
# PCOD8029301 Si02
#       8
#     2   2   2   2   2   2   2   2
#     4  12  25  38  64 102 133 160 208 272 330 374
#     4  11  22  39  68 100 128 163 214 269 331 370
#     4  12  25  44  63  93 139 177 203 261 330 381
#     4  12  24  45  63  89 132 181 213 254 318 395
#     4  12  23  39  70  97 125 167 225 263 313 383
#     4  11  21  41  65 101 127 163 212 278 319 366
#     4  11  20  39  70  98 122 167 216 269 320 371
#     4  11  20  42  70  91 130 170 216 259 317 391
#
# _framework density 19.988104
#
# number of rings (size 3 to 8) (size 9 to 14) (size 15 to 20)
#    0.000    0.500    8.750    2.250    1.750    1.000 
#    0.000    0.625    0.000    0.000    0.000    0.000 
#    0.000    0.000    0.000    0.000    0.000    0.000 
#
# Total GULP energy -198441.417106 kJ/mol
# GULP energy per Si atom -12402.588569 kJ/mol
# Density = 1.994261 g / cm^3
# Si number density = 19.988104 Si / 1000 Ang^3
#
#
#
# Elastic Constant Matrix: (Units=GPa)
#
#
# Indices 1 2 3 4 5 6 
#
# 1 82.0725 16.0935 23.1897 -5.4368 -9.4927 1.8410
# 2 16.0935 56.3465 32.0059 -9.3409 -3.1279 4.5007
# 3 23.1897 32.0059 84.1388 -7.1007 -13.6178 -0.3180
# 4 -5.4368 -9.3409 -7.1007 36.1844 0.7218 -4.5770
# 5 -9.4927 -3.1279 -13.6178 0.7218 39.2232 -0.9491
# 6 1.8410 4.5007 -0.3180 -4.5770 -0.9491 20.6159
#
#
#
# Elastic Compliance Matrix: (Units=1/GPa)
#
#
# Indices 1 2 3 4 5 6 
#
# 1 0.013644 -0.002165 -0.002502 0.000895 0.002233 -0.000483
# 2 -0.002165 0.024098 -0.008559 0.003686 -0.001750 -0.004462
# 3 -0.002502 -0.008559 0.016656 0.000943 0.004544 0.002767
# 4 0.000895 0.003686 0.000943 0.029623 0.000431 0.005726
# 5 0.002233 -0.001750 0.004544 0.000431 0.027505 0.001615
# 6 -0.000483 -0.004462 0.002767 0.005726 0.001615 0.050912
#
#
# Mechanical properties :
#
#
# Convention : Reuss Voigt Hill
#
# Bulk Modulus (GPa) = 35.78308 40.57068 38.17688
# Shear Modulus (GPa) = 25.22654 29.28929 27.25791
#
# Velocity S-wave (km/s) = 3.55643 3.83212 3.69685
# Velocity P-wave (km/s) = 5.89960 6.31836 6.11257
#
# Compressibility (1/GPa) = 0.02794617
#
# Stress axis : x y z
#
# Youngs Moduli (GPa) = 73.29160 41.49786 60.03888
#
# Poissons Ratio (x) = 0.08985 0.15021
# Poissons Ratio (y) = 0.15868 0.51386
# Poissons Ratio (z) = 0.18337 0.35517
#
# Static dielectric constant tensor:
#      x y z
#    x 3.786430 0.201520 -0.121440 
#    y 0.201520 3.579590 -0.018680 
#    z -0.121440 -0.018680 3.790480 
# 
# 
# High freq. dielectric constant tensor:
#      x y z
#    x 1.779080 0.011430 -0.007670 
#    y 0.011430 1.752030 0.001490 
#    z -0.007670 0.001490 1.797020 
# 
# From -- ./inp_files/176402.got.cif
#   From: 2010.06.25/outbox.cif.g09.slc.cpg/sg2_89_cif.got.tgz:176402.got - 2010.06.27 13:26:56.
