data_PCOD8029107
_publ_section_title
;
Structure prediction by ZEFSAII (Michael W. Deem and Ramdas Pophale) SiO2 
 PCOD8029107
Probable space group: P -1
;
_chemical_formula_sum "Si O2"
_cell_formula_units_Z 16
_cell_length_a 11.481676
_cell_length_b 11.741900
_cell_length_c 11.999623
_cell_angle_alpha 145.086068
_cell_angle_beta 94.998740
_cell_angle_gamma 102.297589
_cell_volume 799.413579
_symmetry_space_group_name_H-M "P -1"
_symmetry_group_IT_number 2
_symmetry_cell_setting 'triclinic'
loop_
_space_group_symop_operation_xyz
x,y,z
-x,-y,-z
loop_
_atom_site_type_symbol
_atom_site_label
_atom_site_fract_x
_atom_site_fract_y
_atom_site_fract_z
Si Si1 0.875764 0.311522 0.113789
Si Si2 0.688714 0.202510 0.208293
Si Si3 0.140020 0.391726 0.303399
Si Si4 0.957336 0.635973 0.187908
Si Si5 0.548437 0.445858 0.344452
Si Si6 0.850014 0.842687 0.672572
Si Si7 0.709234 0.793592 0.976232
Si Si8 0.096052 0.026003 0.670759
O O1 0.787051 0.334099 0.219763
O O2 0.861573 0.453028 0.124305
O O3 0.026874 0.431441 0.270439
O O4 0.828970 0.056139 0.866285
O O5 0.742999 0.358757 0.449361
O O6 0.549771 0.203323 0.167770
O O7 0.691805 0.969898 0.036971
O O8 0.085474 0.215541 0.262078
O O9 0.189492 0.281170 0.125061
O O10 0.085335 0.849353 0.431953
O O11 0.879260 0.737781 0.193045
O O12 0.000000 0.500000 0.000000
O O13 0.500000 0.500000 0.500000
O O14 0.698026 0.637663 0.473887
O O15 0.445398 0.419006 0.213500
O O16 0.954406 0.899485 0.625596
O O17 0.768853 0.902393 0.188616
#
# Coordination Sequence:
#
# PCOD8029107 Si02
#       8
#     2   2   2   2   2   2   2   2
#     4  12  20  36  61  93 118 158 200 255 299 354
#     4  11  22  34  59  89 125 163 199 233 301 367
#     4  11  20  34  57  91 129 155 190 248 293 356
#     4  11  22  40  62  88 119 147 209 257 306 349
#     4  11  22  39  56  88 131 169 192 237 292 364
#     4  11  20  36  60  87 125 161 195 232 304 356
#     4  12  21  39  61  89 128 159 201 239 298 360
#     4  11  24  39  63  91 115 160 198 260 301 343
#
# _framework density 20.014671
#
# number of rings (size 3 to 8) (size 9 to 14) (size 15 to 20)
#    0.000    0.750    6.250    4.125    0.000    0.000 
#    0.000    0.000    0.000    7.500    0.000    0.000 
#    0.000    0.000    0.000    0.000    0.000    0.000 
#
# Total GULP energy -198284.597886 kJ/mol
# GULP energy per Si atom -12392.787368 kJ/mol
# Density = 1.996912 g / cm^3
# Si number density = 20.014671 Si / 1000 Ang^3
#
#
#
# Elastic Constant Matrix: (Units=GPa)
#
#
# Indices 1 2 3 4 5 6 
#
# 1 101.6064 24.6379 32.8610 -16.0674 5.9303 -9.2068
# 2 24.6379 81.8929 9.0563 -4.0770 16.3161 -9.5904
# 3 32.8610 9.0563 90.1906 -20.1045 -1.2814 -0.6989
# 4 -16.0674 -4.0770 -20.1045 27.9650 -8.4169 0.4230
# 5 5.9303 16.3161 -1.2814 -8.4169 38.2350 0.2227
# 6 -9.2068 -9.5904 -0.6989 0.4230 0.2227 11.6464
#
#
#
# Elastic Compliance Matrix: (Units=1/GPa)
#
#
# Indices 1 2 3 4 5 6 
#
# 1 0.012954 -0.002324 -0.003434 0.004454 -0.000198 0.007963
# 2 -0.002324 0.015616 -0.001218 -0.002176 -0.006888 0.011160
# 3 -0.003434 -0.001218 0.014605 0.009497 0.003652 -0.003256
# 4 0.004454 -0.002176 0.009497 0.048183 0.011161 0.000336
# 5 -0.000198 -0.006888 0.003652 0.011161 0.031742 -0.006622
# 6 0.007963 0.011160 -0.003256 0.000336 -0.006622 0.101267
#
#
# Mechanical properties :
#
#
# Convention : Reuss Voigt Hill
#
# Bulk Modulus (GPa) = 34.22020 45.20003 39.71011
# Shear Modulus (GPa) = 20.15654 29.37828 24.76741
#
# Velocity S-wave (km/s) = 3.17691 3.83539 3.52158
# Velocity P-wave (km/s) = 5.53097 6.49970 6.03481
#
# Compressibility (1/GPa) = 0.02922251
#
# Stress axis : x y z
#
# Youngs Moduli (GPa) = 77.19861 64.03785 68.46991
#
# Poissons Ratio (x) = 0.14879 0.23516
# Poissons Ratio (y) = 0.17937 0.08339
# Poissons Ratio (z) = 0.26514 0.07799
#
# Static dielectric constant tensor:
#      x y z
#    x 3.641950 -0.183380 -0.096120 
#    y -0.183380 3.675410 0.032850 
#    z -0.096120 0.032850 3.912830 
# 
# 
# High freq. dielectric constant tensor:
#      x y z
#    x 1.772810 -0.020110 -0.016900 
#    y -0.020110 1.755210 0.007200 
#    z -0.016900 0.007200 1.805940 
# 
# From -- ./inp_files/426957.got.cif
#   From: 2010.06.25/outbox.cif.g09.slc.cpg/sg2_214_cif.got.tgz:426957.got - 2010.06.27 13:26:56.
