data_PCOD8029689
_publ_section_title
;
Structure prediction by ZEFSAII (Michael W. Deem and Ramdas Pophale) SiO2 
 PCOD8029689
Probable space group: P -1
;
_chemical_formula_sum "Si O2"
_cell_formula_units_Z 16
_cell_length_a 12.995076
_cell_length_b 16.737597
_cell_length_c 11.458367
_cell_angle_alpha 21.776900
_cell_angle_beta 53.987235
_cell_angle_gamma 51.730450
_cell_volume 725.218690
_symmetry_space_group_name_H-M "P -1"
_symmetry_group_IT_number 2
_symmetry_cell_setting 'triclinic'
loop_
_space_group_symop_operation_xyz
x,y,z
-x,-y,-z
loop_
_atom_site_type_symbol
_atom_site_label
_atom_site_fract_x
_atom_site_fract_y
_atom_site_fract_z
Si Si1 0.488867 0.844703 0.324136
Si Si2 0.916988 0.101996 0.763680
Si Si3 0.120558 0.322952 0.392466
Si Si4 0.796336 0.050790 0.567750
Si Si5 0.473886 0.430547 0.742700
Si Si6 0.330846 0.016165 0.803765
Si Si7 0.018294 0.787890 0.928554
Si Si8 0.188788 0.550564 0.824618
O O1 0.354627 0.961723 0.326235
O O2 0.499122 0.600678 0.594670
O O3 0.608948 0.842698 0.333764
O O4 0.500000 0.000000 0.000000
O O5 0.901002 0.314465 0.399814
O O6 0.024411 0.157319 0.706347
O O7 0.975928 0.865680 0.981929
O O8 0.777523 0.095969 0.915423
O O9 0.267295 0.188020 0.511691
O O10 0.118474 0.394589 0.160304
O O11 0.077039 0.525752 0.237084
O O12 0.778704 0.275108 0.345447
O O13 0.871404 0.078383 0.360551
O O14 0.889568 0.844191 0.854131
O O15 0.500000 0.500000 0.500000
O O16 0.324536 0.407437 0.875369
O O17 0.562023 0.188119 0.044715
#
# Coordination Sequence:
#
# PCOD8029689 Si02
#       8
#     2   2   2   2   2   2   2   2
#     4  11  21  38  64  93 119 157 208 251 299 367
#     4  11  22  41  63  87 122 162 214 251 295 367
#     4  11  25  40  60  91 126 162 203 253 311 359
#     4   8  17  35  61  91 117 150 201 259 294 354
#     4  11  21  41  65  92 121 158 201 257 305 355
#     4  12  26  40  59  94 128 160 203 252 310 369
#     4   9  19  38  61  86 120 155 199 251 305 352
#     4   9  19  40  65  92 117 155 214 251 292 373
#
# _framework density 22.06231
#
# number of rings (size 3 to 8) (size 9 to 14) (size 15 to 20)
#    0.000    1.750    2.500    3.000    0.000    6.000 
#    0.000    5.625    0.000    0.000    0.000    0.000 
#    0.000    0.000    0.000    0.000    0.000    0.000 
#
# Total GULP energy -198289.945636 kJ/mol
# GULP energy per Si atom -12393.121602 kJ/mol
# Density = 2.201210 g / cm^3
# Si number density = 22.062310 Si / 1000 Ang^3
#
#
#
# Elastic Constant Matrix: (Units=GPa)
#
#
# Indices 1 2 3 4 5 6 
#
# 1 73.8426 10.1752 6.1013 -8.0583 -19.6816 -13.9664
# 2 10.1752 97.2659 18.5529 -23.7572 -6.6690 -24.1019
# 3 6.1013 18.5529 57.1750 -16.8079 -3.6883 -8.6107
# 4 -8.0583 -23.7572 -16.8079 39.5764 -5.6822 -4.9141
# 5 -19.6816 -6.6690 -3.6883 -5.6822 25.6115 0.5018
# 6 -13.9664 -24.1019 -8.6107 -4.9141 0.5018 31.9313
#
#
#
# Elastic Compliance Matrix: (Units=1/GPa)
#
#
# Indices 1 2 3 4 5 6 
#
# 1 0.024425 0.007447 0.004716 0.017486 0.024878 0.019876
# 2 0.007447 0.020403 0.002784 0.019921 0.015421 0.022232
# 3 0.004716 0.002784 0.023308 0.015676 0.010934 0.012690
# 4 0.017486 0.019921 0.015676 0.056500 0.032730 0.035092
# 5 0.024878 0.015421 0.010934 0.032730 0.070438 0.029400
# 6 0.019876 0.022232 0.012690 0.035092 0.029400 0.065152
#
#
# Mechanical properties :
#
#
# Convention : Reuss Voigt Hill
#
# Bulk Modulus (GPa) = 10.20099 33.10468 21.65284
# Shear Modulus (GPa) = 19.01076 32.32080 25.66578
#
# Velocity S-wave (km/s) = 2.93863 3.83166 3.41446
# Velocity P-wave (km/s) = 4.01844 5.88329 5.03790
#
# Compressibility (1/GPa) = 0.09802967
#
# Stress axis : x y z
#
# Youngs Moduli (GPa) = 40.94171 49.01290 42.90319
#
# Poissons Ratio (x) = -0.36502 -0.20232
# Poissons Ratio (y) = -0.30491 -0.11943
# Poissons Ratio (z) = -0.19307 -0.13644
#
# Static dielectric constant tensor:
#      x y z
#    x 5.680070 1.264930 0.427240 
#    y 1.264930 5.829960 0.672870 
#    z 0.427240 0.672870 4.288090 
# 
# 
# High freq. dielectric constant tensor:
#      x y z
#    x 1.859840 -0.018020 -0.011260 
#    y -0.018020 1.875250 -0.005270 
#    z -0.011260 -0.005270 1.858040 
# 
# From -- ./inp_files/456589.got.cif
#   From: 2010.06.25/outbox.cif.g09.slc.cpg/sg2_229_cif.got.tgz:456589.got - 2010.06.27 13:26:56.
