data_PCOD8029421
_publ_section_title
;
Structure prediction by ZEFSAII (Michael W. Deem and Ramdas Pophale) SiO2 
 PCOD8029421
Probable space group: P -1
;
_chemical_formula_sum "Si O2"
_cell_formula_units_Z 16
_cell_length_a 14.089696
_cell_length_b 11.298467
_cell_length_c 9.727758
_cell_angle_alpha 72.037128
_cell_angle_beta 81.050016
_cell_angle_gamma 31.160825
_cell_volume 743.552509
_symmetry_space_group_name_H-M "P -1"
_symmetry_group_IT_number 2
_symmetry_cell_setting 'triclinic'
loop_
_space_group_symop_operation_xyz
x,y,z
-x,-y,-z
loop_
_atom_site_type_symbol
_atom_site_label
_atom_site_fract_x
_atom_site_fract_y
_atom_site_fract_z
Si Si1 0.674639 0.669693 0.895484
Si Si2 0.865581 0.919434 0.325433
Si Si3 0.373358 0.392754 0.785391
Si Si4 0.246811 0.143429 0.149648
Si Si5 0.957714 0.360170 0.338398
Si Si6 0.866329 0.230231 0.851661
Si Si7 0.756389 0.835604 0.183304
Si Si8 0.511183 0.472692 0.170557
O O1 0.770214 0.698312 0.840800
O O2 0.787459 0.437688 0.874805
O O3 0.458593 0.911320 0.809240
O O4 0.676176 0.644802 0.066174
O O5 0.911298 0.807043 0.500483
O O6 0.878330 0.804841 0.242066
O O7 0.015443 0.859993 0.275584
O O8 0.656248 0.206131 0.278155
O O9 0.423216 0.473731 0.794813
O O10 0.183603 0.600797 0.661658
O O11 0.550367 0.138618 0.755445
O O12 0.088422 0.233690 0.220883
O O13 0.217133 0.174575 0.981635
O O14 0.826611 0.625195 0.296069
O O15 0.695053 0.335727 0.798057
O O16 0.000000 0.000000 0.000000
O O17 0.500000 0.500000 0.000000
#
# Coordination Sequence:
#
# PCOD8029421 Si02
#       8
#     2   2   2   2   2   2   2   2
#     4  11  20  41  71 102 129 173 227 284 326 389
#     4  12  27  44  67 101 138 176 223 281 337 394
#     4  11  23  41  68  98 138 173 224 281 329 392
#     4  11  23  41  72 100 130 182 226 273 334 397
#     4  12  26  43  65 102 141 177 220 273 342 403
#     4  12  25  42  72 100 128 173 227 278 334 393
#     4  11  21  44  70  97 137 176 225 277 328 404
#     4  12  23  46  69  99 133 172 230 285 327 393
#
# _framework density 21.518319999999999
#
# number of rings (size 3 to 8) (size 9 to 14) (size 15 to 20)
#    0.000    0.500    6.250    3.000    1.750    2.500 
#    0.000    2.500    0.000    0.000    0.000    0.000 
#    0.000    0.000    0.000    0.000    0.000    0.000 
#
# Total GULP energy -198451.677704 kJ/mol
# GULP energy per Si atom -12403.229856 kJ/mol
# Density = 2.146934 g / cm^3
# Si number density = 21.518320 Si / 1000 Ang^3
#
#
#
# Elastic Constant Matrix: (Units=GPa)
#
#
# Indices 1 2 3 4 5 6 
#
# 1 154.3234 50.9247 49.7696 -0.5512 18.2488 -9.1078
# 2 50.9247 126.3426 51.3673 -20.8222 0.7068 -2.5447
# 3 49.7696 51.3673 102.4168 -25.4254 5.4195 -0.2565
# 4 -0.5512 -20.8222 -25.4254 25.8817 -3.5334 3.8311
# 5 18.2488 0.7068 5.4195 -3.5334 24.1645 -1.1284
# 6 -9.1078 -2.5447 -0.2565 3.8311 -1.1284 40.7505
#
#
#
# Elastic Compliance Matrix: (Units=1/GPa)
#
#
# Indices 1 2 3 4 5 6 
#
# 1 0.010312 -0.003477 -0.005094 -0.009037 -0.007739 0.002691
# 2 -0.003477 0.011496 -0.002446 0.007400 0.003889 -0.000663
# 3 -0.005094 -0.002446 0.017190 0.015493 0.002209 -0.002579
# 4 -0.009037 0.007400 0.015493 0.062279 0.011914 -0.006985
# 5 -0.007739 0.003889 0.002209 0.011914 0.048302 -0.001255
# 6 0.002691 -0.000663 -0.002579 -0.006985 -0.001255 0.025705
#
#
# Mechanical properties :
#
#
# Convention : Reuss Voigt Hill
#
# Bulk Modulus (GPa) = 58.95713 76.35621 67.65667
# Shear Modulus (GPa) = 24.63385 33.56077 29.09731
#
# Velocity S-wave (km/s) = 3.38714 3.95351 3.68123
# Velocity P-wave (km/s) = 6.53873 7.51010 7.04119
#
# Compressibility (1/GPa) = 0.01696148
#
# Stress axis : x y z
#
# Youngs Moduli (GPa) = 96.97493 86.99001 58.17492
#
# Poissons Ratio (x) = 0.30247 0.29637
# Poissons Ratio (y) = 0.33719 0.14231
# Poissons Ratio (z) = 0.49404 0.21280
#
# Static dielectric constant tensor:
#      x y z
#    x 4.229300 -0.210310 0.093900 
#    y -0.210310 4.185550 -0.235750 
#    z 0.093900 -0.235750 3.568800 
# 
# 
# High freq. dielectric constant tensor:
#      x y z
#    x 1.861870 -0.007370 0.007230 
#    y -0.007370 1.860760 -0.016640 
#    z 0.007230 -0.016640 1.809360 
# 
# From -- ./inp_files/273460.got.cif
#   From: 2010.06.25/outbox.cif.g09.slc.cpg/sg2_137_cif.got.tgz:273460.got - 2010.06.27 13:26:56.
