data_PCOD8029601
_publ_section_title
;
Structure prediction by ZEFSAII (Michael W. Deem and Ramdas Pophale) SiO2 
 PCOD8029601
Probable space group: P -1
;
_chemical_formula_sum "Si O2"
_cell_formula_units_Z 14
_cell_length_a 11.255796
_cell_length_b 9.057623
_cell_length_c 22.066602
_cell_angle_alpha 40.989755
_cell_angle_beta 146.266096
_cell_angle_gamma 115.594881
_cell_volume 691.120888
_symmetry_space_group_name_H-M "P -1"
_symmetry_group_IT_number 2
_symmetry_cell_setting 'triclinic'
loop_
_space_group_symop_operation_xyz
x,y,z
-x,-y,-z
loop_
_atom_site_type_symbol
_atom_site_label
_atom_site_fract_x
_atom_site_fract_y
_atom_site_fract_z
Si Si1 0.517733 0.902014 0.370089
Si Si2 0.902747 0.102654 0.234757
Si Si3 0.296522 0.787294 0.196331
Si Si4 0.480135 0.356407 0.147105
Si Si5 0.913721 0.381957 0.274585
Si Si6 0.470385 0.078115 0.107682
Si Si7 0.428053 0.816694 0.491714
O O1 0.397921 0.814788 0.295001
O O2 0.400423 0.885770 0.387982
O O3 0.820470 0.700679 0.557834
O O4 0.454052 0.203994 0.240470
O O5 0.958653 0.215747 0.283621
O O6 0.736269 0.974327 0.218572
O O7 0.752324 0.337363 0.048505
O O8 0.161577 0.872016 0.385883
O O9 0.353483 0.490198 0.307497
O O10 0.434996 0.835664 0.183830
O O11 0.000000 0.000000 0.000000
O O12 0.750410 0.332552 0.269650
O O13 0.470770 0.216544 0.126293
O O14 0.765240 0.698325 0.100937
O O15 0.500000 0.000000 0.500000
#
# Coordination Sequence:
#
# PCOD8029601 Si02
#       7
#     2   2   2   2   2   2   2
#     4  11  21  36  61  86 120 159 202 239 291 356
#     4   9  18  36  58  89 123 151 192 240 302 345
#     4  11  25  43  62  85 117 162 206 241 296 357
#     4   8  17  31  58  91 116 154 195 241 286 355
#     4   9  15  33  62  90 117 149 199 242 289 350
#     4   8  17  35  62  83 116 161 192 239 291 355
#     4  12  25  39  60  89 125 157 193 253 297 346
#
# _framework density 20.256947
#
# number of rings (size 3 to 8) (size 9 to 14) (size 15 to 20)
#    0.000    2.286    1.429    3.429    4.000    1.143 
#    0.000    0.000    0.000    2.571    0.000    0.000 
#    0.000    0.000    0.000    0.000    0.000    0.000 
#
# Total GULP energy -173573.361396 kJ/mol
# GULP energy per Si atom -12398.097243 kJ/mol
# Density = 2.021084 g / cm^3
# Si number density = 20.256947 Si / 1000 Ang^3
#
#
#
# Elastic Constant Matrix: (Units=GPa)
#
#
# Indices 1 2 3 4 5 6 
#
# 1 105.3432 43.6747 66.4831 -16.5253 0.1882 31.0925
# 2 43.6747 85.9939 54.0144 -0.6520 -6.0953 15.1798
# 3 66.4831 54.0144 139.3973 7.1895 7.7198 9.3406
# 4 -16.5253 -0.6520 7.1895 35.9637 8.3005 -3.6107
# 5 0.1882 -6.0953 7.7198 8.3005 34.9561 -4.0833
# 6 31.0925 15.1798 9.3406 -3.6107 -4.0833 22.2537
#
#
#
# Elastic Compliance Matrix: (Units=1/GPa)
#
#
# Indices 1 2 3 4 5 6 
#
# 1 0.030029 -0.002174 -0.011602 0.013850 -0.005277 -0.034325
# 2 -0.002174 0.017526 -0.005503 -0.001075 0.003828 -0.006079
# 3 -0.011602 -0.005503 0.014399 -0.006814 -0.000983 0.012634
# 4 0.013850 -0.001075 -0.006814 0.036378 -0.008734 -0.011458
# 5 -0.005277 0.003828 -0.000983 -0.008734 0.032735 0.009764
# 6 -0.034325 -0.006079 0.012634 -0.011458 0.009764 0.091670
#
#
# Mechanical properties :
#
#
# Convention : Reuss Voigt Hill
#
# Bulk Modulus (GPa) = 42.74262 73.23096 57.98679
# Shear Modulus (GPa) = 18.58090 29.73885 24.15988
#
# Velocity S-wave (km/s) = 3.03192 3.83571 3.45725
# Velocity P-wave (km/s) = 5.77951 7.47305 6.68016
#
# Compressibility (1/GPa) = 0.02339585
#
# Stress axis : x y z
#
# Youngs Moduli (GPa) = 33.30102 57.05800 69.45076
#
# Poissons Ratio (x) = 0.12405 0.80573
# Poissons Ratio (y) = 0.07240 0.38222
# Poissons Ratio (z) = 0.38634 0.31401
#
# Static dielectric constant tensor:
#      x y z
#    x 4.120360 0.584350 -0.242080 
#    y 0.584350 3.527550 -0.107690 
#    z -0.242080 -0.107690 3.948780 
# 
# 
# High freq. dielectric constant tensor:
#      x y z
#    x 1.790200 0.032740 -0.006600 
#    y 0.032740 1.760010 0.008420 
#    z -0.006600 0.008420 1.798360 
# 
# From -- ./inp_files/178158.got.cif
#   From: 2010.06.25/outbox.cif.g09.slc.cpg/sg2_90_cif.got.tgz:178158.got - 2010.06.27 13:26:56.
