data_PCOD8029350
_publ_section_title
;
Structure prediction by ZEFSAII (Michael W. Deem and Ramdas Pophale) SiO2 
 PCOD8029350
Probable space group: P -1
;
_chemical_formula_sum "Si O2"
_cell_formula_units_Z 16
_cell_length_a 9.260064
_cell_length_b 14.381439
_cell_length_c 9.508338
_cell_angle_alpha 90.485321
_cell_angle_beta 102.449281
_cell_angle_gamma 39.402917
_cell_volume 758.918746
_symmetry_space_group_name_H-M "P -1"
_symmetry_group_IT_number 2
_symmetry_cell_setting 'triclinic'
loop_
_space_group_symop_operation_xyz
x,y,z
-x,-y,-z
loop_
_atom_site_type_symbol
_atom_site_label
_atom_site_fract_x
_atom_site_fract_y
_atom_site_fract_z
Si Si1 0.984002 0.756362 0.359643
Si Si2 0.434496 0.281417 0.711663
Si Si3 0.052317 0.726519 0.869577
Si Si4 0.470737 0.972283 0.339487
Si Si5 0.041340 0.515863 0.850926
Si Si6 0.324759 0.638297 0.667106
Si Si7 0.252616 0.710622 0.192108
Si Si8 0.297606 0.425348 0.390005
O O1 0.697088 0.895283 0.296608
O O2 0.087040 0.724257 0.535475
O O3 0.056980 0.806182 0.276482
O O4 0.097618 0.604049 0.323567
O O5 0.527959 0.139785 0.662179
O O6 0.252881 0.358199 0.805818
O O7 0.665398 0.224359 0.817200
O O8 0.311105 0.397880 0.558040
O O9 0.117129 0.585794 0.868629
O O10 0.221194 0.704760 0.802467
O O11 0.769670 0.875511 0.785503
O O12 0.122136 0.727666 0.035686
O O13 0.500000 0.000000 0.500000
O O14 0.792693 0.620853 0.714940
O O15 0.000000 0.500000 0.000000
O O16 0.517221 0.460276 0.704854
O O17 0.445612 0.669999 0.623902
#
# Coordination Sequence:
#
# PCOD8029350 Si02
#       8
#     2   2   2   2   2   2   2   2
#     4  11  20  42  67  99 130 176 225 274 333 401
#     4  12  24  43  70  99 133 178 230 278 328 397
#     4  12  26  44  67  99 143 179 215 276 346 399
#     4  12  27  45  67  97 141 183 222 270 342 413
#     4  12  25  42  67 106 135 172 228 280 331 396
#     4  11  20  40  69 104 128 173 223 285 332 385
#     4  11  23  41  70  99 132 174 227 280 336 389
#     4  11  21  39  70 102 130 169 231 284 328 380
#
# _framework density 21.082623999999999
#
# number of rings (size 3 to 8) (size 9 to 14) (size 15 to 20)
#    0.000    0.500    6.250    3.750    1.750    1.000 
#    0.000    3.750    0.000    0.000    0.000    0.000 
#    0.000    0.000    0.000    0.000    0.000    0.000 
#
# Total GULP energy -198369.713077 kJ/mol
# GULP energy per Si atom -12398.107067 kJ/mol
# Density = 2.103464 g / cm^3
# Si number density = 21.082624 Si / 1000 Ang^3
#
#
#
# Elastic Constant Matrix: (Units=GPa)
#
#
# Indices 1 2 3 4 5 6 
#
# 1 112.6275 32.5469 40.5054 6.8573 9.5546 -11.3248
# 2 32.5469 60.9193 6.5810 22.7306 -4.9280 2.3117
# 3 40.5054 6.5810 92.7216 30.3467 0.0668 10.8627
# 4 6.8573 22.7306 30.3467 -3.4359 0.6517 -8.1146
# 5 9.5546 -4.9280 0.0668 0.6517 46.2882 15.5926
# 6 -11.3248 2.3117 10.8627 -8.1146 15.5926 27.8833
#
#
#
# Elastic Compliance Matrix: (Units=1/GPa)
#
#
# Indices 1 2 3 4 5 6 
#
# 1 0.011354 -0.001908 -0.001369 -0.011941 -0.003687 0.003889
# 2 -0.001908 0.012140 -0.005605 0.015269 -0.000188 0.004951
# 3 -0.001369 -0.005605 0.006770 0.014522 -0.001272 0.002209
# 4 -0.011941 0.015269 0.014522 -0.022598 0.013022 -0.025632
# 5 -0.003687 -0.000188 -0.001272 0.013022 0.026144 -0.011816
# 6 0.003889 0.004951 0.002209 -0.025632 -0.011816 0.035321
#
#
# Mechanical properties :
#
#
# Convention : Reuss Voigt Hill
#
# Bulk Modulus (GPa) = 80.00960 47.28168 63.64564
# Shear Modulus (GPa) = 54.90793 26.58946 40.74870
#
# Velocity S-wave (km/s) = 5.10888 3.55519 4.40114
# Velocity P-wave (km/s) = 8.53427 6.27121 7.48872
#
# Compressibility (1/GPa) = 0.01249850
#
# Stress axis : x y z
#
# Youngs Moduli (GPa) = 88.07855 82.37331 147.70832
#
# Poissons Ratio (x) = 0.15718 0.20223
# Poissons Ratio (y) = 0.16806 0.82794
# Poissons Ratio (z) = 0.12059 0.46172
#
# Static dielectric constant tensor:
#      x y z
#    x 4.260760 -0.199200 0.088020 
#    y -0.199200 3.498580 0.168520 
#    z 0.088020 0.168520 3.803150 
# 
# 
# High freq. dielectric constant tensor:
#      x y z
#    x 1.849670 -0.017800 0.009630 
#    y -0.017800 1.788500 0.016340 
#    z 0.009630 0.016340 1.831380 
# 
# From -- ./inp_files/184415.got.cif
#   From: 2010.06.25/outbox.cif.g09.slc.cpg/sg2_93_cif.got.tgz:184415.got - 2010.06.27 13:26:56.
