data_PCOD8029744
_publ_section_title
;
Structure prediction by ZEFSAII (Michael W. Deem and Ramdas Pophale) SiO2 
 PCOD8029744
Probable space group: P -1
;
_chemical_formula_sum "Si O2"
_cell_formula_units_Z 16
_cell_length_a 11.971586
_cell_length_b 15.567830
_cell_length_c 8.750204
_cell_angle_alpha 108.721708
_cell_angle_beta 53.186992
_cell_angle_gamma 142.417290
_cell_volume 755.717926
_symmetry_space_group_name_H-M "P -1"
_symmetry_group_IT_number 2
_symmetry_cell_setting 'triclinic'
loop_
_space_group_symop_operation_xyz
x,y,z
-x,-y,-z
loop_
_atom_site_type_symbol
_atom_site_label
_atom_site_fract_x
_atom_site_fract_y
_atom_site_fract_z
Si Si1 0.215629 0.002401 0.934439
Si Si2 0.883393 0.489638 0.732468
Si Si3 0.366114 0.793108 0.062945
Si Si4 0.602147 0.483013 0.786971
Si Si5 0.223058 0.809202 0.683251
Si Si6 0.726003 0.816866 0.264998
Si Si7 0.914870 0.215383 0.544253
Si Si8 0.586946 0.899154 0.618828
O O1 0.159198 0.876281 0.832419
O O2 0.404113 0.086146 0.957031
O O3 0.292864 0.116804 0.813572
O O4 0.982827 0.919851 0.153115
O O5 0.787815 0.372183 0.868569
O O6 0.674155 0.435971 0.803100
O O7 0.000000 0.500000 0.500000
O O8 0.045287 0.639805 0.784970
O O9 0.203443 0.797147 0.220790
O O10 0.429457 0.824760 0.852483
O O11 0.411693 0.346301 0.750182
O O12 0.810553 0.634466 0.604943
O O13 0.500000 0.500000 0.000000
O O14 0.201136 0.793564 0.509284
O O15 0.473938 0.905019 0.582370
O O16 0.613813 0.807855 0.499207
O O17 0.841659 0.072031 0.530986
#
# Coordination Sequence:
#
# PCOD8029744 Si02
#       8
#     2   2   2   2   2   2   2   2
#     4  11  23  40  66  89 129 163 217 259 315 370
#     4  11  21  39  64  91 127 167 207 262 314 367
#     4  12  24  41  62  97 131 171 205 262 320 381
#     4  11  23  40  68  96 123 157 215 268 315 366
#     4  11  21  39  65  94 121 165 210 268 306 372
#     4  11  23  41  63  97 121 168 214 263 304 381
#     4  11  22  40  65  94 128 165 209 265 314 370
#     4  12  25  38  65  96 131 167 213 256 323 372
#
# _framework density 21.17192
#
# number of rings (size 3 to 8) (size 9 to 14) (size 15 to 20)
#    0.000    0.750    6.250    3.750    1.750    1.000 
#    0.000    0.000    0.000    2.250    0.000    0.000 
#    0.000    0.000    0.000    0.000    0.000    0.000 
#
# Total GULP energy -198365.606807 kJ/mol
# GULP energy per Si atom -12397.850425 kJ/mol
# Density = 2.112373 g / cm^3
# Si number density = 21.171920 Si / 1000 Ang^3
#
#
#
# Elastic Constant Matrix: (Units=GPa)
#
#
# Indices 1 2 3 4 5 6 
#
# 1 25.7829 9.2406 25.1479 0.7310 -17.9362 -0.8456
# 2 9.2406 159.0081 58.6305 -3.3311 -5.5286 -5.7755
# 3 25.1479 58.6305 157.0726 10.6568 -21.8771 1.8268
# 4 0.7310 -3.3311 10.6568 37.5138 -6.0890 -7.3267
# 5 -17.9362 -5.5286 -21.8771 -6.0890 30.7598 -0.1013
# 6 -0.8456 -5.7755 1.8268 -7.3267 -0.1013 24.5451
#
#
#
# Elastic Compliance Matrix: (Units=1/GPa)
#
#
# Indices 1 2 3 4 5 6 
#
# 1 0.072519 0.000010 -0.006777 0.007933 0.039056 0.005534
# 2 0.000010 0.007527 -0.003030 0.001969 -0.000398 0.002583
# 3 -0.006777 -0.003030 0.008995 -0.002968 0.001305 -0.002496
# 4 0.007933 0.001969 -0.002968 0.030988 0.009037 0.010245
# 5 0.039056 -0.000398 0.001305 0.009037 0.057943 0.004091
# 6 0.005534 0.002583 -0.002496 0.010245 0.004091 0.044800
#
#
# Mechanical properties :
#
#
# Convention : Reuss Voigt Hill
#
# Bulk Modulus (GPa) = 14.39983 58.65572 36.52777
# Shear Modulus (GPa) = 18.83133 35.15338 26.99236
#
# Velocity S-wave (km/s) = 2.98560 4.07919 3.57447
# Velocity P-wave (km/s) = 4.32449 7.06761 5.85885
#
# Compressibility (1/GPa) = 0.06944527
#
# Stress axis : x y z
#
# Youngs Moduli (GPa) = 13.78958 132.85558 111.17552
#
# Poissons Ratio (x) = -0.00128 0.75342
# Poissons Ratio (y) = -0.00013 0.33689
# Poissons Ratio (z) = 0.09345 0.40259
#
# Static dielectric constant tensor:
#      x y z
#    x 3.496110 -0.045080 -0.130020 
#    y -0.045080 4.254440 -0.092350 
#    z -0.130020 -0.092350 3.811680 
# 
# 
# High freq. dielectric constant tensor:
#      x y z
#    x 1.795090 -0.005220 -0.019670 
#    y -0.005220 1.855220 -0.000510 
#    z -0.019670 -0.000510 1.828200 
# 
# From -- ./inp_files/271501.got.cif
#   From: 2010.06.25/outbox.cif.g09.slc.cpg/sg2_136_cif.got.tgz:271501.got - 2010.06.27 13:26:56.
