data_PCOD8029339
_publ_section_title
;
Structure prediction by ZEFSAII (Michael W. Deem and Ramdas Pophale) SiO2 
 PCOD8029339
Probable space group: P -1
;
_chemical_formula_sum "Si O2"
_cell_formula_units_Z 16
_cell_length_a 9.504583
_cell_length_b 11.293484
_cell_length_c 14.352028
_cell_angle_alpha 42.122959
_cell_angle_beta 78.815997
_cell_angle_gamma 54.280756
_cell_volume 753.747206
_symmetry_space_group_name_H-M "P -1"
_symmetry_group_IT_number 2
_symmetry_cell_setting 'triclinic'
loop_
_space_group_symop_operation_xyz
x,y,z
-x,-y,-z
loop_
_atom_site_type_symbol
_atom_site_label
_atom_site_fract_x
_atom_site_fract_y
_atom_site_fract_z
Si Si1 0.387822 0.835428 0.992633
Si Si2 0.572252 0.136088 0.423612
Si Si3 0.885948 0.730099 0.116964
Si Si4 0.805005 0.406309 0.269157
Si Si5 0.337164 0.777369 0.838967
Si Si6 0.161106 0.946972 0.413536
Si Si7 0.085946 0.002754 0.191267
Si Si8 0.217500 0.655327 0.215467
O O1 0.601231 0.602246 0.130590
O O2 0.232563 0.805210 0.052359
O O3 0.370831 0.891731 0.851916
O O4 0.321082 0.059620 0.930482
O O5 0.636782 0.155002 0.303901
O O6 0.743196 0.995884 0.558829
O O7 0.416203 0.387867 0.346115
O O8 0.500000 0.000000 0.500000
O O9 0.902879 0.509815 0.223732
O O10 0.052921 0.652516 0.211056
O O11 0.910204 0.813939 0.968518
O O12 0.786630 0.299709 0.425470
O O13 0.933864 0.183897 0.311815
O O14 0.126708 0.868316 0.821655
O O15 0.500000 0.500000 0.000000
O O16 0.219746 0.922280 0.312602
O O17 0.176745 0.769015 0.256037
#
# Coordination Sequence:
#
# PCOD8029339 Si02
#       8
#     2   2   2   2   2   2   2   2
#     4  11  20  40  67  97 129 169 220 267 325 381
#     4  12  26  44  66  95 130 173 220 269 320 387
#     4  11  22  41  66 100 133 162 219 280 316 374
#     4  11  23  41  65  94 136 172 212 270 324 377
#     4  12  20  39  69  94 123 173 219 260 323 385
#     4  11  24  44  61  90 136 176 211 257 333 394
#     4  11  23  40  69  95 130 175 213 261 332 386
#     4  11  21  44  66  96 134 168 215 274 323 376
#
# _framework density 21.227277000000001
#
# number of rings (size 3 to 8) (size 9 to 14) (size 15 to 20)
#    0.000    0.750    5.000    4.125    0.000    2.000 
#    2.250    1.250    0.000    0.000    0.000    0.000 
#    0.000    0.000    0.000    0.000    0.000    0.000 
#
# Total GULP energy -198359.246650 kJ/mol
# GULP energy per Si atom -12397.452916 kJ/mol
# Density = 2.117896 g / cm^3
# Si number density = 21.227277 Si / 1000 Ang^3
#
#
#
# Elastic Constant Matrix: (Units=GPa)
#
#
# Indices 1 2 3 4 5 6 
#
# 1 112.5891 51.4599 46.5293 15.4390 -7.8315 16.5570
# 2 51.4599 124.5818 63.0412 18.0409 11.4589 5.5572
# 3 46.5293 63.0412 84.0420 16.5467 5.8457 15.1885
# 4 15.4390 18.0409 16.5467 35.7912 8.6921 9.5063
# 5 -7.8315 11.4589 5.8457 8.6921 37.7629 -4.9711
# 6 16.5570 5.5572 15.1885 9.5063 -4.9711 31.0294
#
#
#
# Elastic Compliance Matrix: (Units=1/GPa)
#
#
# Indices 1 2 3 4 5 6 
#
# 1 0.013174 -0.003283 -0.004136 -0.002438 0.004542 -0.002943
# 2 -0.003283 0.014316 -0.009029 -0.001982 -0.002672 0.003787
# 3 -0.004136 -0.009029 0.022746 -0.001763 -0.002170 -0.007117
# 4 -0.002438 -0.001982 -0.001763 0.035644 -0.009134 -0.009865
# 5 0.004542 -0.002672 -0.002170 -0.009134 0.031591 0.006977
# 6 -0.002943 0.003787 -0.007117 -0.009865 0.006977 0.040743
#
#
# Mechanical properties :
#
#
# Convention : Reuss Voigt Hill
#
# Bulk Modulus (GPa) = 57.66706 71.47487 64.57097
# Shear Modulus (GPa) = 25.39501 31.59553 28.49527
#
# Velocity S-wave (km/s) = 3.46256 3.86222 3.66784
# Velocity P-wave (km/s) = 6.57353 7.32348 6.95861
#
# Compressibility (1/GPa) = 0.01734092
#
# Stress axis : x y z
#
# Youngs Moduli (GPa) = 75.90527 69.85347 43.96409
#
# Poissons Ratio (x) = 0.22930 0.18182
# Poissons Ratio (y) = 0.24916 0.39696
# Poissons Ratio (z) = 0.31392 0.63072
#
# Static dielectric constant tensor:
#      x y z
#    x 3.900140 0.198360 0.143140 
#    y 0.198360 4.666150 0.072830 
#    z 0.143140 0.072830 3.871740 
# 
# 
# High freq. dielectric constant tensor:
#      x y z
#    x 1.833390 0.004110 0.018560 
#    y 0.004110 1.847640 -0.005370 
#    z 0.018560 -0.005370 1.819700 
# 
# From -- ./inp_files/499868.got.cif
#   From: 2010.06.25/outbox.cif.g09.slc.cpg/sg2_250_cif.got.tgz:499868.got - 2010.06.27 13:26:56.
