data_PCOD8029492
_publ_section_title
;
Structure prediction by ZEFSAII (Michael W. Deem and Ramdas Pophale) SiO2 
 PCOD8029492
Probable space group: P -1
;
_chemical_formula_sum "Si O2"
_cell_formula_units_Z 16
_cell_length_a 8.139257
_cell_length_b 11.846383
_cell_length_c 12.332869
_cell_angle_alpha 48.573714
_cell_angle_beta 48.640913
_cell_angle_gamma 69.230936
_cell_volume 661.994110
_symmetry_space_group_name_H-M "P -1"
_symmetry_group_IT_number 2
_symmetry_cell_setting 'triclinic'
loop_
_space_group_symop_operation_xyz
x,y,z
-x,-y,-z
loop_
_atom_site_type_symbol
_atom_site_label
_atom_site_fract_x
_atom_site_fract_y
_atom_site_fract_z
Si Si1 0.322259 0.676705 0.683649
Si Si2 0.374649 0.327558 0.158244
Si Si3 0.506033 0.867120 0.167758
Si Si4 0.216555 0.789583 0.874478
Si Si5 0.724680 0.883867 0.286022
Si Si6 0.485973 0.368158 0.855114
Si Si7 0.898173 0.333418 0.435925
Si Si8 0.966333 0.355047 0.740525
O O1 0.162130 0.724894 0.818097
O O2 0.498705 0.822217 0.484190
O O3 0.454518 0.542907 0.748858
O O4 0.173727 0.620930 0.681192
O O5 0.520977 0.210980 0.221817
O O6 0.148334 0.299661 0.341449
O O7 0.500000 0.500000 0.000000
O O8 0.341039 0.290281 0.068760
O O9 0.675538 0.918631 0.158819
O O10 0.594061 0.725372 0.159094
O O11 0.259956 0.813049 0.356380
O O12 0.500000 0.000000 0.000000
O O13 0.164220 0.960657 0.804422
O O14 0.080170 0.679453 0.090532
O O15 0.895640 0.764042 0.298962
O O16 0.742609 0.353545 0.772166
O O17 0.889192 0.476459 0.430145
#
# Coordination Sequence:
#
# PCOD8029492 Si02
#       8
#     2   2   2   2   2   2   2   2
#     4  11  23  40  65  99 130 172 224 272 323 391
#     4  11  20  43  66  97 132 164 220 277 323 386
#     4  11  25  45  63  94 135 175 221 271 330 392
#     4  11  22  42  65  92 136 175 218 269 329 389
#     4  11  25  43  62  92 138 177 219 273 326 388
#     4  11  22  41  70  98 132 174 220 274 326 391
#     4  11  23  41  69  99 130 171 221 277 328 387
#     4  11  22  41  66  98 130 172 221 269 330 389
#
# _framework density 24.169402000000002
#
# number of rings (size 3 to 8) (size 9 to 14) (size 15 to 20)
#    0.000    1.000    3.750    3.750    0.000    8.000 
#    0.000    8.125    0.000    0.000    0.000    0.000 
#    0.000    0.000    0.000    0.000    0.000    0.000 
#
# Total GULP energy -198456.668107 kJ/mol
# GULP energy per Si atom -12403.541757 kJ/mol
# Density = 2.411439 g / cm^3
# Si number density = 24.169402 Si / 1000 Ang^3
#
#
#
# Elastic Constant Matrix: (Units=GPa)
#
#
# Indices 1 2 3 4 5 6 
#
# 1 36.2509 29.0866 4.3198 -2.4804 3.2425 -8.5893
# 2 29.0866 130.4880 28.0141 3.0163 -0.5506 3.7685
# 3 4.3198 28.0141 71.3583 1.1204 3.7522 -6.0136
# 4 -2.4804 3.0163 1.1204 37.5231 0.8973 4.3974
# 5 3.2425 -0.5506 3.7522 0.8973 32.3343 8.1521
# 6 -8.5893 3.7685 -6.0136 4.3974 8.1521 35.4817
#
#
#
# Elastic Compliance Matrix: (Units=1/GPa)
#
#
# Indices 1 2 3 4 5 6 
#
# 1 0.038771 -0.009694 0.002870 0.001985 -0.007566 0.012394
# 2 -0.009694 0.010904 -0.004233 -0.000901 0.002877 -0.004772
# 3 0.002870 -0.004233 0.016084 -0.000420 -0.003400 0.004704
# 4 0.001985 -0.000901 -0.000420 0.027202 -0.000210 -0.002818
# 5 -0.007566 0.002877 -0.003400 -0.000210 0.034830 -0.010690
# 6 0.012394 -0.004772 0.004704 -0.002818 -0.010690 0.035293
#
#
# Mechanical properties :
#
#
# Convention : Reuss Voigt Hill
#
# Bulk Modulus (GPa) = 22.91279 40.10426 31.50853
# Shear Modulus (GPa) = 25.03171 32.84625 28.93898
#
# Velocity S-wave (km/s) = 3.22169 3.69046 3.46401
# Velocity P-wave (km/s) = 4.83112 5.89817 5.39111
#
# Compressibility (1/GPa) = 0.04364374
#
# Stress axis : x y z
#
# Youngs Moduli (GPa) = 25.79245 91.70937 62.17470
#
# Poissons Ratio (x) = 0.88905 -0.17843
# Poissons Ratio (y) = 0.25004 0.26320
# Poissons Ratio (z) = -0.07402 0.38822
#
# Static dielectric constant tensor:
#      x y z
#    x 4.267460 0.096850 0.164600 
#    y 0.096850 4.498180 0.314830 
#    z 0.164600 0.314830 4.376320 
# 
# 
# High freq. dielectric constant tensor:
#      x y z
#    x 1.949970 0.005580 0.011110 
#    y 0.005580 1.962430 0.015320 
#    z 0.011110 0.015320 1.962430 
# 
# From -- ./inp_files/391964.got.cif
#   From: 2010.06.25/outbox.cif.g09.slc.cpg/sg2_196_cif.got.tgz:391964.got - 2010.06.27 13:26:56.
