data_PCOD8029847
_publ_section_title
;
Structure prediction by ZEFSAII (Michael W. Deem and Ramdas Pophale) SiO2 
 PCOD8029847
Probable space group: P -1
;
_chemical_formula_sum "Si O2"
_cell_formula_units_Z 16
_cell_length_a 8.654545
_cell_length_b 6.700160
_cell_length_c 14.358868
_cell_angle_alpha 64.788790
_cell_angle_beta 85.915159
_cell_angle_gamma 100.611553
_cell_volume 729.866689
_symmetry_space_group_name_H-M "P -1"
_symmetry_group_IT_number 2
_symmetry_cell_setting 'triclinic'
loop_
_space_group_symop_operation_xyz
x,y,z
-x,-y,-z
loop_
_atom_site_type_symbol
_atom_site_label
_atom_site_fract_x
_atom_site_fract_y
_atom_site_fract_z
Si Si1 0.014955 0.245686 0.322012
Si Si2 0.112801 0.622918 0.097969
Si Si3 0.723666 0.848399 0.388474
Si Si4 0.464568 0.870400 0.762647
Si Si5 0.769998 0.539393 0.059646
Si Si6 0.148932 0.579616 0.544271
Si Si7 0.366695 0.041093 0.067156
Si Si8 0.697922 0.918417 0.582360
O O1 0.912847 0.388662 0.355730
O O2 0.094910 0.390311 0.201791
O O3 0.149716 0.188864 0.393240
O O4 0.900435 0.010765 0.340090
O O5 0.940005 0.662584 0.071606
O O6 0.208162 0.838161 0.109410
O O7 0.211781 0.599259 0.006408
O O8 0.737202 0.593735 0.420120
O O9 0.640728 0.868379 0.488260
O O10 0.612176 0.919068 0.300653
O O11 0.326374 0.644354 0.827874
O O12 0.575612 0.943742 0.832334
O O13 0.563804 0.806341 0.684313
O O14 0.670537 0.723151 0.006865
O O15 0.000000 0.500000 0.500000
O O16 0.255095 0.813391 0.452893
O O17 0.500000 0.000000 0.000000
#
# Coordination Sequence:
#
# PCOD8029847 Si02
#       8
#     2   2   2   2   2   2   2   2
#     4  11  22  40  72 100 128 182 230 273 336 406
#     4  11  25  46  74 102 131 182 234 277 338 403
#     4  11  23  46  66  98 141 176 232 281 330 406
#     4  12  26  46  69 101 141 185 221 279 354 403
#     4  11  25  50  71  97 138 181 230 283 333 414
#     4  11  21  40  66  97 136 173 225 282 329 395
#     4  12  27  45  69 105 141 174 223 286 346 405
#     4  11  24  41  67 101 136 181 228 278 338 401
#
# _framework density 21.921811000000002
#
# number of rings (size 3 to 8) (size 9 to 14) (size 15 to 20)
#    0.000    0.750    5.000    2.625    3.500    2.500 
#    0.000    0.000    0.000    0.000    0.000    0.000 
#    0.000    0.000    0.000    0.000    0.000    0.000 
#
# Total GULP energy -198520.914704 kJ/mol
# GULP energy per Si atom -12407.557169 kJ/mol
# Density = 2.187192 g / cm^3
# Si number density = 21.921811 Si / 1000 Ang^3
#
#
#
# Elastic Constant Matrix: (Units=GPa)
#
#
# Indices 1 2 3 4 5 6 
#
# 1 104.3935 52.9051 54.0972 -0.5473 6.2486 -17.2141
# 2 52.9051 107.3903 48.1073 -8.0606 2.0590 -17.9522
# 3 54.0972 48.1073 139.3189 -10.8738 -6.3354 -11.2443
# 4 -0.5473 -8.0606 -10.8738 18.0942 -4.4582 9.4310
# 5 6.2486 2.0590 -6.3354 -4.4582 51.8113 -7.2659
# 6 -17.2141 -17.9522 -11.2443 9.4310 -7.2659 33.7124
#
#
#
# Elastic Compliance Matrix: (Units=1/GPa)
#
#
# Indices 1 2 3 4 5 6 
#
# 1 0.015576 -0.005314 -0.004495 -0.007931 -0.002145 0.005380
# 2 -0.005314 0.013619 -0.002120 0.003170 0.000543 0.003062
# 3 -0.004495 -0.002120 0.010138 0.006242 0.002219 -0.001311
# 4 -0.007931 0.003170 0.006242 0.071428 0.005051 -0.019173
# 5 -0.002145 0.000543 0.002219 0.005051 0.020661 0.002974
# 6 0.005380 0.003062 -0.001311 -0.019173 0.002974 0.039608
#
#
# Mechanical properties :
#
#
# Convention : Reuss Voigt Hill
#
# Bulk Modulus (GPa) = 64.62736 73.48019 69.05378
# Shear Modulus (GPa) = 24.99436 33.78980 29.39208
#
# Velocity S-wave (km/s) = 3.38029 3.93030 3.66562
# Velocity P-wave (km/s) = 6.69178 7.36127 7.03450
#
# Compressibility (1/GPa) = 0.01547332
#
# Stress axis : x y z
#
# Youngs Moduli (GPa) = 64.20207 73.42746 98.64263
#
# Poissons Ratio (x) = 0.39022 0.44343
# Poissons Ratio (y) = 0.34119 0.20911
# Poissons Ratio (z) = 0.28861 0.15566
#
# Static dielectric constant tensor:
#      x y z
#    x 4.030450 0.002230 0.056570 
#    y 0.002230 3.895710 -0.047630 
#    z 0.056570 -0.047630 4.036310 
# 
# 
# High freq. dielectric constant tensor:
#      x y z
#    x 1.874770 -0.002730 0.002790 
#    y -0.002730 1.854810 -0.005520 
#    z 0.002790 -0.005520 1.873370 
# 
# From -- ./inp_files/48349.got.cif
#   From: 2010.06.25/outbox.cif.g09.slc.cpg/sg2_25_cif.got.tgz:48349.got - 2010.06.27 13:26:56.
