data_PCOD8029159
_publ_section_title
;
Structure prediction by ZEFSAII (Michael W. Deem and Ramdas Pophale) SiO2 
 PCOD8029159
Probable space group: P -1
;
_chemical_formula_sum "Si O2"
_cell_formula_units_Z 16
_cell_length_a 12.384499
_cell_length_b 8.613826
_cell_length_c 11.256784
_cell_angle_alpha 122.280844
_cell_angle_beta 132.046997
_cell_angle_gamma 71.239590
_cell_volume 752.672637
_symmetry_space_group_name_H-M "P -1"
_symmetry_group_IT_number 2
_symmetry_cell_setting 'triclinic'
loop_
_space_group_symop_operation_xyz
x,y,z
-x,-y,-z
loop_
_atom_site_type_symbol
_atom_site_label
_atom_site_fract_x
_atom_site_fract_y
_atom_site_fract_z
Si Si1 0.205660 0.822141 0.334500
Si Si2 0.817312 0.440216 0.994941
Si Si3 0.530126 0.326892 0.872135
Si Si4 0.666169 0.822577 0.536951
Si Si5 0.064498 0.209626 0.130609
Si Si6 0.486306 0.716126 0.583718
Si Si7 0.602883 0.994765 0.961075
Si Si8 0.114933 0.172902 0.885294
O O1 0.317651 0.768984 0.498585
O O2 0.052569 0.897618 0.299202
O O3 0.287045 0.965509 0.363832
O O4 0.165952 0.635504 0.157013
O O5 0.841113 0.659649 0.102429
O O6 0.939186 0.347445 0.126555
O O7 0.658862 0.383740 0.902228
O O8 0.387789 0.272664 0.664931
O O9 0.572688 0.159213 0.917522
O O10 0.500000 0.500000 0.000000
O O11 0.810021 0.734376 0.658793
O O12 0.541637 0.811155 0.540659
O O13 0.129579 0.241204 0.060050
O O14 0.000000 0.000000 0.000000
O O15 0.500000 0.500000 0.500000
O O16 0.572249 0.798047 0.793618
O O17 0.774115 0.990811 0.122412
O O18 0.500000 0.000000 0.000000
#
# Coordination Sequence:
#
# PCOD8029159 Si02
#       8
#     2   2   2   2   2   2   2   2
#     4  11  21  39  65 100 135 170 219 282 339 397
#     4  11  22  39  65  98 139 171 219 279 345 399
#     4  12  27  46  68  94 138 183 232 282 342 409
#     4  12  23  40  69  99 134 172 231 273 340 389
#     4  11  20  36  65 101 135 169 219 280 340 401
#     4  12  25  39  68 104 137 174 231 282 332 406
#     4  12  26  46  69  96 135 183 227 277 350 412
#     4  11  23  39  64 101 138 175 218 275 345 410
#
# _framework density 21.257580999999998
#
# number of rings (size 3 to 8) (size 9 to 14) (size 15 to 20)
#    0.000    0.500    6.250    4.875    3.500    0.000 
#    0.000    1.250    0.000    0.000    0.000    0.000 
#    0.000    0.000    0.000    0.000    0.000    0.000 
#
# Total GULP energy -198358.424984 kJ/mol
# GULP energy per Si atom -12397.401561 kJ/mol
# Density = 2.120920 g / cm^3
# Si number density = 21.257581 Si / 1000 Ang^3
#
#
#
# Elastic Constant Matrix: (Units=GPa)
#
#
# Indices 1 2 3 4 5 6 
#
# 1 97.0855 45.0711 38.0702 -3.3575 20.1505 -5.8668
# 2 45.0711 129.1992 46.4675 -9.0407 21.7310 -4.2443
# 3 38.0702 46.4675 87.7174 -10.9487 16.7212 -12.3825
# 4 -3.3575 -9.0407 -10.9487 38.5326 -11.2101 12.9088
# 5 20.1505 21.7310 16.7212 -11.2101 33.1713 -2.9151
# 6 -5.8668 -4.2443 -12.3825 12.9088 -2.9151 42.8962
#
#
#
# Elastic Compliance Matrix: (Units=1/GPa)
#
#
# Indices 1 2 3 4 5 6 
#
# 1 0.014227 -0.002789 -0.003795 -0.002447 -0.005647 0.000927
# 2 -0.002789 0.010658 -0.003871 0.000486 -0.003244 -0.000811
# 3 -0.003795 -0.003871 0.016219 0.001587 -0.002523 0.003131
# 4 -0.002447 0.000486 0.001587 0.032325 0.010515 -0.008842
# 5 -0.005647 -0.003244 -0.002523 0.010515 0.040330 -0.002245
# 6 0.000927 -0.000811 0.003131 -0.008842 -0.002245 0.026770
#
#
# Mechanical properties :
#
#
# Convention : Reuss Voigt Hill
#
# Bulk Modulus (GPa) = 49.52078 63.69107 56.60592
# Shear Modulus (GPa) = 29.73165 35.21290 32.47228
#
# Velocity S-wave (km/s) = 3.74389 4.07441 3.91264
# Velocity P-wave (km/s) = 6.48345 7.22226 6.86281
#
# Compressibility (1/GPa) = 0.02019354
#
# Stress axis : x y z
#
# Youngs Moduli (GPa) = 70.29065 93.82504 61.65606
#
# Poissons Ratio (x) = 0.26167 0.23399
# Poissons Ratio (y) = 0.19603 0.23868
# Poissons Ratio (z) = 0.26676 0.36321
#
# Static dielectric constant tensor:
#      x y z
#    x 3.700360 0.387320 0.313320 
#    y 0.387320 2.819540 -0.058010 
#    z 0.313320 -0.058010 3.809720 
# 
# 
# High freq. dielectric constant tensor:
#      x y z
#    x 1.820900 0.000080 0.039100 
#    y 0.000080 1.853210 -0.018320 
#    z 0.039100 -0.018320 1.811170 
# 
# From -- ./inp_files/420143.got.cif
#   From: 2010.06.25/outbox.cif.g09.slc.cpg/sg2_211_cif.got.tgz:420143.got - 2010.06.27 13:26:56.
