data_PCOD8030484
_publ_section_title
;
Structure prediction by ZEFSAII (Michael W. Deem and Ramdas Pophale) SiO2 
 PCOD8030484
Probable space group: P -1
;
_chemical_formula_sum "Si O2"
_cell_formula_units_Z 14
_cell_length_a 8.902477
_cell_length_b 10.695200
_cell_length_c 11.293530
_cell_angle_alpha 55.854617
_cell_angle_beta 65.634680
_cell_angle_gamma 95.283996
_cell_volume 732.164979
_symmetry_space_group_name_H-M "P -1"
_symmetry_group_IT_number 2
_symmetry_cell_setting 'triclinic'
loop_
_space_group_symop_operation_xyz
x,y,z
-x,-y,-z
loop_
_atom_site_type_symbol
_atom_site_label
_atom_site_fract_x
_atom_site_fract_y
_atom_site_fract_z
Si Si1 0.089730 0.274975 0.822405
Si Si2 0.419284 0.863615 0.497744
Si Si3 0.736347 0.759153 0.435385
Si Si4 0.849097 0.736642 0.658429
Si Si5 0.107735 0.013390 0.115269
Si Si6 0.037796 0.561038 0.821827
Si Si7 0.757801 0.988042 0.685457
O O1 0.239597 0.344383 0.630090
O O2 0.049077 0.422816 0.805165
O O3 0.905254 0.122019 0.910430
O O4 0.164974 0.196746 0.944291
O O5 0.548006 0.773456 0.475040
O O6 0.225179 0.725804 0.675924
O O7 0.399181 0.959906 0.336002
O O8 0.500000 0.000000 0.500000
O O9 0.742746 0.667160 0.605394
O O10 0.905990 0.946273 0.278750
O O11 0.869790 0.593779 0.806765
O O12 0.050508 0.871686 0.493183
O O13 0.732286 0.812263 0.730500
O O14 0.255510 0.027470 0.159404
O O15 0.000000 0.500000 0.000000
#
# Coordination Sequence:
#
# PCOD8030484 Si02
#       7
#     2   2   2   2   2   2   2
#     4   9  19  35  58  81 114 144 186 225 278 326
#     4  11  22  35  58  86 112 146 184 230 278 322
#     4   9  18  35  57  80 109 146 185 223 273 326
#     4   9  17  31  54  79 105 145 184 227 263 322
#     4   8  17  34  61  79 108 151 183 223 270 331
#     4  11  24  36  57  83 111 145 188 231 277 329
#     4   9  16  31  55  82 107 142 193 221 261 334
#
# _framework density 19.121372000000001
#
# number of rings (size 3 to 8) (size 9 to 14) (size 15 to 20)
#    0.857    1.714    1.429    0.857    4.000    1.143 
#    0.000    1.429    0.000    0.000    0.000    0.000 
#    0.000    0.000    0.000    0.000    0.000    0.000 
#
# Total GULP energy -173472.235255 kJ/mol
# GULP energy per Si atom -12390.873947 kJ/mol
# Density = 1.907785 g / cm^3
# Si number density = 19.121372 Si / 1000 Ang^3
#
#
#
# Elastic Constant Matrix: (Units=GPa)
#
#
# Indices 1 2 3 4 5 6 
#
# 1 128.7025 46.8262 55.3785 6.8193 46.1310 -14.7603
# 2 46.8262 107.1747 39.4496 5.4852 23.0312 -13.0250
# 3 55.3785 39.4496 77.0680 6.6917 41.3868 -1.1713
# 4 6.8193 5.4852 6.6917 25.6444 4.3247 2.8830
# 5 46.1310 23.0312 41.3868 4.3247 44.2587 -0.6377
# 6 -14.7603 -13.0250 -1.1713 2.8830 -0.6377 26.7138
#
#
#
# Elastic Compliance Matrix: (Units=1/GPa)
#
#
# Indices 1 2 3 4 5 6 
#
# 1 0.014749 -0.001870 -0.003621 -0.001548 -0.010762 0.006989
# 2 -0.001870 0.012647 -0.005128 -0.001506 0.000383 0.005080
# 3 -0.003621 -0.005128 0.029679 -0.001715 -0.021194 -0.003521
# 4 -0.001548 -0.001506 -0.001715 0.040873 -0.000081 -0.006078
# 5 -0.010762 0.000383 -0.021194 -0.000081 0.053361 -0.005406
# 6 0.006989 0.005080 -0.003521 -0.006078 -0.005406 0.044145
#
#
# Mechanical properties :
#
#
# Convention : Reuss Voigt Hill
#
# Bulk Modulus (GPa) = 27.90376 66.25042 47.07709
# Shear Modulus (GPa) = 21.86853 30.74278 26.30566
#
# Velocity S-wave (km/s) = 3.38549 4.01405 3.71309
# Velocity P-wave (km/s) = 5.46870 7.49707 6.56173
#
# Compressibility (1/GPa) = 0.03583746
#
# Stress axis : x y z
#
# Youngs Moduli (GPa) = 67.79926 79.06877 33.69344
#
# Poissons Ratio (x) = 0.14786 0.12201
# Poissons Ratio (y) = 0.12678 0.17278
# Poissons Ratio (z) = 0.24551 0.40548
#
# Static dielectric constant tensor:
#      x y z
#    x 3.568160 -0.026880 0.419350 
#    y -0.026880 3.366620 0.097770 
#    z 0.419350 0.097770 3.437510 
# 
# 
# High freq. dielectric constant tensor:
#      x y z
#    x 1.734130 0.001200 0.038570 
#    y 0.001200 1.730100 0.010560 
#    z 0.038570 0.010560 1.721880 
# 
# From -- ./inp_files/388994.got.cif
#   From: 2010.06.25/outbox.cif.g09.slc.cpg/sg2_195_cif.got.tgz:388994.got - 2010.06.27 13:26:56.
