data_PCOD8030929
_publ_section_title
;
Structure prediction by ZEFSAII (Michael W. Deem and Ramdas Pophale) SiO2 
 PCOD8030929
Probable space group: P -1
;
_chemical_formula_sum "Si O2"
_cell_formula_units_Z 16
_cell_length_a 9.373517
_cell_length_b 6.668114
_cell_length_c 20.502675
_cell_angle_alpha 128.621445
_cell_angle_beta 127.678836
_cell_angle_gamma 51.037231
_cell_volume 726.277875
_symmetry_space_group_name_H-M "P -1"
_symmetry_group_IT_number 2
_symmetry_cell_setting 'triclinic'
loop_
_space_group_symop_operation_xyz
x,y,z
-x,-y,-z
loop_
_atom_site_type_symbol
_atom_site_label
_atom_site_fract_x
_atom_site_fract_y
_atom_site_fract_z
Si Si1 0.658037 0.048173 0.718536
Si Si2 0.199782 0.783061 0.329475
Si Si3 0.082724 0.304503 0.165712
Si Si4 0.095898 0.717720 0.585265
Si Si5 0.549595 0.349694 0.414787
Si Si6 0.367494 0.661484 0.771084
Si Si7 0.417275 0.942582 0.098269
Si Si8 0.672754 0.354614 0.097586
O O1 0.765980 0.009036 0.670908
O O2 0.560860 0.376677 0.773135
O O3 0.822661 0.877028 0.781032
O O4 0.485910 0.933676 0.646810
O O5 0.078275 0.616217 0.231334
O O6 0.410498 0.557451 0.364281
O O7 0.077980 0.973448 0.394163
O O8 0.858361 0.344810 0.105463
O O9 0.200245 0.144662 0.102591
O O10 0.228650 0.725391 0.562257
O O11 0.216147 0.640465 0.671099
O O12 0.000000 0.500000 0.500000
O O13 0.500000 0.500000 0.500000
O O14 0.266467 0.731141 0.828188
O O15 0.434850 0.906151 0.819508
O O16 0.500542 0.664876 0.109687
O O17 0.403248 0.863162 0.002655
#
# Coordination Sequence:
#
# PCOD8030929 Si02
#       8
#     2   2   2   2   2   2   2   2
#     4  11  22  42  69  92 130 186 213 270 340 388
#     4  11  24  44  67  94 134 175 221 272 329 398
#     4  11  22  41  67  99 132 177 224 269 330 392
#     4  12  27  45  71 102 131 176 225 278 335 397
#     4  11  26  44  66  95 132 171 221 278 334 395
#     4  12  23  45  69  93 140 175 220 278 335 391
#     4  11  23  45  65 101 135 181 220 273 340 388
#     4  11  25  40  71  98 137 175 227 277 326 401
#
# _framework density 22.030135000000001
#
# number of rings (size 3 to 8) (size 9 to 14) (size 15 to 20)
#    0.000    0.750    3.750    3.750    3.500    2.500 
#    0.000    0.625    0.000    0.000    0.000    0.000 
#    0.000    0.000    0.000    0.000    0.000    0.000 
#
# Total GULP energy -198472.817402 kJ/mol
# GULP energy per Si atom -12404.551088 kJ/mol
# Density = 2.197999 g / cm^3
# Si number density = 22.030135 Si / 1000 Ang^3
#
#
#
# Elastic Constant Matrix: (Units=GPa)
#
#
# Indices 1 2 3 4 5 6 
#
# 1 130.6033 28.1781 41.5637 12.4508 -6.1279 -0.3638
# 2 28.1781 53.0334 27.3138 19.9021 -1.3370 7.9933
# 3 41.5637 27.3138 126.6614 10.9179 -0.5353 8.4161
# 4 12.4508 19.9021 10.9179 38.0726 -1.9884 -10.4688
# 5 -6.1279 -1.3370 -0.5353 -1.9884 37.8285 -2.5495
# 6 -0.3638 7.9933 8.4161 -10.4688 -2.5495 36.7295
#
#
#
# Elastic Compliance Matrix: (Units=1/GPa)
#
#
# Indices 1 2 3 4 5 6 
#
# 1 0.009319 -0.004094 -0.002308 0.000297 0.001462 0.001698
# 2 -0.004094 0.030514 -0.003075 -0.016777 -0.001241 -0.010845
# 3 -0.002308 -0.003075 0.009512 -0.000894 -0.000518 -0.001824
# 4 0.000297 -0.016777 -0.000894 0.039537 0.002552 0.015305
# 5 0.001462 -0.001241 -0.000518 0.002552 0.026957 0.003002
# 6 0.001698 -0.010845 -0.001824 0.015305 0.003002 0.034592
#
#
# Mechanical properties :
#
#
# Convention : Reuss Voigt Hill
#
# Bulk Modulus (GPa) = 32.90379 56.04550 44.47465
# Shear Modulus (GPa) = 27.85280 36.74228 32.29754
#
# Velocity S-wave (km/s) = 3.55956 4.08832 3.83307
# Velocity P-wave (km/s) = 5.64466 6.91241 6.31046
#
# Compressibility (1/GPa) = 0.03039164
#
# Stress axis : x y z
#
# Youngs Moduli (GPa) = 107.30271 32.77133 105.13556
#
# Poissons Ratio (x) = 0.13416 0.24261
# Poissons Ratio (y) = 0.43929 0.32333
# Poissons Ratio (z) = 0.24762 0.10078
#
# Static dielectric constant tensor:
#      x y z
#    x 4.091690 0.043870 -0.084080 
#    y 0.043870 3.896430 0.119840 
#    z -0.084080 0.119840 4.024680 
# 
# 
# High freq. dielectric constant tensor:
#      x y z
#    x 1.877440 -0.002350 -0.006200 
#    y -0.002350 1.860880 0.011130 
#    z -0.006200 0.011130 1.870930 
# 
# From -- ./inp_files/47347.got.cif
#   From: 2010.06.25/outbox.cif.g09.slc.cpg/sg2_24_cif.got.tgz:47347.got - 2010.06.27 13:26:56.
