data_PCOD8030766
_publ_section_title
;
Structure prediction by ZEFSAII (Michael W. Deem and Ramdas Pophale) SiO2 
 PCOD8030766
Probable space group: P -1
;
_chemical_formula_sum "Si O2"
_cell_formula_units_Z 16
_cell_length_a 9.657087
_cell_length_b 18.314231
_cell_length_c 11.768575
_cell_angle_alpha 131.735129
_cell_angle_beta 121.314413
_cell_angle_gamma 29.255759
_cell_volume 748.360743
_symmetry_space_group_name_H-M "P -1"
_symmetry_group_IT_number 2
_symmetry_cell_setting 'triclinic'
loop_
_space_group_symop_operation_xyz
x,y,z
-x,-y,-z
loop_
_atom_site_type_symbol
_atom_site_label
_atom_site_fract_x
_atom_site_fract_y
_atom_site_fract_z
Si Si1 0.904578 0.155092 0.154666
Si Si2 0.357368 0.472975 0.363914
Si Si3 0.091115 0.699399 0.105394
Si Si4 0.911259 0.010964 0.350515
Si Si5 0.283724 0.591151 0.838222
Si Si6 0.740161 0.006132 0.649010
Si Si7 0.835772 0.774699 0.299871
Si Si8 0.711804 0.592118 0.509676
O O1 0.599974 0.285765 0.217455
O O2 0.881239 0.242198 0.129973
O O3 0.108801 0.104785 0.284601
O O4 0.000000 0.000000 0.000000
O O5 0.500000 0.500000 0.500000
O O6 0.206524 0.490538 0.418616
O O7 0.138268 0.599939 0.301652
O O8 0.409422 0.523419 0.107432
O O9 0.868861 0.759174 0.160390
O O10 0.087244 0.657394 0.931917
O O11 0.993507 0.858796 0.211740
O O12 0.568740 0.198791 0.383950
O O13 0.000000 0.000000 0.500000
O O14 0.104251 0.972112 0.299879
O O15 0.357874 0.460454 0.659756
O O16 0.403351 0.186182 0.725057
O O17 0.752960 0.923400 0.464928
O O18 0.000000 0.500000 0.500000
#
# Coordination Sequence:
#
# PCOD8030766 Si02
#       8
#     2   2   2   2   2   2   2   2
#     4  12  24  44  69  98 129 179 228 272 329 399
#     4  12  21  44  73  93 131 178 226 271 327 396
#     4  11  23  41  69  97 134 178 216 273 332 396
#     4  12  22  41  66  96 132 172 223 263 325 400
#     4  11  23  43  68  97 138 176 220 270 341 395
#     4  11  23  40  68  98 130 167 222 278 324 390
#     4  11  22  40  67 101 128 169 221 274 330 390
#     4  12  26  43  69 104 133 173 223 278 329 394
#
# _framework density 21.380063
#
# number of rings (size 3 to 8) (size 9 to 14) (size 15 to 20)
#    0.000    0.500    7.500    0.750    1.750    1.000 
#    2.250    1.875    0.000    0.000    0.000    0.000 
#    0.000    0.000    0.000    0.000    0.000    0.000 
#
# Total GULP energy -198333.983207 kJ/mol
# GULP energy per Si atom -12395.873950 kJ/mol
# Density = 2.133140 g / cm^3
# Si number density = 21.380063 Si / 1000 Ang^3
#
#
#
# Elastic Constant Matrix: (Units=GPa)
#
#
# Indices 1 2 3 4 5 6 
#
# 1 132.9409 56.7095 32.1706 3.5260 -35.4074 -7.3383
# 2 56.7095 101.6614 22.5992 9.5380 -7.0628 0.1826
# 3 32.1706 22.5992 72.7087 11.6039 -34.6451 7.9023
# 4 3.5260 9.5380 11.6039 33.4305 6.7260 -6.6870
# 5 -35.4074 -7.0628 -34.6451 6.7260 37.2127 0.8227
# 6 -7.3383 0.1826 7.9023 -6.6870 0.8227 39.4578
#
#
#
# Elastic Compliance Matrix: (Units=1/GPa)
#
#
# Indices 1 2 3 4 5 6 
#
# 1 0.014401 -0.007505 0.005233 -0.004715 0.017991 0.000491
# 2 -0.007505 0.014625 -0.006437 0.001019 -0.010547 0.000218
# 3 0.005233 -0.006437 0.040979 -0.024805 0.046666 -0.012381
# 4 -0.004715 0.001019 -0.024805 0.048688 -0.036476 0.013098
# 5 0.017991 -0.010547 0.046666 -0.036476 0.092338 -0.014058
# 6 0.000491 0.000218 -0.012381 0.013098 -0.014058 0.030426
#
#
# Mechanical properties :
#
#
# Convention : Reuss Voigt Hill
#
# Bulk Modulus (GPa) = 19.01622 58.91882 38.96752
# Shear Modulus (GPa) = 18.08929 35.07567 26.58248
#
# Velocity S-wave (km/s) = 2.91191 4.05480 3.52991
# Velocity P-wave (km/s) = 4.49658 7.03843 5.90588
#
# Compressibility (1/GPa) = 0.05258670
#
# Stress axis : x y z
#
# Youngs Moduli (GPa) = 69.43774 68.37418 24.40269
#
# Poissons Ratio (x) = 0.51316 -0.12769
# Poissons Ratio (y) = 0.52115 0.15708
# Poissons Ratio (z) = -0.36334 0.44013
#
# Static dielectric constant tensor:
#      x y z
#    x 4.096560 0.190050 -0.152530 
#    y 0.190050 3.916020 0.133790 
#    z -0.152530 0.133790 4.661940 
# 
# 
# High freq. dielectric constant tensor:
#      x y z
#    x 1.833490 0.010270 -0.032990 
#    y 0.010270 1.846240 0.006330 
#    z -0.032990 0.006330 1.837520 
# 
# From -- ./inp_files/332931.got.cif
#   From: 2010.06.25/outbox.cif.g09.slc.cpg/sg2_167_cif.got.tgz:332931.got - 2010.06.27 13:26:56.
