data_PCOD8030789
_publ_section_title
;
Structure prediction by ZEFSAII (Michael W. Deem and Ramdas Pophale) SiO2 
 PCOD8030789
Probable space group: P -1
;
_chemical_formula_sum "Si O2"
_cell_formula_units_Z 16
_cell_length_a 13.406983
_cell_length_b 10.199682
_cell_length_c 8.531942
_cell_angle_alpha 78.398675
_cell_angle_beta 125.620371
_cell_angle_gamma 133.209911
_cell_volume 651.650865
_symmetry_space_group_name_H-M "P -1"
_symmetry_group_IT_number 2
_symmetry_cell_setting 'triclinic'
loop_
_space_group_symop_operation_xyz
x,y,z
-x,-y,-z
loop_
_atom_site_type_symbol
_atom_site_label
_atom_site_fract_x
_atom_site_fract_y
_atom_site_fract_z
Si Si1 0.298698 0.010019 0.601483
Si Si2 0.776301 0.677264 0.836936
Si Si3 0.265945 0.479544 0.497096
Si Si4 0.358569 0.680018 0.036318
Si Si5 0.794546 0.825784 0.329637
Si Si6 0.572560 0.807710 0.895915
Si Si7 0.066563 0.632855 0.676093
Si Si8 0.815578 0.019228 0.826132
O O1 0.292249 0.160678 0.609948
O O2 0.222291 0.927261 0.379684
O O3 0.189665 0.848530 0.675080
O O4 0.507657 0.143239 0.762079
O O5 0.710453 0.576587 0.632056
O O6 0.740565 0.807014 0.798594
O O7 0.679457 0.506678 0.917371
O O8 0.981593 0.814306 0.999869
O O9 0.240330 0.357438 0.645941
O O10 0.448594 0.686744 0.661131
O O11 0.098007 0.447021 0.351800
O O12 0.452658 0.775263 0.929948
O O13 0.178734 0.621622 0.891516
O O14 0.702966 0.793989 0.088763
O O15 0.000000 0.000000 0.500000
O O16 0.717387 0.012260 0.887680
O O17 0.000000 0.500000 0.500000
#
# Coordination Sequence:
#
# PCOD8030789 Si02
#       8
#     2   2   2   2   2   2   2   2
#     4  11  24  44  72 101 140 180 235 296 348 413
#     4  11  26  44  71 104 146 184 229 291 360 424
#     4  12  24  43  70 104 142 181 232 288 354 413
#     4  11  26  47  69 103 137 192 241 284 344 415
#     4  11  22  40  68 106 136 177 227 290 360 408
#     4  11  26  40  70 105 142 183 230 293 342 423
#     4  12  25  46  73  99 144 192 237 283 343 422
#     4  11  25  43  69 108 143 181 230 293 365 413
#
# _framework density 24.553025000000002
#
# number of rings (size 3 to 8) (size 9 to 14) (size 15 to 20)
#    0.000    0.750    3.750    3.000    8.750    1.500 
#    0.000    0.625    0.000    0.000    0.000    0.000 
#    0.000    0.000    0.000    0.000    0.000    0.000 
#
# Total GULP energy -198218.328694 kJ/mol
# GULP energy per Si atom -12388.645543 kJ/mol
# Density = 2.449714 g / cm^3
# Si number density = 24.553025 Si / 1000 Ang^3
#
#
#
# Elastic Constant Matrix: (Units=GPa)
#
#
# Indices 1 2 3 4 5 6 
#
# 1 66.2564 7.5470 21.4914 1.7031 6.6231 16.2005
# 2 7.5470 66.0452 3.9604 2.5104 7.2925 18.3577
# 3 21.4914 3.9604 138.5514 9.9863 18.0356 12.6316
# 4 1.7031 2.5104 9.9863 34.6362 13.5101 1.6993
# 5 6.6231 7.2925 18.0356 13.5101 42.2428 -0.5881
# 6 16.2005 18.3577 12.6316 1.6993 -0.5881 33.6478
#
#
#
# Elastic Compliance Matrix: (Units=1/GPa)
#
#
# Indices 1 2 3 4 5 6 
#
# 1 0.017877 0.000645 -0.001760 0.001009 -0.002602 -0.008395
# 2 0.000645 0.018428 0.000834 0.000455 -0.003934 -0.010770
# 3 -0.001760 0.000834 0.008184 -0.001001 -0.003080 -0.002684
# 4 0.001009 0.000455 -0.001001 0.033275 -0.010482 -0.002222
# 5 -0.002602 -0.003934 -0.003080 -0.010482 0.029505 0.005601
# 6 -0.008395 -0.010770 -0.002684 -0.002222 0.005601 0.040855
#
#
# Mechanical properties :
#
#
# Convention : Reuss Voigt Hill
#
# Bulk Modulus (GPa) = 22.76427 37.42787 30.09607
# Shear Modulus (GPa) = 30.61311 37.96231 34.28771
#
# Velocity S-wave (km/s) = 3.53486 3.93636 3.74100
# Velocity P-wave (km/s) = 5.09430 5.99472 5.56276
#
# Compressibility (1/GPa) = 0.04392848
#
# Stress axis : x y z
#
# Youngs Moduli (GPa) = 55.93724 54.26533 122.18397
#
# Poissons Ratio (x) = -0.03501 0.21505
# Poissons Ratio (y) = -0.03609 -0.10194
# Poissons Ratio (z) = 0.09845 -0.04528
#
# Static dielectric constant tensor:
#      x y z
#    x 4.374660 0.095770 0.480370 
#    y 0.095770 4.149770 0.026340 
#    z 0.480370 0.026340 5.067670 
# 
# 
# High freq. dielectric constant tensor:
#      x y z
#    x 1.956030 0.021820 0.008920 
#    y 0.021820 1.969820 0.017550 
#    z 0.008920 0.017550 2.000870 
# 
# From -- ./inp_files/307179.got.cif
#   From: 2010.06.25/outbox.cif.g09.slc.cpg/sg2_154_cif.got.tgz:307179.got - 2010.06.27 13:26:56.
