data_PCOD8030356
_publ_section_title
;
Structure prediction by ZEFSAII (Michael W. Deem and Ramdas Pophale) SiO2 
 PCOD8030356
Probable space group: P -1
;
_chemical_formula_sum "Si O2"
_cell_formula_units_Z 16
_cell_length_a 9.371707
_cell_length_b 9.375157
_cell_length_c 12.342628
_cell_angle_alpha 53.429002
_cell_angle_beta 121.200515
_cell_angle_gamma 111.178806
_cell_volume 742.772020
_symmetry_space_group_name_H-M "P -1"
_symmetry_group_IT_number 2
_symmetry_cell_setting 'triclinic'
loop_
_space_group_symop_operation_xyz
x,y,z
-x,-y,-z
loop_
_atom_site_type_symbol
_atom_site_label
_atom_site_fract_x
_atom_site_fract_y
_atom_site_fract_z
Si Si1 0.404499 0.647540 0.455867
Si Si2 0.185189 0.843577 0.732259
Si Si3 0.534864 0.972993 0.782091
Si Si4 0.868190 0.010716 0.591668
Si Si5 0.409993 0.261252 0.303096
Si Si6 0.854582 0.849699 0.042832
Si Si7 0.056872 0.667700 0.374066
Si Si8 0.313149 0.476587 0.991752
O O1 0.500000 0.500000 0.500000
O O2 0.442293 0.667639 0.590286
O O3 0.203855 0.605265 0.382156
O O4 0.463522 0.824620 0.338114
O O5 0.364623 0.930912 0.800775
O O6 0.195963 0.633031 0.847352
O O7 0.041889 0.917524 0.716800
O O8 0.145470 0.893251 0.571406
O O9 0.528513 0.851471 0.724617
O O10 0.683037 0.947772 0.938070
O O11 0.720972 0.858711 0.621671
O O12 0.856675 0.163695 0.605506
O O13 0.340781 0.443478 0.145993
O O14 0.806403 0.699895 0.002874
O O15 0.899996 0.740300 0.216697
O O16 0.000000 0.000000 0.000000
O O17 0.000000 0.500000 0.500000
O O18 0.500000 0.500000 0.000000
#
# Coordination Sequence:
#
# PCOD8030356 Si02
#       8
#     2   2   2   2   2   2   2   2
#     4  12  26  42  68 103 137 175 226 285 342 401
#     4  11  23  41  68  98 134 168 236 285 329 390
#     4  11  21  44  72  92 130 187 228 272 332 423
#     4  11  24  43  68  96 133 183 222 280 338 407
#     4  11  22  43  73  97 129 181 236 260 342 412
#     4  11  22  42  67  95 133 179 217 269 348 396
#     4  12  26  41  65  99 138 172 221 281 344 403
#     4  11  23  41  71 101 129 175 230 284 328 399
#
# _framework density 21.540929999999999
#
# number of rings (size 3 to 8) (size 9 to 14) (size 15 to 20)
#    0.000    0.750    6.250    2.625    3.500    1.500 
#    2.250    0.625    0.000    0.000    0.000    0.000 
#    0.000    0.000    0.000    0.000    0.000    0.000 
#
# Total GULP energy -198238.705178 kJ/mol
# GULP energy per Si atom -12389.919074 kJ/mol
# Density = 2.149190 g / cm^3
# Si number density = 21.540930 Si / 1000 Ang^3
#
#
#
# Elastic Constant Matrix: (Units=GPa)
#
#
# Indices 1 2 3 4 5 6 
#
# 1 86.1707 36.9176 20.3142 -5.9752 25.7444 -0.3358
# 2 36.9176 85.6065 47.4328 -17.5677 11.9836 9.3211
# 3 20.3142 47.4328 149.1988 -21.2442 16.8053 -0.8351
# 4 -5.9752 -17.5677 -21.2442 41.8766 5.3179 4.5980
# 5 25.7444 11.9836 16.8053 5.3179 35.0475 -3.2728
# 6 -0.3358 9.3211 -0.8351 4.5980 -3.2728 33.3298
#
#
#
# Elastic Compliance Matrix: (Units=1/GPa)
#
#
# Indices 1 2 3 4 5 6 
#
# 1 0.017623 -0.006311 0.001182 0.001874 -0.011585 0.000576
# 2 -0.006311 0.018750 -0.004190 0.005688 -0.001219 -0.006317
# 3 0.001182 -0.004190 0.008818 0.003348 -0.004121 0.000538
# 4 0.001874 0.005688 0.003348 0.030251 -0.010139 -0.006657
# 5 -0.011585 -0.001219 -0.004121 -0.010139 0.041496 0.005594
# 6 0.000576 -0.006317 0.000538 -0.006657 0.005594 0.033257
#
#
# Mechanical properties :
#
#
# Convention : Reuss Voigt Hill
#
# Bulk Modulus (GPa) = 37.66050 58.92279 48.29165
# Shear Modulus (GPa) = 28.13976 36.47155 32.30565
#
# Velocity S-wave (km/s) = 3.61825 4.11923 3.87684
# Velocity P-wave (km/s) = 5.91412 7.07371 6.51975
#
# Compressibility (1/GPa) = 0.02655302
#
# Stress axis : x y z
#
# Youngs Moduli (GPa) = 56.74247 53.33233 113.40985
#
# Poissons Ratio (x) = 0.33660 -0.13405
# Poissons Ratio (y) = 0.35812 0.47517
# Poissons Ratio (z) = -0.06707 0.22345
#
# Static dielectric constant tensor:
#      x y z
#    x 3.933320 0.185260 0.352230 
#    y 0.185260 3.816960 -0.213480 
#    z 0.352230 -0.213480 4.507020 
# 
# 
# High freq. dielectric constant tensor:
#      x y z
#    x 1.834610 0.024310 0.019860 
#    y 0.024310 1.835180 -0.020120 
#    z 0.019860 -0.020120 1.869470 
# 
# From -- ./inp_files/381477.got.cif
#   From: 2010.06.25/outbox.cif.g09.slc.cpg/sg2_191_cif.got.tgz:381477.got - 2010.06.27 13:26:56.
