data_PCOD8030345
_publ_section_title
;
Structure prediction by ZEFSAII (Michael W. Deem and Ramdas Pophale) SiO2 
 PCOD8030345
Probable space group: P -1
;
_chemical_formula_sum "Si O2"
_cell_formula_units_Z 14
_cell_length_a 14.613674
_cell_length_b 9.657212
_cell_length_c 12.111148
_cell_angle_alpha 50.608863
_cell_angle_beta 60.558119
_cell_angle_gamma 29.797659
_cell_volume 648.586963
_symmetry_space_group_name_H-M "P -1"
_symmetry_group_IT_number 2
_symmetry_cell_setting 'triclinic'
loop_
_space_group_symop_operation_xyz
x,y,z
-x,-y,-z
loop_
_atom_site_type_symbol
_atom_site_label
_atom_site_fract_x
_atom_site_fract_y
_atom_site_fract_z
Si Si1 0.460167 0.743015 0.457352
Si Si2 0.167955 0.224443 0.801227
Si Si3 0.829827 0.369390 0.390886
Si Si4 0.653802 0.232992 0.268024
Si Si5 0.849817 0.317270 0.153733
Si Si6 0.761922 0.041126 0.881032
Si Si7 0.778538 0.732704 0.840846
O O1 0.500000 0.500000 0.500000
O O2 0.657822 0.544518 0.479006
O O3 0.323394 0.908642 0.559091
O O4 0.379477 0.999377 0.288502
O O5 0.129086 0.487599 0.669519
O O6 0.964582 0.420891 0.820021
O O7 0.300310 0.960847 0.761936
O O8 0.261661 0.053285 0.950811
O O9 0.772721 0.436782 0.262637
O O10 0.000000 0.000000 0.500000
O O11 0.798730 0.193834 0.198988
O O12 0.437205 0.590639 0.208869
O O13 0.728712 0.629080 0.995847
O O14 0.072847 0.044758 0.154953
O O15 0.822443 0.838324 0.842297
#
# Coordination Sequence:
#
# PCOD8030345 Si02
#       7
#     2   2   2   2   2   2   2
#     4  12  24  41  67 100 135 176 230 273 329 407
#     4  11  25  44  68 102 137 172 222 285 343 385
#     4  12  23  42  72  98 131 183 227 275 335 401
#     4  12  27  44  67 104 143 172 220 287 339 394
#     4  11  23  42  74  98 131 183 227 272 341 393
#     4  11  21  44  72 100 134 176 230 277 327 412
#     4  11  22  43  71 100 132 176 235 275 321 417
#
# _framework density 21.585387000000001
#
# number of rings (size 3 to 8) (size 9 to 14) (size 15 to 20)
#    0.000    0.571    5.714    3.000    2.000    4.571 
#    2.571    0.000    0.000    0.000    0.000    0.000 
#    0.000    0.000    0.000    0.000    0.000    0.000 
#
# Total GULP energy -173604.165363 kJ/mol
# GULP energy per Si atom -12400.297526 kJ/mol
# Density = 2.153626 g / cm^3
# Si number density = 21.585387 Si / 1000 Ang^3
#
#
#
# Elastic Constant Matrix: (Units=GPa)
#
#
# Indices 1 2 3 4 5 6 
#
# 1 86.0742 33.3967 45.5668 -1.6329 -9.9876 -9.7405
# 2 33.3967 98.0402 43.2175 12.9380 2.5443 4.8090
# 3 45.5668 43.2175 144.7686 -3.1705 -4.0978 -5.6386
# 4 -1.6329 12.9380 -3.1705 29.3641 -2.3627 1.5693
# 5 -9.9876 2.5443 -4.0978 -2.3627 30.4876 -1.7527
# 6 -9.7405 4.8090 -5.6386 1.5693 -1.7527 30.2336
#
#
#
# Elastic Compliance Matrix: (Units=1/GPa)
#
#
# Indices 1 2 3 4 5 6 
#
# 1 0.016746 -0.005090 -0.003290 0.002995 0.006033 0.005785
# 2 -0.005090 0.014618 -0.003208 -0.007166 -0.004129 -0.004431
# 3 -0.003290 -0.003208 0.009008 0.002198 0.000632 0.001053
# 4 0.002995 -0.007166 0.002198 0.037963 0.004864 0.000826
# 5 0.006033 -0.004129 0.000632 0.004864 0.035844 0.004544
# 6 0.005785 -0.004431 0.001053 0.000826 0.004544 0.036061
#
#
# Mechanical properties :
#
#
# Convention : Reuss Voigt Hill
#
# Bulk Modulus (GPa) = 58.15225 63.69388 60.92307
# Shear Modulus (GPa) = 27.90990 31.79720 29.85355
#
# Velocity S-wave (km/s) = 3.59973 3.84225 3.72297
# Velocity P-wave (km/s) = 6.65406 7.01824 6.83858
#
# Compressibility (1/GPa) = 0.01719624
#
# Stress axis : x y z
#
# Youngs Moduli (GPa) = 59.71653 68.40891 111.01496
#
# Poissons Ratio (x) = 0.34818 0.36521
# Poissons Ratio (y) = 0.30394 0.35616
# Poissons Ratio (z) = 0.19645 0.21947
#
# Static dielectric constant tensor:
#      x y z
#    x 3.835930 -0.283420 -0.220140 
#    y -0.283420 3.965310 0.347800 
#    z -0.220140 0.347800 4.658200 
# 
# 
# High freq. dielectric constant tensor:
#      x y z
#    x 1.830110 -0.018230 -0.003420 
#    y -0.018230 1.839220 0.005060 
#    z -0.003420 0.005060 1.869350 
# 
# From -- ./inp_files/157465.got.cif
#   From: 2010.06.25/outbox.cif.g09.slc.cpg/sg2_79_cif.got.tgz:157465.got - 2010.06.27 13:26:56.
