data_PCOD8030440
_publ_section_title
;
Structure prediction by ZEFSAII (Michael W. Deem and Ramdas Pophale) SiO2 
 PCOD8030440
Probable space group: P -1
;
_chemical_formula_sum "Si O2"
_cell_formula_units_Z 16
_cell_length_a 9.788774
_cell_length_b 15.660121
_cell_length_c 10.824433
_cell_angle_alpha 67.718308
_cell_angle_beta 100.117014
_cell_angle_gamma 43.792190
_cell_volume 757.039808
_symmetry_space_group_name_H-M "P -1"
_symmetry_group_IT_number 2
_symmetry_cell_setting 'triclinic'
loop_
_space_group_symop_operation_xyz
x,y,z
-x,-y,-z
loop_
_atom_site_type_symbol
_atom_site_label
_atom_site_fract_x
_atom_site_fract_y
_atom_site_fract_z
Si Si1 0.246416 0.955571 0.265374
Si Si2 0.495844 0.369552 0.396690
Si Si3 0.809226 0.367089 0.397663
Si Si4 0.549367 0.108830 0.915480
Si Si5 0.719936 0.952964 0.534865
Si Si6 0.316531 0.834751 0.686207
Si Si7 0.347658 0.761733 0.012960
Si Si8 0.959850 0.720644 0.264564
O O1 0.418136 0.765788 0.430889
O O2 0.417759 0.914711 0.214564
O O3 0.182106 0.058407 0.314617
O O4 0.962514 0.087517 0.083711
O O5 0.733764 0.310523 0.473115
O O6 0.475186 0.346174 0.264918
O O7 0.206172 0.577770 0.282341
O O8 0.024884 0.239303 0.390094
O O9 0.926990 0.359121 0.534754
O O10 0.537240 0.566717 0.184939
O O11 0.250018 0.239654 0.828286
O O12 0.550799 0.212008 0.904175
O O13 0.797076 0.911070 0.129490
O O14 0.500000 0.000000 0.500000
O O15 0.601119 0.104591 0.347707
O O16 0.365152 0.775699 0.864470
O O17 0.000000 0.000000 0.500000
#
# Coordination Sequence:
#
# PCOD8030440 Si02
#       8
#     2   2   2   2   2   2   2   2
#     4  11  22  41  65  96 128 173 217 264 329 386
#     4  11  22  41  70  92 129 169 221 268 319 391
#     4  12  24  41  65  98 131 168 222 269 320 389
#     4  11  25  43  64  90 135 170 218 268 331 387
#     4  11  23  41  69  97 132 173 215 270 330 383
#     4  11  21  46  67  94 129 171 210 266 327 382
#     4  12  24  40  68  96 127 172 220 265 325 388
#     4  11  25  43  63  94 129 175 214 274 325 383
#
# _framework density 21.134951000000001
#
# number of rings (size 3 to 8) (size 9 to 14) (size 15 to 20)
#    0.000    0.750    3.750    4.500    0.000    8.000 
#    0.000    1.250    0.000    0.000    0.000    0.000 
#    0.000    0.000    0.000    0.000    0.000    0.000 
#
# Total GULP energy -198462.134662 kJ/mol
# GULP energy per Si atom -12403.883416 kJ/mol
# Density = 2.108685 g / cm^3
# Si number density = 21.134951 Si / 1000 Ang^3
#
#
#
# Elastic Constant Matrix: (Units=GPa)
#
#
# Indices 1 2 3 4 5 6 
#
# 1 111.8635 20.8988 22.6606 -5.7257 10.9357 -6.9075
# 2 20.8988 103.6578 24.8143 0.2654 8.8680 -12.3409
# 3 22.6606 24.8143 77.4647 3.7706 -4.1004 -8.3990
# 4 -5.7257 0.2654 3.7706 30.6912 -9.8874 0.1156
# 5 10.9357 8.8680 -4.1004 -9.8874 30.4237 2.2628
# 6 -6.9075 -12.3409 -8.3990 0.1156 2.2628 38.0247
#
#
#
# Elastic Compliance Matrix: (Units=1/GPa)
#
#
# Indices 1 2 3 4 5 6 
#
# 1 0.010146 -0.000953 -0.002779 0.001123 -0.003462 0.001122
# 2 -0.000953 0.011303 -0.003166 -0.001183 -0.003989 0.003037
# 3 -0.002779 -0.003166 0.015154 -0.001252 0.003437 0.001614
# 4 0.001123 -0.001183 -0.001252 0.036767 0.011816 -0.001271
# 5 -0.003462 -0.003989 0.003437 0.011816 0.039845 -0.003571
# 6 0.001122 0.003037 0.001614 -0.001271 -0.003571 0.028061
#
#
# Mechanical properties :
#
#
# Convention : Reuss Voigt Hill
#
# Bulk Modulus (GPa) = 43.84731 47.74815 45.79773
# Shear Modulus (GPa) = 30.73605 34.80207 32.76906
#
# Velocity S-wave (km/s) = 3.81763 4.06231 3.94187
# Velocity P-wave (km/s) = 6.34223 6.68163 6.51414
#
# Compressibility (1/GPa) = 0.02280641
#
# Stress axis : x y z
#
# Youngs Moduli (GPa) = 98.56385 88.47114 65.98896
#
# Poissons Ratio (x) = 0.08435 0.18336
# Poissons Ratio (y) = 0.09397 0.20893
# Poissons Ratio (z) = 0.27388 0.28011
#
# Static dielectric constant tensor:
#      x y z
#    x 3.974410 -0.034750 -0.085420 
#    y -0.034750 3.985430 0.078110 
#    z -0.085420 0.078110 3.647230 
# 
# 
# High freq. dielectric constant tensor:
#      x y z
#    x 1.839980 -0.003630 -0.007470 
#    y -0.003630 1.842850 0.004250 
#    z -0.007470 0.004250 1.813840 
# 
# From -- ./inp_files/242573.got.cif
#   From: 2010.06.25/outbox.cif.g09.slc.cpg/sg2_122_cif.got.tgz:242573.got - 2010.06.27 13:26:56.
