data_PCOD8030798
_publ_section_title
;
Structure prediction by ZEFSAII (Michael W. Deem and Ramdas Pophale) SiO2 
 PCOD8030798
Probable space group: P -1
;
_chemical_formula_sum "Si O2"
_cell_formula_units_Z 16
_cell_length_a 14.798062
_cell_length_b 17.879276
_cell_length_c 11.771404
_cell_angle_alpha 129.236449
_cell_angle_beta 152.283776
_cell_angle_gamma 33.560135
_cell_volume 730.696725
_symmetry_space_group_name_H-M "P -1"
_symmetry_group_IT_number 2
_symmetry_cell_setting 'triclinic'
loop_
_space_group_symop_operation_xyz
x,y,z
-x,-y,-z
loop_
_atom_site_type_symbol
_atom_site_label
_atom_site_fract_x
_atom_site_fract_y
_atom_site_fract_z
Si Si1 0.343671 0.081799 0.520721
Si Si2 0.718378 0.280918 0.040584
Si Si3 0.577070 0.495016 0.272439
Si Si4 0.745750 0.448117 0.809480
Si Si5 0.186527 0.364168 0.881536
Si Si6 0.286090 0.955835 0.742803
Si Si7 0.348045 0.112145 0.105792
Si Si8 0.253631 0.335944 0.674286
O O1 0.192113 0.245549 0.507895
O O2 0.059455 0.119609 0.251553
O O3 0.500000 0.000000 0.500000
O O4 0.563631 0.980817 0.772980
O O5 0.686038 0.366201 0.192127
O O6 0.592932 0.366077 0.863670
O O7 0.555245 0.242901 0.852684
O O8 0.349849 0.543457 0.161434
O O9 0.854725 0.444549 0.592874
O O10 0.500000 0.500000 0.500000
O O11 0.778910 0.550655 0.926145
O O12 0.077628 0.284749 0.999086
O O13 0.287704 0.353460 0.858246
O O14 0.410203 0.199954 0.018283
O O15 0.363571 0.940053 0.678649
O O16 0.000000 0.000000 0.500000
O O17 0.220490 0.085316 0.845983
O O18 0.000000 0.500000 0.500000
#
# Coordination Sequence:
#
# PCOD8030798 Si02
#       8
#     2   2   2   2   2   2   2   2
#     4  12  27  44  68 103 147 181 220 286 346 406
#     4  11  22  40  69 100 133 179 230 269 342 411
#     4  11  22  40  69 100 134 177 223 285 338 402
#     4  12  27  44  69 102 138 175 230 294 345 392
#     4  12  24  43  71 101 132 178 234 283 337 408
#     4  11  25  46  72  95 131 186 231 277 338 410
#     4  11  26  46  66 100 140 177 228 279 344 407
#     4  12  23  43  71 104 132 179 233 279 338 412
#
# _framework density 21.896908
#
# number of rings (size 3 to 8) (size 9 to 14) (size 15 to 20)
#    0.000    0.500    5.000    3.000    3.500    5.500 
#    0.000    0.000    0.000    0.000    0.000    0.000 
#    0.000    0.000    0.000    0.000    0.000    0.000 
#
# Total GULP energy -198375.889050 kJ/mol
# GULP energy per Si atom -12398.493066 kJ/mol
# Density = 2.184707 g / cm^3
# Si number density = 21.896908 Si / 1000 Ang^3
#
#
#
# Elastic Constant Matrix: (Units=GPa)
#
#
# Indices 1 2 3 4 5 6 
#
# 1 137.6376 29.2844 30.4429 -4.4133 15.4878 -14.7255
# 2 29.2844 91.2901 25.9063 -7.9784 -0.4486 -4.4947
# 3 30.4429 25.9063 95.7502 -0.6368 16.9732 -7.5906
# 4 -4.4133 -7.9784 -0.6368 29.8179 0.4576 5.6017
# 5 15.4878 -0.4486 16.9732 0.4576 48.3895 -6.5972
# 6 -14.7255 -4.4947 -7.5906 5.6017 -6.5972 34.2976
#
#
#
# Elastic Compliance Matrix: (Units=1/GPa)
#
#
# Indices 1 2 3 4 5 6 
#
# 1 0.008577 -0.002158 -0.001605 0.000186 -0.001842 0.002660
# 2 -0.002158 0.012793 -0.003089 0.003022 0.001855 -0.000071
# 3 -0.001605 -0.003089 0.012537 -0.000948 -0.003752 0.001114
# 4 0.000186 0.003022 -0.000948 0.035432 -0.000808 -0.005676
# 5 -0.001842 0.001855 -0.003752 -0.000808 0.023030 0.003184
# 6 0.002660 -0.000071 0.001114 -0.005676 0.003184 0.032075
#
#
# Mechanical properties :
#
#
# Convention : Reuss Voigt Hill
#
# Bulk Modulus (GPa) = 49.49737 55.10502 52.30119
# Shear Modulus (GPa) = 34.51073 38.43728 36.47401
#
# Velocity S-wave (km/s) = 3.97426 4.19426 4.08574
# Velocity P-wave (km/s) = 6.61162 6.97683 6.79668
#
# Compressibility (1/GPa) = 0.02020309
#
# Stress axis : x y z
#
# Youngs Moduli (GPa) = 116.58697 78.16889 79.76412
#
# Poissons Ratio (x) = 0.16868 0.12800
# Poissons Ratio (y) = 0.25158 0.24643
# Poissons Ratio (z) = 0.18708 0.24150
#
# Static dielectric constant tensor:
#      x y z
#    x 4.320860 -0.004510 0.204670 
#    y -0.004510 3.896310 0.053820 
#    z 0.204670 0.053820 4.122550 
# 
# 
# High freq. dielectric constant tensor:
#      x y z
#    x 1.886190 0.001670 0.008520 
#    y 0.001670 1.852870 -0.005620 
#    z 0.008520 -0.005620 1.861950 
# 
# From -- ./inp_files/346080.got.cif
#   From: 2010.06.25/outbox.cif.g09.slc.cpg/sg2_174_cif.got.tgz:346080.got - 2010.06.27 13:26:56.
