data_PCOD8030473
_publ_section_title
;
Structure prediction by ZEFSAII (Michael W. Deem and Ramdas Pophale) SiO2 
 PCOD8030473
Probable space group: P -1
;
_chemical_formula_sum "Si O2"
_cell_formula_units_Z 14
_cell_length_a 15.337876
_cell_length_b 9.339909
_cell_length_c 8.994046
_cell_angle_alpha 129.085595
_cell_angle_beta 37.889483
_cell_angle_gamma 130.022159
_cell_volume 584.882592
_symmetry_space_group_name_H-M "P -1"
_symmetry_group_IT_number 2
_symmetry_cell_setting 'triclinic'
loop_
_space_group_symop_operation_xyz
x,y,z
-x,-y,-z
loop_
_atom_site_type_symbol
_atom_site_label
_atom_site_fract_x
_atom_site_fract_y
_atom_site_fract_z
Si Si1 0.711226 0.439682 0.992213
Si Si2 0.277915 0.870065 0.018589
Si Si3 0.965761 0.787817 0.978123
Si Si4 0.783102 0.852979 0.527180
Si Si5 0.389534 0.948938 0.298613
Si Si6 0.436335 0.490872 0.246626
Si Si7 0.278601 0.808435 0.650912
O O1 0.853101 0.632255 0.919258
O O2 0.705966 0.269615 0.767775
O O3 0.724879 0.348934 0.078369
O O4 0.565872 0.508319 0.205844
O O5 0.256630 0.907325 0.899659
O O6 0.438755 0.009492 0.952424
O O7 0.158776 0.943827 0.323825
O O8 0.114308 0.721940 0.743781
O O9 0.909075 0.791383 0.227678
O O10 0.000000 0.000000 0.000000
O O11 0.700064 0.700210 0.663718
O O12 0.672474 0.882722 0.566929
O O13 0.380372 0.962108 0.498808
O O14 0.364233 0.658685 0.478873
O O15 0.500000 0.500000 0.000000
#
# Coordination Sequence:
#
# PCOD8030473 Si02
#       7
#     2   2   2   2   2   2   2
#     4  11  24  46  75 103 145 192 236 302 373 421
#     4  11  23  44  77 111 142 185 246 311 366 415
#     4  12  29  49  70 105 149 205 244 286 366 445
#     4  11  23  46  75 101 149 189 244 295 363 438
#     4  11  21  47  74 111 139 186 246 303 364 428
#     4  12  24  45  76 117 140 182 249 309 360 424
#     4  12  27  44  71 110 154 188 244 301 353 438
#
# _framework density 23.936427999999999
#
# number of rings (size 3 to 8) (size 9 to 14) (size 15 to 20)
#    0.000    0.571    5.714    2.143    2.000    6.857 
#    0.000    0.000    0.000    0.000    0.000    0.000 
#    0.000    0.000    0.000    0.000    0.000    0.000 
#
# Total GULP energy -173491.640778 kJ/mol
# GULP energy per Si atom -12392.260056 kJ/mol
# Density = 2.388195 g / cm^3
# Si number density = 23.936428 Si / 1000 Ang^3
#
#
#
# Elastic Constant Matrix: (Units=GPa)
#
#
# Indices 1 2 3 4 5 6 
#
# 1 47.8270 20.1105 2.9111 8.1049 3.1726 -10.0221
# 2 20.1105 117.1046 13.4393 -11.6607 6.4991 -4.5323
# 3 2.9111 13.4393 77.1768 -1.2313 -5.3647 -9.7531
# 4 8.1049 -11.6607 -1.2313 21.4374 -0.8671 5.7629
# 5 3.1726 6.4991 -5.3647 -0.8671 41.4266 -8.1279
# 6 -10.0221 -4.5323 -9.7531 5.7629 -8.1279 45.9484
#
#
#
# Elastic Compliance Matrix: (Units=1/GPa)
#
#
# Indices 1 2 3 4 5 6 
#
# 1 0.027702 -0.006127 0.000736 -0.015801 0.000094 0.007593
# 2 -0.006127 0.010665 -0.001864 0.008491 -0.001668 -0.002040
# 3 0.000736 -0.001864 0.013872 -0.001345 0.002704 0.003568
# 4 -0.015801 0.008491 -0.001345 0.059971 -0.001124 -0.010615
# 5 0.000094 -0.001668 0.002704 -0.001124 0.025725 0.005121
# 6 0.007593 -0.002040 0.003568 -0.010615 0.005121 0.026213
#
#
# Mechanical properties :
#
#
# Convention : Reuss Voigt Hill
#
# Bulk Modulus (GPa) = 26.50508 35.00338 30.75423
# Shear Modulus (GPa) = 26.14603 35.47232 30.80917
#
# Velocity S-wave (km/s) = 3.30860 3.85377 3.59154
# Velocity P-wave (km/s) = 5.06882 5.87003 5.48408
#
# Compressibility (1/GPa) = 0.03772862
#
# Stress axis : x y z
#
# Youngs Moduli (GPa) = 36.09785 93.76864 72.08986
#
# Poissons Ratio (x) = 0.57448 -0.05305
# Poissons Ratio (y) = 0.22116 0.13439
# Poissons Ratio (z) = -0.02656 0.17481
#
# Static dielectric constant tensor:
#      x y z
#    x 4.415850 -0.323770 -0.015150 
#    y -0.323770 4.269410 -0.090430 
#    z -0.015150 -0.090430 4.384290 
# 
# 
# High freq. dielectric constant tensor:
#      x y z
#    x 1.948840 -0.023050 0.006080 
#    y -0.023050 1.937690 0.001290 
#    z 0.006080 0.001290 1.953320 
# 
# From -- ./inp_files/199128.got.cif
#   From: 2010.06.25/outbox.cif.g09.slc.cpg/sg2_100_cif.got.tgz:199128.got - 2010.06.27 13:26:56.
