data_PCOD8030809
_publ_section_title
;
Structure prediction by ZEFSAII (Michael W. Deem and Ramdas Pophale) SiO2 
 PCOD8030809
Probable space group: P -1
;
_chemical_formula_sum "Si O2"
_cell_formula_units_Z 14
_cell_length_a 23.663870
_cell_length_b 16.411631
_cell_length_c 5.128404
_cell_angle_alpha 55.206327
_cell_angle_beta 68.041646
_cell_angle_gamma 24.227476
_cell_volume 604.507071
_symmetry_space_group_name_H-M "P -1"
_symmetry_group_IT_number 2
_symmetry_cell_setting 'triclinic'
loop_
_space_group_symop_operation_xyz
x,y,z
-x,-y,-z
loop_
_atom_site_type_symbol
_atom_site_label
_atom_site_fract_x
_atom_site_fract_y
_atom_site_fract_z
Si Si1 0.178849 0.012812 0.381898
Si Si2 0.309743 0.612239 0.783152
Si Si3 0.839808 0.474109 0.124285
Si Si4 0.087072 0.300195 0.412903
Si Si5 0.170665 0.730458 0.304216
Si Si6 0.788143 0.668640 0.383946
Si Si7 0.346367 0.943569 0.946213
O O1 0.292434 0.749661 0.668917
O O2 0.152396 0.098330 0.556191
O O3 0.015406 0.215856 0.197336
O O4 0.254830 0.984576 0.129891
O O5 0.204070 0.752847 0.452274
O O6 0.277478 0.589121 0.126857
O O7 0.483462 0.337533 0.903241
O O8 0.795047 0.429376 0.353785
O O9 0.802408 0.597341 0.210223
O O10 0.741565 0.659221 0.706534
O O11 0.236899 0.137863 0.538726
O O12 0.954558 0.468843 0.543172
O O13 0.000000 0.500000 0.000000
O O14 0.000000 0.000000 0.000000
O O15 0.660568 0.946967 0.063347
#
# Coordination Sequence:
#
# PCOD8030809 Si02
#       7
#     2   2   2   2   2   2   2
#     4  11  24  41  70 105 144 184 229 286 354 425
#     4  12  30  45  73 106 141 193 224 295 363 408
#     4  11  24  43  76 102 128 181 251 292 333 398
#     4  11  22  40  69 103 147 188 230 275 341 422
#     4  12  27  52  74  99 138 183 254 293 336 414
#     4  11  23  41  70 109 135 185 228 286 347 412
#     4  12  25  44  67 106 159 174 228 283 364 435
#
# _framework density 23.159365000000001
#
# number of rings (size 3 to 8) (size 9 to 14) (size 15 to 20)
#    0.000    0.571    4.286    3.857    6.000    0.571 
#    0.000    4.286    0.000    0.000    0.000    0.000 
#    0.000    0.000    0.000    0.000    0.000    0.000 
#
# Total GULP energy -173495.464899 kJ/mol
# GULP energy per Si atom -12392.533207 kJ/mol
# Density = 2.310665 g / cm^3
# Si number density = 23.159365 Si / 1000 Ang^3
#
#
#
# Elastic Constant Matrix: (Units=GPa)
#
#
# Indices 1 2 3 4 5 6 
#
# 1 71.0843 47.0633 47.8526 -10.1628 -19.3950 8.7211
# 2 47.0633 140.6810 66.5837 -15.6938 -20.1783 20.3132
# 3 47.8526 66.5837 122.7949 7.0761 -18.1723 6.9800
# 4 -10.1628 -15.6938 7.0761 47.2262 6.0843 -9.0815
# 5 -19.3950 -20.1783 -18.1723 6.0843 40.3457 -2.0911
# 6 8.7211 20.3132 6.9800 -9.0815 -2.0911 28.2317
#
#
#
# Elastic Compliance Matrix: (Units=1/GPa)
#
#
# Indices 1 2 3 4 5 6 
#
# 1 0.022796 -0.003066 -0.006485 0.003802 0.005849 -0.001576
# 2 -0.003066 0.011677 -0.004766 0.002720 0.001535 -0.005287
# 3 -0.006485 -0.004766 0.013743 -0.005135 0.001489 0.000493
# 4 0.003802 0.002720 -0.005135 0.025163 -0.002607 0.006040
# 5 0.005849 0.001535 0.001489 -0.002607 0.029329 -0.001946
# 6 -0.001576 -0.005287 0.000493 0.006040 -0.001946 0.041390
#
#
# Mechanical properties :
#
#
# Convention : Reuss Voigt Hill
#
# Bulk Modulus (GPa) = 51.06553 73.06214 62.06384
# Shear Modulus (GPa) = 27.89271 34.69807 31.29539
#
# Velocity S-wave (km/s) = 3.47418 3.87490 3.68000
# Velocity P-wave (km/s) = 6.17987 7.18581 6.70174
#
# Compressibility (1/GPa) = 0.01958268
#
# Stress axis : x y z
#
# Youngs Moduli (GPa) = 43.86704 85.64052 72.76374
#
# Poissons Ratio (x) = 0.26261 0.47185
# Poissons Ratio (y) = 0.13451 0.34676
# Poissons Ratio (z) = 0.28446 0.40812
#
# Static dielectric constant tensor:
#      x y z
#    x 4.542530 0.030850 -0.248430 
#    y 0.030850 4.299330 0.183560 
#    z -0.248430 0.183560 4.170820 
# 
# 
# High freq. dielectric constant tensor:
#      x y z
#    x 1.908850 0.019710 -0.019930 
#    y 0.019710 1.919240 0.009690 
#    z -0.019930 0.009690 1.916840 
# 
# From -- ./inp_files/127368.got.cif
#   From: 2010.06.25/outbox.cif.g09.slc.cpg/sg2_64_cif.got.tgz:127368.got - 2010.06.27 13:26:56.
