data_PCOD8030718
_publ_section_title
;
Structure prediction by ZEFSAII (Michael W. Deem and Ramdas Pophale) SiO2 
 PCOD8030718
Probable space group: P -1
;
_chemical_formula_sum "Si O2"
_cell_formula_units_Z 16
_cell_length_a 15.156886
_cell_length_b 12.735668
_cell_length_c 17.782347
_cell_angle_alpha 44.385277
_cell_angle_beta 28.371894
_cell_angle_gamma 26.484335
_cell_volume 683.025394
_symmetry_space_group_name_H-M "P -1"
_symmetry_group_IT_number 2
_symmetry_cell_setting 'triclinic'
loop_
_space_group_symop_operation_xyz
x,y,z
-x,-y,-z
loop_
_atom_site_type_symbol
_atom_site_label
_atom_site_fract_x
_atom_site_fract_y
_atom_site_fract_z
Si Si1 0.327392 0.651948 0.627348
Si Si2 0.606371 0.786591 0.810025
Si Si3 0.163539 0.260457 0.584585
Si Si4 0.753447 0.223013 0.976178
Si Si5 0.190835 0.074586 0.508842
Si Si6 0.601474 0.218479 0.254955
Si Si7 0.597811 0.067382 0.947613
Si Si8 0.423052 0.607786 0.275823
O O1 0.500000 0.500000 0.500000
O O2 0.517835 0.432817 0.658618
O O3 0.370689 0.803313 0.531361
O O4 0.968113 0.832853 0.802952
O O5 0.596730 0.939065 0.685363
O O6 0.885357 0.487730 0.733554
O O7 0.283602 0.905070 0.978883
O O8 0.598907 0.834816 0.878561
O O9 0.061307 0.221669 0.610656
O O10 0.268630 0.357322 0.423738
O O11 0.500000 0.000000 0.500000
O O12 0.500000 0.500000 0.000000
O O13 0.706936 0.213051 0.100946
O O14 0.101243 0.074548 0.784101
O O15 0.928219 0.202852 0.580041
O O16 0.629120 0.340465 0.226614
O O17 0.477269 0.299224 0.882201
O O18 0.500000 0.000000 0.000000
#
# Coordination Sequence:
#
# PCOD8030718 Si02
#       8
#     2   2   2   2   2   2   2   2
#     4  11  28  52  78 106 140 198 249 304 372 440
#     4  12  24  46  71 106 152 191 240 307 365 429
#     4  12  24  42  72 110 148 193 246 293 355 447
#     4  11  23  40  63  96 147 187 231 286 359 423
#     4  11  25  45  76 109 149 191 247 302 369 431
#     4  11  22  40  63 100 137 189 231 283 355 428
#     4  11  29  49  75 110 145 190 245 310 375 429
#     4  11  24  48  72 100 147 184 244 297 365 440
#
# _framework density 23.425190000000001
#
# number of rings (size 3 to 8) (size 9 to 14) (size 15 to 20)
#    0.000    0.750    2.500    4.125    3.500    5.500 
#    4.500    0.000    0.000    0.000    0.000    0.000 
#    0.000    0.000    0.000    0.000    0.000    0.000 
#
# Total GULP energy -198263.379266 kJ/mol
# GULP energy per Si atom -12391.461204 kJ/mol
# Density = 2.337187 g / cm^3
# Si number density = 23.425190 Si / 1000 Ang^3
#
#
#
# Elastic Constant Matrix: (Units=GPa)
#
#
# Indices 1 2 3 4 5 6 
#
# 1 156.1634 43.2031 37.5421 -3.4946 9.5872 12.9694
# 2 43.2031 98.6065 20.9718 -2.9957 -1.9314 2.5201
# 3 37.5421 20.9718 132.4519 2.2444 0.9560 6.5441
# 4 -3.4946 -2.9957 2.2444 36.1441 6.1762 0.4186
# 5 9.5872 -1.9314 0.9560 6.1762 56.1080 -3.2779
# 6 12.9694 2.5201 6.5441 0.4186 -3.2779 50.0780
#
#
#
# Elastic Compliance Matrix: (Units=1/GPa)
#
#
# Indices 1 2 3 4 5 6 
#
# 1 0.007927 -0.003075 -0.001675 0.000916 -0.001637 -0.001794
# 2 -0.003075 0.011731 -0.001022 0.000579 0.000906 0.000394
# 3 -0.001675 -0.001022 0.008227 -0.000779 0.000163 -0.000573
# 4 0.000916 0.000579 -0.000779 0.028421 -0.003288 -0.000617
# 5 -0.001637 0.000906 0.000163 -0.003288 0.018586 0.001601
# 6 -0.001794 0.000394 -0.000573 -0.000617 0.001601 0.020599
#
#
# Mechanical properties :
#
#
# Convention : Reuss Voigt Hill
#
# Bulk Modulus (GPa) = 61.19475 65.62842 63.41158
# Shear Modulus (GPa) = 44.45166 47.49967 45.97567
#
# Velocity S-wave (km/s) = 4.36087 4.50790 4.43500
# Velocity P-wave (km/s) = 7.17889 7.42778 7.30440
#
# Compressibility (1/GPa) = 0.01634127
#
# Stress axis : x y z
#
# Youngs Moduli (GPa) = 126.15059 85.24236 121.55484
#
# Poissons Ratio (x) = 0.26214 0.20360
# Poissons Ratio (y) = 0.38795 0.12418
# Poissons Ratio (z) = 0.21130 0.08709
#
# Static dielectric constant tensor:
#      x y z
#    x 6.854660 -1.499680 -1.055010 
#    y -1.499680 5.613500 -0.021240 
#    z -1.055010 -0.021240 5.172140 
# 
# 
# High freq. dielectric constant tensor:
#      x y z
#    x 1.935780 -0.012310 -0.004070 
#    y -0.012310 1.941820 -0.018670 
#    z -0.004070 -0.018670 1.940340 
# 
# From -- ./inp_files/573586.got.cif
#   From: 2010.06.25/outbox.cif.g09.slc.cpg/sg2_287_cif.got.tgz:573586.got - 2010.06.27 13:26:56.
