data_PCOD8030580
_publ_section_title
;
Structure prediction by ZEFSAII (Michael W. Deem and Ramdas Pophale) SiO2 
 PCOD8030580
Probable space group: P -1
;
_chemical_formula_sum "Si O2"
_cell_formula_units_Z 16
_cell_length_a 11.820489
_cell_length_b 17.521656
_cell_length_c 11.720940
_cell_angle_alpha 118.049670
_cell_angle_beta 59.165902
_cell_angle_gamma 158.359554
_cell_volume 768.558709
_symmetry_space_group_name_H-M "P -1"
_symmetry_group_IT_number 2
_symmetry_cell_setting 'triclinic'
loop_
_space_group_symop_operation_xyz
x,y,z
-x,-y,-z
loop_
_atom_site_type_symbol
_atom_site_label
_atom_site_fract_x
_atom_site_fract_y
_atom_site_fract_z
Si Si1 0.072974 0.122937 0.472627
Si Si2 0.869970 0.766531 0.786778
Si Si3 0.856782 0.156068 0.697366
Si Si4 0.829825 0.693848 0.117028
Si Si5 0.817105 0.474527 0.615304
Si Si6 0.174835 0.816777 0.820791
Si Si7 0.867158 0.919179 0.221151
Si Si8 0.744438 0.566590 0.516147
O O1 0.385714 0.361376 0.515804
O O2 0.796428 0.029346 0.571986
O O3 0.000000 0.000000 0.500000
O O4 0.109981 0.100708 0.316049
O O5 0.538788 0.551662 0.871419
O O6 0.846570 0.717659 0.632458
O O7 0.136022 0.871209 0.789509
O O8 0.990529 0.938654 0.857810
O O9 0.049253 0.249328 0.778374
O O10 0.045623 0.328835 0.630465
O O11 0.540687 0.017241 0.795579
O O12 0.875463 0.820369 0.137607
O O13 0.019214 0.744515 0.971691
O O14 0.477073 0.250855 0.686853
O O15 0.773337 0.508157 0.551537
O O16 0.000000 0.500000 0.500000
O O17 0.016536 0.636896 0.726341
#
# Coordination Sequence:
#
# PCOD8030580 Si02
#       8
#     2   2   2   2   2   2   2   2
#     4  12  19  37  63  97 127 164 216 270 326 381
#     4  11  23  43  69  99 129 173 226 272 326 389
#     4  12  23  40  68  97 130 172 218 271 335 387
#     4  12  24  49  64  95 135 178 230 259 327 403
#     4  11  24  41  62 100 134 170 216 273 339 389
#     4  11  27  44  66  91 141 180 207 280 330 388
#     4  12  23  38  71  97 126 178 224 269 324 394
#     4  11  22  38  66 101 133 165 217 281 331 386
#
# _framework density 20.818187999999999
#
# number of rings (size 3 to 8) (size 9 to 14) (size 15 to 20)
#    0.000    0.500    7.500    2.625    1.750    1.500 
#    0.000    0.000    0.000    3.000    0.000    0.000 
#    0.000    0.000    0.000    0.000    0.000    0.000 
#
# Total GULP energy -198279.565683 kJ/mol
# GULP energy per Si atom -12392.472855 kJ/mol
# Density = 2.077081 g / cm^3
# Si number density = 20.818188 Si / 1000 Ang^3
#
#
#
# Elastic Constant Matrix: (Units=GPa)
#
#
# Indices 1 2 3 4 5 6 
#
# 1 66.2967 59.1598 14.1224 -7.1726 -20.5492 -11.5331
# 2 59.1598 109.1721 27.3945 -13.0770 -14.7096 -19.6802
# 3 14.1224 27.3945 99.7588 -13.6201 -20.5616 -4.4479
# 4 -7.1726 -13.0770 -13.6201 26.4605 7.3533 -3.7432
# 5 -20.5492 -14.7096 -20.5616 7.3533 26.1485 -2.7361
# 6 -11.5331 -19.6802 -4.4479 -3.7432 -2.7361 41.9436
#
#
#
# Elastic Compliance Matrix: (Units=1/GPa)
#
#
# Indices 1 2 3 4 5 6 
#
# 1 0.038414 -0.018241 0.004450 -0.002592 0.024557 0.003846
# 2 -0.018241 0.020485 -0.003430 0.005891 -0.006713 0.004320
# 3 0.004450 -0.003430 0.013211 0.003493 0.011189 0.002057
# 4 -0.002592 0.005891 0.003493 0.044849 -0.007971 0.005904
# 5 0.024557 -0.006713 0.011189 -0.007971 0.065681 0.008362
# 6 0.003846 0.004320 0.002057 0.005904 0.008362 0.028217
#
#
# Mechanical properties :
#
#
# Convention : Reuss Voigt Hill
#
# Bulk Modulus (GPa) = 26.54750 52.95348 39.75049
# Shear Modulus (GPa) = 19.39084 30.54723 24.96904
#
# Velocity S-wave (km/s) = 3.05526 3.83474 3.46697
# Velocity P-wave (km/s) = 5.02254 6.71553 5.92976
#
# Compressibility (1/GPa) = 0.03766833
#
# Stress axis : x y z
#
# Youngs Moduli (GPa) = 26.03242 48.81575 75.69536
#
# Poissons Ratio (x) = 0.89046 -0.33687
# Poissons Ratio (y) = 0.47486 0.25962
# Poissons Ratio (z) = -0.11585 0.16743
#
# Static dielectric constant tensor:
#      x y z
#    x 3.795610 -0.037420 0.048640 
#    y -0.037420 3.735190 0.060980 
#    z 0.048640 0.060980 3.772050 
# 
# 
# High freq. dielectric constant tensor:
#      x y z
#    x 1.825780 -0.009730 0.010940 
#    y -0.009730 1.814370 0.001120 
#    z 0.010940 0.001120 1.814330 
# 
# From -- ./inp_files/333876.got.cif
#   From: 2010.06.25/outbox.cif.g09.slc.cpg/sg2_167_cif.got.tgz:333876.got - 2010.06.27 13:26:56.
