data_PCOD8030288
_publ_section_title
;
Structure prediction by ZEFSAII (Michael W. Deem and Ramdas Pophale) SiO2 
 PCOD8030288
Probable space group: P -1
;
_chemical_formula_sum "Si O2"
_cell_formula_units_Z 16
_cell_length_a 9.196755
_cell_length_b 27.122016
_cell_length_c 15.137370
_cell_angle_alpha 159.763438
_cell_angle_beta 46.571023
_cell_angle_gamma 142.805613
_cell_volume 756.365019
_symmetry_space_group_name_H-M "P -1"
_symmetry_group_IT_number 2
_symmetry_cell_setting 'triclinic'
loop_
_space_group_symop_operation_xyz
x,y,z
-x,-y,-z
loop_
_atom_site_type_symbol
_atom_site_label
_atom_site_fract_x
_atom_site_fract_y
_atom_site_fract_z
Si Si1 0.505355 0.384832 0.727757
Si Si2 0.392224 0.719793 0.189730
Si Si3 0.608674 0.912202 0.609446
Si Si4 0.230527 0.505432 0.378170
Si Si5 0.403481 0.130956 0.074018
Si Si6 0.873477 0.853984 0.129031
Si Si7 0.907595 0.683494 0.328211
Si Si8 0.065210 0.035816 0.910655
O O1 0.539102 0.240261 0.509855
O O2 0.728535 0.497572 0.750584
O O3 0.222880 0.279101 0.630535
O O4 0.500000 0.500000 0.000000
O O5 0.494536 0.807317 0.389786
O O6 0.626419 0.841760 0.231911
O O7 0.158188 0.710288 0.235394
O O8 0.302337 0.516387 0.884878
O O9 0.905710 0.010536 0.666066
O O10 0.582904 0.071098 0.895407
O O11 0.480280 0.691673 0.619544
O O12 0.000000 0.500000 0.500000
O O13 0.199936 0.341456 0.160674
O O14 0.338259 0.166509 0.063397
O O15 0.146441 0.968048 0.954259
O O16 0.941911 0.911615 0.096748
O O17 0.000287 0.839455 0.621918
#
# Coordination Sequence:
#
# PCOD8030288 Si02
#       8
#     2   2   2   2   2   2   2   2
#     4  12  24  45  70  99 131 177 225 267 325 401
#     4  11  24  41  65  97 132 172 220 275 329 390
#     4  12  23  40  69  97 127 175 224 263 329 396
#     4  12  25  44  66  98 140 170 212 279 335 382
#     4  11  24  45  66  92 130 173 222 264 325 402
#     4  12  24  42  65  96 132 168 220 279 331 381
#     4  11  21  44  65  92 130 177 215 269 325 389
#     4  11  24  43  68  93 127 174 220 269 323 396
#
# _framework density 21.153808000000001
#
# number of rings (size 3 to 8) (size 9 to 14) (size 15 to 20)
#    0.000    0.500    7.500    0.375    1.750    2.000 
#    2.250    0.000    0.000    0.000    0.000    0.000 
#    0.000    0.000    0.000    0.000    0.000    0.000 
#
# Total GULP energy -198264.782166 kJ/mol
# GULP energy per Si atom -12391.548885 kJ/mol
# Density = 2.110566 g / cm^3
# Si number density = 21.153808 Si / 1000 Ang^3
#
#
#
# Elastic Constant Matrix: (Units=GPa)
#
#
# Indices 1 2 3 4 5 6 
#
# 1 91.1806 43.8152 13.6326 -0.7109 6.7049 -2.6794
# 2 43.8152 109.6352 26.5182 -7.9112 5.0231 4.3638
# 3 13.6326 26.5182 83.0564 2.1577 3.2206 -16.2685
# 4 -0.7109 -7.9112 2.1577 25.5780 -2.3645 1.3259
# 5 6.7049 5.0231 3.2206 -2.3645 30.8712 -0.7276
# 6 -2.6794 4.3638 -16.2685 1.3259 -0.7276 32.2346
#
#
#
# Elastic Compliance Matrix: (Units=1/GPa)
#
#
# Indices 1 2 3 4 5 6 
#
# 1 0.013885 -0.005657 0.000039 -0.001670 -0.002181 0.001959
# 2 -0.005657 0.012899 -0.004180 0.004400 -0.000203 -0.004512
# 3 0.000039 -0.004180 0.015111 -0.003084 -0.000945 0.008301
# 4 -0.001670 0.004400 -0.003084 0.041154 0.003028 -0.003916
# 5 -0.002181 -0.000203 -0.000945 0.003028 0.033230 -0.000005
# 6 0.001959 -0.004512 0.008301 -0.003916 -0.000005 0.036147
#
#
# Mechanical properties :
#
#
# Convention : Reuss Voigt Hill
#
# Bulk Modulus (GPa) = 44.84584 50.20046 47.52315
# Shear Modulus (GPa) = 27.86216 31.06382 29.46299
#
# Velocity S-wave (km/s) = 3.63316 3.83622 3.73607
# Velocity P-wave (km/s) = 6.23263 6.58824 6.41290
#
# Compressibility (1/GPa) = 0.02229861
#
# Stress axis : x y z
#
# Youngs Moduli (GPa) = 72.02178 77.52281 66.17688
#
# Poissons Ratio (x) = 0.43854 -0.00257
# Poissons Ratio (y) = 0.40742 0.27663
# Poissons Ratio (z) = -0.00280 0.32406
#
# Static dielectric constant tensor:
#      x y z
#    x 4.002600 0.190890 0.102190 
#    y 0.190890 3.833160 0.011400 
#    z 0.102190 0.011400 4.056050 
# 
# 
# High freq. dielectric constant tensor:
#      x y z
#    x 1.835400 0.014500 0.003560 
#    y 0.014500 1.817940 -0.001810 
#    z 0.003560 -0.001810 1.842180 
# 
# From -- ./inp_files/224101.got.cif
#   From: 2010.06.25/outbox.cif.g09.slc.cpg/sg2_113_cif.got.tgz:224101.got - 2010.06.27 13:26:56.
