data_PCOD8030358
_publ_section_title
;
Structure prediction by ZEFSAII (Michael W. Deem and Ramdas Pophale) SiO2 
 PCOD8030358
Probable space group: P -1
;
_chemical_formula_sum "Si O2"
_cell_formula_units_Z 16
_cell_length_a 9.481695
_cell_length_b 8.372750
_cell_length_c 13.629747
_cell_angle_alpha 137.921572
_cell_angle_beta 76.681471
_cell_angle_gamma 101.519502
_cell_volume 704.936543
_symmetry_space_group_name_H-M "P -1"
_symmetry_group_IT_number 2
_symmetry_cell_setting 'triclinic'
loop_
_space_group_symop_operation_xyz
x,y,z
-x,-y,-z
loop_
_atom_site_type_symbol
_atom_site_label
_atom_site_fract_x
_atom_site_fract_y
_atom_site_fract_z
Si Si1 0.687667 0.013765 0.366750
Si Si2 0.959362 0.009100 0.180438
Si Si3 0.564244 0.515272 0.603864
Si Si4 0.492587 0.779339 0.146369
Si Si5 0.770721 0.916406 0.693991
Si Si6 0.862744 0.823655 0.427023
Si Si7 0.392877 0.885816 0.886237
Si Si8 0.076902 0.701634 0.865201
O O1 0.555588 0.836535 0.270921
O O2 0.745871 0.929023 0.421880
O O3 0.624570 0.269279 0.517155
O O4 0.807980 0.024754 0.267226
O O5 0.078454 0.004561 0.244639
O O6 0.980339 0.233463 0.204872
O O7 0.967481 0.773151 0.002523
O O8 0.500000 0.500000 0.500000
O O9 0.691742 0.719602 0.685578
O O10 0.435338 0.611211 0.735543
O O11 0.325732 0.851820 0.197562
O O12 0.593974 0.942891 0.132350
O O13 0.500000 0.500000 0.000000
O O14 0.789762 0.786032 0.527234
O O15 0.912217 0.579800 0.260236
O O16 0.000000 0.000000 0.500000
O O17 0.226442 0.857896 0.934781
O O18 0.500000 0.000000 0.000000
#
# Coordination Sequence:
#
# PCOD8030358 Si02
#       8
#     2   2   2   2   2   2   2   2
#     4  12  25  45  71 100 139 186 226 290 351 397
#     4  11  24  46  73  97 135 183 235 280 340 410
#     4  11  21  44  72  96 134 177 232 282 331 412
#     4  11  26  45  69 103 141 178 227 285 353 410
#     4  11  24  45  70 100 136 181 229 284 343 408
#     4  12  28  44  64 104 142 179 230 283 351 407
#     4  11  23  44  71 102 133 177 233 286 337 405
#     4  11  25  45  71 100 136 184 234 279 343 420
#
# _framework density 22.697075999999999
#
# number of rings (size 3 to 8) (size 9 to 14) (size 15 to 20)
#    0.000    0.750    5.000    3.000    5.250    4.000 
#    0.000    0.000    0.000    0.000    0.000    0.000 
#    0.000    0.000    0.000    0.000    0.000    0.000 
#
# Total GULP energy -198405.505984 kJ/mol
# GULP energy per Si atom -12400.344124 kJ/mol
# Density = 2.264542 g / cm^3
# Si number density = 22.697076 Si / 1000 Ang^3
#
#
#
# Elastic Constant Matrix: (Units=GPa)
#
#
# Indices 1 2 3 4 5 6 
#
# 1 107.1368 25.4569 26.9943 14.8169 13.8902 -31.3852
# 2 25.4569 70.8821 38.4408 14.5299 4.2662 -29.7772
# 3 26.9943 38.4408 132.4362 30.4284 -3.9065 -18.7234
# 4 14.8169 14.5299 30.4284 52.4416 -4.1172 -2.0215
# 5 13.8902 4.2662 -3.9065 -4.1172 37.7827 -7.3318
# 6 -31.3852 -29.7772 -18.7234 -2.0215 -7.3318 45.3438
#
#
#
# Elastic Compliance Matrix: (Units=1/GPa)
#
#
# Indices 1 2 3 4 5 6 
#
# 1 0.012708 0.000009 -0.000908 -0.003052 -0.003604 0.007708
# 2 0.000009 0.022363 -0.003904 -0.003506 -0.000832 0.012789
# 3 -0.000908 -0.003904 0.010054 -0.004336 0.001539 0.001015
# 4 -0.003052 -0.003506 -0.004336 0.023449 0.002709 -0.004722
# 5 -0.003604 -0.000832 0.001539 0.002709 0.028800 0.002372
# 6 0.007708 0.012789 0.001015 -0.004722 0.002372 0.036380
#
#
# Mechanical properties :
#
#
# Convention : Reuss Voigt Hill
#
# Bulk Modulus (GPa) = 28.15364 54.69324 41.42344
# Shear Modulus (GPa) = 32.21647 41.75115 36.98381
#
# Velocity S-wave (km/s) = 3.77159 4.29359 4.04103
# Velocity P-wave (km/s) = 5.60335 6.98063 6.32956
#
# Compressibility (1/GPa) = 0.03551938
#
# Stress axis : x y z
#
# Youngs Moduli (GPa) = 78.69143 44.71598 99.46245
#
# Poissons Ratio (x) = -0.00041 0.09034
# Poissons Ratio (y) = -0.00073 0.38830
# Poissons Ratio (z) = 0.07147 0.17457
#
# Static dielectric constant tensor:
#      x y z
#    x 4.274500 -0.169290 -0.269430 
#    y -0.169290 3.722640 -0.739330 
#    z -0.269430 -0.739330 3.448130 
# 
# 
# High freq. dielectric constant tensor:
#      x y z
#    x 1.908330 -0.015430 -0.005610 
#    y -0.015430 1.880810 -0.004620 
#    z -0.005610 -0.004620 1.908980 
# 
# From -- ./inp_files/209350.got.cif
#   From: 2010.06.25/outbox.cif.g09.slc.cpg/sg2_105_cif.got.tgz:209350.got - 2010.06.27 13:26:56.
