data_PCOD8030914
_publ_section_title
;
Structure prediction by ZEFSAII (Michael W. Deem and Ramdas Pophale) SiO2 
 PCOD8030914
Probable space group: P -1
;
_chemical_formula_sum "Si O2"
_cell_formula_units_Z 16
_cell_length_a 22.554681
_cell_length_b 6.609535
_cell_length_c 8.927046
_cell_angle_alpha 77.120520
_cell_angle_beta 49.715021
_cell_angle_gamma 52.132865
_cell_volume 767.247734
_symmetry_space_group_name_H-M "P -1"
_symmetry_group_IT_number 2
_symmetry_cell_setting 'triclinic'
loop_
_space_group_symop_operation_xyz
x,y,z
-x,-y,-z
loop_
_atom_site_type_symbol
_atom_site_label
_atom_site_fract_x
_atom_site_fract_y
_atom_site_fract_z
Si Si1 0.587304 0.320414 0.504071
Si Si2 0.595217 0.948213 0.781171
Si Si3 0.973948 0.512033 0.869859
Si Si4 0.069896 0.730330 0.521489
Si Si5 0.743151 0.827801 0.138734
Si Si6 0.244602 0.163588 0.223884
Si Si7 0.853864 0.057405 0.428598
Si Si8 0.688021 0.521951 0.446730
O O1 0.500000 0.500000 0.500000
O O2 0.601885 0.514072 0.531380
O O3 0.557485 0.197792 0.695099
O O4 0.688247 0.087915 0.289793
O O5 0.666406 0.916729 0.799610
O O6 0.655569 0.678405 0.630622
O O7 0.500000 0.000000 0.000000
O O8 0.996263 0.685186 0.718166
O O9 0.039660 0.213498 0.747986
O O10 0.859891 0.644822 0.011724
O O11 0.000000 0.500000 0.000000
O O12 0.152496 0.481007 0.323539
O O13 0.128976 0.754771 0.547637
O O14 0.000000 0.000000 0.500000
O O15 0.705791 0.660730 0.266307
O O16 0.715282 0.918087 0.997158
O O17 0.206651 0.000812 0.359469
O O18 0.788747 0.218800 0.361102
#
# Coordination Sequence:
#
# PCOD8030914 Si02
#       8
#     2   2   2   2   2   2   2   2
#     4  11  27  47  68  97 132 170 218 274 330 392
#     4  11  26  45  71  97 130 170 221 273 329 392
#     4  11  24  40  64  96 134 174 223 267 316 391
#     4  11  23  40  64  94 135 174 217 264 323 380
#     4  11  26  42  66 100 136 169 219 274 324 386
#     4  11  24  43  65 100 135 170 218 274 324 389
#     4  11  22  41  67  92 132 177 216 264 322 388
#     4  11  24  45  69  95 132 175 212 268 334 388
#
# _framework density 20.853759
#
# number of rings (size 3 to 8) (size 9 to 14) (size 15 to 20)
#    0.000    1.000    2.500    3.000    7.000   10.500 
#    0.000    0.000    0.000    0.000    0.000    0.000 
#    0.000    0.000    0.000    0.000    0.000    0.000 
#
# Total GULP energy -198496.372992 kJ/mol
# GULP energy per Si atom -12406.023312 kJ/mol
# Density = 2.080630 g / cm^3
# Si number density = 20.853759 Si / 1000 Ang^3
#
#
#
# Elastic Constant Matrix: (Units=GPa)
#
#
# Indices 1 2 3 4 5 6 
#
# 1 120.0335 22.4510 27.5535 0.2604 -2.3215 -4.2451
# 2 22.4510 85.3827 22.6812 -7.5797 -4.9030 -3.1408
# 3 27.5535 22.6812 113.5639 -4.4190 -1.5084 0.4878
# 4 0.2604 -7.5797 -4.4190 15.0099 -6.5884 2.1379
# 5 -2.3215 -4.9030 -1.5084 -6.5884 38.6450 -2.1778
# 6 -4.2451 -3.1408 0.4878 2.1379 -2.1778 45.3157
#
#
#
# Elastic Compliance Matrix: (Units=1/GPa)
#
#
# Indices 1 2 3 4 5 6 
#
# 1 0.009182 -0.002052 -0.001896 -0.001898 -0.000060 0.000825
# 2 -0.002052 0.013605 -0.001891 0.007518 0.002842 0.000553
# 3 -0.001896 -0.001891 0.009735 0.002177 0.000369 -0.000498
# 4 -0.001898 0.007518 0.002177 0.077621 0.014008 -0.002669
# 5 -0.000060 0.002842 0.000369 0.014008 0.028687 0.000905
# 6 0.000825 0.000553 -0.000498 -0.002669 0.000905 0.022358
#
#
# Mechanical properties :
#
#
# Convention : Reuss Voigt Hill
#
# Bulk Modulus (GPa) = 47.97832 51.59463 49.78647
# Shear Modulus (GPa) = 27.80621 36.21373 32.00997
#
# Velocity S-wave (km/s) = 3.65552 4.17172 3.92212
# Velocity P-wave (km/s) = 6.39329 6.92815 6.66608
#
# Compressibility (1/GPa) = 0.02084275
#
# Stress axis : x y z
#
# Youngs Moduli (GPa) = 108.90559 73.50275 102.72029
#
# Poissons Ratio (x) = 0.15085 0.19477
# Poissons Ratio (y) = 0.22351 0.19428
# Poissons Ratio (z) = 0.20650 0.13902
#
# Static dielectric constant tensor:
#      x y z
#    x 3.923500 0.071430 0.037940 
#    y 0.071430 3.888110 -0.030070 
#    z 0.037940 -0.030070 3.889770 
# 
# 
# High freq. dielectric constant tensor:
#      x y z
#    x 1.832050 0.001070 0.000220 
#    y 0.001070 1.830060 -0.005580 
#    z 0.000220 -0.005580 1.817550 
# 
# From -- ./inp_files/37964.got.cif
#   From: 2010.06.25/outbox.cif.g09.slc.cpg/sg2_19_cif.got.tgz:37964.got - 2010.06.27 13:26:56.
