data_PCOD8030996
_publ_section_title
;
Structure prediction by ZEFSAII (Michael W. Deem and Ramdas Pophale) SiO2 
 PCOD8030996
Probable space group: P -1
;
_chemical_formula_sum "Si O2"
_cell_formula_units_Z 14
_cell_length_a 8.434180
_cell_length_b 11.433909
_cell_length_c 12.012605
_cell_angle_alpha 54.719473
_cell_angle_beta 84.535985
_cell_angle_gamma 49.463680
_cell_volume 641.252827
_symmetry_space_group_name_H-M "P -1"
_symmetry_group_IT_number 2
_symmetry_cell_setting 'triclinic'
loop_
_space_group_symop_operation_xyz
x,y,z
-x,-y,-z
loop_
_atom_site_type_symbol
_atom_site_label
_atom_site_fract_x
_atom_site_fract_y
_atom_site_fract_z
Si Si1 0.898633 0.427313 0.893839
Si Si2 0.242670 0.767098 0.090989
Si Si3 0.362574 0.727857 0.347177
Si Si4 0.059347 0.038618 0.590778
Si Si5 0.661849 0.940274 0.792361
Si Si6 0.532087 0.226744 0.132871
Si Si7 0.225382 0.190460 0.382990
O O1 0.796385 0.373086 0.851811
O O2 0.735944 0.555397 0.943258
O O3 0.883702 0.578725 0.734822
O O4 0.158475 0.214916 0.033907
O O5 0.383352 0.695724 0.232516
O O6 0.387645 0.741248 0.996841
O O7 0.000000 0.000000 0.000000
O O8 0.500000 0.500000 0.500000
O O9 0.110272 0.884884 0.337106
O O10 0.460942 0.823165 0.312822
O O11 0.067479 0.202437 0.471812
O O12 0.314802 0.830405 0.737405
O O13 0.000000 0.000000 0.500000
O O14 0.461347 0.949346 0.795276
O O15 0.804157 0.853648 0.714960
O O16 0.500000 0.000000 0.500000
#
# Coordination Sequence:
#
# PCOD8030996 Si02
#       7
#     2   2   2   2   2   2   2
#     4  11  24  44  73 101 135 178 226 278 334 404
#     4  12  25  47  66  98 144 177 225 276 340 407
#     4  12  29  45  67 101 139 183 222 282 341 401
#     4  12  24  43  71 101 138 179 229 278 338 399
#     4  11  23  46  68 102 138 172 230 280 333 402
#     4  11  24  44  76 101 130 183 230 277 334 403
#     4  11  22  41  71 103 134 172 226 287 329 390
#
# _framework density 21.832263000000001
#
# number of rings (size 3 to 8) (size 9 to 14) (size 15 to 20)
#    0.000    0.571    7.143    2.143    4.000    2.857 
#    2.571    1.429    0.000    0.000    0.000    0.000 
#    0.000    0.000    0.000    0.000    0.000    0.000 
#
# Total GULP energy -173502.258796 kJ/mol
# GULP energy per Si atom -12393.018485 kJ/mol
# Density = 2.178257 g / cm^3
# Si number density = 21.832263 Si / 1000 Ang^3
#
#
#
# Elastic Constant Matrix: (Units=GPa)
#
#
# Indices 1 2 3 4 5 6 
#
# 1 107.1394 35.1920 42.0273 2.3463 -6.4977 31.1691
# 2 35.1920 64.8537 32.5952 -1.7778 -12.1103 28.2824
# 3 42.0273 32.5952 121.9264 -0.3836 -7.9278 18.5085
# 4 2.3463 -1.7778 -0.3836 50.8662 2.2474 -6.3296
# 5 -6.4977 -12.1103 -7.9278 2.2474 36.6252 -4.5001
# 6 31.1691 28.2824 18.5085 -6.3296 -4.5001 44.2301
#
#
#
# Elastic Compliance Matrix: (Units=1/GPa)
#
#
# Indices 1 2 3 4 5 6 
#
# 1 0.013366 -0.003028 -0.002808 -0.001558 0.000056 -0.006525
# 2 -0.003028 0.025048 -0.003476 -0.000746 0.005568 -0.011969
# 3 -0.002808 -0.003476 0.010130 0.000064 0.000545 0.000027
# 4 -0.001558 -0.000746 0.000064 0.020298 -0.001223 0.004329
# 5 0.000056 0.005568 0.000545 -0.001223 0.029221 -0.001030
# 6 -0.006525 -0.011969 0.000027 0.004329 -0.001030 0.035363
#
#
# Mechanical properties :
#
#
# Convention : Reuss Voigt Hill
#
# Bulk Modulus (GPa) = 33.42324 57.06097 45.24211
# Shear Modulus (GPa) = 30.85945 38.61795 34.73870
#
# Velocity S-wave (km/s) = 3.76371 4.21033 3.99327
# Velocity P-wave (km/s) = 5.85061 7.05894 6.48299
#
# Compressibility (1/GPa) = 0.02991930
#
# Stress axis : x y z
#
# Youngs Moduli (GPa) = 74.81937 39.92306 98.71237
#
# Poissons Ratio (x) = 0.12089 0.27722
# Poissons Ratio (y) = 0.22656 0.34312
# Poissons Ratio (z) = 0.21012 0.13877
#
# Static dielectric constant tensor:
#      x y z
#    x 4.175770 0.142830 -0.187560 
#    y 0.142830 3.960810 -0.040240 
#    z -0.187560 -0.040240 4.034190 
# 
# 
# High freq. dielectric constant tensor:
#      x y z
#    x 1.867080 0.018250 -0.012060 
#    y 0.018250 1.835650 0.006200 
#    z -0.012060 0.006200 1.875070 
# 
# From -- ./inp_files/187468.got.cif
#   From: 2010.06.25/outbox.cif.g09.slc.cpg/sg2_94_cif.got.tgz:187468.got - 2010.06.27 13:26:56.
