data_PCOD8030218
_publ_section_title
;
Structure prediction by ZEFSAII (Michael W. Deem and Ramdas Pophale) SiO2 
 PCOD8030218
Probable space group: P -1
;
_chemical_formula_sum "Si O2"
_cell_formula_units_Z 16
_cell_length_a 26.742340
_cell_length_b 11.675341
_cell_length_c 7.964936
_cell_angle_alpha 40.501846
_cell_angle_beta 30.609469
_cell_angle_gamma 32.116718
_cell_volume 668.651422
_symmetry_space_group_name_H-M "P -1"
_symmetry_group_IT_number 2
_symmetry_cell_setting 'triclinic'
loop_
_space_group_symop_operation_xyz
x,y,z
-x,-y,-z
loop_
_atom_site_type_symbol
_atom_site_label
_atom_site_fract_x
_atom_site_fract_y
_atom_site_fract_z
Si Si1 0.290958 0.911133 0.508456
Si Si2 0.155232 0.710884 0.176472
Si Si3 0.144186 0.682882 0.848589
Si Si4 0.482937 0.493105 0.863364
Si Si5 0.117706 0.050693 0.321463
Si Si6 0.288148 0.398902 0.448858
Si Si7 0.086682 0.249101 0.507840
Si Si8 0.344747 0.969807 0.619653
O O1 0.388080 0.695295 0.369745
O O2 0.212573 0.122344 0.382532
O O3 0.356596 0.976928 0.375731
O O4 0.204200 0.855217 0.905954
O O5 0.213073 0.521205 0.360664
O O6 0.013172 0.862211 0.468397
O O7 0.182499 0.619561 0.005557
O O8 0.207180 0.474010 0.771870
O O9 0.179309 0.834946 0.501003
O O10 0.996917 0.829675 0.104627
O O11 0.448838 0.724605 0.642739
O O12 0.500000 0.500000 0.000000
O O13 0.388732 0.441942 0.139333
O O14 0.110195 0.227138 0.266841
O O15 0.214003 0.009331 0.953194
O O16 0.351427 0.142636 0.515421
O O17 0.000000 0.500000 0.500000
#
# Coordination Sequence:
#
# PCOD8030218 Si02
#       8
#     2   2   2   2   2   2   2   2
#     4  12  24  45  73 103 146 198 242 303 366 434
#     4  11  23  43  75 106 148 196 242 299 372 440
#     4  11  21  43  71 104 147 194 242 297 370 437
#     4  12  27  52  79 100 142 199 249 306 368 431
#     4  11  21  43  70 104 148 194 243 294 369 439
#     4  12  28  48  73 111 150 189 250 309 361 439
#     4  11  23  39  68 111 147 185 242 302 366 438
#     4  12  28  46  73 111 146 193 248 302 369 438
#
# _framework density 23.928761000000002
#
# number of rings (size 3 to 8) (size 9 to 14) (size 15 to 20)
#    0.000    0.500    5.000    3.375    5.250    2.500 
#    0.000    0.000    0.000    0.000    0.000    0.000 
#    0.000    0.000    0.000    0.000    0.000    0.000 
#
# Total GULP energy -198217.817106 kJ/mol
# GULP energy per Si atom -12388.613569 kJ/mol
# Density = 2.387430 g / cm^3
# Si number density = 23.928761 Si / 1000 Ang^3
#
#
#
# Elastic Constant Matrix: (Units=GPa)
#
#
# Indices 1 2 3 4 5 6 
#
# 1 162.5920 68.3897 8.1447 -4.7706 5.0123 4.6948
# 2 68.3897 159.6192 9.9592 7.8765 -3.9579 3.0852
# 3 8.1447 9.9592 23.7529 -3.9777 -3.0370 -11.3642
# 4 -4.7706 7.8765 -3.9777 16.7708 1.2949 -7.1883
# 5 5.0123 -3.9579 -3.0370 1.2949 26.6859 2.4724
# 6 4.6948 3.0852 -11.3642 -7.1883 2.4724 44.4668
#
#
#
# Elastic Compliance Matrix: (Units=1/GPa)
#
#
# Indices 1 2 3 4 5 6 
#
# 1 0.007881 -0.003568 -0.000881 0.003861 -0.002292 -0.000058
# 2 -0.003568 0.008555 -0.004659 -0.007463 0.002024 -0.002727
# 3 -0.000881 -0.004659 0.057655 0.023409 0.003162 0.018759
# 4 0.003861 -0.007463 0.023409 0.078297 -0.004729 0.019013
# 5 -0.002292 0.002024 0.003162 -0.004729 0.038980 -0.002022
# 6 -0.000058 -0.002727 0.018759 0.019013 -0.002022 0.030664
#
#
# Mechanical properties :
#
#
# Convention : Reuss Voigt Hill
#
# Bulk Modulus (GPa) = 17.89682 57.66124 37.77903
# Shear Modulus (GPa) = 19.31446 34.88273 27.09860
#
# Velocity S-wave (km/s) = 2.84415 3.82222 3.36887
# Velocity P-wave (km/s) = 4.27563 6.60519 5.56370
#
# Compressibility (1/GPa) = 0.05587584
#
# Stress axis : x y z
#
# Youngs Moduli (GPa) = 126.89124 116.88503 17.34450
#
# Poissons Ratio (x) = 0.41702 0.01527
# Poissons Ratio (y) = 0.45272 0.08081
# Poissons Ratio (z) = 0.11174 0.54461
#
# Static dielectric constant tensor:
#      x y z
#    x 4.357680 0.284490 0.521230 
#    y 0.284490 4.254430 0.035350 
#    z 0.521230 0.035350 3.144980 
# 
# 
# High freq. dielectric constant tensor:
#      x y z
#    x 1.966240 0.015920 0.004220 
#    y 0.015920 1.951360 0.011080 
#    z 0.004220 0.011080 1.938020 
# 
# From -- ./inp_files/357032.got.cif
#   From: 2010.06.25/outbox.cif.g09.slc.cpg/sg2_179_cif.got.tgz:357032.got - 2010.06.27 13:26:56.
