data_PCOD8030669
_publ_section_title
;
Structure prediction by ZEFSAII (Michael W. Deem and Ramdas Pophale) SiO2 
 PCOD8030669
Probable space group: P -1
;
_chemical_formula_sum "Si O2"
_cell_formula_units_Z 16
_cell_length_a 11.580297
_cell_length_b 8.885888
_cell_length_c 18.487894
_cell_angle_alpha 46.339707
_cell_angle_beta 42.486761
_cell_angle_gamma 78.464343
_cell_volume 719.902145
_symmetry_space_group_name_H-M "P -1"
_symmetry_group_IT_number 2
_symmetry_cell_setting 'triclinic'
loop_
_space_group_symop_operation_xyz
x,y,z
-x,-y,-z
loop_
_atom_site_type_symbol
_atom_site_label
_atom_site_fract_x
_atom_site_fract_y
_atom_site_fract_z
Si Si1 0.420031 0.760023 0.563503
Si Si2 0.067259 0.136671 0.269153
Si Si3 0.719830 0.142552 0.741436
Si Si4 0.870779 0.931177 0.276484
Si Si5 0.000988 0.579821 0.354918
Si Si6 0.628518 0.243092 0.070803
Si Si7 0.019382 0.802437 0.013137
Si Si8 0.243320 0.888788 0.476620
O O1 0.608045 0.730540 0.477181
O O2 0.363152 0.806190 0.495907
O O3 0.500000 0.000000 0.500000
O O4 0.211179 0.491879 0.784412
O O5 0.855636 0.005442 0.462837
O O6 0.146401 0.965191 0.302511
O O7 0.259399 0.448386 0.094658
O O8 0.995132 0.121895 0.225010
O O9 0.756840 0.229585 0.780603
O O10 0.819469 0.406464 0.559788
O O11 0.464527 0.909785 0.913758
O O12 0.949807 0.758956 0.280783
O O13 0.923786 0.117758 0.122751
O O14 0.970793 0.379112 0.375297
O O15 0.796655 0.200960 0.035057
O O16 0.419169 0.113447 0.263894
O O17 0.000000 0.000000 0.000000
#
# Coordination Sequence:
#
# PCOD8030669 Si02
#       8
#     2   2   2   2   2   2   2   2
#     4  12  24  41  66  99 134 178 215 266 328 402
#     4  11  23  42  67  97 129 169 217 272 318 395
#     4   9  21  43  66  90 128 172 219 266 330 374
#     4  11  24  41  69  95 134 171 214 267 333 387
#     4   9  21  41  65  93 126 170 215 272 316 390
#     4  11  23  40  67  94 132 168 214 272 323 383
#     4  12  27  41  66 101 137 171 220 269 329 400
#     4  11  22  39  67  95 130 167 217 260 333 381
#
# _framework density 22.225244
#
# number of rings (size 3 to 8) (size 9 to 14) (size 15 to 20)
#    0.000    1.250    3.750    1.125    5.250    4.000 
#    0.000    0.625    2.750    0.000    0.000    0.000 
#    0.000    0.000    0.000    0.000    0.000    0.000 
#
# Total GULP energy -198405.742136 kJ/mol
# GULP energy per Si atom -12400.358884 kJ/mol
# Density = 2.217466 g / cm^3
# Si number density = 22.225244 Si / 1000 Ang^3
#
#
#
# Elastic Constant Matrix: (Units=GPa)
#
#
# Indices 1 2 3 4 5 6 
#
# 1 112.3893 17.0520 34.3256 -8.1208 -10.1400 15.2363
# 2 17.0520 75.2081 29.1372 -7.7023 -1.8990 16.8545
# 3 34.3256 29.1372 100.4127 -12.1186 -16.0134 5.8667
# 4 -8.1208 -7.7023 -12.1186 31.9180 4.9501 1.0439
# 5 -10.1400 -1.8990 -16.0134 4.9501 26.6660 -6.5736
# 6 15.2363 16.8545 5.8667 1.0439 -6.5736 35.8989
#
#
#
# Elastic Compliance Matrix: (Units=1/GPa)
#
#
# Indices 1 2 3 4 5 6 
#
# 1 0.010547 -0.000221 -0.002985 0.001463 0.001008 -0.003743
# 2 -0.000221 0.017222 -0.004745 0.003230 -0.004303 -0.008098
# 3 -0.002985 -0.004745 0.013564 0.002095 0.006895 0.002480
# 4 0.001463 0.003230 0.002095 0.034264 -0.005418 -0.004468
# 5 0.001008 -0.004303 0.006895 -0.005418 0.044904 0.008846
# 6 -0.003743 -0.008098 0.002480 -0.004468 0.008846 0.034591
#
#
# Mechanical properties :
#
#
# Convention : Reuss Voigt Hill
#
# Bulk Modulus (GPa) = 39.32329 49.89329 44.60829
# Shear Modulus (GPa) = 27.85963 32.72962 30.29463
#
# Velocity S-wave (km/s) = 3.54434 3.84165 3.69599
# Velocity P-wave (km/s) = 5.87208 6.49426 6.19099
#
# Compressibility (1/GPa) = 0.02543022
#
# Stress axis : x y z
#
# Youngs Moduli (GPa) = 94.81405 58.06559 73.72545
#
# Poissons Ratio (x) = 0.01281 0.22010
# Poissons Ratio (y) = 0.02092 0.34984
# Poissons Ratio (z) = 0.28306 0.27553
#
# Static dielectric constant tensor:
#      x y z
#    x 4.397260 0.268680 -0.157940 
#    y 0.268680 3.978480 -0.149640 
#    z -0.157940 -0.149640 3.903770 
# 
# 
# High freq. dielectric constant tensor:
#      x y z
#    x 1.897400 0.013160 -0.001540 
#    y 0.013160 1.872040 -0.011070 
#    z -0.001540 -0.011070 1.865250 
# 
# From -- ./inp_files/447280.got.cif
#   From: 2010.06.25/outbox.cif.g09.slc.cpg/sg2_224_cif.got.tgz:447280.got - 2010.06.27 13:26:56.
