data_PCOD8030803
_publ_section_title
;
Structure prediction by ZEFSAII (Michael W. Deem and Ramdas Pophale) SiO2 
 PCOD8030803
Probable space group: P -1
;
_chemical_formula_sum "Si O2"
_cell_formula_units_Z 16
_cell_length_a 14.563025
_cell_length_b 9.124122
_cell_length_c 11.705568
_cell_angle_alpha 110.298892
_cell_angle_beta 128.684574
_cell_angle_gamma 108.832990
_cell_volume 769.529954
_symmetry_space_group_name_H-M "P -1"
_symmetry_group_IT_number 2
_symmetry_cell_setting 'triclinic'
loop_
_space_group_symop_operation_xyz
x,y,z
-x,-y,-z
loop_
_atom_site_type_symbol
_atom_site_label
_atom_site_fract_x
_atom_site_fract_y
_atom_site_fract_z
Si Si1 0.410696 0.631258 0.280821
Si Si2 0.931309 0.683680 0.522469
Si Si3 0.443075 0.602201 0.919256
Si Si4 0.139505 0.627833 0.045992
Si Si5 0.930598 0.387319 0.593397
Si Si6 0.438142 0.047722 0.714918
Si Si7 0.714107 0.824194 0.000857
Si Si8 0.604365 0.894983 0.715467
O O1 0.557709 0.845692 0.368699
O O2 0.484307 0.674712 0.477528
O O3 0.259937 0.606808 0.173738
O O4 0.328380 0.399364 0.096327
O O5 0.752806 0.605136 0.339928
O O6 0.897975 0.528535 0.556727
O O7 0.990838 0.650591 0.448519
O O8 0.084746 0.954800 0.747669
O O9 0.500000 0.500000 0.000000
O O10 0.441147 0.749550 0.041728
O O11 0.581081 0.774541 0.972734
O O12 0.069492 0.528036 0.839087
O O13 0.000000 0.500000 0.000000
O O14 0.245487 0.892443 0.193005
O O15 0.755499 0.143726 0.440722
O O16 0.504724 0.938608 0.713191
O O17 0.686271 0.864403 0.864758
#
# Coordination Sequence:
#
# PCOD8030803 Si02
#       8
#     2   2   2   2   2   2   2   2
#     4  11  24  43  66  98 133 180 226 278 338 400
#     4  11  25  42  66 102 136 176 224 275 340 404
#     4  12  26  44  67 104 140 179 219 276 351 406
#     4  11  22  41  68  99 130 171 230 282 329 393
#     4  11  22  40  69 101 134 170 227 286 328 394
#     4  11  22  42  72  97 132 178 228 279 334 399
#     4  12  25  46  68  98 144 179 219 283 343 403
#     4  11  23  43  68  95 133 181 234 271 334 403
#
# _framework density 20.791913999999998
#
# number of rings (size 3 to 8) (size 9 to 14) (size 15 to 20)
#    0.000    0.750    3.750    5.625    1.750    2.500 
#    2.250    0.625    0.000    0.000    0.000    0.000 
#    0.000    0.000    0.000    0.000    0.000    0.000 
#
# Total GULP energy -198421.746621 kJ/mol
# GULP energy per Si atom -12401.359164 kJ/mol
# Density = 2.074459 g / cm^3
# Si number density = 20.791914 Si / 1000 Ang^3
#
#
#
# Elastic Constant Matrix: (Units=GPa)
#
#
# Indices 1 2 3 4 5 6 
#
# 1 161.4443 7.8129 51.0948 -36.7324 -14.0001 -56.7942
# 2 7.8129 86.8638 26.1911 12.5510 18.5187 30.9016
# 3 51.0948 26.1911 150.0346 -13.8012 0.9691 -7.8233
# 4 -36.7324 12.5510 -13.8012 58.3670 11.5591 38.2072
# 5 -14.0001 18.5187 0.9691 11.5591 46.6171 21.0879
# 6 -56.7942 30.9016 -7.8233 38.2072 21.0879 101.5949
#
#
#
# Elastic Compliance Matrix: (Units=1/GPa)
#
#
# Indices 1 2 3 4 5 6 
#
# 1 0.009328 -0.002378 -0.002287 0.002656 0.001082 0.004538
# 2 -0.002378 0.015158 -0.002179 -0.001341 -0.004219 -0.004728
# 3 -0.002287 -0.002179 0.007913 0.001207 -0.000085 -0.000443
# 4 0.002656 -0.001341 0.001207 0.024116 -0.001622 -0.006747
# 5 0.001082 -0.004219 -0.000085 -0.001622 0.025085 -0.002715
# 6 0.004538 -0.004728 -0.000443 -0.006747 -0.002715 0.016885
#
#
# Mechanical properties :
#
#
# Convention : Reuss Voigt Hill
#
# Bulk Modulus (GPa) = 53.44753 63.17115 58.30934
# Shear Modulus (GPa) = 42.22602 62.19872 52.21237
#
# Velocity S-wave (km/s) = 4.51142 5.47538 5.01661
# Velocity P-wave (km/s) = 7.27317 8.39176 7.85241
#
# Compressibility (1/GPa) = 0.01870994
#
# Stress axis : x y z
#
# Youngs Moduli (GPa) = 107.20731 65.97024 126.37498
#
# Poissons Ratio (x) = 0.15689 0.28908
# Poissons Ratio (y) = 0.25496 0.27536
# Poissons Ratio (z) = 0.24524 0.14374
#
# Static dielectric constant tensor:
#      x y z
#    x 3.768090 0.212410 -0.156960 
#    y 0.212410 3.813130 0.051540 
#    z -0.156960 0.051540 4.022230 
# 
# 
# High freq. dielectric constant tensor:
#      x y z
#    x 1.812130 0.017320 -0.006630 
#    y 0.017320 1.817890 -0.000190 
#    z -0.006630 -0.000190 1.829150 
# 
# From -- ./inp_files/272647.got.cif
#   From: 2010.06.25/outbox.cif.g09.slc.cpg/sg2_137_cif.got.tgz:272647.got - 2010.06.27 13:26:56.
