data_PCOD8030521
_publ_section_title
;
Structure prediction by ZEFSAII (Michael W. Deem and Ramdas Pophale) SiO2 
 PCOD8030521
Probable space group: P -1
;
_chemical_formula_sum "Si O2"
_cell_formula_units_Z 14
_cell_length_a 13.538265
_cell_length_b 11.588609
_cell_length_c 6.544824
_cell_angle_alpha 97.493057
_cell_angle_beta 42.643814
_cell_angle_gamma 90.736489
_cell_volume 684.369188
_symmetry_space_group_name_H-M "P -1"
_symmetry_group_IT_number 2
_symmetry_cell_setting 'triclinic'
loop_
_space_group_symop_operation_xyz
x,y,z
-x,-y,-z
loop_
_atom_site_type_symbol
_atom_site_label
_atom_site_fract_x
_atom_site_fract_y
_atom_site_fract_z
Si Si1 0.635079 0.937469 0.523314
Si Si2 0.046984 0.806901 0.335751
Si Si3 0.510774 0.171264 0.625602
Si Si4 0.071663 0.035265 0.104323
Si Si5 0.569777 0.559821 0.712707
Si Si6 0.668548 0.355247 0.227770
Si Si7 0.726204 0.764514 0.693396
O O1 0.506356 0.883493 0.585416
O O2 0.665582 0.880119 0.683484
O O3 0.586997 0.076903 0.651707
O O4 0.776511 0.915846 0.158686
O O5 0.024991 0.855934 0.611370
O O6 0.899855 0.763656 0.457252
O O7 0.099994 0.916711 0.163610
O O8 0.169726 0.694354 0.110989
O O9 0.615537 0.270018 0.459988
O O10 0.353906 0.227347 0.964498
O O11 0.000000 0.000000 0.000000
O O12 0.666183 0.474753 0.387249
O O13 0.434927 0.629704 0.810045
O O14 0.686339 0.646959 0.619636
O O15 0.500000 0.500000 0.000000
#
# Coordination Sequence:
#
# PCOD8030521 Si02
#       7
#     2   2   2   2   2   2   2
#     4  11  22  37  62 100 131 173 210 264 319 388
#     4  11  25  40  64 100 133 169 211 267 328 392
#     4  11  22  39  65  95 132 170 220 262 318 390
#     4  11  22  39  62  94 141 171 202 255 330 397
#     4  11  25  45  69  92 124 174 227 273 316 378
#     4  11  24  45  68  94 128 171 222 272 322 380
#     4  12  23  41  67  97 132 170 218 267 324 381
#
# _framework density 20.456793999999999
#
# number of rings (size 3 to 8) (size 9 to 14) (size 15 to 20)
#    0.000    0.857    7.143    0.429    0.000    2.857 
#    0.000    0.714    0.000    0.000    0.000    0.000 
#    0.000    0.000    0.000    0.000    0.000    0.000 
#
# Total GULP energy -173561.666127 kJ/mol
# GULP energy per Si atom -12397.261866 kJ/mol
# Density = 2.041023 g / cm^3
# Si number density = 20.456794 Si / 1000 Ang^3
#
#
#
# Elastic Constant Matrix: (Units=GPa)
#
#
# Indices 1 2 3 4 5 6 
#
# 1 107.4638 47.9912 36.0579 12.5754 0.7576 4.1494
# 2 47.9912 98.6755 30.9323 4.7501 -2.5757 1.1673
# 3 36.0579 30.9323 102.4603 13.6028 -3.6544 -8.7987
# 4 12.5754 4.7501 13.6028 37.1862 0.6042 -6.9992
# 5 0.7576 -2.5757 -3.6544 0.6042 28.7584 8.4311
# 6 4.1494 1.1673 -8.7987 -6.9992 8.4311 23.9388
#
#
#
# Elastic Compliance Matrix: (Units=1/GPa)
#
#
# Indices 1 2 3 4 5 6 
#
# 1 0.013227 -0.005288 -0.002948 -0.003508 0.000102 -0.004180
# 2 -0.005288 0.013441 -0.002321 0.000745 0.001274 -0.000823
# 3 -0.002948 -0.002321 0.012190 -0.002350 0.000193 0.004350
# 4 -0.003508 0.000745 -0.002350 0.030789 -0.003724 0.010022
# 5 0.000102 0.001274 0.000193 -0.003724 0.039374 -0.014965
# 6 -0.004180 -0.000823 0.004350 0.010022 -0.014965 0.052337
#
#
# Mechanical properties :
#
#
# Convention : Reuss Voigt Hill
#
# Bulk Modulus (GPa) = 56.35543 59.84025 58.09784
# Shear Modulus (GPa) = 26.54096 30.88454 28.71275
#
# Velocity S-wave (km/s) = 3.60587 3.88976 3.75050
# Velocity P-wave (km/s) = 6.70408 7.03485 6.87146
#
# Compressibility (1/GPa) = 0.01774452
#
# Stress axis : x y z
#
# Youngs Moduli (GPa) = 75.60097 74.40074 82.03109
#
# Poissons Ratio (x) = 0.39343 0.24184
# Poissons Ratio (y) = 0.39978 0.19038
# Poissons Ratio (z) = 0.22289 0.17267
#
# Static dielectric constant tensor:
#      x y z
#    x 3.527970 -0.036360 0.131270 
#    y -0.036360 3.743050 0.048260 
#    z 0.131270 0.048260 3.636700 
# 
# 
# High freq. dielectric constant tensor:
#      x y z
#    x 1.794230 0.007740 0.006920 
#    y 0.007740 1.797950 -0.002100 
#    z 0.006920 -0.002100 1.806500 
# 
# From -- ./inp_files/28109.got.cif
#   From: 2010.06.25/outbox.cif.g09.slc.cpg/sg2_15_cif.got.tgz:28109.got - 2010.06.27 13:26:56.
