data_PCOD8030578
_publ_section_title
;
Structure prediction by ZEFSAII (Michael W. Deem and Ramdas Pophale) SiO2 
 PCOD8030578
Probable space group: P -1
;
_chemical_formula_sum "Si O2"
_cell_formula_units_Z 16
_cell_length_a 20.380557
_cell_length_b 15.006600
_cell_length_c 12.602097
_cell_angle_alpha 132.441253
_cell_angle_beta 152.831188
_cell_angle_gamma 28.406534
_cell_volume 727.057251
_symmetry_space_group_name_H-M "P -1"
_symmetry_group_IT_number 2
_symmetry_cell_setting 'triclinic'
loop_
_space_group_symop_operation_xyz
x,y,z
-x,-y,-z
loop_
_atom_site_type_symbol
_atom_site_label
_atom_site_fract_x
_atom_site_fract_y
_atom_site_fract_z
Si Si1 0.215441 0.157925 0.917594
Si Si2 0.172755 0.799860 0.953809
Si Si3 0.331466 0.704383 0.341199
Si Si4 0.725433 0.803158 0.739049
Si Si5 0.729949 0.606811 0.882033
Si Si6 0.680375 0.571430 0.430401
Si Si7 0.345890 0.278518 0.907668
Si Si8 0.108841 0.580203 0.615547
O O1 0.918246 0.323597 0.614129
O O2 0.308121 0.095479 0.121570
O O3 0.252941 0.265365 0.013942
O O4 0.369926 0.959204 0.906498
O O5 0.257812 0.702853 0.118126
O O6 0.414531 0.687382 0.149932
O O7 0.085203 0.740681 0.719198
O O8 0.941538 0.057831 0.815213
O O9 0.500000 0.500000 0.500000
O O10 0.511997 0.694074 0.568236
O O11 0.693608 0.681509 0.612925
O O12 0.500000 0.000000 0.500000
O O13 0.997171 0.646741 0.950931
O O14 0.650988 0.641248 0.918663
O O15 0.731807 0.569983 0.380197
O O16 0.248494 0.430640 0.797303
O O17 0.175823 0.277421 0.682892
#
# Coordination Sequence:
#
# PCOD8030578 Si02
#       8
#     2   2   2   2   2   2   2   2
#     4  11  22  38  65  97 128 171 218 271 338 385
#     4  11  25  45  67  95 138 176 218 275 331 402
#     4  11  25  44  68  97 128 179 226 269 331 398
#     4  11  23  38  64  96 129 170 217 275 330 386
#     4  11  22  42  65  93 132 166 221 273 330 393
#     4  11  23  43  63  93 134 174 215 268 340 397
#     4  11  23  40  68  98 130 167 226 281 323 393
#     4  11  23  42  65  96 130 173 220 269 336 390
#
# _framework density 22.006520999999999
#
# number of rings (size 3 to 8) (size 9 to 14) (size 15 to 20)
#    0.000    1.000    2.500    6.000    5.250    1.000 
#    2.250    0.625    0.000    0.000    0.000    0.000 
#    0.000    0.000    0.000    0.000    0.000    0.000 
#
# Total GULP energy -198345.862958 kJ/mol
# GULP energy per Si atom -12396.616435 kJ/mol
# Density = 2.195643 g / cm^3
# Si number density = 22.006521 Si / 1000 Ang^3
#
#
#
# Elastic Constant Matrix: (Units=GPa)
#
#
# Indices 1 2 3 4 5 6 
#
# 1 78.5795 -2.9619 0.5904 -45.0891 -4.7317 25.0477
# 2 -2.9619 -29.5888 -53.7176 -102.9982 8.1260 108.5709
# 3 0.5904 -53.7176 30.9756 -89.5503 3.0026 95.6105
# 4 -45.0891 -102.9982 -89.5503 -29.4211 -6.4774 104.6852
# 5 -4.7317 8.1260 3.0026 -6.4774 41.8861 0.4172
# 6 25.0477 108.5709 95.6105 104.6852 0.4172 -119.1169
#
#
#
# Elastic Compliance Matrix: (Units=1/GPa)
#
#
# Indices 1 2 3 4 5 6 
#
# 1 0.014708 -0.003238 -0.001653 0.005195 0.003178 0.003392
# 2 -0.003238 0.018169 -0.004893 0.000221 -0.003627 0.012135
# 3 -0.001653 -0.004893 0.011111 -0.000232 -0.000109 0.003907
# 4 0.005195 0.000221 -0.000232 0.018215 0.003207 0.017127
# 5 0.003178 -0.003627 -0.000109 0.003207 0.025439 0.000183
# 6 0.003392 0.012135 0.003907 0.017127 0.000183 0.021566
#
#
# Mechanical properties :
#
#
# Convention : Reuss Voigt Hill
#
# Bulk Modulus (GPa) = 40.94829 -3.57909 18.68460
# Shear Modulus (GPa) = 36.51904 -12.26002 12.12951
#
# Velocity S-wave (km/s) = 4.07807 -2.36288 2.35026
# Velocity P-wave (km/s) = 6.38921 3.01233 3.98421
#
# Compressibility (1/GPa) = 0.02442105
#
# Stress axis : x y z
#
# Youngs Moduli (GPa) = 67.99183 55.03746 90.00214
#
# Poissons Ratio (x) = 0.17820 0.14877
# Poissons Ratio (y) = 0.22014 0.44036
# Poissons Ratio (z) = 0.11239 0.26928
#
# Static dielectric constant tensor:
#      x y z
#    x 4.570860 0.873570 0.525380 
#    y 0.873570 7.904200 1.668450 
#    z 0.525380 1.668450 5.054620 
# 
# 
# High freq. dielectric constant tensor:
#      x y z
#    x 1.862560 -0.019670 -0.009290 
#    y -0.019670 1.857340 -0.006120 
#    z -0.009290 -0.006120 1.880270 
# 
# From -- ./inp_files/471940.got.cif
#   From: 2010.06.25/outbox.cif.g09.slc.cpg/sg2_236_cif.got.tgz:471940.got - 2010.06.27 13:26:56.
