data_PCOD8030251
_publ_section_title
;
Structure prediction by ZEFSAII (Michael W. Deem and Ramdas Pophale) SiO2 
 PCOD8030251
Probable space group: P -1
;
_chemical_formula_sum "Si O2"
_cell_formula_units_Z 16
_cell_length_a 9.175064
_cell_length_b 23.565014
_cell_length_c 9.819588
_cell_angle_alpha 51.842812
_cell_angle_beta 93.779699
_cell_angle_gamma 137.487335
_cell_volume 767.364225
_symmetry_space_group_name_H-M "P -1"
_symmetry_group_IT_number 2
_symmetry_cell_setting 'triclinic'
loop_
_space_group_symop_operation_xyz
x,y,z
-x,-y,-z
loop_
_atom_site_type_symbol
_atom_site_label
_atom_site_fract_x
_atom_site_fract_y
_atom_site_fract_z
Si Si1 0.237871 0.867097 0.072488
Si Si2 0.712225 0.407105 0.703710
Si Si3 0.365386 0.980038 0.389895
Si Si4 0.203821 0.351328 0.291382
Si Si5 0.265691 0.136174 0.708023
Si Si6 0.097917 0.671372 0.514919
Si Si7 0.829101 0.943372 0.714765
Si Si8 0.664402 0.689110 0.398618
O O1 0.094235 0.726152 0.308746
O O2 0.994248 0.827021 0.131213
O O3 0.500000 0.000000 0.000000
O O4 0.367364 0.920201 0.851065
O O5 0.589374 0.416708 0.581337
O O6 0.000000 0.500000 0.500000
O O7 0.845506 0.498785 0.716122
O O8 0.434115 0.229297 0.992152
O O9 0.025053 0.803095 0.576555
O O10 0.500000 0.000000 0.500000
O O11 0.343359 0.055196 0.307691
O O12 0.349647 0.385721 0.391380
O O13 0.006899 0.337196 0.337250
O O14 0.500000 0.500000 0.000000
O O15 0.551860 0.205607 0.624449
O O16 0.385687 0.266628 0.567887
O O17 0.120152 0.074869 0.641076
O O18 0.000000 0.000000 0.000000
O O19 0.000000 0.000000 0.500000
#
# Coordination Sequence:
#
# PCOD8030251 Si02
#       8
#     2   2   2   2   2   2   2   2
#     4  11  21  43  72 102 133 176 247 277 341 420
#     4  12  25  45  71 109 143 177 237 297 355 417
#     4  12  27  45  70 101 140 183 230 294 348 415
#     4  11  27  46  66  98 142 188 237 278 355 420
#     4  12  21  43  75 101 136 182 235 288 352 423
#     4  11  25  42  74 104 137 184 231 293 347 421
#     4  12  29  45  72 106 144 183 238 295 355 419
#     4  11  23  41  76  99 134 187 233 287 345 416
#
# _framework density 20.850591999999999
#
# number of rings (size 3 to 8) (size 9 to 14) (size 15 to 20)
#    0.000    0.500    6.250    2.250    5.250    4.000 
#    0.000    1.250    0.000    0.000    0.000    0.000 
#    0.000    0.000    0.000    0.000    0.000    0.000 
#
# Total GULP energy -198320.948799 kJ/mol
# GULP energy per Si atom -12395.059300 kJ/mol
# Density = 2.080314 g / cm^3
# Si number density = 20.850592 Si / 1000 Ang^3
#
#
#
# Elastic Constant Matrix: (Units=GPa)
#
#
# Indices 1 2 3 4 5 6 
#
# 1 136.3347 45.6843 51.9589 9.3402 -20.7847 8.9639
# 2 45.6843 101.7356 37.4419 14.6225 -2.5954 11.6836
# 3 51.9589 37.4419 127.0482 13.4600 -24.1244 0.2240
# 4 9.3402 14.6225 13.4600 39.1478 -6.4604 0.1640
# 5 -20.7847 -2.5954 -24.1244 -6.4604 38.6199 1.1572
# 6 8.9639 11.6836 0.2240 0.1640 1.1572 44.7361
#
#
#
# Elastic Compliance Matrix: (Units=1/GPa)
#
#
# Indices 1 2 3 4 5 6 
#
# 1 0.010033 -0.003433 -0.002412 0.000343 0.003755 -0.001200
# 2 -0.003433 0.013100 -0.002665 -0.003669 -0.003167 -0.002625
# 3 -0.002412 -0.002665 0.010723 -0.001300 0.004974 0.001002
# 4 0.000343 -0.003669 -0.001300 0.027899 0.003772 0.000696
# 5 0.003755 -0.003167 0.004974 0.003772 0.031463 -0.000778
# 6 -0.001200 -0.002625 0.001002 0.000696 -0.000778 0.023292
#
#
# Mechanical properties :
#
#
# Convention : Reuss Voigt Hill
#
# Bulk Modulus (GPa) = 59.39823 70.58763 64.99293
# Shear Modulus (GPa) = 35.93481 39.83632 37.88557
#
# Velocity S-wave (km/s) = 4.15594 4.37574 4.26726
# Velocity P-wave (km/s) = 7.18182 7.71083 7.45102
#
# Compressibility (1/GPa) = 0.01683552
#
# Stress axis : x y z
#
# Youngs Moduli (GPa) = 99.67587 76.33820 93.25546
#
# Poissons Ratio (x) = 0.26206 0.22498
# Poissons Ratio (y) = 0.34218 0.24848
# Poissons Ratio (z) = 0.24047 0.20341
#
# Static dielectric constant tensor:
#      x y z
#    x 3.632320 -0.251070 -0.334240 
#    y -0.251070 3.835030 -0.309700 
#    z -0.334240 -0.309700 3.426840 
# 
# 
# High freq. dielectric constant tensor:
#      x y z
#    x 1.839740 -0.001180 -0.010320 
#    y -0.001180 1.821310 0.000770 
#    z -0.010320 0.000770 1.806990 
# 
# From -- ./inp_files/226164.got.cif
#   From: 2010.06.25/outbox.cif.g09.slc.cpg/sg2_114_cif.got.tgz:226164.got - 2010.06.27 13:26:56.
