data_PCOD8030370
_publ_section_title
;
Structure prediction by ZEFSAII (Michael W. Deem and Ramdas Pophale) SiO2 
 PCOD8030370
Probable space group: P -1
;
_chemical_formula_sum "Si O2"
_cell_formula_units_Z 16
_cell_length_a 8.703621
_cell_length_b 8.892471
_cell_length_c 12.592818
_cell_angle_alpha 81.385258
_cell_angle_beta 85.598101
_cell_angle_gamma 48.006090
_cell_volume 715.832189
_symmetry_space_group_name_H-M "P -1"
_symmetry_group_IT_number 2
_symmetry_cell_setting 'triclinic'
loop_
_space_group_symop_operation_xyz
x,y,z
-x,-y,-z
loop_
_atom_site_type_symbol
_atom_site_label
_atom_site_fract_x
_atom_site_fract_y
_atom_site_fract_z
Si Si1 0.912707 0.654738 0.200126
Si Si2 0.703027 0.771279 0.987261
Si Si3 0.152172 0.575881 0.652850
Si Si4 0.809840 0.036674 0.232935
Si Si5 0.362941 0.410520 0.167698
Si Si6 0.595914 0.332553 0.734574
Si Si7 0.932375 0.179754 0.561103
Si Si8 0.887279 0.889035 0.810870
O O1 0.821584 0.622772 0.309383
O O2 0.157942 0.474829 0.223040
O O3 0.842787 0.874644 0.168711
O O4 0.829256 0.632416 0.098482
O O5 0.636131 0.655477 0.945954
O O6 0.860377 0.775138 0.911391
O O7 0.500000 0.000000 0.000000
O O8 0.360181 0.515103 0.693998
O O9 0.110262 0.641208 0.525233
O O10 0.958072 0.766082 0.710319
O O11 0.566999 0.222875 0.237792
O O12 0.939765 0.094619 0.173656
O O13 0.880428 0.927519 0.355207
O O14 0.353491 0.598714 0.169833
O O15 0.726612 0.289207 0.628113
O O16 0.661663 0.117342 0.784835
O O17 0.000000 0.000000 0.500000
#
# Coordination Sequence:
#
# PCOD8030370 Si02
#       8
#     2   2   2   2   2   2   2   2
#     4  12  26  47  65  99 141 175 227 284 337 400
#     4  12  26  47  72  97 138 187 221 282 348 399
#     4  12  24  42  73 100 136 185 227 273 342 404
#     4  11  24  46  67 101 139 171 226 290 326 400
#     4  12  23  45  70  97 142 175 222 287 337 393
#     4  11  23  43  71 104 135 177 225 282 334 405
#     4  11  21  44  73  99 138 178 224 278 338 404
#     4  11  23  44  69 100 135 178 231 278 335 401
#
# _framework density 22.351609
#
# number of rings (size 3 to 8) (size 9 to 14) (size 15 to 20)
#    0.000    0.500    8.750    1.500    0.000    1.000 
#    0.000    3.750    0.000    0.000    0.000    0.000 
#    0.000    0.000    0.000    0.000    0.000    0.000 
#
# Total GULP energy -198229.624912 kJ/mol
# GULP energy per Si atom -12389.351557 kJ/mol
# Density = 2.230074 g / cm^3
# Si number density = 22.351609 Si / 1000 Ang^3
#
#
#
# Elastic Constant Matrix: (Units=GPa)
#
#
# Indices 1 2 3 4 5 6 
#
# 1 81.2520 32.1422 25.4051 -9.1169 11.1990 -11.9952
# 2 32.1422 95.3886 14.0693 6.0884 1.0182 -13.7695
# 3 25.4051 14.0693 67.4791 -10.4765 -0.1590 -4.8856
# 4 -9.1169 6.0884 -10.4765 45.6671 2.6758 9.8219
# 5 11.1990 1.0182 -0.1590 2.6758 31.6048 -5.0542
# 6 -11.9952 -13.7695 -4.8856 9.8219 -5.0542 37.4305
#
#
#
# Elastic Compliance Matrix: (Units=1/GPa)
#
#
# Indices 1 2 3 4 5 6 
#
# 1 0.017179 -0.004993 -0.004868 0.003020 -0.005977 0.001434
# 2 -0.004993 0.013234 -0.001190 -0.004149 0.002412 0.004527
# 3 -0.004868 -0.001190 0.017369 0.003158 0.001527 -0.000353
# 4 0.003020 -0.004149 0.003158 0.025631 -0.004282 -0.007450
# 5 -0.005977 0.002412 0.001527 -0.004282 0.034851 0.005001
# 6 0.001434 0.004527 -0.000353 -0.007450 0.005001 0.031425
#
#
# Mechanical properties :
#
#
# Convention : Reuss Voigt Hill
#
# Bulk Modulus (GPa) = 38.94160 43.03921 40.99041
# Shear Modulus (GPa) = 29.35115 34.44069 31.89592
#
# Velocity S-wave (km/s) = 3.62768 3.92964 3.78167
# Velocity P-wave (km/s) = 5.91666 6.31559 6.11938
#
# Compressibility (1/GPa) = 0.02567948
#
# Stress axis : x y z
#
# Youngs Moduli (GPa) = 58.21093 75.56320 57.57497
#
# Poissons Ratio (x) = 0.37726 0.28028
# Poissons Ratio (y) = 0.29063 0.06853
# Poissons Ratio (z) = 0.28338 0.08994
#
# Static dielectric constant tensor:
#      x y z
#    x 4.254620 0.046670 0.209780 
#    y 0.046670 4.334220 0.158530 
#    z 0.209780 0.158530 4.256630 
# 
# 
# High freq. dielectric constant tensor:
#      x y z
#    x 1.878320 -0.006380 0.006010 
#    y -0.006380 1.904600 0.007330 
#    z 0.006010 0.007330 1.858060 
# 
# From -- ./inp_files/382311.got.cif
#   From: 2010.06.25/outbox.cif.g09.slc.cpg/sg2_192_cif.got.tgz:382311.got - 2010.06.27 13:26:56.
