data_PCOD8031501
_publ_section_title
;
Structure prediction by ZEFSAII (Michael W. Deem and Ramdas Pophale) SiO2 
 PCOD8031501
Probable space group: P -1
;
_chemical_formula_sum "Si O2"
_cell_formula_units_Z 16
_cell_length_a 11.830019
_cell_length_b 9.349621
_cell_length_c 15.955243
_cell_angle_alpha 56.365365
_cell_angle_beta 62.637420
_cell_angle_gamma 110.258097
_cell_volume 760.612696
_symmetry_space_group_name_H-M "P -1"
_symmetry_group_IT_number 2
_symmetry_cell_setting 'triclinic'
loop_
_space_group_symop_operation_xyz
x,y,z
-x,-y,-z
loop_
_atom_site_type_symbol
_atom_site_label
_atom_site_fract_x
_atom_site_fract_y
_atom_site_fract_z
Si Si1 0.182835 0.723900 0.505683
Si Si2 0.997208 0.792213 0.334624
Si Si3 0.490066 0.637154 0.057926
Si Si4 0.958208 0.648493 0.994501
Si Si5 0.415969 0.641385 0.900708
Si Si6 0.701781 0.338368 0.349069
Si Si7 0.107899 0.276165 0.418678
Si Si8 0.728366 0.703115 0.320712
O O1 0.180668 0.627284 0.626302
O O2 0.101660 0.505942 0.532617
O O3 0.012338 0.688106 0.584422
O O4 0.425858 0.038323 0.291828
O O5 0.937323 0.804546 0.441442
O O6 0.887027 0.790109 0.304550
O O7 0.251259 0.047562 0.140761
O O8 0.457211 0.396367 0.149543
O O9 0.365399 0.571003 0.205751
O O10 0.374737 0.600219 0.028366
O O11 0.813752 0.590227 0.993202
O O12 0.851819 0.507975 0.164360
O O13 0.165761 0.995438 0.834821
O O14 0.000000 0.500000 0.000000
O O15 0.669328 0.505044 0.329743
O O16 0.500000 0.000000 0.500000
O O17 0.000000 0.000000 0.500000
O O18 0.500000 0.500000 0.500000
#
# Coordination Sequence:
#
# PCOD8031501 Si02
#       8
#     2   2   2   2   2   2   2   2
#     4  11  24  44  66  97 140 179 223 292 349 407
#     4  11  25  47  67  98 145 176 225 293 350 405
#     4  11  23  43  70 103 132 185 227 277 350 410
#     4  12  26  43  71 103 140 186 233 289 353 423
#     4  11  22  44  69  96 144 175 223 289 347 407
#     4  11  24  45  69  98 137 182 236 288 352 411
#     4  12  24  40  71 102 130 180 231 276 346 421
#     4  11  26  47  69 100 138 185 234 294 351 418
#
# _framework density 21.035672999999999
#
# number of rings (size 3 to 8) (size 9 to 14) (size 15 to 20)
#    0.000    0.750    5.000    2.250    3.500    2.500 
#    4.500    0.000    0.000    0.000    0.000    0.000 
#    0.000    0.000    0.000    0.000    0.000    0.000 
#
# Total GULP energy -198237.755132 kJ/mol
# GULP energy per Si atom -12389.859696 kJ/mol
# Density = 2.098779 g / cm^3
# Si number density = 21.035673 Si / 1000 Ang^3
#
#
#
# Elastic Constant Matrix: (Units=GPa)
#
#
# Indices 1 2 3 4 5 6 
#
# 1 57.0301 29.3732 27.5639 2.8057 12.3984 -10.8525
# 2 29.3732 156.6516 70.4338 -9.4150 4.1331 -22.2380
# 3 27.5639 70.4338 166.1170 -3.5703 -5.9376 -4.2243
# 4 2.8057 -9.4150 -3.5703 45.0326 -5.0420 4.6583
# 5 12.3984 4.1331 -5.9376 -5.0420 29.3090 2.2098
# 6 -10.8525 -22.2380 -4.2243 4.6583 2.2098 33.7964
#
#
#
# Elastic Compliance Matrix: (Units=1/GPa)
#
#
# Indices 1 2 3 4 5 6 
#
# 1 0.024545 -0.001827 -0.003634 -0.004352 -0.012185 0.007622
# 2 -0.001827 0.009071 -0.003445 0.001075 -0.001388 0.004894
# 3 -0.003634 -0.003445 0.008176 0.000897 0.004045 -0.002800
# 4 -0.004352 0.001075 0.000897 0.023923 0.006310 -0.004288
# 5 -0.012185 -0.001388 0.004045 0.006310 0.041973 -0.007935
# 6 0.007622 0.004894 -0.002800 -0.004288 -0.007935 0.036017
#
#
# Mechanical properties :
#
#
# Convention : Reuss Voigt Hill
#
# Bulk Modulus (GPa) = 41.69824 70.50451 56.10137
# Shear Modulus (GPa) = 29.49678 38.45612 33.97645
#
# Velocity S-wave (km/s) = 3.74869 4.28031 4.02329
# Velocity P-wave (km/s) = 6.21310 7.61692 6.95054
#
# Compressibility (1/GPa) = 0.02398183
#
# Stress axis : x y z
#
# Youngs Moduli (GPa) = 40.74112 110.23962 122.30695
#
# Poissons Ratio (x) = 0.20137 0.44440
# Poissons Ratio (y) = 0.07442 0.42136
# Poissons Ratio (z) = 0.14803 0.37979
#
# Static dielectric constant tensor:
#      x y z
#    x 4.039100 -0.314530 -0.047220 
#    y -0.314530 4.416800 0.103800 
#    z -0.047220 0.103800 4.021970 
# 
# 
# High freq. dielectric constant tensor:
#      x y z
#    x 1.825440 -0.004940 0.009660 
#    y -0.004940 1.832220 -0.008740 
#    z 0.009660 -0.008740 1.840550 
# 
# From -- ./inp_files/245873.got.cif
#   From: 2010.06.25/outbox.cif.g09.slc.cpg/sg2_123_cif.got.tgz:245873.got - 2010.06.27 13:26:56.
