data_PCOD8031900
_publ_section_title
;
Structure prediction by ZEFSAII (Michael W. Deem and Ramdas Pophale) SiO2 
 PCOD8031900
Probable space group: P -1
;
_chemical_formula_sum "Si O2"
_cell_formula_units_Z 16
_cell_length_a 14.913880
_cell_length_b 9.576056
_cell_length_c 13.818797
_cell_angle_alpha 135.448820
_cell_angle_beta 139.621711
_cell_angle_gamma 39.058698
_cell_volume 769.353974
_symmetry_space_group_name_H-M "P -1"
_symmetry_group_IT_number 2
_symmetry_cell_setting 'triclinic'
loop_
_space_group_symop_operation_xyz
x,y,z
-x,-y,-z
loop_
_atom_site_type_symbol
_atom_site_label
_atom_site_fract_x
_atom_site_fract_y
_atom_site_fract_z
Si Si1 0.833654 0.342450 0.871905
Si Si2 0.033086 0.559031 0.664266
Si Si3 0.725796 0.028757 0.698755
Si Si4 0.989751 0.596598 0.232502
Si Si5 0.871563 0.951518 0.153696
Si Si6 0.717029 0.695223 0.795927
Si Si7 0.506858 0.954997 0.345570
Si Si8 0.665870 0.456559 0.162463
O O1 0.703600 0.532550 0.784580
O O2 0.963265 0.123094 0.804891
O O3 0.739056 0.257151 0.819654
O O4 0.909498 0.452672 0.057218
O O5 0.030903 0.384531 0.657791
O O6 0.199801 0.561793 0.811367
O O7 0.000000 0.500000 0.500000
O O8 0.895314 0.812615 0.704881
O O9 0.581299 0.067510 0.529675
O O10 0.668278 0.002243 0.744257
O O11 0.904540 0.857129 0.245308
O O12 0.176939 0.459393 0.285147
O O13 0.746838 0.228595 0.184856
O O14 0.804605 0.812905 0.975126
O O15 0.536932 0.898294 0.717536
O O16 0.628594 0.680537 0.304809
O O17 0.500000 0.500000 0.000000
#
# Coordination Sequence:
#
# PCOD8031900 Si02
#       8
#     2   2   2   2   2   2   2   2
#     4   9  19  35  64  92 115 158 209 246 297 371
#     4  12  24  42  63  88 125 167 209 249 306 372
#     4  11  23  39  60  87 123 162 207 251 301 368
#     4   9  20  37  64  91 116 160 206 250 299 366
#     4   9  18  37  61  92 123 153 200 257 303 359
#     4   9  17  36  61  91 123 153 199 255 306 352
#     4  11  23  38  59  89 127 160 199 259 308 350
#     4  12  24  38  63  94 124 161 204 256 309 359
#
# _framework density 20.796669000000001
#
# number of rings (size 3 to 8) (size 9 to 14) (size 15 to 20)
#    0.000    1.750    5.000    1.500    1.750    1.000 
#    0.000    2.500    5.500    0.000    0.000    0.000 
#    0.000    0.000    0.000    0.000    0.000    0.000 
#
# Total GULP energy -198243.617896 kJ/mol
# GULP energy per Si atom -12390.226118 kJ/mol
# Density = 2.074934 g / cm^3
# Si number density = 20.796669 Si / 1000 Ang^3
#
#
#
# Elastic Constant Matrix: (Units=GPa)
#
#
# Indices 1 2 3 4 5 6 
#
# 1 58.0912 22.8662 16.1312 -13.4971 -6.5353 0.3340
# 2 22.8662 142.4142 15.4991 -11.2571 -7.5721 10.9863
# 3 16.1312 15.4991 34.5498 -9.1750 4.4091 6.1517
# 4 -13.4971 -11.2571 -9.1750 24.4361 3.8341 -6.5922
# 5 -6.5353 -7.5721 4.4091 3.8341 34.7541 -5.9813
# 6 0.3340 10.9863 6.1517 -6.5922 -5.9813 30.6202
#
#
#
# Elastic Compliance Matrix: (Units=1/GPa)
#
#
# Indices 1 2 3 4 5 6 
#
# 1 0.023207 -0.002170 -0.009017 0.009075 0.004938 0.005256
# 2 -0.002170 0.007882 -0.002064 0.000950 0.001128 -0.001965
# 3 -0.009017 -0.002064 0.038647 0.008136 -0.009144 -0.006960
# 4 0.009075 0.000950 0.008136 0.052260 -0.003420 0.008509
# 5 0.004938 0.001128 -0.009144 -0.003420 0.032695 0.007029
# 6 0.005256 -0.001965 -0.006960 0.008509 0.007029 0.037909
#
#
# Mechanical properties :
#
#
# Convention : Reuss Voigt Hill
#
# Bulk Modulus (GPa) = 23.13158 38.22757 30.67958
# Shear Modulus (GPa) = 21.41209 29.99933 25.70571
#
# Velocity S-wave (km/s) = 3.21221 3.80215 3.51956
# Velocity P-wave (km/s) = 4.99045 6.13976 5.59470
#
# Compressibility (1/GPa) = 0.04323094
#
# Stress axis : x y z
#
# Youngs Moduli (GPa) = 43.09130 126.87925 25.87539
#
# Poissons Ratio (x) = 0.27535 0.23333
# Poissons Ratio (y) = 0.09352 0.05341
# Poissons Ratio (z) = 0.38857 0.26191
#
# Static dielectric constant tensor:
#      x y z
#    x 3.967130 0.252940 0.011810 
#    y 0.252940 4.319530 -0.257140 
#    z 0.011810 -0.257140 3.532310 
# 
# 
# High freq. dielectric constant tensor:
#      x y z
#    x 1.800860 0.015570 0.006740 
#    y 0.015570 1.821410 -0.011190 
#    z 0.006740 -0.011190 1.792910 
# 
# From -- ./inp_files/239971.got.cif
#   From: 2010.06.25/outbox.cif.g09.slc.cpg/sg2_120_cif.got.tgz:239971.got - 2010.06.27 13:26:56.
