data_PCOD8031877
_publ_section_title
;
Structure prediction by ZEFSAII (Michael W. Deem and Ramdas Pophale) SiO2 
 PCOD8031877
Probable space group: P -1
;
_chemical_formula_sum "Si O2"
_cell_formula_units_Z 16
_cell_length_a 12.156290
_cell_length_b 11.597950
_cell_length_c 10.943199
_cell_angle_alpha 122.118673
_cell_angle_beta 146.483945
_cell_angle_gamma 58.862107
_cell_volume 712.487106
_symmetry_space_group_name_H-M "P -1"
_symmetry_group_IT_number 2
_symmetry_cell_setting 'triclinic'
loop_
_space_group_symop_operation_xyz
x,y,z
-x,-y,-z
loop_
_atom_site_type_symbol
_atom_site_label
_atom_site_fract_x
_atom_site_fract_y
_atom_site_fract_z
Si Si1 0.067015 0.515795 0.432648
Si Si2 0.813038 0.442286 0.929439
Si Si3 0.827917 0.159579 0.020946
Si Si4 0.217461 0.143047 0.221761
Si Si5 0.475737 0.330729 0.682706
Si Si6 0.146865 0.284620 0.993575
Si Si7 0.979576 0.170071 0.433028
Si Si8 0.263663 0.029553 0.790465
O O1 0.305314 0.458943 0.627412
O O2 0.028077 0.673493 0.443330
O O3 0.000000 0.500000 0.500000
O O4 0.951819 0.435970 0.179465
O O5 0.748197 0.600485 0.914002
O O6 0.608520 0.379605 0.723834
O O7 0.924593 0.355616 0.871256
O O8 0.638041 0.284383 0.915719
O O9 0.732017 0.020198 0.841949
O O10 0.958366 0.161362 0.263950
O O11 0.980554 0.176965 0.060563
O O12 0.371991 0.195187 0.488288
O O13 0.263711 0.225335 0.189659
O O14 0.145335 0.153414 0.831900
O O15 0.192298 0.074739 0.612148
O O16 0.802055 0.112608 0.308197
O O17 0.500000 0.000000 0.000000
#
# Coordination Sequence:
#
# PCOD8031877 Si02
#       8
#     2   2   2   2   2   2   2   2
#     4  12  26  45  68 102 148 184 232 289 349 420
#     4  11  25  45  72 101 143 184 234 298 348 413
#     4  11  24  45  71 101 141 179 232 293 346 418
#     4  11  23  45  69 104 137 176 231 297 351 407
#     4  12  24  44  70 105 132 191 241 274 356 419
#     4  11  22  50  69  98 145 177 232 303 346 405
#     4  11  25  46  70  99 138 187 226 289 352 408
#     4  11  26  48  72 103 136 185 238 286 352 423
#
# _framework density 22.456548000000002
#
# number of rings (size 3 to 8) (size 9 to 14) (size 15 to 20)
#    0.000    0.750    5.000    1.875    1.750    4.500 
#    9.000    0.000    0.000    0.000    0.000    0.000 
#    0.000    0.000    0.000    0.000    0.000    0.000 
#
# Total GULP energy -198303.376165 kJ/mol
# GULP energy per Si atom -12393.961010 kJ/mol
# Density = 2.240544 g / cm^3
# Si number density = 22.456548 Si / 1000 Ang^3
#
#
#
# Elastic Constant Matrix: (Units=GPa)
#
#
# Indices 1 2 3 4 5 6 
#
# 1 74.0480 30.4966 37.9149 -9.0566 4.8269 4.2766
# 2 30.4966 110.0447 37.3466 4.0605 19.6869 12.5763
# 3 37.9149 37.3466 107.8672 -9.6418 19.5661 8.7910
# 4 -9.0566 4.0605 -9.6418 46.2818 0.5113 -7.4105
# 5 4.8269 19.6869 19.5661 0.5113 36.0367 -5.4716
# 6 4.2766 12.5763 8.7910 -7.4105 -5.4716 31.8494
#
#
#
# Elastic Compliance Matrix: (Units=1/GPa)
#
#
# Indices 1 2 3 4 5 6 
#
# 1 0.017961 -0.004012 -0.005335 0.003019 0.002921 0.001849
# 2 -0.004012 0.012665 -0.001627 -0.003098 -0.006338 -0.005823
# 3 -0.005335 -0.001627 0.013172 0.001433 -0.006021 -0.002978
# 4 0.003019 -0.003098 0.001433 0.023738 0.001105 0.006135
# 5 0.002921 -0.006338 -0.006021 0.001105 0.035615 0.010148
# 6 0.001849 -0.005823 -0.002978 0.006135 0.010148 0.037441
#
#
# Mechanical properties :
#
#
# Convention : Reuss Voigt Hill
#
# Bulk Modulus (GPa) = 45.76785 55.94179 50.85482
# Shear Modulus (GPa) = 29.44233 35.24703 32.34468
#
# Velocity S-wave (km/s) = 3.62481 3.96607 3.79928
# Velocity P-wave (km/s) = 6.15986 6.77777 6.47619
#
# Compressibility (1/GPa) = 0.02184940
#
# Stress axis : x y z
#
# Youngs Moduli (GPa) = 55.67704 78.95764 75.91843
#
# Poissons Ratio (x) = 0.31680 0.40499
# Poissons Ratio (y) = 0.22339 0.12355
# Poissons Ratio (z) = 0.29701 0.12849
#
# Static dielectric constant tensor:
#      x y z
#    x 3.950890 0.261820 -0.082780 
#    y 0.261820 4.511630 0.074850 
#    z -0.082780 0.074850 3.940590 
# 
# 
# High freq. dielectric constant tensor:
#      x y z
#    x 1.873320 0.020740 -0.003430 
#    y 0.020740 1.911640 0.003940 
#    z -0.003430 0.003940 1.875240 
# 
# From -- ./inp_files/427941.got.cif
#   From: 2010.06.25/outbox.cif.g09.slc.cpg/sg2_214_cif.got.tgz:427941.got - 2010.06.27 13:26:56.
