data_PCOD8031586
_publ_section_title
;
Structure prediction by ZEFSAII (Michael W. Deem and Ramdas Pophale) SiO2 
 PCOD8031586
Probable space group: P -1
;
_chemical_formula_sum "Si O2"
_cell_formula_units_Z 10
_cell_length_a 9.125069
_cell_length_b 11.373166
_cell_length_c 11.358397
_cell_angle_alpha 144.777133
_cell_angle_beta 50.198287
_cell_angle_gamma 105.990941
_cell_volume 433.288806
_symmetry_space_group_name_H-M "P -1"
_symmetry_group_IT_number 2
_symmetry_cell_setting 'triclinic'
loop_
_space_group_symop_operation_xyz
x,y,z
-x,-y,-z
loop_
_atom_site_type_symbol
_atom_site_label
_atom_site_fract_x
_atom_site_fract_y
_atom_site_fract_z
Si Si1 0.209037 0.286762 0.148982
Si Si2 0.245436 0.071318 0.719509
Si Si3 0.545274 0.159215 0.191653
Si Si4 0.533075 0.468575 0.817903
Si Si5 0.772246 0.392354 0.127283
O O1 0.402110 0.345793 0.107629
O O2 0.000000 0.500000 0.500000
O O3 0.140973 0.277151 0.042825
O O4 0.283966 0.025022 0.947416
O O5 0.500000 0.000000 0.500000
O O6 0.268858 0.820136 0.539839
O O7 0.052035 0.211406 0.831190
O O8 0.666621 0.258536 0.134418
O O9 0.316788 0.367531 0.549487
O O10 0.500000 0.000000 0.000000
O O11 0.311043 0.538412 0.909710
O O12 0.500000 0.500000 0.000000
#
# Coordination Sequence:
#
# PCOD8031586 Si02
#       5
#     2   2   2   2   2
#     4  12  25  45  75 108 149 189 243 304 366 433
#     4  12  27  49  69 107 152 195 241 303 364 435
#     4  11  22  44  73 111 143 184 243 308 367 425
#     4  12  26  49  71 108 145 192 248 295 366 437
#     4  11  26  44  76 106 145 191 247 297 363 440
#
# _framework density 23.079294999999998
#
# number of rings (size 3 to 8) (size 9 to 14) (size 15 to 20)
#    0.000    0.400    6.000    2.400    2.800    3.200 
#    0.000    0.000    0.000    0.000    0.000    0.000 
#    0.000    0.000    0.000    0.000    0.000    0.000 
#
# Total GULP energy -123924.701239 kJ/mol
# GULP energy per Si atom -12392.470124 kJ/mol
# Density = 2.302677 g / cm^3
# Si number density = 23.079295 Si / 1000 Ang^3
#
#
#
# Elastic Constant Matrix: (Units=GPa)
#
#
# Indices 1 2 3 4 5 6 
#
# 1 169.2014 33.9038 80.3659 -5.3261 -2.9991 -31.9133
# 2 33.9038 71.7296 43.7449 1.6791 0.5824 -18.7866
# 3 80.3659 43.7449 152.4908 5.4381 1.4856 -13.8551
# 4 -5.3261 1.6791 5.4381 43.6838 -2.3787 1.9987
# 5 -2.9991 0.5824 1.4856 -2.3787 55.1117 9.6510
# 6 -31.9133 -18.7866 -13.8551 1.9987 9.6510 28.1718
#
#
#
# Elastic Compliance Matrix: (Units=1/GPa)
#
#
# Indices 1 2 3 4 5 6 
#
# 1 0.009716 0.000581 -0.004465 0.001234 -0.000957 0.009439
# 2 0.000581 0.019895 -0.004840 -0.000780 -0.002248 0.012370
# 3 -0.004465 -0.004840 0.010055 -0.001459 0.000043 -0.003251
# 4 0.001234 -0.000780 -0.001459 0.023426 0.001477 -0.002008
# 5 -0.000957 -0.002248 0.000043 0.001477 0.019836 -0.009462
# 6 0.009439 0.012370 -0.003251 -0.002008 -0.009462 0.056223
#
#
# Mechanical properties :
#
#
# Convention : Reuss Voigt Hill
#
# Bulk Modulus (GPa) = 45.00462 78.82790 61.91626
# Shear Modulus (GPa) = 30.48697 41.08728 35.78712
#
# Velocity S-wave (km/s) = 3.63845 4.22390 3.94206
# Velocity P-wave (km/s) = 6.09864 7.61694 6.89968
#
# Compressibility (1/GPa) = 0.02221994
#
# Stress axis : x y z
#
# Youngs Moduli (GPa) = 102.91926 50.26500 99.45026
#
# Poissons Ratio (x) = -0.02921 0.44400
# Poissons Ratio (y) = -0.05982 0.48132
# Poissons Ratio (z) = 0.45949 0.24327
#
# Static dielectric constant tensor:
#      x y z
#    x 4.268200 -0.458070 -0.201960 
#    y -0.458070 4.690050 0.439130 
#    z -0.201960 0.439130 3.642890 
# 
# 
# High freq. dielectric constant tensor:
#      x y z
#    x 1.921100 -0.009620 0.016080 
#    y -0.009620 1.910470 0.022620 
#    z 0.016080 0.022620 1.918980 
# 
# From -- ./inp_files/16612.got.cif
#   From: 2010.06.25/outbox.cif.g09.slc.cpg/sg2_9_cif.got.tgz:16612.got - 2010.06.27 13:26:56.
