data_PCOD8031237
_publ_section_title
;
Structure prediction by ZEFSAII (Michael W. Deem and Ramdas Pophale) SiO2 
 PCOD8031237
Probable space group: P -1
;
_chemical_formula_sum "Si O2"
_cell_formula_units_Z 14
_cell_length_a 20.765890
_cell_length_b 11.669553
_cell_length_c 15.582786
_cell_angle_alpha 36.746128
_cell_angle_beta 153.126677
_cell_angle_gamma 158.262916
_cell_volume 623.691887
_symmetry_space_group_name_H-M "P -1"
_symmetry_group_IT_number 2
_symmetry_cell_setting 'triclinic'
loop_
_space_group_symop_operation_xyz
x,y,z
-x,-y,-z
loop_
_atom_site_type_symbol
_atom_site_label
_atom_site_fract_x
_atom_site_fract_y
_atom_site_fract_z
Si Si1 0.437602 0.280271 0.705450
Si Si2 0.417868 0.375694 0.882791
Si Si3 0.687120 0.358602 0.496753
Si Si4 0.097345 0.263596 0.307482
Si Si5 0.793046 0.653051 0.050019
Si Si6 0.105558 0.603060 0.772708
Si Si7 0.852343 0.646419 0.880883
O O1 0.220859 0.189550 0.491673
O O2 0.576634 0.408708 0.703263
O O3 0.336934 0.972023 0.805725
O O4 0.645620 0.570911 0.841763
O O5 0.434861 0.580625 0.719908
O O6 0.500000 0.500000 0.000000
O O7 0.600200 0.414900 0.038205
O O8 0.157393 0.022349 0.782875
O O9 0.771049 0.467841 0.628858
O O10 0.883104 0.506492 0.571349
O O11 0.500000 0.000000 0.500000
O O12 0.088547 0.342116 0.154394
O O13 0.920622 0.587764 0.218025
O O14 0.980278 0.008973 0.089574
O O15 0.117323 0.515849 0.931986
#
# Coordination Sequence:
#
# PCOD8031237 Si02
#       7
#     2   2   2   2   2   2   2
#     4  11  22  44  70  98 141 184 227 278 340 408
#     4  12  24  48  72 100 136 182 230 277 343 416
#     4  12  27  47  71 101 139 179 229 286 345 403
#     4  12  25  45  70 100 142 184 225 283 343 411
#     4  11  22  42  74  98 138 180 228 275 340 404
#     4  11  24  44  70 103 137 180 229 278 341 399
#     4  11  24  42  69 106 138 181 229 276 343 404
#
# _framework density 22.446981999999998
#
# number of rings (size 3 to 8) (size 9 to 14) (size 15 to 20)
#    0.000    0.571    4.286    6.000    2.000    0.571 
#    5.143    1.429    0.000    0.000    0.000    0.000 
#    0.000    0.000    0.000    0.000    0.000    0.000 
#
# Total GULP energy -173533.871902 kJ/mol
# GULP energy per Si atom -12395.276564 kJ/mol
# Density = 2.239589 g / cm^3
# Si number density = 22.446982 Si / 1000 Ang^3
#
#
#
# Elastic Constant Matrix: (Units=GPa)
#
#
# Indices 1 2 3 4 5 6 
#
# 1 131.9807 52.7960 31.7975 -2.7213 -0.8735 11.3396
# 2 52.7960 148.1266 34.3302 13.8828 -11.7881 13.9625
# 3 31.7975 34.3302 55.9300 4.7360 -2.7901 -4.5811
# 4 -2.7213 13.8828 4.7360 25.6649 0.7557 1.5101
# 5 -0.8735 -11.7881 -2.7901 0.7557 46.1077 10.0318
# 6 11.3396 13.9625 -4.5811 1.5101 10.0318 34.4984
#
#
#
# Elastic Compliance Matrix: (Units=1/GPa)
#
#
# Indices 1 2 3 4 5 6 
#
# 1 0.010060 -0.002552 -0.004703 0.003496 -0.000149 -0.003008
# 2 -0.002552 0.009777 -0.004364 -0.004588 0.003227 -0.004435
# 3 -0.004703 -0.004364 0.023992 -0.002940 -0.001224 0.006983
# 4 0.003496 -0.004588 -0.002940 0.042471 -0.001756 -0.001031
# 5 -0.000149 0.003227 -0.001224 -0.001756 0.024295 -0.008407
# 6 -0.003008 -0.004435 0.006983 -0.001031 -0.008407 0.035188
#
#
# Mechanical properties :
#
#
# Convention : Reuss Voigt Hill
#
# Bulk Modulus (GPa) = 48.56494 63.76496 56.16495
# Shear Modulus (GPa) = 28.42775 35.72844 32.07810
#
# Velocity S-wave (km/s) = 3.56257 3.99392 3.78439
# Velocity P-wave (km/s) = 6.21328 7.05245 6.64613
#
# Compressibility (1/GPa) = 0.02059099
#
# Stress axis : x y z
#
# Youngs Moduli (GPa) = 99.40059 102.28257 41.68061
#
# Poissons Ratio (x) = 0.26100 0.19603
# Poissons Ratio (y) = 0.25364 0.18190
# Poissons Ratio (z) = 0.46750 0.44638
#
# Static dielectric constant tensor:
#      x y z
#    x 4.652460 0.331360 0.349390 
#    y 0.331360 4.016730 0.160960 
#    z 0.349390 0.160960 4.000870 
# 
# 
# High freq. dielectric constant tensor:
#      x y z
#    x 1.904990 0.015270 0.016070 
#    y 0.015270 1.887510 0.013420 
#    z 0.016070 0.013420 1.870340 
# 
# From -- ./inp_files/382085.got.cif
#   From: 2010.06.25/outbox.cif.g09.slc.cpg/sg2_192_cif.got.tgz:382085.got - 2010.06.27 13:26:56.
