data_PCOD8031490
_publ_section_title
;
Structure prediction by ZEFSAII (Michael W. Deem and Ramdas Pophale) SiO2 
 PCOD8031490
Probable space group: P -1
;
_chemical_formula_sum "Si O2"
_cell_formula_units_Z 16
_cell_length_a 9.355840
_cell_length_b 12.657068
_cell_length_c 9.331976
_cell_angle_alpha 55.295545
_cell_angle_beta 79.801358
_cell_angle_gamma 56.883486
_cell_volume 746.358429
_symmetry_space_group_name_H-M "P -1"
_symmetry_group_IT_number 2
_symmetry_cell_setting 'triclinic'
loop_
_space_group_symop_operation_xyz
x,y,z
-x,-y,-z
loop_
_atom_site_type_symbol
_atom_site_label
_atom_site_fract_x
_atom_site_fract_y
_atom_site_fract_z
Si Si1 0.775478 0.133381 0.562190
Si Si2 0.574715 0.850510 0.407901
Si Si3 0.117592 0.835781 0.786092
Si Si4 0.358398 0.534175 0.609725
Si Si5 0.381593 0.190861 0.246562
Si Si6 0.149277 0.387096 0.670197
Si Si7 0.464498 0.629848 0.015157
Si Si8 0.046562 0.346261 0.030726
O O1 0.594796 0.147778 0.610287
O O2 0.811543 0.119002 0.397231
O O3 0.772155 0.282775 0.495167
O O4 0.929181 0.989003 0.737947
O O5 0.647873 0.765596 0.613191
O O6 0.716236 0.769329 0.319319
O O7 0.539194 0.018182 0.314701
O O8 0.264279 0.779105 0.926982
O O9 0.099558 0.689894 0.882588
O O10 0.500000 0.500000 0.500000
O O11 0.245280 0.466444 0.646035
O O12 0.488217 0.451908 0.780498
O O13 0.406536 0.315370 0.073913
O O14 0.215777 0.207196 0.187449
O O15 0.073234 0.350175 0.851301
O O16 0.000000 0.500000 0.500000
O O17 0.500000 0.500000 0.000000
O O18 0.000000 0.500000 0.000000
#
# Coordination Sequence:
#
# PCOD8031490 Si02
#       8
#     2   2   2   2   2   2   2   2
#     4  11  22  44  69 104 139 178 229 289 349 408
#     4  11  23  45  70 100 144 180 228 290 356 412
#     4  11  24  40  72 100 136 176 234 288 337 404
#     4  12  25  44  71  98 141 188 227 282 360 414
#     4  11  23  42  71 102 129 188 232 280 353 413
#     4  12  28  46  69 104 142 182 229 293 353 414
#     4  12  23  44  70 104 134 182 239 285 337 417
#     4  12  24  43  68 102 135 176 237 286 341 413
#
# _framework density 21.437422000000002
#
# number of rings (size 3 to 8) (size 9 to 14) (size 15 to 20)
#    0.000    0.500    6.250    2.250    1.750    1.500 
#    2.250    0.625    0.000    0.000    0.000    0.000 
#    0.000    0.000    0.000    0.000    0.000    0.000 
#
# Total GULP energy -198348.404707 kJ/mol
# GULP energy per Si atom -12396.775294 kJ/mol
# Density = 2.138863 g / cm^3
# Si number density = 21.437422 Si / 1000 Ang^3
#
#
#
# Elastic Constant Matrix: (Units=GPa)
#
#
# Indices 1 2 3 4 5 6 
#
# 1 81.6278 6.3910 28.5449 1.6475 15.2907 -3.9135
# 2 6.3910 98.8924 43.1630 3.7146 9.9780 -3.4407
# 3 28.5449 43.1630 102.7911 4.2937 14.1544 -7.2843
# 4 1.6475 3.7146 4.2937 35.1673 -1.4194 -2.1208
# 5 15.2907 9.9780 14.1544 -1.4194 46.7487 -5.9720
# 6 -3.9135 -3.4407 -7.2843 -2.1208 -5.9720 34.3650
#
#
#
# Elastic Compliance Matrix: (Units=1/GPa)
#
#
# Indices 1 2 3 4 5 6 
#
# 1 0.014239 0.001184 -0.003904 -0.000451 -0.003711 0.000240
# 2 0.001184 0.012555 -0.005369 -0.000789 -0.001472 -0.000051
# 3 -0.003904 -0.005369 0.013415 -0.000853 -0.001466 0.001554
# 4 -0.000451 -0.000789 -0.000853 0.028818 0.001674 0.001758
# 5 -0.003711 -0.001472 -0.001466 0.001674 0.023844 0.003366
# 6 0.000240 -0.000051 0.001554 0.001758 0.003366 0.030144
#
#
# Mechanical properties :
#
#
# Convention : Reuss Voigt Hill
#
# Bulk Modulus (GPa) = 41.61456 48.83434 45.22445
# Shear Modulus (GPa) = 33.96656 36.93704 35.45180
#
# Velocity S-wave (km/s) = 3.98484 4.15543 4.07103
# Velocity P-wave (km/s) = 6.37386 6.77147 6.57567
#
# Compressibility (1/GPa) = 0.02403005
#
# Stress axis : x y z
#
# Youngs Moduli (GPa) = 70.22901 79.64887 74.54505
#
# Poissons Ratio (x) = -0.09427 0.29105
# Poissons Ratio (y) = -0.08312 0.40021
# Poissons Ratio (z) = 0.27420 0.42761
#
# Static dielectric constant tensor:
#      x y z
#    x 3.948460 -0.106970 0.129640 
#    y -0.106970 3.909050 -0.171930 
#    z 0.129640 -0.171930 4.018840 
# 
# 
# High freq. dielectric constant tensor:
#      x y z
#    x 1.854040 -0.001650 0.002670 
#    y -0.001650 1.835580 -0.018210 
#    z 0.002670 -0.018210 1.846950 
# 
# From -- ./inp_files/185069.got.cif
#   From: 2010.06.25/outbox.cif.g09.slc.cpg/sg2_93_cif.got.tgz:185069.got - 2010.06.27 13:26:56.
