data_PCOD8031519
_publ_section_title
;
Structure prediction by ZEFSAII (Michael W. Deem and Ramdas Pophale) SiO2 
 PCOD8031519
Probable space group: P -1
;
_chemical_formula_sum "Si O2"
_cell_formula_units_Z 16
_cell_length_a 22.939264
_cell_length_b 9.176103
_cell_length_c 8.224047
_cell_angle_alpha 91.919987
_cell_angle_beta 58.123262
_cell_angle_gamma 139.154618
_cell_volume 723.149638
_symmetry_space_group_name_H-M "P -1"
_symmetry_group_IT_number 2
_symmetry_cell_setting 'triclinic'
loop_
_space_group_symop_operation_xyz
x,y,z
-x,-y,-z
loop_
_atom_site_type_symbol
_atom_site_label
_atom_site_fract_x
_atom_site_fract_y
_atom_site_fract_z
Si Si1 0.212393 0.784119 0.581870
Si Si2 0.502869 0.333475 0.017332
Si Si3 0.957656 0.291555 0.353734
Si Si4 0.746071 0.054354 0.110727
Si Si5 0.067576 0.276710 0.956571
Si Si6 0.705205 0.440393 0.153583
Si Si7 0.761360 0.803466 0.882515
Si Si8 0.520090 0.849951 0.301286
O O1 0.133887 0.739083 0.565406
O O2 0.224803 0.893359 0.737723
O O3 0.125169 0.472691 0.723124
O O4 0.363521 0.022231 0.300506
O O5 0.500000 0.500000 0.000000
O O6 0.635036 0.537419 0.937365
O O7 0.518233 0.276019 0.824926
O O8 0.897458 0.109808 0.598953
O O9 0.116014 0.631016 0.172635
O O10 0.952581 0.162488 0.212472
O O11 0.611277 0.899972 0.263733
O O12 0.714735 0.834157 0.087489
O O13 0.196664 0.491727 0.895458
O O14 0.000000 0.000000 0.000000
O O15 0.622384 0.388869 0.400225
O O16 0.601111 0.153851 0.183915
O O17 0.797016 0.717440 0.916136
#
# Coordination Sequence:
#
# PCOD8031519 Si02
#       8
#     2   2   2   2   2   2   2   2
#     4  11  24  45  73  97 135 179 222 281 343 388
#     4  12  25  43  70 107 133 173 231 288 336 389
#     4  11  24  45  66 101 136 175 223 280 342 391
#     4  11  22  44  70  98 133 176 229 278 329 407
#     4  11  26  45  70 101 134 177 227 273 336 411
#     4  11  27  46  68  98 135 188 219 269 344 403
#     4  12  27  40  70 105 132 177 229 278 339 397
#     4  11  24  48  68  93 143 177 226 276 334 406
#
# _framework density 22.125436000000001
#
# number of rings (size 3 to 8) (size 9 to 14) (size 15 to 20)
#    0.000    0.750    5.000    2.625    8.750    3.000 
#    0.000    0.000    0.000    0.000    0.000    0.000 
#    0.000    0.000    0.000    0.000    0.000    0.000 
#
# Total GULP energy -198479.103414 kJ/mol
# GULP energy per Si atom -12404.943963 kJ/mol
# Density = 2.207508 g / cm^3
# Si number density = 22.125436 Si / 1000 Ang^3
#
#
#
# Elastic Constant Matrix: (Units=GPa)
#
#
# Indices 1 2 3 4 5 6 
#
# 1 78.1845 7.0607 25.8937 -8.4705 12.9324 -15.9981
# 2 7.0607 126.5892 18.6117 14.6735 12.3750 -7.9919
# 3 25.8937 18.6117 86.0173 -1.4035 10.5799 -5.5864
# 4 -8.4705 14.6735 -1.4035 25.0298 -0.8584 -1.2054
# 5 12.9324 12.3750 10.5799 -0.8584 39.0840 -10.2028
# 6 -15.9981 -7.9919 -5.5864 -1.2054 -10.2028 33.7962
#
#
#
# Elastic Compliance Matrix: (Units=1/GPa)
#
#
# Indices 1 2 3 4 5 6 
#
# 1 0.016545 -0.000344 -0.004088 0.005804 -0.002421 0.006551
# 2 -0.000344 0.009072 -0.001622 -0.005562 -0.002221 0.000845
# 3 -0.004088 -0.001622 0.013405 0.000220 -0.001935 -0.000679
# 4 0.005804 -0.005562 0.000220 0.045422 0.001720 0.003608
# 5 -0.002421 -0.002221 -0.001935 0.001720 0.029471 0.006967
# 6 0.006551 0.000845 -0.000679 0.003608 0.006967 0.035010
#
#
# Mechanical properties :
#
#
# Convention : Reuss Voigt Hill
#
# Bulk Modulus (GPa) = 37.15643 43.76925 40.46284
# Shear Modulus (GPa) = 29.41105 35.53034 32.47069
#
# Velocity S-wave (km/s) = 3.64989 4.01166 3.83505
# Velocity P-wave (km/s) = 5.88152 6.42520 6.15936
#
# Compressibility (1/GPa) = 0.02691324
#
# Stress axis : x y z
#
# Youngs Moduli (GPa) = 60.44119 110.22439 74.60124
#
# Poissons Ratio (x) = 0.03795 0.30497
# Poissons Ratio (y) = 0.02081 0.12101
# Poissons Ratio (z) = 0.24709 0.17879
#
# Static dielectric constant tensor:
#      x y z
#    x 3.971030 -0.055810 0.006370 
#    y -0.055810 4.100980 -0.010480 
#    z 0.006370 -0.010480 4.110050 
# 
# 
# High freq. dielectric constant tensor:
#      x y z
#    x 1.869900 -0.006940 -0.000340 
#    y -0.006940 1.878800 -0.002690 
#    z -0.000340 -0.002690 1.873850 
# 
# From -- ./inp_files/352242.got.cif
#   From: 2010.06.25/outbox.cif.g09.slc.cpg/sg2_177_cif.got.tgz:352242.got - 2010.06.27 13:26:56.
