data_PCOD8031476
_publ_section_title
;
Structure prediction by ZEFSAII (Michael W. Deem and Ramdas Pophale) SiO2 
 PCOD8031476
Probable space group: P -1
;
_chemical_formula_sum "Si O2"
_cell_formula_units_Z 16
_cell_length_a 9.845385
_cell_length_b 9.705664
_cell_length_c 16.399837
_cell_angle_alpha 56.005607
_cell_angle_beta 95.571666
_cell_angle_gamma 137.298756
_cell_volume 731.145484
_symmetry_space_group_name_H-M "P -1"
_symmetry_group_IT_number 2
_symmetry_cell_setting 'triclinic'
loop_
_space_group_symop_operation_xyz
x,y,z
-x,-y,-z
loop_
_atom_site_type_symbol
_atom_site_label
_atom_site_fract_x
_atom_site_fract_y
_atom_site_fract_z
Si Si1 0.682528 0.245622 0.181066
Si Si2 0.309303 0.071694 0.614072
Si Si3 0.889280 0.089181 0.027850
Si Si4 0.833248 0.709186 0.445033
Si Si5 0.819486 0.137260 0.701264
Si Si6 0.488184 0.057086 0.888861
Si Si7 0.243884 0.176247 0.061967
Si Si8 0.066145 0.412839 0.366373
O O1 0.931854 0.587249 0.102800
O O2 0.691826 0.062514 0.268531
O O3 0.461652 0.118533 0.255858
O O4 0.624040 0.191123 0.098264
O O5 0.578906 0.393723 0.497729
O O6 0.153755 0.077624 0.629505
O O7 0.196933 0.876233 0.591504
O O8 0.748736 0.862238 0.020069
O O9 0.042480 0.115693 0.082334
O O10 0.686826 0.959851 0.117663
O O11 0.852471 0.669903 0.552907
O O12 0.054352 0.848628 0.363630
O O13 0.944032 0.442483 0.619035
O O14 0.838933 0.066333 0.812621
O O15 0.750884 0.373447 0.768477
O O16 0.500000 0.000000 0.000000
O O17 0.500000 0.500000 0.000000
#
# Coordination Sequence:
#
# PCOD8031476 Si02
#       8
#     2   2   2   2   2   2   2   2
#     4  11  22  44  68  98 136 172 227 276 328 415
#     4  11  24  43  71  93 136 172 223 283 329 392
#     4  11  24  41  67  97 134 179 225 269 343 399
#     4  11  25  45  66  99 134 172 224 279 339 388
#     4  11  23  43  70  93 138 177 218 276 338 393
#     4  11  23  40  69  99 130 174 222 274 338 397
#     4  11  24  43  63  97 140 174 220 286 329 397
#     4  11  24  46  67  97 135 171 229 276 329 403
#
# _framework density 21.883469999999999
#
# number of rings (size 3 to 8) (size 9 to 14) (size 15 to 20)
#    0.000    1.000    3.750    4.125    1.750    1.500 
#    2.250    0.000    0.000    0.000    0.000    0.000 
#    0.000    0.000    0.000    0.000    0.000    0.000 
#
# Total GULP energy -198439.028767 kJ/mol
# GULP energy per Si atom -12402.439298 kJ/mol
# Density = 2.183366 g / cm^3
# Si number density = 21.883470 Si / 1000 Ang^3
#
#
#
# Elastic Constant Matrix: (Units=GPa)
#
#
# Indices 1 2 3 4 5 6 
#
# 1 142.2558 21.6108 41.9972 8.6465 1.6136 -2.5409
# 2 21.6108 111.7596 20.9165 -5.5188 -7.0609 12.7684
# 3 41.9972 20.9165 59.2442 10.2326 10.9017 1.8507
# 4 8.6465 -5.5188 10.2326 25.7596 -2.7471 5.5707
# 5 1.6136 -7.0609 10.9017 -2.7471 43.7457 3.0875
# 6 -2.5409 12.7684 1.8507 5.5707 3.0875 30.2965
#
#
#
# Elastic Compliance Matrix: (Units=1/GPa)
#
#
# Indices 1 2 3 4 5 6 
#
# 1 0.009051 -0.000756 -0.006198 -0.000973 0.000919 0.001542
# 2 -0.000756 0.011319 -0.005114 0.006455 0.003966 -0.006112
# 3 -0.006198 -0.005114 0.026366 -0.010967 -0.008058 0.002863
# 4 -0.000973 0.006455 -0.010967 0.048254 0.007673 -0.011787
# 5 0.000919 0.003966 -0.008058 0.007673 0.026322 -0.005196
# 6 0.001542 -0.006112 0.002863 -0.011787 -0.005196 0.038234
#
#
# Mechanical properties :
#
#
# Convention : Reuss Voigt Hill
#
# Bulk Modulus (GPa) = 44.24913 53.58986 48.91949
# Shear Modulus (GPa) = 26.14863 35.20936 30.67899
#
# Velocity S-wave (km/s) = 3.46049 4.01552 3.74829
# Velocity P-wave (km/s) = 6.01921 6.78536 6.41373
#
# Compressibility (1/GPa) = 0.02259931
#
# Stress axis : x y z
#
# Youngs Moduli (GPa) = 110.49100 88.34889 37.92779
#
# Poissons Ratio (x) = 0.06682 0.23507
# Poissons Ratio (y) = 0.08356 0.19396
# Poissons Ratio (z) = 0.68481 0.45180
#
# Static dielectric constant tensor:
#      x y z
#    x 4.309320 0.107590 0.167220 
#    y 0.107590 3.864000 -0.080370 
#    z 0.167220 -0.080370 3.792840 
# 
# 
# High freq. dielectric constant tensor:
#      x y z
#    x 1.880870 0.009360 0.012320 
#    y 0.009360 1.859260 -0.005180 
#    z 0.012320 -0.005180 1.841730 
# 
# From -- ./inp_files/557009.got.cif
#   From: 2010.06.25/outbox.cif.g09.slc.cpg/sg2_279_cif.got.tgz:557009.got - 2010.06.27 13:26:56.
