data_PCOD8031468
_publ_section_title
;
Structure prediction by ZEFSAII (Michael W. Deem and Ramdas Pophale) SiO2 
 PCOD8031468
Probable space group: P -1
;
_chemical_formula_sum "Si O2"
_cell_formula_units_Z 16
_cell_length_a 23.772985
_cell_length_b 15.746471
_cell_length_c 9.674552
_cell_angle_alpha 117.546891
_cell_angle_beta 51.394951
_cell_angle_gamma 161.582547
_cell_volume 761.244723
_symmetry_space_group_name_H-M "P -1"
_symmetry_group_IT_number 2
_symmetry_cell_setting 'triclinic'
loop_
_space_group_symop_operation_xyz
x,y,z
-x,-y,-z
loop_
_atom_site_type_symbol
_atom_site_label
_atom_site_fract_x
_atom_site_fract_y
_atom_site_fract_z
Si Si1 0.443755 0.852918 0.091534
Si Si2 0.059367 0.827767 0.537161
Si Si3 0.503787 0.729181 0.222391
Si Si4 0.032388 0.756698 0.202256
Si Si5 0.784415 0.617658 0.339418
Si Si6 0.663969 0.142832 0.262640
Si Si7 0.870655 0.783773 0.821352
Si Si8 0.467306 0.684607 0.786662
O O1 0.165476 0.506082 0.294893
O O2 0.603638 0.080554 0.148365
O O3 0.522954 0.849096 0.914171
O O4 0.500000 0.000000 0.000000
O O5 0.035529 0.790836 0.381698
O O6 0.069740 0.953083 0.660202
O O7 0.296628 0.078264 0.415929
O O8 0.375704 0.533929 0.412585
O O9 0.315283 0.496394 0.213201
O O10 0.629805 0.990931 0.248938
O O11 0.702368 0.902811 0.009345
O O12 0.866956 0.619136 0.267206
O O13 0.931692 0.520652 0.162071
O O14 0.628034 0.405554 0.283833
O O15 0.015673 0.974754 0.225274
O O16 0.500000 0.000000 0.500000
O O17 0.735487 0.633114 0.060060
#
# Coordination Sequence:
#
# PCOD8031468 Si02
#       8
#     2   2   2   2   2   2   2   2
#     4  11  23  40  65  96 133 168 215 265 321 389
#     4  11  22  44  68  90 133 176 209 263 330 385
#     4  12  24  42  67 100 127 169 223 267 318 389
#     4  12  24  41  71  97 127 173 217 266 327 379
#     4  12  26  42  67 100 133 163 221 279 311 379
#     4  12  20  42  67  93 130 169 211 268 321 378
#     4  11  23  45  68  94 132 174 216 265 326 384
#     4  11  25  44  65  94 133 175 213 260 332 386
#
# _framework density 21.018205999999999
#
# number of rings (size 3 to 8) (size 9 to 14) (size 15 to 20)
#    0.000    0.500    7.500    1.875    0.000    5.500 
#    0.000    0.000    0.000    0.000    0.000    0.000 
#    0.000    0.000    0.000    0.000    0.000    0.000 
#
# Total GULP energy -198464.741001 kJ/mol
# GULP energy per Si atom -12404.046313 kJ/mol
# Density = 2.097037 g / cm^3
# Si number density = 21.018206 Si / 1000 Ang^3
#
#
#
# Elastic Constant Matrix: (Units=GPa)
#
#
# Indices 1 2 3 4 5 6 
#
# 1 78.4520 27.0506 37.0285 -7.0390 14.8518 8.0440
# 2 27.0506 48.3853 14.0439 -5.8279 -12.6077 9.2341
# 3 37.0285 14.0439 125.1230 -15.9716 -0.1534 18.1459
# 4 -7.0390 -5.8279 -15.9716 32.8301 3.5389 7.3598
# 5 14.8518 -12.6077 -0.1534 3.5389 37.7750 -0.2316
# 6 8.0440 9.2341 18.1459 7.3598 -0.2316 35.5823
#
#
#
# Elastic Compliance Matrix: (Units=1/GPa)
#
#
# Indices 1 2 3 4 5 6 
#
# 1 0.023129 -0.015228 -0.005172 0.001044 -0.014288 0.001052
# 2 -0.015228 0.034914 0.002164 0.003783 0.017249 -0.007392
# 3 -0.005172 0.002164 0.010898 0.005708 0.002228 -0.006116
# 4 0.001044 0.003783 0.005708 0.037068 -0.002670 -0.011813
# 5 -0.014288 0.017249 0.002228 -0.002670 0.038096 -0.001582
# 6 0.001052 -0.007392 -0.006116 -0.011813 -0.001582 0.035337
#
#
# Mechanical properties :
#
#
# Convention : Reuss Voigt Hill
#
# Bulk Modulus (GPa) = 30.79907 45.35626 38.07767
# Shear Modulus (GPa) = 22.05190 32.82662 27.43926
#
# Velocity S-wave (km/s) = 3.24262 3.95627 3.61709
# Velocity P-wave (km/s) = 5.35768 6.51888 5.96660
#
# Compressibility (1/GPa) = 0.03246851
#
# Stress axis : x y z
#
# Youngs Moduli (GPa) = 43.23523 28.64221 91.75709
#
# Poissons Ratio (x) = 0.43615 0.47461
# Poissons Ratio (y) = 0.65837 -0.19854
# Poissons Ratio (z) = 0.22363 -0.06197
#
# Static dielectric constant tensor:
#      x y z
#    x 3.700440 -0.060250 0.126750 
#    y -0.060250 3.875150 -0.119020 
#    z 0.126750 -0.119020 4.218030 
# 
# 
# High freq. dielectric constant tensor:
#      x y z
#    x 1.816570 -0.001430 0.007110 
#    y -0.001430 1.820950 -0.000270 
#    z 0.007110 -0.000270 1.843730 
# 
# From -- ./inp_files/347614.got.cif
#   From: 2010.06.25/outbox.cif.g09.slc.cpg/sg2_174_cif.got.tgz:347614.got - 2010.06.27 13:26:56.
