data_PCOD8031880
_publ_section_title
;
Structure prediction by ZEFSAII (Michael W. Deem and Ramdas Pophale) SiO2 
 PCOD8031880
Probable space group: P -1
;
_chemical_formula_sum "Si O2"
_cell_formula_units_Z 16
_cell_length_a 8.760360
_cell_length_b 10.087849
_cell_length_c 25.961820
_cell_angle_alpha 134.209034
_cell_angle_beta 30.751327
_cell_angle_gamma 137.259700
_cell_volume 781.588862
_symmetry_space_group_name_H-M "P -1"
_symmetry_group_IT_number 2
_symmetry_cell_setting 'triclinic'
loop_
_space_group_symop_operation_xyz
x,y,z
-x,-y,-z
loop_
_atom_site_type_symbol
_atom_site_label
_atom_site_fract_x
_atom_site_fract_y
_atom_site_fract_z
Si Si1 0.265219 0.310234 0.872481
Si Si2 0.736655 0.371407 0.472846
Si Si3 0.671192 0.036417 0.014943
Si Si4 0.687503 0.356339 0.673140
Si Si5 0.671867 0.364297 0.181441
Si Si6 0.747345 0.380697 0.966762
Si Si7 0.226357 0.274434 0.372758
Si Si8 0.829967 0.007923 0.498597
O O1 0.566671 0.290980 0.749127
O O2 0.021458 0.343214 0.910909
O O3 0.412935 0.498114 0.918562
O O4 0.056854 0.115383 0.914121
O O5 0.652978 0.517606 0.575550
O O6 0.937210 0.498721 0.400141
O O7 0.939132 0.259912 0.413024
O O8 0.408228 0.212100 0.504632
O O9 0.581234 0.198396 0.117528
O O10 0.534204 0.822583 0.025858
O O11 0.500000 0.000000 0.000000
O O12 0.487924 0.473253 0.736656
O O13 0.637535 0.157949 0.600730
O O14 0.532207 0.261334 0.248689
O O15 0.060509 0.484414 0.101059
O O16 0.096421 0.086332 0.397672
O O17 0.000000 0.000000 0.500000
#
# Coordination Sequence:
#
# PCOD8031880 Si02
#       8
#     2   2   2   2   2   2   2   2
#     4   8  14  24  37  61  96 127 158 194 237 296
#     4   9  19  35  53  72  98 130 170 217 257 300
#     4   9  15  23  40  68 105 135 155 193 249 299
#     4   9  18  30  46  69  97 131 169 203 247 298
#     4   9  17  28  44  71 102 132 166 202 243 300
#     4   8  14  23  37  62  97 129 156 191 241 291
#     4   9  19  34  52  75 100 132 171 210 255 305
#     4  11  23  36  52  74 101 134 172 217 261 301
#
# _framework density 20.471121
#
# number of rings (size 3 to 8) (size 9 to 14) (size 15 to 20)
#    0.000    3.000    0.000    3.375    0.000   10.000 
#    0.000    0.000    0.000    0.000    0.000    3.500 
#    0.000   13.000    0.000    0.000    0.000    0.000 
#
# Total GULP energy -198214.654472 kJ/mol
# GULP energy per Si atom -12388.415904 kJ/mol
# Density = 2.042453 g / cm^3
# Si number density = 20.471121 Si / 1000 Ang^3
#
#
#
# Elastic Constant Matrix: (Units=GPa)
#
#
# Indices 1 2 3 4 5 6 
#
# 1 46.3108 31.5256 31.0049 -13.8437 15.8203 6.7946
# 2 31.5256 137.0317 58.0947 -25.2212 16.9712 14.7125
# 3 31.0049 58.0947 134.0628 -23.1575 53.7249 -3.0912
# 4 -13.8437 -25.2212 -23.1575 32.2455 -9.0594 5.5446
# 5 15.8203 16.9712 53.7249 -9.0594 23.5317 -3.0356
# 6 6.7946 14.7125 -3.0912 5.5446 -3.0356 16.8275
#
#
#
# Elastic Compliance Matrix: (Units=1/GPa)
#
#
# Indices 1 2 3 4 5 6 
#
# 1 0.056242 -0.010094 0.059766 0.019688 -0.164442 -0.039057
# 2 -0.010094 0.015606 -0.027807 0.005894 0.060550 -0.005696
# 3 0.059766 -0.027807 0.184020 0.021839 -0.438603 -0.052334
# 4 0.019688 0.005894 0.021839 0.051172 -0.052209 -0.035371
# 5 -0.164442 0.060550 -0.438603 -0.052209 1.110043 0.150336
# 6 -0.039057 -0.005696 -0.052334 -0.035371 0.150336 0.109337
#
#
# Mechanical properties :
#
#
# Convention : Reuss Voigt Hill
#
# Bulk Modulus (GPa) = 3.33779 62.07286 32.70533
# Shear Modulus (GPa) = 3.15945 27.63961 15.39953
#
# Velocity S-wave (km/s) = 1.24367 3.67846 2.74570
# Velocity P-wave (km/s) = 1.92258 6.95912 5.10518
#
# Compressibility (1/GPa) = 0.29959917
#
# Stress axis : x y z
#
# Youngs Moduli (GPa) = 17.78027 64.07916 5.43419
#
# Poissons Ratio (x) = 0.64683 -0.32478
# Poissons Ratio (y) = 0.17948 0.15111
# Poissons Ratio (z) = -1.06266 1.78182
#
# Static dielectric constant tensor:
#      x y z
#    x 3.116930 -0.217040 0.615540 
#    y -0.217040 4.319570 -0.523460 
#    z 0.615540 -0.523460 4.297500 
# 
# 
# High freq. dielectric constant tensor:
#      x y z
#    x 1.731300 -0.003680 0.041050 
#    y -0.003680 1.811320 -0.015400 
#    z 0.041050 -0.015400 1.804010 
# 
# From -- ./inp_files/616929.got.cif
#   From: 2010.06.25/outbox.cif.g09.slc.cpg/sg2_309_cif.got.tgz:616929.got - 2010.06.27 13:26:56.
