data_PCOD8031270
_publ_section_title
;
Structure prediction by ZEFSAII (Michael W. Deem and Ramdas Pophale) SiO2 
 PCOD8031270
Probable space group: P -1
;
_chemical_formula_sum "Si O2"
_cell_formula_units_Z 14
_cell_length_a 29.944541
_cell_length_b 15.194253
_cell_length_c 11.322019
_cell_angle_alpha 146.972087
_cell_angle_beta 23.446570
_cell_angle_gamma 161.242322
_cell_volume 640.364220
_symmetry_space_group_name_H-M "P -1"
_symmetry_group_IT_number 2
_symmetry_cell_setting 'triclinic'
loop_
_space_group_symop_operation_xyz
x,y,z
-x,-y,-z
loop_
_atom_site_type_symbol
_atom_site_label
_atom_site_fract_x
_atom_site_fract_y
_atom_site_fract_z
Si Si1 0.262729 0.557531 0.160360
Si Si2 0.709787 0.423105 0.139619
Si Si3 0.941514 0.394367 0.154066
Si Si4 0.342219 0.844791 0.809419
Si Si5 0.855975 0.943127 0.158728
Si Si6 0.342841 0.197995 0.749189
Si Si7 0.556287 0.749622 0.832583
O O1 0.148154 0.550352 0.510152
O O2 0.286144 0.670054 0.100419
O O3 0.146027 0.251740 0.077884
O O4 0.467280 0.759457 0.956703
O O5 0.622422 0.218713 0.230266
O O6 0.562008 0.391346 0.432722
O O7 0.920381 0.742305 0.018679
O O8 0.792092 0.067424 0.136442
O O9 0.000000 0.500000 0.000000
O O10 0.127524 0.554120 0.955999
O O11 0.500000 0.000000 0.500000
O O12 0.360112 0.051786 0.037080
O O13 0.755969 0.927046 0.279552
O O14 0.733841 0.850176 0.465995
O O15 0.377692 0.427699 0.956077
#
# Coordination Sequence:
#
# PCOD8031270 Si02
#       7
#     2   2   2   2   2   2   2
#     4  11  23  41  72 103 139 179 223 287 342 401
#     4  12  23  41  74 103 140 179 233 281 346 403
#     4  12  27  49  68  99 141 185 232 284 343 409
#     4  12  28  48  67 101 138 185 236 281 340 418
#     4  11  22  43  67 112 140 174 231 286 337 411
#     4  11  23  44  69 105 139 180 224 286 345 402
#     4  11  23  45  71 104 144 173 229 287 340 410
#
# _framework density 21.862558
#
# number of rings (size 3 to 8) (size 9 to 14) (size 15 to 20)
#    0.000    0.571    4.286    4.714    4.000    2.286 
#    2.571    3.571    0.000    0.000    0.000    0.000 
#    0.000    0.000    0.000    0.000    0.000    0.000 
#
# Total GULP energy -173507.128263 kJ/mol
# GULP energy per Si atom -12393.366304 kJ/mol
# Density = 2.181280 g / cm^3
# Si number density = 21.862558 Si / 1000 Ang^3
#
#
#
# Elastic Constant Matrix: (Units=GPa)
#
#
# Indices 1 2 3 4 5 6 
#
# 1 135.0022 48.7281 53.8399 -2.3888 7.5364 -13.9467
# 2 48.7281 131.7700 37.5156 -13.4896 4.8858 -5.9434
# 3 53.8399 37.5156 82.3776 -15.7855 -3.4010 -8.7502
# 4 -2.3888 -13.4896 -15.7855 29.1727 7.5091 -4.5124
# 5 7.5364 4.8858 -3.4010 7.5091 40.8336 -12.6586
# 6 -13.9467 -5.9434 -8.7502 -4.5124 -12.6586 37.7454
#
#
#
# Elastic Compliance Matrix: (Units=1/GPa)
#
#
# Indices 1 2 3 4 5 6 
#
# 1 0.011107 -0.002430 -0.006695 -0.003296 -0.001295 0.001341
# 2 -0.002430 0.009504 -0.002145 0.003421 -0.001494 0.000009
# 3 -0.006695 -0.002145 0.019727 0.009034 0.002628 0.003723
# 4 -0.003296 0.003421 0.009034 0.042601 -0.005430 0.004687
# 5 -0.001295 -0.001494 0.002628 -0.005430 0.028895 0.008937
# 6 0.001341 0.000009 0.003723 0.004687 0.008937 0.031411
#
#
# Mechanical properties :
#
#
# Convention : Reuss Voigt Hill
#
# Bulk Modulus (GPa) = 56.18860 69.92411 63.05635
# Shear Modulus (GPa) = 29.11725 35.48809 32.30267
#
# Velocity S-wave (km/s) = 3.65339 4.03331 3.84804
# Velocity P-wave (km/s) = 6.59947 7.33097 6.97481
#
# Compressibility (1/GPa) = 0.01779720
#
# Stress axis : x y z
#
# Youngs Moduli (GPa) = 90.03314 105.21425 50.69180
#
# Poissons Ratio (x) = 0.25568 0.33939
# Poissons Ratio (y) = 0.21879 0.10875
# Poissons Ratio (z) = 0.60280 0.22571
#
# Static dielectric constant tensor:
#      x y z
#    x 4.144710 0.113040 -0.195400 
#    y 0.113040 4.145490 -0.032790 
#    z -0.195400 -0.032790 3.827680 
# 
# 
# High freq. dielectric constant tensor:
#      x y z
#    x 1.865410 0.003850 -0.020140 
#    y 0.003850 1.876590 -0.004490 
#    z -0.020140 -0.004490 1.846510 
# 
# From -- ./inp_files/207685.got.cif
#   From: 2010.06.25/outbox.cif.g09.slc.cpg/sg2_104_cif.got.tgz:207685.got - 2010.06.27 13:26:56.
