data_PCOD8031392
_publ_section_title
;
Structure prediction by ZEFSAII (Michael W. Deem and Ramdas Pophale) SiO2 
 PCOD8031392
Probable space group: P -1
;
_chemical_formula_sum "Si O2"
_cell_formula_units_Z 14
_cell_length_a 11.102680
_cell_length_b 17.283039
_cell_length_c 17.406337
_cell_angle_alpha 22.388421
_cell_angle_beta 27.014896
_cell_angle_gamma 31.462961
_cell_volume 569.536953
_symmetry_space_group_name_H-M "P -1"
_symmetry_group_IT_number 2
_symmetry_cell_setting 'triclinic'
loop_
_space_group_symop_operation_xyz
x,y,z
-x,-y,-z
loop_
_atom_site_type_symbol
_atom_site_label
_atom_site_fract_x
_atom_site_fract_y
_atom_site_fract_z
Si Si1 0.752191 0.918452 0.305759
Si Si2 0.410963 0.413584 0.711762
Si Si3 0.757751 0.873171 0.174695
Si Si4 0.968396 0.419294 0.445606
Si Si5 0.745007 0.941217 0.794601
Si Si6 0.386358 0.318943 0.186122
Si Si7 0.914058 0.738129 0.729017
O O1 0.624428 0.894224 0.316558
O O2 0.801081 0.695441 0.522650
O O3 0.572084 0.095010 0.297430
O O4 0.059937 0.952761 0.095212
O O5 0.500000 0.500000 0.500000
O O6 0.663424 0.378467 0.659291
O O7 0.179116 0.569857 0.740352
O O8 0.305780 0.190010 0.978863
O O9 0.964867 0.660480 0.240458
O O10 0.524442 0.893679 0.224360
O O11 0.081729 0.335596 0.375165
O O12 0.799223 0.785033 0.835753
O O13 0.997660 0.061573 0.548496
O O14 0.325236 0.345575 0.105199
O O15 0.500000 0.500000 0.000000
#
# Coordination Sequence:
#
# PCOD8031392 Si02
#       7
#     2   2   2   2   2   2   2
#     4  11  24  44  69 101 144 190 237 302 363 437
#     4  12  25  45  72 107 145 187 246 307 369 437
#     4  11  22  43  73 102 139 188 245 301 359 437
#     4  12  24  44  70 105 142 189 243 299 373 433
#     4  11  24  47  76 104 147 195 245 311 362 437
#     4  12  25  47  69 102 152 190 240 302 366 447
#     4  11  25  48  72 107 147 193 249 298 375 435
#
# _framework density 24.581372000000002
#
# number of rings (size 3 to 8) (size 9 to 14) (size 15 to 20)
#    0.000    0.571    7.143    1.286    0.000    0.571 
#   10.286    0.000    0.000    0.000    0.000    0.000 
#    0.000    0.000    0.000    0.000    0.000    0.000 
#
# Total GULP energy -173458.777764 kJ/mol
# GULP energy per Si atom -12389.912697 kJ/mol
# Density = 2.452542 g / cm^3
# Si number density = 24.581372 Si / 1000 Ang^3
#
#
#
# Elastic Constant Matrix: (Units=GPa)
#
#
# Indices 1 2 3 4 5 6 
#
# 1 88.3461 33.5704 26.6462 -6.7004 -7.2182 2.6486
# 2 33.5704 157.8639 21.6629 -28.0663 14.5266 -4.9647
# 3 26.6462 21.6629 98.3366 -12.4449 15.3481 -2.0928
# 4 -6.7004 -28.0663 -12.4449 30.9465 -7.4408 -4.0625
# 5 -7.2182 14.5266 15.3481 -7.4408 28.4664 0.8544
# 6 2.6486 -4.9647 -2.0928 -4.0625 0.8544 33.6799
#
#
#
# Elastic Compliance Matrix: (Units=1/GPa)
#
#
# Indices 1 2 3 4 5 6 
#
# 1 0.014638 -0.003287 -0.004520 -0.000011 0.007887 -0.002118
# 2 -0.003287 0.008580 0.000492 0.006675 -0.003806 0.002456
# 3 -0.004520 0.000492 0.012898 0.003061 -0.007605 0.001791
# 4 -0.000011 0.006675 0.003061 0.041757 0.005673 0.006068
# 5 0.007887 -0.003806 -0.007605 0.005673 0.044718 -0.002104
# 6 -0.002118 0.002456 0.001791 0.006068 -0.002104 0.031116
#
#
# Mechanical properties :
#
#
# Convention : Reuss Voigt Hill
#
# Bulk Modulus (GPa) = 46.54184 56.47841 51.51013
# Shear Modulus (GPa) = 28.48995 36.12968 32.30981
#
# Velocity S-wave (km/s) = 3.40811 3.83795 3.62940
# Velocity P-wave (km/s) = 5.87042 6.53191 6.20998
#
# Compressibility (1/GPa) = 0.02148604
#
# Stress axis : x y z
#
# Youngs Moduli (GPa) = 68.31322 116.54616 77.53107
#
# Poissons Ratio (x) = 0.38309 0.35043
# Poissons Ratio (y) = 0.22455 -0.03811
# Poissons Ratio (z) = 0.30877 -0.05729
#
# Static dielectric constant tensor:
#      x y z
#    x 4.123660 0.041770 0.041730 
#    y 0.041770 4.670840 0.028420 
#    z 0.041730 0.028420 4.353290 
# 
# 
# High freq. dielectric constant tensor:
#      x y z
#    x 1.960870 -0.005850 -0.003510 
#    y -0.005850 2.004250 -0.003350 
#    z -0.003510 -0.003350 1.961480 
# 
# From -- ./inp_files/70217.got.cif
#   From: 2010.06.25/outbox.cif.g09.slc.cpg/sg2_36_cif.got.tgz:70217.got - 2010.06.27 13:26:56.
