data_PCOD8031467
_publ_section_title
;
Structure prediction by ZEFSAII (Michael W. Deem and Ramdas Pophale) SiO2 
 PCOD8031467
Probable space group: P -1
;
_chemical_formula_sum "Si O2"
_cell_formula_units_Z 16
_cell_length_a 9.990396
_cell_length_b 14.707712
_cell_length_c 11.336217
_cell_angle_alpha 58.445274
_cell_angle_beta 113.563580
_cell_angle_gamma 64.364569
_cell_volume 741.431279
_symmetry_space_group_name_H-M "P -1"
_symmetry_group_IT_number 2
_symmetry_cell_setting 'triclinic'
loop_
_space_group_symop_operation_xyz
x,y,z
-x,-y,-z
loop_
_atom_site_type_symbol
_atom_site_label
_atom_site_fract_x
_atom_site_fract_y
_atom_site_fract_z
Si Si1 0.022585 0.844110 0.499221
Si Si2 0.717026 0.538310 0.677387
Si Si3 0.926932 0.141534 0.237547
Si Si4 0.479907 0.853035 0.543328
Si Si5 0.751170 0.583160 0.397007
Si Si6 0.571516 0.472937 0.319659
Si Si7 0.532580 0.071383 0.058511
Si Si8 0.703583 0.831854 0.849243
O O1 0.071310 0.786217 0.692560
O O2 0.286141 0.675074 0.635101
O O3 0.893134 0.037829 0.324735
O O4 0.815281 0.890417 0.335707
O O5 0.643044 0.664056 0.668144
O O6 0.719537 0.602096 0.513521
O O7 0.508995 0.566275 0.582845
O O8 0.995550 0.324382 0.955478
O O9 0.689530 0.319297 0.956467
O O10 0.186699 0.995868 0.355647
O O11 0.613289 0.790475 0.759892
O O12 0.477667 0.959556 0.388523
O O13 0.755367 0.456120 0.445619
O O14 0.000000 0.500000 0.500000
O O15 0.508705 0.789755 0.114346
O O16 0.327310 0.181801 0.016031
O O17 0.500000 0.000000 0.000000
#
# Coordination Sequence:
#
# PCOD8031467 Si02
#       8
#     2   2   2   2   2   2   2   2
#     4  11  24  43  70  99 137 181 227 283 344 410
#     4  12  25  45  70 102 139 184 228 286 347 408
#     4  11  22  44  68 100 140 175 229 284 341 413
#     4  11  23  44  68 104 136 180 230 281 349 413
#     4  12  26  47  67 100 141 182 236 282 339 422
#     4  12  25  45  70 105 136 181 230 287 353 409
#     4  12  24  45  70 101 138 185 233 283 344 410
#     4  11  24  44  70 100 142 178 229 290 339 412
#
# _framework density 21.579881
#
# number of rings (size 3 to 8) (size 9 to 14) (size 15 to 20)
#    0.000    0.500    6.250    2.625    0.000    0.000 
#    2.250    1.250    0.000    0.000    0.000    0.000 
#    0.000    0.000    0.000    0.000    0.000    0.000 
#
# Total GULP energy -198422.156836 kJ/mol
# GULP energy per Si atom -12401.384802 kJ/mol
# Density = 2.153076 g / cm^3
# Si number density = 21.579881 Si / 1000 Ang^3
#
#
#
# Elastic Constant Matrix: (Units=GPa)
#
#
# Indices 1 2 3 4 5 6 
#
# 1 118.6375 53.7813 26.2790 3.8453 3.6130 -1.2769
# 2 53.7813 136.7586 35.2569 8.6074 -0.6887 -2.7712
# 3 26.2790 35.2569 59.5597 1.5941 6.2518 -4.7049
# 4 3.8453 8.6074 1.5941 34.3475 -1.7290 4.7046
# 5 3.6130 -0.6887 6.2518 -1.7290 36.8616 0.6728
# 6 -1.2769 -2.7712 -4.7049 4.7046 0.6728 36.5773
#
#
#
# Elastic Compliance Matrix: (Units=1/GPa)
#
#
# Indices 1 2 3 4 5 6 
#
# 1 0.010609 -0.003512 -0.002540 -0.000199 -0.000681 -0.000184
# 2 -0.003512 0.009956 -0.004395 -0.001878 0.001182 0.000286
# 3 -0.002540 -0.004395 0.021064 -0.000089 -0.003453 0.002363
# 4 -0.000199 -0.001878 -0.000089 0.030245 0.001493 -0.004078
# 5 -0.000681 0.001182 -0.003453 0.001493 0.027893 -0.001083
# 6 -0.000184 0.000286 0.002363 -0.004078 -0.001083 0.028203
#
#
# Mechanical properties :
#
#
# Convention : Reuss Voigt Hill
#
# Bulk Modulus (GPa) = 48.22803 60.62111 54.42457
# Shear Modulus (GPa) = 32.09749 34.86652 33.48201
#
# Velocity S-wave (km/s) = 3.86084 4.02393 3.94323
# Velocity P-wave (km/s) = 6.50169 7.05279 6.78284
#
# Compressibility (1/GPa) = 0.02073483
#
# Stress axis : x y z
#
# Youngs Moduli (GPa) = 94.26118 100.43871 47.47461
#
# Poissons Ratio (x) = 0.35273 0.12057
# Poissons Ratio (y) = 0.33104 0.20867
# Poissons Ratio (z) = 0.23940 0.44148
#
# Static dielectric constant tensor:
#      x y z
#    x 3.985180 0.035190 -0.038690 
#    y 0.035190 3.874180 0.031990 
#    z -0.038690 0.031990 3.910480 
# 
# 
# High freq. dielectric constant tensor:
#      x y z
#    x 1.853000 -0.001410 0.003120 
#    y -0.001410 1.850730 0.002040 
#    z 0.003120 0.002040 1.848930 
# 
# From -- ./inp_files/398619.got.cif
#   From: 2010.06.25/outbox.cif.g09.slc.cpg/sg2_200_cif.got.tgz:398619.got - 2010.06.27 13:26:56.
