data_PCOD8031826
_publ_section_title
;
Structure prediction by ZEFSAII (Michael W. Deem and Ramdas Pophale) SiO2 
 PCOD8031826
Probable space group: P -1
;
_chemical_formula_sum "Si O2"
_cell_formula_units_Z 16
_cell_length_a 13.937765
_cell_length_b 15.826294
_cell_length_c 20.761460
_cell_angle_alpha 153.725791
_cell_angle_beta 24.553665
_cell_angle_gamma 137.754906
_cell_volume 768.548245
_symmetry_space_group_name_H-M "P -1"
_symmetry_group_IT_number 2
_symmetry_cell_setting 'triclinic'
loop_
_space_group_symop_operation_xyz
x,y,z
-x,-y,-z
loop_
_atom_site_type_symbol
_atom_site_label
_atom_site_fract_x
_atom_site_fract_y
_atom_site_fract_z
Si Si1 0.732974 0.027220 0.159008
Si Si2 0.154724 0.803755 0.436307
Si Si3 0.855127 0.910351 0.245837
Si Si4 0.600798 0.002029 0.869504
Si Si5 0.700360 0.556491 0.711552
Si Si6 0.461611 0.802660 0.473602
Si Si7 0.613914 0.257374 0.254636
Si Si8 0.362041 0.359688 0.054099
O O1 0.533053 0.134820 0.412128
O O2 0.664920 0.159237 0.226492
O O3 0.778452 0.791192 0.953109
O O4 0.000000 0.000000 0.000000
O O5 0.384672 0.778731 0.232848
O O6 0.897818 0.951695 0.658211
O O7 0.187704 0.899289 0.549291
O O8 0.172562 0.569374 0.276947
O O9 0.742062 0.752410 0.238411
O O10 0.724929 0.998324 0.317096
O O11 0.149203 0.791243 0.970379
O O12 0.579017 0.820325 0.715527
O O13 0.500000 0.000000 0.000000
O O14 0.432445 0.228436 0.098594
O O15 0.635608 0.381905 0.595430
O O16 0.000000 0.500000 0.500000
O O17 0.567887 0.579303 0.877347
O O18 0.500000 0.500000 0.500000
#
# Coordination Sequence:
#
# PCOD8031826 Si02
#       8
#     2   2   2   2   2   2   2   2
#     4  12  24  43  68 103 136 176 233 284 334 408
#     4  11  24  43  73 100 141 178 230 285 344 410
#     4  11  22  47  67 103 142 175 229 282 346 408
#     4  12  26  44  70  98 137 182 227 283 349 404
#     4  12  24  45  70 102 136 181 235 281 337 409
#     4  11  24  40  75 101 133 184 225 283 342 405
#     4  12  28  46  66 102 143 179 224 288 347 409
#     4  11  24  44  70 102 135 182 233 282 336 408
#
# _framework density 20.818473000000001
#
# number of rings (size 3 to 8) (size 9 to 14) (size 15 to 20)
#    0.000    0.500    6.250    2.250    3.500    1.500 
#    2.250    1.250    0.000    0.000    0.000    0.000 
#    0.000    0.000    0.000    0.000    0.000    0.000 
#
# Total GULP energy -198377.136228 kJ/mol
# GULP energy per Si atom -12398.571014 kJ/mol
# Density = 2.077109 g / cm^3
# Si number density = 20.818473 Si / 1000 Ang^3
#
#
#
# Elastic Constant Matrix: (Units=GPa)
#
#
# Indices 1 2 3 4 5 6 
#
# 1 113.4958 34.5514 38.3026 1.3054 3.5673 -6.3790
# 2 34.5514 118.7449 43.6511 14.8731 -4.4278 3.0684
# 3 38.3026 43.6511 107.3435 -2.8136 0.3190 -7.2179
# 4 1.3054 14.8731 -2.8136 38.5995 -2.7419 6.6590
# 5 3.5673 -4.4278 0.3190 -2.7419 42.8937 -0.4477
# 6 -6.3790 3.0684 -7.2179 6.6590 -0.4477 36.7522
#
#
#
# Elastic Compliance Matrix: (Units=1/GPa)
#
#
# Indices 1 2 3 4 5 6 
#
# 1 0.010509 -0.002096 -0.002799 -0.000077 -0.001059 0.001451
# 2 -0.002096 0.011085 -0.003960 -0.004190 0.001067 -0.001295
# 3 -0.002799 -0.003960 0.012105 0.002180 -0.000108 0.001826
# 4 -0.000077 -0.004190 0.002180 0.028535 0.001336 -0.004389
# 5 -0.001059 0.001067 -0.000108 0.001336 0.023595 -0.000249
# 6 0.001451 -0.001295 0.001826 -0.004389 -0.000249 0.028720
#
#
# Mechanical properties :
#
#
# Convention : Reuss Voigt Hill
#
# Bulk Modulus (GPa) = 62.54094 63.62161 63.08127
# Shear Modulus (GPa) = 36.33997 38.52102 37.43050
#
# Velocity S-wave (km/s) = 4.18253 4.30621 4.24482
# Velocity P-wave (km/s) = 7.30965 7.43983 7.37503
#
# Compressibility (1/GPa) = 0.01598953
#
# Stress axis : x y z
#
# Youngs Moduli (GPa) = 95.15334 90.21165 82.61030
#
# Poissons Ratio (x) = 0.18912 0.23121
# Poissons Ratio (y) = 0.19948 0.32712
# Poissons Ratio (z) = 0.26632 0.35722
#
# Static dielectric constant tensor:
#      x y z
#    x 3.490930 0.144370 -0.094130 
#    y 0.144370 3.939230 -0.121120 
#    z -0.094130 -0.121120 3.807520 
# 
# 
# High freq. dielectric constant tensor:
#      x y z
#    x 1.824190 -0.000410 0.019260 
#    y -0.000410 1.828760 -0.005590 
#    z 0.019260 -0.005590 1.810330 
# 
# From -- ./inp_files/185115.got.cif
#   From: 2010.06.25/outbox.cif.g09.slc.cpg/sg2_93_cif.got.tgz:185115.got - 2010.06.27 13:26:56.
