data_PCOD8031447
_publ_section_title
;
Structure prediction by ZEFSAII (Michael W. Deem and Ramdas Pophale) SiO2 
 PCOD8031447
Probable space group: P -1
;
_chemical_formula_sum "Si O2"
_cell_formula_units_Z 16
_cell_length_a 20.630288
_cell_length_b 8.800991
_cell_length_c 9.772102
_cell_angle_alpha 122.891590
_cell_angle_beta 26.916236
_cell_angle_gamma 120.394676
_cell_volume 673.342949
_symmetry_space_group_name_H-M "P -1"
_symmetry_group_IT_number 2
_symmetry_cell_setting 'triclinic'
loop_
_space_group_symop_operation_xyz
x,y,z
-x,-y,-z
loop_
_atom_site_type_symbol
_atom_site_label
_atom_site_fract_x
_atom_site_fract_y
_atom_site_fract_z
Si Si1 0.743532 0.952223 0.670027
Si Si2 0.111747 0.163759 0.401109
Si Si3 0.655528 0.398445 0.405664
Si Si4 0.816672 0.153341 0.368741
Si Si5 0.299162 0.994074 0.752094
Si Si6 0.513847 0.299123 0.063519
Si Si7 0.555494 0.225412 0.255730
Si Si8 0.025394 0.482009 0.103084
O O1 0.840958 0.837361 0.528810
O O2 0.588305 0.854506 0.888381
O O3 0.823662 0.003652 0.401935
O O4 0.708496 0.136639 0.903241
O O5 0.042263 0.355552 0.604699
O O6 0.000000 0.000000 0.500000
O O7 0.241657 0.139743 0.039168
O O8 0.671072 0.194700 0.324713
O O9 0.542910 0.500893 0.764898
O O10 0.592609 0.395415 0.368230
O O11 0.805527 0.517475 0.184914
O O12 0.816194 0.049177 0.173341
O O13 0.954524 0.290602 0.193363
O O14 0.675340 0.272945 0.698666
O O15 0.446480 0.079719 0.460650
O O16 0.492723 0.283484 0.258519
O O17 0.000000 0.500000 0.000000
#
# Coordination Sequence:
#
# PCOD8031447 Si02
#       8
#     2   2   2   2   2   2   2   2
#     4  11  22  45  72  98 135 183 227 280 343 408
#     4  12  25  46  69  99 139 187 227 278 344 407
#     4  12  25  42  67 100 139 181 222 287 341 398
#     4  11  24  46  71 104 139 178 228 285 338 411
#     4  12  23  43  71  99 139 175 230 279 343 399
#     4  11  24  43  70 103 137 179 229 283 344 404
#     4  11  22  44  66 102 140 175 225 288 345 406
#     4  12  25  48  67 101 142 179 230 286 331 410
#
# _framework density 23.762038
#
# number of rings (size 3 to 8) (size 9 to 14) (size 15 to 20)
#    0.000    0.500    6.250    2.250    1.750    0.500 
#    2.250    5.000    0.000    0.000    0.000    0.000 
#    0.000    0.000    0.000    0.000    0.000    0.000 
#
# Total GULP energy -198429.635196 kJ/mol
# GULP energy per Si atom -12401.852200 kJ/mol
# Density = 2.370795 g / cm^3
# Si number density = 23.762038 Si / 1000 Ang^3
#
#
#
# Elastic Constant Matrix: (Units=GPa)
#
#
# Indices 1 2 3 4 5 6 
#
# 1 111.7990 13.8548 18.0094 -3.0064 3.0570 25.4595
# 2 13.8548 55.2584 20.0415 -1.4872 -1.3790 23.4817
# 3 18.0094 20.0415 70.3577 10.2523 7.7859 -4.7077
# 4 -3.0064 -1.4872 10.2523 38.7005 9.6810 -10.4382
# 5 3.0570 -1.3790 7.7859 9.6810 33.3014 -0.8469
# 6 25.4595 23.4817 -4.7077 -10.4382 -0.8469 33.5205
#
#
#
# Elastic Compliance Matrix: (Units=1/GPa)
#
#
# Indices 1 2 3 4 5 6 
#
# 1 0.012285 0.004591 -0.005218 -0.001246 0.000297 -0.013660
# 2 0.004591 0.034819 -0.013035 -0.004334 0.004541 -0.030944
# 3 -0.005218 -0.013035 0.020944 -0.001206 -0.004211 0.015553
# 4 -0.001246 -0.004334 -0.001206 0.031692 -0.008654 0.013463
# 5 0.000297 0.004541 -0.004211 -0.008654 0.033541 -0.005845
# 6 -0.013660 -0.030944 0.015553 0.013463 -0.005845 0.068113
#
#
# Mechanical properties :
#
#
# Convention : Reuss Voigt Hill
#
# Bulk Modulus (GPa) = 24.55487 37.91406 31.23447
# Shear Modulus (GPa) = 20.63618 33.47179 27.05399
#
# Velocity S-wave (km/s) = 2.95015 3.75724 3.37788
# Velocity P-wave (km/s) = 4.68621 5.90024 5.32792
#
# Compressibility (1/GPa) = 0.04072511
#
# Stress axis : x y z
#
# Youngs Moduli (GPa) = 81.39801 28.71971 47.74616
#
# Poissons Ratio (x) = -0.13184 0.24912
# Poissons Ratio (y) = -0.37367 0.62236
# Poissons Ratio (z) = 0.42471 0.37436
#
# Static dielectric constant tensor:
#      x y z
#    x 4.522890 0.229920 0.189950 
#    y 0.229920 4.247730 0.227050 
#    z 0.189950 0.227050 4.519730 
# 
# 
# High freq. dielectric constant tensor:
#      x y z
#    x 1.946440 0.013080 0.004430 
#    y 0.013080 1.937300 0.014960 
#    z 0.004430 0.014960 1.948270 
# 
# From -- ./inp_files/343719.got.cif
#   From: 2010.06.25/outbox.cif.g09.slc.cpg/sg2_172_cif.got.tgz:343719.got - 2010.06.27 13:26:56.
