data_PCOD8031239
_publ_section_title
;
Structure prediction by ZEFSAII (Michael W. Deem and Ramdas Pophale) SiO2 
 PCOD8031239
Probable space group: P -1
;
_chemical_formula_sum "Si O2"
_cell_formula_units_Z 16
_cell_length_a 8.907301
_cell_length_b 9.312135
_cell_length_c 24.258376
_cell_angle_alpha 46.248266
_cell_angle_beta 30.987420
_cell_angle_gamma 57.490761
_cell_volume 739.958941
_symmetry_space_group_name_H-M "P -1"
_symmetry_group_IT_number 2
_symmetry_cell_setting 'triclinic'
loop_
_space_group_symop_operation_xyz
x,y,z
-x,-y,-z
loop_
_atom_site_type_symbol
_atom_site_label
_atom_site_fract_x
_atom_site_fract_y
_atom_site_fract_z
Si Si1 0.765299 0.442077 0.266587
Si Si2 0.243561 0.909475 0.721146
Si Si3 0.817319 0.524620 0.497169
Si Si4 0.672125 0.308331 0.499998
Si Si5 0.211409 0.820079 0.212226
Si Si6 0.161766 0.179348 0.935824
Si Si7 0.817690 0.511636 0.779777
Si Si8 0.754933 0.320795 0.110516
O O1 0.756863 0.226920 0.296882
O O2 0.496463 0.418012 0.400957
O O3 0.749626 0.613427 0.180470
O O4 0.064081 0.505600 0.190697
O O5 0.350221 0.791874 0.770478
O O6 0.476573 0.110762 0.591633
O O7 0.917401 0.972445 0.814241
O O8 0.765923 0.314129 0.534064
O O9 0.000000 0.500000 0.500000
O O10 0.998154 0.696789 0.356973
O O11 0.500000 0.500000 0.500000
O O12 0.960852 0.327284 0.366817
O O13 0.541085 0.875620 0.116230
O O14 0.217928 0.701667 0.183933
O O15 0.906556 0.180564 0.060327
O O16 0.000000 0.000000 0.000000
O O17 0.511374 0.596126 0.858209
O O18 0.000000 0.500000 0.000000
#
# Coordination Sequence:
#
# PCOD8031239 Si02
#       8
#     2   2   2   2   2   2   2   2
#     4  12  25  45  70 107 138 176 231 290 344 404
#     4  12  26  44  73 103 141 180 228 289 346 408
#     4  11  22  42  75 100 142 176 223 283 344 418
#     4  11  22  45  69 106 137 177 224 273 354 425
#     4  11  23  46  72 102 134 186 225 278 357 415
#     4  12  29  47  69  99 136 181 243 282 338 412
#     4  11  24  46  74  97 144 180 227 285 345 416
#     4  12  27  50  66  96 141 186 235 289 337 400
#
# _framework density 21.622820999999998
#
# number of rings (size 3 to 8) (size 9 to 14) (size 15 to 20)
#    0.000    0.500    7.500    0.000    7.000    4.500 
#    0.000    0.000    0.000    0.000    0.000    0.000 
#    0.000    0.000    0.000    0.000    0.000    0.000 
#
# Total GULP energy -198365.211334 kJ/mol
# GULP energy per Si atom -12397.825708 kJ/mol
# Density = 2.157361 g / cm^3
# Si number density = 21.622821 Si / 1000 Ang^3
#
#
#
# Elastic Constant Matrix: (Units=GPa)
#
#
# Indices 1 2 3 4 5 6 
#
# 1 124.3466 32.2086 5.8317 -0.4614 -24.0904 15.3192
# 2 32.2086 103.2538 24.0475 -4.4504 -19.0550 22.9763
# 3 5.8317 24.0475 63.7147 8.7900 -18.1278 8.6444
# 4 -0.4614 -4.4504 8.7900 38.6135 0.7178 -8.4508
# 5 -24.0904 -19.0550 -18.1278 0.7178 41.7613 2.3652
# 6 15.3192 22.9763 8.6444 -8.4508 2.3652 47.1663
#
#
#
# Elastic Compliance Matrix: (Units=1/GPa)
#
#
# Indices 1 2 3 4 5 6 
#
# 1 0.009993 -0.001820 0.002146 -0.001416 0.006078 -0.003311
# 2 -0.001820 0.012836 -0.003047 0.000961 0.003758 -0.005120
# 3 0.002146 -0.003047 0.020756 -0.006227 0.009225 -0.004595
# 4 -0.001416 0.000961 -0.006227 0.028907 -0.003947 0.006511
# 5 0.006078 0.003758 0.009225 -0.003947 0.033685 -0.007892
# 6 -0.003311 -0.005120 -0.004595 0.006511 -0.007892 0.027175
#
#
# Mechanical properties :
#
#
# Convention : Reuss Voigt Hill
#
# Bulk Modulus (GPa) = 26.21664 46.16564 36.19114
# Shear Modulus (GPa) = 33.00142 40.79004 36.89573
#
# Velocity S-wave (km/s) = 3.91094 4.34802 4.13526
# Velocity P-wave (km/s) = 5.70480 6.82670 6.29081
#
# Compressibility (1/GPa) = 0.03814371
#
# Stress axis : x y z
#
# Youngs Moduli (GPa) = 100.07200 77.90371 48.17975
#
# Poissons Ratio (x) = 0.14175 -0.10339
# Poissons Ratio (y) = 0.18209 0.14680
# Poissons Ratio (z) = -0.21475 0.23736
#
# Static dielectric constant tensor:
#      x y z
#    x 4.397710 0.212870 -0.216300 
#    y 0.212870 4.091940 0.054010 
#    z -0.216300 0.054010 3.844190 
# 
# 
# High freq. dielectric constant tensor:
#      x y z
#    x 1.871410 0.010630 -0.011060 
#    y 0.010630 1.844800 0.011490 
#    z -0.011060 0.011490 1.848780 
# 
# From -- ./inp_files/383317.got.cif
#   From: 2010.06.25/outbox.cif.g09.slc.cpg/sg2_192_cif.got.tgz:383317.got - 2010.06.27 13:26:56.
