data_PCOD8031303
_publ_section_title
;
Structure prediction by ZEFSAII (Michael W. Deem and Ramdas Pophale) SiO2 
 PCOD8031303
Probable space group: P -1
;
_chemical_formula_sum "Si O2"
_cell_formula_units_Z 16
_cell_length_a 9.402892
_cell_length_b 12.765436
_cell_length_c 8.777362
_cell_angle_alpha 75.314065
_cell_angle_beta 133.497987
_cell_angle_gamma 111.610802
_cell_volume 710.532469
_symmetry_space_group_name_H-M "P -1"
_symmetry_group_IT_number 2
_symmetry_cell_setting 'triclinic'
loop_
_space_group_symop_operation_xyz
x,y,z
-x,-y,-z
loop_
_atom_site_type_symbol
_atom_site_label
_atom_site_fract_x
_atom_site_fract_y
_atom_site_fract_z
Si Si1 0.019607 0.220845 0.092489
Si Si2 0.798801 0.779174 0.092522
Si Si3 0.605854 0.238291 0.662237
Si Si4 0.816788 0.000009 0.183310
Si Si5 0.417012 0.000002 0.702294
Si Si6 0.367594 0.761705 0.662309
Si Si7 0.952037 0.614728 0.467044
Si Si8 0.662713 0.614725 0.532988
O O1 0.186885 0.330530 0.237855
O O2 0.990122 0.113697 0.222915
O O3 0.812279 0.255823 0.902469
O O4 0.091135 0.182243 0.000019
O O5 0.876480 0.886339 0.222918
O O6 0.856438 0.669503 0.237917
O O7 0.556486 0.744189 0.902552
O O8 0.474151 0.108821 0.596976
O O9 0.643795 0.287656 0.499952
O O10 0.471516 0.300951 0.639458
O O11 0.779342 0.999994 0.337580
O O12 0.608982 0.000014 0.947187
O O13 0.365329 0.891168 0.597010
O O14 0.170600 0.699029 0.639534
O O15 0.797025 0.594059 0.499993
O O16 0.000000 0.500000 0.500000
O O17 0.500000 0.500000 0.500000
#
# Coordination Sequence:
#
# PCOD8031303 Si02
#       8
#     2   2   2   2   2   2   2   2
#     4  11  23  43  73 101 142 182 223 283 344 404
#     4  11  23  43  73 101 142 182 223 283 344 404
#     4  11  22  43  69 102 142 182 228 277 340 410
#     4   9  19  37  63 106 141 178 226 270 340 416
#     4   9  19  35  65 100 145 180 220 276 340 402
#     4  11  22  43  69 102 142 182 228 277 340 410
#     4  12  28  48  70  99 133 176 238 287 340 406
#     4  12  28  48  70  99 133 176 238 287 340 406
#
# _framework density 22.518325000000001
#
# number of rings (size 3 to 8) (size 9 to 14) (size 15 to 20)
#    0.000    1.250    2.500    3.000    0.000    5.000 
#    0.000    2.500    0.000    0.000    0.000    0.000 
#    0.000    0.000    0.000    0.000    0.000    0.000 
#
# Total GULP energy -198426.999455 kJ/mol
# GULP energy per Si atom -12401.687466 kJ/mol
# Density = 2.246707 g / cm^3
# Si number density = 22.518325 Si / 1000 Ang^3
#
#
#
# Elastic Constant Matrix: (Units=GPa)
#
#
# Indices 1 2 3 4 5 6 
#
# 1 165.3963 61.9472 39.3598 -0.8832 10.5218 -2.2250
# 2 61.9472 153.7527 49.8507 -5.2876 17.9443 2.7269
# 3 39.3598 49.8507 83.2797 -2.5795 17.4791 1.3775
# 4 -0.8832 -5.2876 -2.5795 25.9717 -1.9058 5.1896
# 5 10.5218 17.9443 17.4791 -1.9058 41.3813 1.4842
# 6 -2.2250 2.7269 1.3775 5.1896 1.4842 39.6311
#
#
#
# Elastic Compliance Matrix: (Units=1/GPa)
#
#
# Indices 1 2 3 4 5 6 
#
# 1 0.007438 -0.002331 -0.002144 -0.000583 -0.000028 0.000730
# 2 -0.002331 0.008940 -0.003867 0.001389 -0.001560 -0.000735
# 3 -0.002144 -0.003867 0.016330 0.000483 -0.004642 -0.000311
# 4 -0.000583 0.001389 0.000483 0.040002 0.001379 -0.005435
# 5 -0.000028 -0.001560 -0.004642 0.001379 0.026907 -0.000921
# 6 0.000730 -0.000735 -0.000311 -0.005435 -0.000921 0.026081
#
#
# Mechanical properties :
#
#
# Convention : Reuss Voigt Hill
#
# Bulk Modulus (GPa) = 62.40868 78.30489 70.35678
# Shear Modulus (GPa) = 33.84703 38.14821 35.99762
#
# Velocity S-wave (km/s) = 3.88117 4.12041 4.00258
# Velocity P-wave (km/s) = 6.91805 7.58197 7.25761
#
# Compressibility (1/GPa) = 0.01602341
#
# Stress axis : x y z
#
# Youngs Moduli (GPa) = 134.44532 111.85817 61.23599
#
# Poissons Ratio (x) = 0.26078 0.13130
# Poissons Ratio (y) = 0.31344 0.23679
# Poissons Ratio (z) = 0.28827 0.43254
#
# Static dielectric constant tensor:
#      x y z
#    x 4.329980 -0.007110 0.242740 
#    y -0.007110 4.160590 -0.036080 
#    z 0.242740 -0.036080 3.909900 
# 
# 
# High freq. dielectric constant tensor:
#      x y z
#    x 1.907730 -0.001950 0.016750 
#    y -0.001950 1.882340 -0.001860 
#    z 0.016750 -0.001860 1.879450 
# 
# From -- ./inp_files/187078.got.cif
#   From: 2010.06.25/outbox.cif.g09.slc.cpg/sg2_94_cif.got.tgz:187078.got - 2010.06.27 13:26:56.
