data_PCOD8031242
_publ_section_title
;
Structure prediction by ZEFSAII (Michael W. Deem and Ramdas Pophale) SiO2 
 PCOD8031242
Probable space group: P -1
;
_chemical_formula_sum "Si O2"
_cell_formula_units_Z 16
_cell_length_a 16.606958
_cell_length_b 11.038811
_cell_length_c 19.911224
_cell_angle_alpha 44.735527
_cell_angle_beta 20.505538
_cell_angle_gamma 35.976049
_cell_volume 730.741178
_symmetry_space_group_name_H-M "P -1"
_symmetry_group_IT_number 2
_symmetry_cell_setting 'triclinic'
loop_
_space_group_symop_operation_xyz
x,y,z
-x,-y,-z
loop_
_atom_site_type_symbol
_atom_site_label
_atom_site_fract_x
_atom_site_fract_y
_atom_site_fract_z
Si Si1 0.172761 0.996550 0.622748
Si Si2 0.725000 0.453757 0.565315
Si Si3 0.781781 0.631570 0.320098
Si Si4 0.650731 0.284137 0.006956
Si Si5 0.798079 0.251105 0.055067
Si Si6 0.239838 0.146184 0.379172
Si Si7 0.899452 0.356331 0.213097
Si Si8 0.444779 0.293372 0.765015
O O1 0.486862 0.862218 0.460655
O O2 0.097176 0.849856 0.704055
O O3 0.144166 0.160430 0.525389
O O4 0.966346 0.122697 0.796174
O O5 0.843540 0.525809 0.386328
O O6 0.452850 0.661472 0.729920
O O7 0.644781 0.302808 0.657871
O O8 0.969456 0.325401 0.478937
O O9 0.762358 0.488604 0.336395
O O10 0.028826 0.654064 0.097563
O O11 0.665663 0.331992 0.053528
O O12 0.484849 0.179199 0.169508
O O13 0.500000 0.500000 0.000000
O O14 0.000000 0.000000 0.000000
O O15 0.362701 0.912190 0.349898
O O16 0.717320 0.494870 0.236652
O O17 0.221864 0.277635 0.986740
#
# Coordination Sequence:
#
# PCOD8031242 Si02
#       8
#     2   2   2   2   2   2   2   2
#     4  12  24  44  76 102 131 182 230 278 345 407
#     4  12  26  45  68 102 143 177 219 285 345 402
#     4  12  24  44  72 102 135 176 225 285 344 400
#     4  12  28  49  68  97 139 187 234 277 331 407
#     4  12  28  45  68 101 135 179 238 287 328 391
#     4  12  26  45  72 102 139 183 224 277 347 410
#     4  11  22  42  76 105 137 174 222 286 349 406
#     4  11  22  43  74 104 141 174 219 285 352 405
#
# _framework density 21.895578
#
# number of rings (size 3 to 8) (size 9 to 14) (size 15 to 20)
#    0.000    0.250    5.000    4.500    0.000    6.000 
#    0.000    1.250    0.000    0.000    0.000    0.000 
#    0.000    0.000    0.000    0.000    0.000    0.000 
#
# Total GULP energy -198555.996108 kJ/mol
# GULP energy per Si atom -12409.749757 kJ/mol
# Density = 2.184574 g / cm^3
# Si number density = 21.895578 Si / 1000 Ang^3
#
#
#
# Elastic Constant Matrix: (Units=GPa)
#
#
# Indices 1 2 3 4 5 6 
#
# 1 72.9533 11.6440 5.7254 -2.0714 2.8204 -7.4693
# 2 11.6440 68.9023 5.5165 -5.5896 4.5523 -10.8595
# 3 5.7254 5.5165 94.4517 3.0175 10.3062 -7.5384
# 4 -2.0714 -5.5896 3.0175 28.3278 -4.9655 8.9467
# 5 2.8204 4.5523 10.3062 -4.9655 36.3807 4.2730
# 6 -7.4693 -10.8595 -7.5384 8.9467 4.2730 42.1174
#
#
#
# Elastic Compliance Matrix: (Units=1/GPa)
#
#
# Indices 1 2 3 4 5 6 
#
# 1 0.014310 -0.002000 -0.000475 -0.000122 -0.000983 0.002063
# 2 -0.002000 0.015681 -0.000358 0.001551 -0.001904 0.003488
# 3 -0.000475 -0.000358 0.011382 -0.002904 -0.003876 0.002871
# 4 -0.000122 0.001551 -0.002904 0.040142 0.007221 -0.009401
# 5 -0.000983 -0.001904 -0.003876 0.007221 0.030590 -0.005997
# 6 0.002063 0.003488 0.002871 -0.009401 -0.005997 0.028128
#
#
# Mechanical properties :
#
#
# Convention : Reuss Voigt Hill
#
# Bulk Modulus (GPa) = 28.00551 31.34211 29.67381
# Shear Modulus (GPa) = 31.68556 35.59329 33.63942
#
# Velocity S-wave (km/s) = 3.80823 4.03624 3.92389
# Velocity P-wave (km/s) = 5.67055 6.00559 5.84047
#
# Compressibility (1/GPa) = 0.03570726
#
# Stress axis : x y z
#
# Youngs Moduli (GPa) = 69.88300 63.77019 87.85816
#
# Poissons Ratio (x) = 0.12754 0.04171
# Poissons Ratio (y) = 0.13977 0.03146
# Poissons Ratio (z) = 0.03318 0.02283
#
# Static dielectric constant tensor:
#      x y z
#    x 6.556010 1.197460 0.258950 
#    y 1.197460 4.401180 0.032910 
#    z 0.258950 0.032910 4.250060 
# 
# 
# High freq. dielectric constant tensor:
#      x y z
#    x 1.864700 0.003310 0.003150 
#    y 0.003310 1.859410 -0.006140 
#    z 0.003150 -0.006140 1.882770 
# 
# From -- ./inp_files/187340.got.cif
#   From: 2010.06.25/outbox.cif.g09.slc.cpg/sg2_94_cif.got.tgz:187340.got - 2010.06.27 13:26:56.
