data_PCOD8032373
_publ_section_title
;
Structure prediction by ZEFSAII (Michael W. Deem and Ramdas Pophale) SiO2 
 PCOD8032373
Probable space group: P -1
;
_chemical_formula_sum "Si O2"
_cell_formula_units_Z 16
_cell_length_a 16.376737
_cell_length_b 10.546504
_cell_length_c 6.364002
_cell_angle_alpha 61.523113
_cell_angle_beta 115.443655
_cell_angle_gamma 131.841208
_cell_volume 709.281280
_symmetry_space_group_name_H-M "P -1"
_symmetry_group_IT_number 2
_symmetry_cell_setting 'triclinic'
loop_
_space_group_symop_operation_xyz
x,y,z
-x,-y,-z
loop_
_atom_site_type_symbol
_atom_site_label
_atom_site_fract_x
_atom_site_fract_y
_atom_site_fract_z
Si Si1 0.618891 0.054892 0.022404
Si Si2 0.888209 0.684453 0.917462
Si Si3 0.508783 0.840269 0.699421
Si Si4 0.814273 0.376966 0.792254
Si Si5 0.135259 0.897403 0.056905
Si Si6 0.775725 0.791240 0.408570
Si Si7 0.316564 0.096505 0.456089
Si Si8 0.730211 0.507464 0.268739
O O1 0.688704 0.054625 0.292350
O O2 0.688665 0.250955 0.845511
O O3 0.500000 0.000000 0.000000
O O4 0.596697 0.911817 0.933248
O O5 0.887426 0.527106 0.928352
O O6 0.869468 0.787959 0.637637
O O7 0.792072 0.611047 0.043144
O O8 0.009252 0.818103 0.049792
O O9 0.564133 0.793320 0.616504
O O10 0.390687 0.669123 0.777219
O O11 0.500000 0.000000 0.500000
O O12 0.861838 0.264217 0.888883
O O13 0.807246 0.459768 0.503452
O O14 0.212205 0.998473 0.262036
O O15 0.166498 0.022739 0.792582
O O16 0.688404 0.770259 0.501518
O O17 0.712504 0.630409 0.299852
#
# Coordination Sequence:
#
# PCOD8032373 Si02
#       8
#     2   2   2   2   2   2   2   2
#     4  12  22  39  70 103 138 180 223 278 349 415
#     4  11  27  45  73 101 142 191 227 296 356 409
#     4  12  22  42  71 104 140 183 228 287 350 420
#     4  11  23  42  68 107 141 172 235 293 347 418
#     4  12  25  47  72 104 140 185 241 287 353 421
#     4  11  26  48  70 100 143 186 242 288 340 426
#     4  12  24  42  72 102 136 189 232 285 345 415
#     4  11  25  46  68 106 145 180 237 287 352 419
#
# _framework density 22.558046999999998
#
# number of rings (size 3 to 8) (size 9 to 14) (size 15 to 20)
#    0.000    0.500    5.000    2.250    1.750    6.000 
#    0.000    4.375    0.000    0.000    0.000    0.000 
#    0.000    0.000    0.000    0.000    0.000    0.000 
#
# Total GULP energy -198417.561040 kJ/mol
# GULP energy per Si atom -12401.097565 kJ/mol
# Density = 2.250670 g / cm^3
# Si number density = 22.558047 Si / 1000 Ang^3
#
#
#
# Elastic Constant Matrix: (Units=GPa)
#
#
# Indices 1 2 3 4 5 6 
#
# 1 96.1602 50.4479 38.3538 -3.8633 -8.7580 -4.8541
# 2 50.4479 81.4337 46.2286 5.3220 1.8460 1.1793
# 3 38.3538 46.2286 124.2352 6.9870 -2.6494 -1.4814
# 4 -3.8633 5.3220 6.9870 30.1248 -0.3155 3.2179
# 5 -8.7580 1.8460 -2.6494 -0.3155 31.8657 -0.4091
# 6 -4.8541 1.1793 -1.4814 3.2179 -0.4091 46.6797
#
#
#
# Elastic Compliance Matrix: (Units=1/GPa)
#
#
# Indices 1 2 3 4 5 6 
#
# 1 0.017057 -0.010061 -0.001627 0.004212 0.005199 0.001731
# 2 -0.010061 0.021638 -0.004841 -0.003875 -0.004479 -0.001519
# 3 -0.001627 -0.004841 0.010475 -0.001820 0.000691 0.000417
# 4 0.004212 -0.003875 -0.001820 0.035064 0.001553 -0.001926
# 5 0.005199 -0.004479 0.000691 0.001553 0.033154 0.000859
# 6 0.001731 -0.001519 0.000417 -0.001926 0.000859 0.021795
#
#
# Mechanical properties :
#
#
# Convention : Reuss Voigt Hill
#
# Bulk Modulus (GPa) = 62.07102 63.54330 62.80716
# Shear Modulus (GPa) = 28.15134 32.85396 30.50265
#
# Velocity S-wave (km/s) = 3.53647 3.82045 3.68120
# Velocity P-wave (km/s) = 6.65217 6.90587 6.78020
#
# Compressibility (1/GPa) = 0.01611058
#
# Stress axis : x y z
#
# Youngs Moduli (GPa) = 58.62785 46.21571 95.46382
#
# Poissons Ratio (x) = 0.46497 0.15535
# Poissons Ratio (y) = 0.58985 0.46216
# Poissons Ratio (z) = 0.09541 0.22374
#
# Static dielectric constant tensor:
#      x y z
#    x 4.124280 -0.176870 -0.154040 
#    y -0.176870 4.061330 0.119450 
#    z -0.154040 0.119450 4.503090 
# 
# 
# High freq. dielectric constant tensor:
#      x y z
#    x 1.893020 -0.006910 -0.002960 
#    y -0.006910 1.878920 0.006770 
#    z -0.002960 0.006770 1.902800 
# 
# From -- ./inp_files/109597.got.cif
#   From: 2010.06.25/outbox.cif.g09.slc.cpg/sg2_55_cif.got.tgz:109597.got - 2010.06.27 13:26:56.
