data_PCOD8032978
_publ_section_title
;
Structure prediction by ZEFSAII (Michael W. Deem and Ramdas Pophale) SiO2 
 PCOD8032978
Probable space group: P -1
;
_chemical_formula_sum "Si O2"
_cell_formula_units_Z 14
_cell_length_a 12.067160
_cell_length_b 11.667885
_cell_length_c 6.380848
_cell_angle_alpha 133.888642
_cell_angle_beta 114.113007
_cell_angle_gamma 72.987644
_cell_volume 590.917815
_symmetry_space_group_name_H-M "P -1"
_symmetry_group_IT_number 2
_symmetry_cell_setting 'triclinic'
loop_
_space_group_symop_operation_xyz
x,y,z
-x,-y,-z
loop_
_atom_site_type_symbol
_atom_site_label
_atom_site_fract_x
_atom_site_fract_y
_atom_site_fract_z
Si Si1 0.407676 0.936820 0.171935
Si Si2 0.177739 0.233088 0.632701
Si Si3 0.955138 0.333731 0.339734
Si Si4 0.774423 0.516664 0.694172
Si Si5 0.643331 0.727198 0.528185
Si Si6 0.598853 0.291721 0.480336
Si Si7 0.778423 0.123481 0.713135
O O1 0.297027 0.856239 0.104592
O O2 0.500000 0.000000 0.500000
O O3 0.361884 0.085051 0.181546
O O4 0.460959 0.806888 0.884619
O O5 0.305847 0.279128 0.678557
O O6 0.066984 0.228103 0.377622
O O7 0.187378 0.061170 0.532610
O O8 0.148864 0.369998 0.951566
O O9 0.858358 0.370445 0.496430
O O10 0.000000 0.500000 0.500000
O O11 0.896052 0.232697 0.977144
O O12 0.735958 0.626451 0.609974
O O13 0.655713 0.452505 0.639521
O O14 0.506077 0.662161 0.373195
O O15 0.704203 0.186418 0.536319
#
# Coordination Sequence:
#
# PCOD8032978 Si02
#       7
#     2   2   2   2   2   2   2
#     4  11  23  44  70 101 145 185 231 284 342 425
#     4  11  26  46  73 102 141 187 238 290 345 415
#     4  12  24  51  72  99 144 185 240 294 346 412
#     4  12  26  45  70 106 142 186 234 290 357 412
#     4  11  25  42  68 104 142 184 228 283 351 418
#     4  12  25  43  72 106 145 182 234 285 359 420
#     4  11  25  46  73 106 138 185 237 290 349 413
#
# _framework density 23.691959000000001
#
# number of rings (size 3 to 8) (size 9 to 14) (size 15 to 20)
#    0.000    0.571    4.286    3.429    4.000    0.571 
#    0.000    1.429    0.000    0.000    0.000    0.000 
#    0.000    0.000    0.000    0.000    0.000    0.000 
#
# Total GULP energy -173582.655833 kJ/mol
# GULP energy per Si atom -12398.761131 kJ/mol
# Density = 2.363803 g / cm^3
# Si number density = 23.691959 Si / 1000 Ang^3
#
#
#
# Elastic Constant Matrix: (Units=GPa)
#
#
# Indices 1 2 3 4 5 6 
#
# 1 77.3652 12.5440 29.2305 6.2525 7.6870 0.1773
# 2 12.5440 102.7444 26.7403 -3.2953 8.6742 4.2091
# 3 29.2305 26.7403 129.1864 4.1797 12.0946 -5.5599
# 4 6.2525 -3.2953 4.1797 25.1255 -6.9512 10.4629
# 5 7.6870 8.6742 12.0946 -6.9512 29.1666 4.3284
# 6 0.1773 4.2091 -5.5599 10.4629 4.3284 42.6683
#
#
#
# Elastic Compliance Matrix: (Units=1/GPa)
#
#
# Indices 1 2 3 4 5 6 
#
# 1 0.014858 -0.001033 -0.002556 -0.005065 -0.003956 0.001350
# 2 -0.001033 0.010633 -0.002005 0.002380 -0.001230 -0.001765
# 3 -0.002556 -0.002005 0.009306 -0.003305 -0.003764 0.002613
# 4 -0.005065 0.002380 -0.003305 0.052993 0.016906 -0.015354
# 5 -0.003956 -0.001230 -0.003764 0.016906 0.042593 -0.008819
# 6 0.001350 -0.001765 0.002613 -0.015354 -0.008819 0.028605
#
#
# Mechanical properties :
#
#
# Convention : Reuss Voigt Hill
#
# Bulk Modulus (GPa) = 42.35453 49.59175 45.97314
# Shear Modulus (GPa) = 28.08259 35.44414 31.76337
#
# Velocity S-wave (km/s) = 3.44658 3.87207 3.66550
# Velocity P-wave (km/s) = 5.80987 6.40061 6.11238
#
# Compressibility (1/GPa) = 0.02361022
#
# Stress axis : x y z
#
# Youngs Moduli (GPa) = 67.30343 94.04452 107.45864
#
# Poissons Ratio (x) = 0.09711 0.27464
# Poissons Ratio (y) = 0.06950 0.21547
# Poissons Ratio (z) = 0.17201 0.18858
#
# Static dielectric constant tensor:
#      x y z
#    x 4.448530 0.091960 -0.037300 
#    y 0.091960 4.356630 0.051260 
#    z -0.037300 0.051260 3.982090 
# 
# 
# High freq. dielectric constant tensor:
#      x y z
#    x 1.937400 0.005950 0.002810 
#    y 0.005950 1.951150 0.005060 
#    z 0.002810 0.005060 1.924500 
# 
# From -- ./inp_files/27568.got.cif
#   From: 2010.06.25/outbox.cif.g09.slc.cpg/sg2_14_cif.got.tgz:27568.got - 2010.06.27 13:26:56.
