data_PCOD8032995
_publ_section_title
;
Structure prediction by ZEFSAII (Michael W. Deem and Ramdas Pophale) SiO2 
 PCOD8032995
Probable space group: P -1
;
_chemical_formula_sum "Si O2"
_cell_formula_units_Z 16
_cell_length_a 17.378164
_cell_length_b 12.285576
_cell_length_c 9.046286
_cell_angle_alpha 51.049188
_cell_angle_beta 125.273557
_cell_angle_gamma 149.553544
_cell_volume 758.022397
_symmetry_space_group_name_H-M "P -1"
_symmetry_group_IT_number 2
_symmetry_cell_setting 'triclinic'
loop_
_space_group_symop_operation_xyz
x,y,z
-x,-y,-z
loop_
_atom_site_type_symbol
_atom_site_label
_atom_site_fract_x
_atom_site_fract_y
_atom_site_fract_z
Si Si1 0.506903 0.645280 0.565045
Si Si2 0.246710 0.546945 0.385306
Si Si3 0.990478 0.836630 0.056896
Si Si4 0.249523 0.619919 0.661633
Si Si5 0.970714 0.112860 0.292110
Si Si6 0.747244 0.066905 0.669665
Si Si7 0.370780 0.203238 0.747559
Si Si8 0.584833 0.982444 0.835625
O O1 0.337815 0.511830 0.478448
O O2 0.477990 0.447565 0.729917
O O3 0.610405 0.784328 0.417053
O O4 0.595073 0.819381 0.647990
O O5 0.208209 0.514129 0.544081
O O6 0.089958 0.363838 0.276227
O O7 0.353143 0.795862 0.232694
O O8 0.832601 0.572825 0.143574
O O9 0.119142 0.889764 0.227791
O O10 0.006012 0.874546 0.867540
O O11 0.000000 0.000000 0.000000
O O12 0.205089 0.732974 0.531634
O O13 0.429959 0.820048 0.712224
O O14 0.804912 0.978492 0.256039
O O15 0.000000 0.000000 0.500000
O O16 0.711703 0.059853 0.806011
O O17 0.434636 0.133265 0.942397
#
# Coordination Sequence:
#
# PCOD8032995 Si02
#       8
#     2   2   2   2   2   2   2   2
#     4  11  24  43  70  97 130 179 223 279 333 392
#     4  11  23  44  70  97 135 177 219 274 340 396
#     4  12  29  43  70 104 131 181 229 272 335 405
#     4  11  24  45  71 101 137 176 221 284 333 396
#     4  12  26  47  66  95 143 176 219 279 337 396
#     4  11  23  47  69  97 137 175 226 278 337 394
#     4  11  27  42  66 100 134 177 224 276 335 397
#     4  11  23  45  69 102 132 175 231 275 333 395
#
# _framework density 21.107557
#
# number of rings (size 3 to 8) (size 9 to 14) (size 15 to 20)
#    0.000    0.750    5.000    1.875    7.000    2.500 
#    0.000    0.000    0.000    0.000    0.000    0.000 
#    0.000    0.000    0.000    0.000    0.000    0.000 
#
# Total GULP energy -198470.762958 kJ/mol
# GULP energy per Si atom -12404.422685 kJ/mol
# Density = 2.105952 g / cm^3
# Si number density = 21.107557 Si / 1000 Ang^3
#
#
#
# Elastic Constant Matrix: (Units=GPa)
#
#
# Indices 1 2 3 4 5 6 
#
# 1 84.7559 18.6659 29.6230 7.1274 3.3155 8.4083
# 2 18.6659 94.6242 31.3738 10.5286 -9.5404 0.5660
# 3 29.6230 31.3738 113.0832 -7.0893 5.2421 4.6658
# 4 7.1274 10.5286 -7.0893 30.0534 -2.0560 -5.6324
# 5 3.3155 -9.5404 5.2421 -2.0560 32.5976 -5.0759
# 6 8.4083 0.5660 4.6658 -5.6324 -5.0759 24.3811
#
#
#
# Elastic Compliance Matrix: (Units=1/GPa)
#
#
# Indices 1 2 3 4 5 6 
#
# 1 0.014386 -0.001403 -0.003326 -0.005004 -0.002587 -0.005987
# 2 -0.001403 0.013061 -0.003784 -0.004697 0.004392 0.000734
# 3 -0.003326 -0.003784 0.011170 0.004526 -0.002334 -0.000343
# 4 -0.005004 -0.004697 0.004526 0.039331 0.002535 0.010582
# 5 -0.002587 0.004392 -0.002334 0.002535 0.034152 0.008932
# 6 -0.005987 0.000734 -0.000343 0.010582 0.008932 0.047433
#
#
# Mechanical properties :
#
#
# Convention : Reuss Voigt Hill
#
# Bulk Modulus (GPa) = 46.31816 50.19877 48.25846
# Shear Modulus (GPa) = 27.20998 31.59312 29.40155
#
# Velocity S-wave (km/s) = 3.59431 3.87301 3.73626
# Velocity P-wave (km/s) = 6.26235 6.62074 6.44404
#
# Compressibility (1/GPa) = 0.02158980
#
# Stress axis : x y z
#
# Youngs Moduli (GPa) = 69.51213 76.56512 89.52326
#
# Poissons Ratio (x) = 0.10745 0.29775
# Poissons Ratio (y) = 0.09755 0.33879
# Poissons Ratio (z) = 0.23119 0.28975
#
# Static dielectric constant tensor:
#      x y z
#    x 3.812190 -0.022220 0.097710 
#    y -0.022220 3.883030 -0.132220 
#    z 0.097710 -0.132220 3.893080 
# 
# 
# High freq. dielectric constant tensor:
#      x y z
#    x 1.832180 -0.000780 0.005710 
#    y -0.000780 1.838680 -0.008680 
#    z 0.005710 -0.008680 1.828940 
# 
# From -- ./inp_files/186725.got.cif
#   From: 2010.06.25/outbox.cif.g09.slc.cpg/sg2_94_cif.got.tgz:186725.got - 2010.06.27 13:26:56.
