data_PCOD8032321
_publ_section_title
;
Structure prediction by ZEFSAII (Michael W. Deem and Ramdas Pophale) SiO2 
 PCOD8032321
Probable space group: P -1
;
_chemical_formula_sum "Si O2"
_cell_formula_units_Z 16
_cell_length_a 18.141132
_cell_length_b 9.233522
_cell_length_c 6.726958
_cell_angle_alpha 130.276993
_cell_angle_beta 56.037575
_cell_angle_gamma 114.960547
_cell_volume 709.714549
_symmetry_space_group_name_H-M "P -1"
_symmetry_group_IT_number 2
_symmetry_cell_setting 'triclinic'
loop_
_space_group_symop_operation_xyz
x,y,z
-x,-y,-z
loop_
_atom_site_type_symbol
_atom_site_label
_atom_site_fract_x
_atom_site_fract_y
_atom_site_fract_z
Si Si1 0.450713 0.683736 0.793818
Si Si2 0.729767 0.903856 0.064285
Si Si3 0.272233 0.449504 0.968395
Si Si4 0.189700 0.722991 0.613702
Si Si5 0.042523 0.695633 0.535344
Si Si6 0.144621 0.508229 0.882385
Si Si7 0.446778 0.023729 0.803118
Si Si8 0.075953 0.151103 0.432402
O O1 0.500000 0.500000 0.500000
O O2 0.357279 0.600503 0.951135
O O3 0.437116 0.818382 0.744278
O O4 0.503838 0.809714 0.991896
O O5 0.706676 0.743275 0.123980
O O6 0.649659 0.901989 0.026417
O O7 0.733544 0.102327 0.356151
O O8 0.823082 0.904599 0.801201
O O9 0.223228 0.411326 0.796315
O O10 0.204847 0.544098 0.296848
O O11 0.099745 0.799063 0.722197
O O12 0.185950 0.647365 0.774337
O O13 0.000000 0.500000 0.500000
O O14 0.960460 0.812686 0.701539
O O15 0.098468 0.656781 0.219567
O O16 0.078641 0.336939 0.736709
O O17 0.500000 0.000000 0.500000
O O18 0.000000 0.000000 0.500000
#
# Coordination Sequence:
#
# PCOD8032321 Si02
#       8
#     2   2   2   2   2   2   2   2
#     4  11  26  46  78 111 144 188 232 298 368 439
#     4  12  26  45  71 103 143 187 235 296 354 426
#     4  11  25  45  69 106 140 183 237 292 358 429
#     4  11  24  45  68  96 138 189 238 293 356 413
#     4  11  23  42  66  91 131 186 241 295 356 412
#     4  11  23  45  67  94 142 186 237 300 354 418
#     4  11  26  50  76 111 149 186 240 293 365 443
#     4  12  26  41  65 104 137 190 244 292 355 415
#
# _framework density 22.544273
#
# number of rings (size 3 to 8) (size 9 to 14) (size 15 to 20)
#    0.000    0.750    2.500    4.125    5.250    5.500 
#    0.000    0.000    0.000    0.000    0.000    0.000 
#    0.000    0.000    0.000    0.000    0.000    0.000 
#
# Total GULP energy -198320.418908 kJ/mol
# GULP energy per Si atom -12395.026182 kJ/mol
# Density = 2.249296 g / cm^3
# Si number density = 22.544273 Si / 1000 Ang^3
#
#
#
# Elastic Constant Matrix: (Units=GPa)
#
#
# Indices 1 2 3 4 5 6 
#
# 1 171.8030 79.4247 31.7542 -15.4853 7.4480 -18.8543
# 2 79.4247 186.8598 41.0968 -10.5191 12.7993 -5.9356
# 3 31.7542 41.0968 75.3420 -12.1762 1.8069 -13.4315
# 4 -15.4853 -10.5191 -12.1762 37.1233 2.9849 0.5634
# 5 7.4480 12.7993 1.8069 2.9849 37.7199 -1.2287
# 6 -18.8543 -5.9356 -13.4315 0.5634 -1.2287 43.7945
#
#
#
# Elastic Compliance Matrix: (Units=1/GPa)
#
#
# Indices 1 2 3 4 5 6 
#
# 1 0.007833 -0.002886 -0.000887 0.002167 -0.000610 0.002664
# 2 -0.002886 0.007313 -0.002932 0.000071 -0.001816 -0.001202
# 3 -0.000887 -0.002932 0.016684 0.004192 0.000179 0.004289
# 4 0.002167 0.000071 0.004192 0.029445 -0.002925 0.001767
# 5 -0.000610 -0.001816 0.000179 -0.002925 0.027482 0.000355
# 6 0.002664 -0.001202 0.004289 0.001767 0.000355 0.025120
#
#
# Mechanical properties :
#
#
# Convention : Reuss Voigt Hill
#
# Bulk Modulus (GPa) = 54.29117 82.06180 68.17648
# Shear Modulus (GPa) = 37.47340 42.50948 39.99144
#
# Velocity S-wave (km/s) = 4.08145 4.34706 4.21635
# Velocity P-wave (km/s) = 6.80774 7.85336 7.34917
#
# Compressibility (1/GPa) = 0.01841920
#
# Stress axis : x y z
#
# Youngs Moduli (GPa) = 127.66726 136.73679 59.93792
#
# Poissons Ratio (x) = 0.39460 0.05319
# Poissons Ratio (y) = 0.36842 0.17575
# Poissons Ratio (z) = 0.11329 0.40095
#
# Static dielectric constant tensor:
#      x y z
#    x 4.385700 -0.128900 -0.003050 
#    y -0.128900 4.066210 0.036330 
#    z -0.003050 0.036330 3.922180 
# 
# 
# High freq. dielectric constant tensor:
#      x y z
#    x 1.908610 -0.002040 0.008120 
#    y -0.002040 1.905400 -0.001890 
#    z 0.008120 -0.001890 1.880410 
# 
# From -- ./inp_files/106201.got.cif
#   From: 2010.06.25/outbox.cif.g09.slc.cpg/sg2_54_cif.got.tgz:106201.got - 2010.06.27 13:26:56.
