data_PCOD8032608
_publ_section_title
;
Structure prediction by ZEFSAII (Michael W. Deem and Ramdas Pophale) SiO2 
 PCOD8032608
Probable space group: P -1
;
_chemical_formula_sum "Si O2"
_cell_formula_units_Z 16
_cell_length_a 26.510584
_cell_length_b 9.757618
_cell_length_c 22.072899
_cell_angle_alpha 27.855427
_cell_angle_beta 17.533253
_cell_angle_gamma 29.200619
_cell_volume 785.425726
_symmetry_space_group_name_H-M "P -1"
_symmetry_group_IT_number 2
_symmetry_cell_setting 'triclinic'
loop_
_space_group_symop_operation_xyz
x,y,z
-x,-y,-z
loop_
_atom_site_type_symbol
_atom_site_label
_atom_site_fract_x
_atom_site_fract_y
_atom_site_fract_z
Si Si1 0.776671 0.829428 0.477057
Si Si2 0.438879 0.821419 0.306929
Si Si3 0.641069 0.835938 0.858929
Si Si4 0.223328 0.155675 0.030394
Si Si5 0.364984 0.174142 0.635018
Si Si6 0.016335 0.660326 0.983663
Si Si7 0.990750 0.167342 0.509252
Si Si8 0.438878 0.804644 0.815318
O O1 0.898998 0.512798 0.473966
O O2 0.642850 0.777133 0.599209
O O3 0.666121 0.950811 0.614181
O O4 0.885354 0.069866 0.239151
O O5 0.383816 0.508801 0.493121
O O6 0.387091 0.984660 0.240395
O O7 0.642850 0.745344 0.115102
O O8 0.822727 0.839613 0.677267
O O9 0.612921 0.505396 0.014560
O O10 0.500000 0.000000 0.000000
O O11 0.101007 0.995356 0.271954
O O12 0.114639 0.432127 0.009863
O O13 0.333877 0.927996 0.946419
O O14 0.500000 0.000000 0.500000
O O15 0.383825 0.016539 0.739241
O O16 0.168550 0.196162 0.831456
O O17 0.000000 0.500000 0.000000
O O18 0.000000 0.000000 0.500000
#
# Coordination Sequence:
#
# PCOD8032608 Si02
#       8
#     2   2   2   2   2   2   2   2
#     4  11  24  43  70  97 133 177 226 284 330 407
#     4  11  23  43  67  97 132 177 227 271 343 399
#     4  12  25  42  65  91 134 177 219 279 337 403
#     4  11  24  43  70  97 133 177 226 284 330 407
#     4  12  25  41  65  99 137 176 227 280 339 397
#     4  12  23  43  69 101 134 174 231 275 332 403
#     4  12  27  44  67 101 137 174 226 282 342 402
#     4  11  23  43  67  97 132 177 227 271 343 399
#
# _framework density 20.371117000000002
#
# number of rings (size 3 to 8) (size 9 to 14) (size 15 to 20)
#    0.000    0.500    2.500    6.000    0.000    7.000 
#    0.000    1.875    0.000    0.000    0.000    0.000 
#    0.000    0.000    0.000    0.000    0.000    0.000 
#
# Total GULP energy -198400.626018 kJ/mol
# GULP energy per Si atom -12400.039126 kJ/mol
# Density = 2.032475 g / cm^3
# Si number density = 20.371117 Si / 1000 Ang^3
#
#
#
# Elastic Constant Matrix: (Units=GPa)
#
#
# Indices 1 2 3 4 5 6 
#
# 1 132.6181 66.8678 85.0501 -5.3979 -11.3260 -28.6880
# 2 66.8678 152.8416 82.8711 -6.2179 -9.3859 -25.1552
# 3 85.0501 82.8711 199.1957 -3.3953 -16.3209 -20.6991
# 4 -5.3979 -6.2179 -3.3953 54.2780 -6.3983 4.2614
# 5 -11.3260 -9.3859 -16.3209 -6.3983 46.0202 3.1439
# 6 -28.6880 -25.1552 -20.6991 4.2614 3.1439 42.7281
#
#
#
# Elastic Compliance Matrix: (Units=1/GPa)
#
#
# Indices 1 2 3 4 5 6 
#
# 1 0.012286 -0.002545 -0.003592 0.000434 0.000956 0.004897
# 2 -0.002545 0.009512 -0.002570 0.000509 0.000297 0.002574
# 3 -0.003592 -0.002570 0.007703 0.000012 0.001345 -0.000294
# 4 0.000434 0.000509 0.000012 0.018994 0.002959 -0.001515
# 5 0.000956 0.000297 0.001345 0.002959 0.022949 -0.000515
# 6 0.004897 0.002574 -0.000294 -0.001515 -0.000515 0.028254
#
#
# Mechanical properties :
#
#
# Convention : Reuss Voigt Hill
#
# Bulk Modulus (GPa) = 82.73843 106.02591 94.38217
# Shear Modulus (GPa) = 41.27377 45.26301 43.26839
#
# Velocity S-wave (km/s) = 4.50610 4.71884 4.61369
# Velocity P-wave (km/s) = 8.23268 9.04710 8.64948
#
# Compressibility (1/GPa) = 0.01208628
#
# Stress axis : x y z
#
# Youngs Moduli (GPa) = 81.39241 105.12690 129.81530
#
# Poissons Ratio (x) = 0.26755 0.46635
# Poissons Ratio (y) = 0.20715 0.33366
# Poissons Ratio (z) = 0.29239 0.27021
#
# Static dielectric constant tensor:
#      x y z
#    x 3.923970 -0.047210 -0.135810 
#    y -0.047210 3.893140 0.130460 
#    z -0.135810 0.130460 4.066100 
# 
# 
# High freq. dielectric constant tensor:
#      x y z
#    x 1.806800 -0.010680 -0.003890 
#    y -0.010680 1.813630 0.000570 
#    z -0.003890 0.000570 1.822900 
# 
# From -- ./inp_files/601904.got.cif
#   From: 2010.06.25/outbox.cif.g09.slc.cpg/sg2_301_cif.got.tgz:601904.got - 2010.06.27 13:26:56.
