data_PCOD8032882
_publ_section_title
;
Structure prediction by ZEFSAII (Michael W. Deem and Ramdas Pophale) SiO2 
 PCOD8032882
Probable space group: P -1
;
_chemical_formula_sum "Si O2"
_cell_formula_units_Z 16
_cell_length_a 14.948623
_cell_length_b 11.962977
_cell_length_c 14.877805
_cell_angle_alpha 28.510547
_cell_angle_beta 45.760644
_cell_angle_gamma 34.941175
_cell_volume 724.843923
_symmetry_space_group_name_H-M "P -1"
_symmetry_group_IT_number 2
_symmetry_cell_setting 'triclinic'
loop_
_space_group_symop_operation_xyz
x,y,z
-x,-y,-z
loop_
_atom_site_type_symbol
_atom_site_label
_atom_site_fract_x
_atom_site_fract_y
_atom_site_fract_z
Si Si1 0.867343 0.539339 0.504638
Si Si2 0.604239 0.399039 0.263741
Si Si3 0.936465 0.946475 0.436074
Si Si4 0.399166 0.077523 0.102550
Si Si5 0.139049 0.047579 0.318434
Si Si6 0.391115 0.473544 0.211743
Si Si7 0.378526 0.956874 0.785713
Si Si8 0.412176 0.404303 0.545501
O O1 0.763235 0.480141 0.678416
O O2 0.000000 0.500000 0.500000
O O3 0.934603 0.325975 0.522470
O O4 0.762244 0.875314 0.306425
O O5 0.530536 0.310310 0.303407
O O6 0.493332 0.509161 0.351625
O O7 0.778347 0.126878 0.361375
O O8 0.610330 0.653726 0.036476
O O9 0.996304 0.140736 0.285352
O O10 0.915065 0.834301 0.625111
O O11 0.225697 0.180395 0.126103
O O12 0.470443 0.794486 0.315782
O O13 0.500000 0.000000 0.000000
O O14 0.251193 0.689845 0.494873
O O15 0.455967 0.276689 0.215386
O O16 0.342480 0.795906 0.996888
O O17 0.381471 0.204269 0.654279
#
# Coordination Sequence:
#
# PCOD8032882 Si02
#       8
#     2   2   2   2   2   2   2   2
#     4  12  26  46  71 100 139 182 217 278 350 405
#     4  12  23  42  68 101 133 179 233 275 333 403
#     4  11  25  42  65  98 142 179 221 271 342 410
#     4  12  24  39  70 101 129 180 233 282 330 386
#     4  11  23  44  65  99 140 182 223 276 336 406
#     4  11  25  45  72 106 129 171 238 281 335 401
#     4  11  24  45  75  99 132 176 226 290 332 396
#     4  12  22  43  71  98 135 177 233 282 325 401
#
# _framework density 22.073718
#
# number of rings (size 3 to 8) (size 9 to 14) (size 15 to 20)
#    0.000    0.500    6.250    2.250    1.750    1.000 
#    2.250    0.000    0.000    0.000    0.000    0.000 
#    0.000    0.000    0.000    0.000    0.000    0.000 
#
# Total GULP energy -198394.455990 kJ/mol
# GULP energy per Si atom -12399.653499 kJ/mol
# Density = 2.202348 g / cm^3
# Si number density = 22.073718 Si / 1000 Ang^3
#
#
#
# Elastic Constant Matrix: (Units=GPa)
#
#
# Indices 1 2 3 4 5 6 
#
# 1 132.5762 34.7026 38.0683 22.0151 -14.4380 -12.8556
# 2 34.7026 112.8504 35.0153 22.9802 -7.7470 -1.4667
# 3 38.0683 35.0153 106.5730 22.6498 -4.7190 -10.1050
# 4 22.0151 22.9802 22.6498 35.0565 -4.4404 -5.1592
# 5 -14.4380 -7.7470 -4.7190 -4.4404 34.5917 3.5519
# 6 -12.8556 -1.4667 -10.1050 -5.1592 3.5519 38.5344
#
#
#
# Elastic Compliance Matrix: (Units=1/GPa)
#
#
# Indices 1 2 3 4 5 6 
#
# 1 0.009489 -0.001468 -0.001941 -0.003108 0.002770 0.001929
# 2 -0.001468 0.011049 -0.002124 -0.005019 0.001071 -0.001397
# 3 -0.001941 -0.002124 0.011969 -0.004917 -0.000469 0.001795
# 4 -0.003108 -0.005019 -0.004917 0.037478 0.001476 0.002365
# 5 0.002770 0.001071 -0.000469 0.001476 0.030613 -0.001782
# 6 0.001929 -0.001397 0.001795 0.002365 -0.001782 0.027493
#
#
# Mechanical properties :
#
#
# Convention : Reuss Voigt Hill
#
# Bulk Modulus (GPa) = 46.63997 63.06355 54.85176
# Shear Modulus (GPa) = 34.17503 37.91743 36.04623
#
# Velocity S-wave (km/s) = 3.93901 4.14909 4.04541
# Velocity P-wave (km/s) = 6.47015 7.18225 6.83548
#
# Compressibility (1/GPa) = 0.02144084
#
# Stress axis : x y z
#
# Youngs Moduli (GPa) = 105.38219 90.50521 83.54876
#
# Poissons Ratio (x) = 0.13282 0.16219
# Poissons Ratio (y) = 0.15465 0.17750
# Poissons Ratio (z) = 0.20458 0.19227
#
# Static dielectric constant tensor:
#      x y z
#    x 4.197520 -0.049840 -0.094770 
#    y -0.049840 3.984920 0.058040 
#    z -0.094770 0.058040 4.001680 
# 
# 
# High freq. dielectric constant tensor:
#      x y z
#    x 1.884250 0.002650 -0.007190 
#    y 0.002650 1.871030 0.008320 
#    z -0.007190 0.008320 1.859620 
# 
# From -- ./inp_files/519566.got.cif
#   From: 2010.06.25/outbox.cif.g09.slc.cpg/sg2_260_cif.got.tgz:519566.got - 2010.06.27 13:26:56.
