data_PCOD8032561
_publ_section_title
;
Structure prediction by ZEFSAII (Michael W. Deem and Ramdas Pophale) SiO2 
 PCOD8032561
Probable space group: P -1
;
_chemical_formula_sum "Si O2"
_cell_formula_units_Z 16
_cell_length_a 6.666259
_cell_length_b 9.652892
_cell_length_c 19.808540
_cell_angle_alpha 49.581114
_cell_angle_beta 120.048846
_cell_angle_gamma 130.983630
_cell_volume 726.220807
_symmetry_space_group_name_H-M "P -1"
_symmetry_group_IT_number 2
_symmetry_cell_setting 'triclinic'
loop_
_space_group_symop_operation_xyz
x,y,z
-x,-y,-z
loop_
_atom_site_type_symbol
_atom_site_label
_atom_site_fract_x
_atom_site_fract_y
_atom_site_fract_z
Si Si1 0.915948 0.918891 0.212692
Si Si2 0.699525 0.687901 0.523232
Si Si3 0.311494 0.920006 0.558062
Si Si4 0.544807 0.559270 0.066103
Si Si5 0.593168 0.111422 0.051135
Si Si6 0.637078 0.473010 0.720932
Si Si7 0.095140 0.794931 0.147955
Si Si8 0.610077 0.746888 0.743205
O O1 0.657428 0.728301 0.262737
O O2 0.018409 0.834004 0.196513
O O3 0.855434 0.101775 0.119889
O O4 0.138046 0.020179 0.276497
O O5 0.500000 0.500000 0.500000
O O6 0.655700 0.609348 0.617032
O O7 0.007353 0.777285 0.525309
O O8 0.644708 0.882840 0.450862
O O9 0.374357 0.769990 0.662138
O O10 0.500000 0.000000 0.500000
O O11 0.481983 0.362319 0.164787
O O12 0.853341 0.739674 0.072954
O O13 0.500000 0.500000 0.000000
O O14 0.348259 0.651077 0.022295
O O15 0.360547 0.000468 0.102807
O O16 0.500000 0.000000 0.000000
O O17 0.858359 0.402992 0.776880
O O18 0.695478 0.612657 0.753318
#
# Coordination Sequence:
#
# PCOD8032561 Si02
#       8
#     2   2   2   2   2   2   2   2
#     4  11  26  44  70 100 135 190 237 291 355 413
#     4  11  27  46  78 110 144 187 233 290 365 428
#     4  11  26  50  73 109 149 182 236 300 350 431
#     4  12  25  41  68 102 136 190 236 289 357 413
#     4  11  23  43  65  93 135 181 240 296 349 413
#     4  11  25  46  69 105 141 183 234 291 350 428
#     4  11  23  45  65  96 141 181 238 297 345 422
#     4  12  26  47  71 101 145 186 233 291 356 422
#
# _framework density 22.031869
#
# number of rings (size 3 to 8) (size 9 to 14) (size 15 to 20)
#    0.000    0.750    3.750    2.625    7.000    1.000 
#    2.250    0.000    0.000    0.000    0.000    0.000 
#    0.000    0.000    0.000    0.000    0.000    0.000 
#
# Total GULP energy -198471.179755 kJ/mol
# GULP energy per Si atom -12404.448735 kJ/mol
# Density = 2.198172 g / cm^3
# Si number density = 22.031869 Si / 1000 Ang^3
#
#
#
# Elastic Constant Matrix: (Units=GPa)
#
#
# Indices 1 2 3 4 5 6 
#
# 1 129.0869 50.9832 43.5112 -2.7411 10.7838 -9.6033
# 2 50.9832 135.4159 27.8411 14.3519 8.8312 -8.3508
# 3 43.5112 27.8411 111.3329 -8.1573 0.1622 -11.6477
# 4 -2.7411 14.3519 -8.1573 35.3819 -3.0935 6.8472
# 5 10.7838 8.8312 0.1622 -3.0935 40.9562 -10.0483
# 6 -9.6033 -8.3508 -11.6477 6.8472 -10.0483 35.4790
#
#
#
# Elastic Compliance Matrix: (Units=1/GPa)
#
#
# Indices 1 2 3 4 5 6 
#
# 1 0.010255 -0.003215 -0.003088 0.001176 -0.001843 0.000256
# 2 -0.003215 0.009552 -0.001324 -0.004831 -0.001196 0.001537
# 3 -0.003088 -0.001324 0.010962 0.002505 0.001856 0.002494
# 4 0.001176 -0.004831 0.002505 0.032148 0.001751 -0.005705
# 5 -0.001843 -0.001196 0.001856 0.001751 0.027038 0.007149
# 6 0.000256 0.001537 0.002494 -0.005705 0.007149 0.032561
#
#
# Mechanical properties :
#
#
# Convention : Reuss Voigt Hill
#
# Bulk Modulus (GPa) = 64.45201 68.94518 66.69859
# Shear Modulus (GPa) = 34.97916 39.26344 37.12130
#
# Velocity S-wave (km/s) = 3.98887 4.22610 4.10920
# Velocity P-wave (km/s) = 7.10861 7.42795 7.27003
#
# Compressibility (1/GPa) = 0.01551542
#
# Stress axis : x y z
#
# Youngs Moduli (GPa) = 97.50945 104.69161 91.22589
#
# Poissons Ratio (x) = 0.33655 0.28175
# Poissons Ratio (y) = 0.31346 0.12075
# Poissons Ratio (z) = 0.30116 0.13857
#
# Static dielectric constant tensor:
#      x y z
#    x -2.628740 -1.820500 -2.284870 
#    y -1.820500 3.527260 -0.824500 
#    z -2.284870 -0.824500 3.187290 
# 
# 
# High freq. dielectric constant tensor:
#      x y z
#    x 1.879450 -0.005800 0.005320 
#    y -0.005800 1.869520 -0.008250 
#    z 0.005320 -0.008250 1.870910 
# 
# From -- ./inp_files/324256.got.cif
#   From: 2010.06.25/outbox.cif.g09.slc.cpg/sg2_163_cif.got.tgz:324256.got - 2010.06.27 13:26:56.
