data_PCOD8032609
_publ_section_title
;
Structure prediction by ZEFSAII (Michael W. Deem and Ramdas Pophale) SiO2 
 PCOD8032609
Probable space group: P -1
;
_chemical_formula_sum "Si O2"
_cell_formula_units_Z 12
_cell_length_a 8.472555
_cell_length_b 11.374424
_cell_length_c 6.817328
_cell_angle_alpha 111.053879
_cell_angle_beta 85.095803
_cell_angle_gamma 116.467656
_cell_volume 546.671684
_symmetry_space_group_name_H-M "P -1"
_symmetry_group_IT_number 2
_symmetry_cell_setting 'triclinic'
loop_
_space_group_symop_operation_xyz
x,y,z
-x,-y,-z
loop_
_atom_site_type_symbol
_atom_site_label
_atom_site_fract_x
_atom_site_fract_y
_atom_site_fract_z
Si Si1 0.334242 0.025539 0.602344
Si Si2 0.314239 0.872378 0.874561
Si Si3 0.570571 0.511067 0.714852
Si Si4 0.174913 0.621988 0.457438
Si Si5 0.097165 0.800803 0.240700
Si Si6 0.301854 0.288685 0.862885
O O1 0.389644 0.189027 0.723904
O O2 0.500000 0.000000 0.500000
O O3 0.244448 0.949949 0.771802
O O4 0.188496 0.959381 0.409560
O O5 0.306390 0.738573 0.669957
O O6 0.188680 0.798727 0.025186
O O7 0.500000 0.000000 0.000000
O O8 0.500000 0.500000 0.500000
O O9 0.712587 0.450722 0.690112
O O10 0.396246 0.430482 0.814663
O O11 0.663284 0.671862 0.885190
O O12 0.115100 0.692723 0.328503
O O13 0.000000 0.500000 0.500000
O O14 0.901766 0.775314 0.202973
#
# Coordination Sequence:
#
# PCOD8032609 Si02
#       6
#     2   2   2   2   2   2
#     4  11  23  43  67  98 132 176 225 276 341 405
#     4  11  24  39  70 100 131 180 228 276 338 400
#     4  11  26  42  66  96 137 179 224 280 334 406
#     4  11  25  45  70  99 136 182 230 278 341 409
#     4  11  24  43  69 101 138 173 230 281 337 405
#     4  11  25  43  65  99 136 177 224 280 340 398
#
# _framework density 21.951018999999999
#
# number of rings (size 3 to 8) (size 9 to 14) (size 15 to 20)
#    0.000    1.000    1.667    4.500    2.333    6.000 
#    0.000    0.000    0.000    0.000    0.000    0.000 
#    0.000    0.000    0.000    0.000    0.000    0.000 
#
# Total GULP energy -148678.454574 kJ/mol
# GULP energy per Si atom -12389.871214 kJ/mol
# Density = 2.190106 g / cm^3
# Si number density = 21.951019 Si / 1000 Ang^3
#
#
#
# Elastic Constant Matrix: (Units=GPa)
#
#
# Indices 1 2 3 4 5 6 
#
# 1 115.6782 40.2466 63.4276 20.2551 -0.1740 11.3648
# 2 40.2466 94.8003 57.0963 14.5230 -2.9988 7.1937
# 3 63.4276 57.0963 171.0595 20.3452 9.5538 -1.6861
# 4 20.2551 14.5230 20.3452 58.6034 3.0019 -0.8297
# 5 -0.1740 -2.9988 9.5538 3.0019 34.7639 3.6452
# 6 11.3648 7.1937 -1.6861 -0.8297 3.6452 38.9771
#
#
#
# Elastic Compliance Matrix: (Units=1/GPa)
#
#
# Indices 1 2 3 4 5 6 
#
# 1 0.012191 -0.002343 -0.003552 -0.002521 0.001416 -0.003462
# 2 -0.002343 0.014423 -0.003934 -0.001572 0.002705 -0.002436
# 3 -0.003552 -0.003934 0.008742 -0.000647 -0.002955 0.002402
# 4 -0.002521 -0.001572 -0.000647 0.018661 -0.001745 0.001558
# 5 0.001416 0.002705 -0.002955 -0.001745 0.030380 -0.003918
# 6 -0.003462 -0.002436 0.002402 0.001558 -0.003918 0.027619
#
#
# Mechanical properties :
#
#
# Convention : Reuss Voigt Hill
#
# Bulk Modulus (GPa) = 63.69507 78.11988 70.90748
# Shear Modulus (GPa) = 36.52184 41.18670 38.85427
#
# Velocity S-wave (km/s) = 4.08338 4.33633 4.21175
# Velocity P-wave (km/s) = 7.16323 7.79341 7.48495
#
# Compressibility (1/GPa) = 0.01569980
#
# Stress axis : x y z
#
# Youngs Moduli (GPa) = 82.02835 69.33159 114.39642
#
# Poissons Ratio (x) = 0.16242 0.40630
# Poissons Ratio (y) = 0.19217 0.45000
# Poissons Ratio (z) = 0.29134 0.27273
#
# Static dielectric constant tensor:
#      x y z
#    x 3.799260 0.083110 -0.037030 
#    y 0.083110 4.358070 0.383460 
#    z -0.037030 0.383460 4.902250 
# 
# 
# High freq. dielectric constant tensor:
#      x y z
#    x 1.847910 0.014740 0.005830 
#    y 0.014740 1.869710 0.009870 
#    z 0.005830 0.009870 1.892490 
# 
# From -- ./inp_files/28686.got.cif
#   From: 2010.06.25/outbox.cif.g09.slc.cpg/sg2_15_cif.got.tgz:28686.got - 2010.06.27 13:26:56.
