data_PCOD8032761
_publ_section_title
;
Structure prediction by ZEFSAII (Michael W. Deem and Ramdas Pophale) SiO2 
 PCOD8032761
Probable space group: P -1
;
_chemical_formula_sum "Si O2"
_cell_formula_units_Z 16
_cell_length_a 11.821361
_cell_length_b 9.098268
_cell_length_c 9.281142
_cell_angle_alpha 113.255073
_cell_angle_beta 68.524212
_cell_angle_gamma 74.735527
_cell_volume 750.098232
_symmetry_space_group_name_H-M "P -1"
_symmetry_group_IT_number 2
_symmetry_cell_setting 'triclinic'
loop_
_space_group_symop_operation_xyz
x,y,z
-x,-y,-z
loop_
_atom_site_type_symbol
_atom_site_label
_atom_site_fract_x
_atom_site_fract_y
_atom_site_fract_z
Si Si1 0.748188 0.373659 0.019001
Si Si2 0.162157 0.887614 0.380341
Si Si3 0.810181 0.628649 0.901107
Si Si4 0.392400 0.996544 0.752721
Si Si5 0.886923 0.460802 0.236145
Si Si6 0.783500 0.442384 0.576947
Si Si7 0.519055 0.378238 0.308103
Si Si8 0.695739 0.893838 0.482897
O O1 0.798696 0.193906 0.829785
O O2 0.735116 0.539625 0.993981
O O3 0.850722 0.345118 0.093454
O O4 0.595674 0.429731 0.168560
O O5 0.212806 0.734200 0.420660
O O6 0.224056 0.023623 0.431130
O O7 0.000000 0.000000 0.500000
O O8 0.840780 0.544746 0.694605
O O9 0.956595 0.583474 0.886190
O O10 0.700864 0.840594 0.032718
O O11 0.387954 0.827375 0.763407
O O12 0.548683 0.961708 0.654363
O O13 0.322119 0.033930 0.643438
O O14 0.877376 0.385849 0.368716
O O15 0.781433 0.675410 0.356057
O O16 0.626833 0.588218 0.670863
O O17 0.500000 0.500000 0.500000
#
# Coordination Sequence:
#
# PCOD8032761 Si02
#       8
#     2   2   2   2   2   2   2   2
#     4  11  25  44  71  99 139 184 222 283 347 412
#     4  11  27  45  69 103 141 179 229 282 349 409
#     4  11  26  42  71 102 135 179 235 280 340 408
#     4  11  25  41  68 104 131 180 232 283 333 402
#     4  12  23  48  73  98 140 183 230 277 345 415
#     4  11  25  44  70  99 139 183 223 284 348 399
#     4  12  24  45  67 101 140 179 231 283 345 407
#     4  11  23  43  71  97 139 179 228 280 340 405
#
# _framework density 21.330539999999999
#
# number of rings (size 3 to 8) (size 9 to 14) (size 15 to 20)
#    0.000    0.750    3.750    3.000    7.000    3.500 
#    0.000    1.250    0.000    0.000    0.000    0.000 
#    0.000    0.000    0.000    0.000    0.000    0.000 
#
# Total GULP energy -198485.589916 kJ/mol
# GULP energy per Si atom -12405.349370 kJ/mol
# Density = 2.128199 g / cm^3
# Si number density = 21.330540 Si / 1000 Ang^3
#
#
#
# Elastic Constant Matrix: (Units=GPa)
#
#
# Indices 1 2 3 4 5 6 
#
# 1 113.3810 18.9771 34.2281 3.6653 3.4357 6.0483
# 2 18.9771 71.8519 35.5246 -11.3035 -1.7530 -1.5719
# 3 34.2281 35.5246 105.5642 -2.5784 4.5807 5.0957
# 4 3.6653 -11.3035 -2.5784 31.1992 -4.5158 -2.2220
# 5 3.4357 -1.7530 4.5807 -4.5158 45.6985 4.1208
# 6 6.0483 -1.5719 5.0957 -2.2220 4.1208 30.0016
#
#
#
# Elastic Compliance Matrix: (Units=1/GPa)
#
#
# Indices 1 2 3 4 5 6 
#
# 1 0.010094 -0.001783 -0.002616 -0.002265 -0.000630 -0.001765
# 2 -0.001783 0.018350 -0.005632 0.006840 0.001850 0.002530
# 3 -0.002616 -0.005632 0.012329 -0.001014 -0.001196 -0.001773
# 4 -0.002265 0.006840 -0.001014 0.035477 0.003761 0.003098
# 5 -0.000630 0.001850 -0.001196 0.003761 0.022710 -0.002414
# 6 -0.001765 0.002530 -0.001773 0.003098 -0.002414 0.034682
#
#
# Mechanical properties :
#
#
# Convention : Reuss Voigt Hill
#
# Bulk Modulus (GPa) = 48.28356 52.02853 50.15604
# Shear Modulus (GPa) = 31.13159 34.85103 32.99131
#
# Velocity S-wave (km/s) = 3.82446 4.04648 3.93704
# Velocity P-wave (km/s) = 6.49516 6.80269 6.65070
#
# Compressibility (1/GPa) = 0.02071098
#
# Stress axis : x y z
#
# Youngs Moduli (GPa) = 99.06484 54.49688 81.10901
#
# Poissons Ratio (x) = 0.09717 0.21216
# Poissons Ratio (y) = 0.17664 0.45683
# Poissons Ratio (z) = 0.25913 0.30694
#
# Static dielectric constant tensor:
#      x y z
#    x 1.917170 2.697570 0.798080 
#    y 2.697570 0.514930 -0.974460 
#    z 0.798080 -0.974460 3.815420 
# 
# 
# High freq. dielectric constant tensor:
#      x y z
#    x 1.846560 0.002240 0.002570 
#    y 0.002240 1.835570 -0.004430 
#    z 0.002570 -0.004430 1.847390 
# 
# From -- ./inp_files/185268.got.cif
#   From: 2010.06.25/outbox.cif.g09.slc.cpg/sg2_93_cif.got.tgz:185268.got - 2010.06.27 13:26:56.
