data_PCOD8032094
_publ_section_title
;
Structure prediction by ZEFSAII (Michael W. Deem and Ramdas Pophale) SiO2 
 PCOD8032094
Probable space group: P -1
;
_chemical_formula_sum "Si O2"
_cell_formula_units_Z 14
_cell_length_a 10.404204
_cell_length_b 12.278024
_cell_length_c 17.082558
_cell_angle_alpha 42.727399
_cell_angle_beta 22.923600
_cell_angle_gamma 52.945947
_cell_volume 553.637142
_symmetry_space_group_name_H-M "P -1"
_symmetry_group_IT_number 2
_symmetry_cell_setting 'triclinic'
loop_
_space_group_symop_operation_xyz
x,y,z
-x,-y,-z
loop_
_atom_site_type_symbol
_atom_site_label
_atom_site_fract_x
_atom_site_fract_y
_atom_site_fract_z
Si Si1 0.264013 0.928101 0.098062
Si Si2 0.138432 0.967646 0.855660
Si Si3 0.087125 0.373304 0.459001
Si Si4 0.659937 0.352256 0.047125
Si Si5 0.619669 0.288702 0.467355
Si Si6 0.223705 0.176731 0.245437
Si Si7 0.341885 0.584368 0.463088
O O1 0.938570 0.793490 0.389427
O O2 0.462297 0.841807 0.972109
O O3 0.120758 0.059012 0.059233
O O4 0.500000 0.000000 0.000000
O O5 0.303973 0.816296 0.844318
O O6 0.423286 0.147519 0.591142
O O7 0.000000 0.000000 0.000000
O O8 0.468361 0.439600 0.172777
O O9 0.000000 0.500000 0.500000
O O10 0.787347 0.332324 0.581968
O O11 0.384550 0.304654 0.156778
O O12 0.021558 0.466316 0.754474
O O13 0.590641 0.470399 0.357203
O O14 0.475407 0.274821 0.647913
O O15 0.002409 0.268960 0.268150
O O16 0.000000 0.000000 0.500000
#
# Coordination Sequence:
#
# PCOD8032094 Si02
#       7
#     2   2   2   2   2   2   2
#     4  12  29  47  72 109 149 185 227 309 371 413
#     4  12  23  46  78 104 139 185 252 295 346 429
#     4  12  27  46  66 102 156 185 233 296 373 417
#     4  12  24  44  78 102 138 200 251 286 345 437
#     4  11  23  40  74 106 134 179 256 293 334 415
#     4  12  22  43  76 106 135 190 248 291 347 431
#     4  11  25  43  71 103 142 194 244 287 348 436
#
# _framework density 25.287320999999999
#
# number of rings (size 3 to 8) (size 9 to 14) (size 15 to 20)
#    0.000    0.286    5.714    3.000    4.000    0.571 
#    2.571    0.714    0.000    0.000    0.000    0.000 
#    0.000    0.000    0.000    0.000    0.000    0.000 
#
# Total GULP energy -173490.964271 kJ/mol
# GULP energy per Si atom -12392.211734 kJ/mol
# Density = 2.522977 g / cm^3
# Si number density = 25.287321 Si / 1000 Ang^3
#
#
#
# Elastic Constant Matrix: (Units=GPa)
#
#
# Indices 1 2 3 4 5 6 
#
# 1 148.4379 25.9641 15.5972 9.5816 -4.2016 -12.3236
# 2 25.9641 100.6996 6.7983 24.7160 4.0779 -9.6183
# 3 15.5972 6.7983 73.0400 12.9830 12.3962 -1.5376
# 4 9.5816 24.7160 12.9830 35.1973 -3.9608 -5.7373
# 5 -4.2016 4.0779 12.3962 -3.9608 32.5665 -0.3636
# 6 -12.3236 -9.6183 -1.5376 -5.7373 -0.3636 58.6898
#
#
#
# Elastic Compliance Matrix: (Units=1/GPa)
#
#
# Indices 1 2 3 4 5 6 
#
# 1 0.007377 -0.001825 -0.001764 0.000342 0.001907 0.001249
# 2 -0.001825 0.012805 0.001465 -0.009297 -0.003518 0.000823
# 3 -0.001764 0.001465 0.016570 -0.007601 -0.007648 -0.000487
# 4 0.000342 -0.009297 -0.007601 0.039010 0.008871 0.002217
# 5 0.001907 -0.003518 -0.007648 0.008871 0.035391 0.000710
# 6 0.001249 0.000823 -0.000487 0.002217 0.000710 0.017644
#
#
# Mechanical properties :
#
#
# Convention : Reuss Voigt Hill
#
# Bulk Modulus (GPa) = 30.76450 46.54408 38.65429
# Shear Modulus (GPa) = 34.75123 43.54523 39.14823
#
# Velocity S-wave (km/s) = 3.71112 4.15422 3.93891
# Velocity P-wave (km/s) = 5.52771 6.43864 6.00049
#
# Compressibility (1/GPa) = 0.03250500
#
# Stress axis : x y z
#
# Youngs Moduli (GPa) = 135.55776 78.09348 60.34934
#
# Poissons Ratio (x) = 0.14251 0.10643
# Poissons Ratio (y) = 0.24737 -0.08840
# Poissons Ratio (z) = 0.23907 -0.11439
#
# Static dielectric constant tensor:
#      x y z
#    x 5.150550 0.330360 -0.547470 
#    y 0.330360 5.525140 -0.326190 
#    z -0.547470 -0.326190 4.424970 
# 
# 
# High freq. dielectric constant tensor:
#      x y z
#    x 2.014170 -0.013310 -0.018340 
#    y -0.013310 2.023560 -0.008650 
#    z -0.018340 -0.008650 1.991580 
# 
# From -- ./inp_files/499957.got.cif
#   From: 2010.06.25/outbox.cif.g09.slc.cpg/sg2_250_cif.got.tgz:499957.got - 2010.06.27 13:26:56.
