data_PCOD8032539
_publ_section_title
;
Structure prediction by ZEFSAII (Michael W. Deem and Ramdas Pophale) SiO2 
 PCOD8032539
Probable space group: P -1
;
_chemical_formula_sum "Si O2"
_cell_formula_units_Z 16
_cell_length_a 18.719768
_cell_length_b 15.522024
_cell_length_c 12.568166
_cell_angle_alpha 26.841090
_cell_angle_beta 135.612824
_cell_angle_gamma 152.225570
_cell_volume 718.132378
_symmetry_space_group_name_H-M "P -1"
_symmetry_group_IT_number 2
_symmetry_cell_setting 'triclinic'
loop_
_space_group_symop_operation_xyz
x,y,z
-x,-y,-z
loop_
_atom_site_type_symbol
_atom_site_label
_atom_site_fract_x
_atom_site_fract_y
_atom_site_fract_z
Si Si1 0.709114 0.701003 0.458935
Si Si2 0.829256 0.944515 0.692214
Si Si3 0.989079 0.850502 0.858788
Si Si4 0.960148 0.449253 0.637324
Si Si5 0.651128 0.277425 0.020936
Si Si6 0.570037 0.398136 0.156779
Si Si7 0.616103 0.800614 0.440431
Si Si8 0.390872 0.900696 0.337668
O O1 0.707046 0.876306 0.344142
O O2 0.577386 0.534272 0.406874
O O3 0.655972 0.434251 0.758485
O O4 0.891762 0.951661 0.332626
O O5 0.977956 0.041296 0.692481
O O6 0.688956 0.786274 0.631023
O O7 0.749426 0.689196 0.976589
O O8 0.891628 0.231189 0.494756
O O9 0.809462 0.523751 0.992082
O O10 0.059745 0.796403 0.073892
O O11 0.799386 0.333146 0.624360
O O12 0.000000 0.500000 0.500000
O O13 0.645932 0.065735 0.194434
O O14 0.490080 0.081953 0.135455
O O15 0.586991 0.289888 0.397943
O O16 0.447804 0.119900 0.251456
O O17 0.500000 0.500000 0.000000
#
# Coordination Sequence:
#
# PCOD8032539 Si02
#       8
#     2   2   2   2   2   2   2   2
#     4  11  27  46  72 107 140 185 238 287 348 424
#     4  12  25  47  71 105 143 187 232 288 353 419
#     4  12  27  45  73 104 145 185 236 292 347 416
#     4  12  29  48  70 106 145 184 237 293 347 416
#     4  12  24  48  70 103 144 183 234 290 351 413
#     4  11  23  42  75 100 137 185 231 288 354 410
#     4  11  25  45  74 102 143 182 234 287 353 415
#     4  11  26  43  71 105 138 183 238 288 343 421
#
# _framework density 22.280016
#
# number of rings (size 3 to 8) (size 9 to 14) (size 15 to 20)
#    0.000    0.500    3.750    3.000    8.750    4.500 
#    0.000    0.000    0.000    0.000    0.000    0.000 
#    0.000    0.000    0.000    0.000    0.000    0.000 
#
# Total GULP energy -198503.284998 kJ/mol
# GULP energy per Si atom -12406.455312 kJ/mol
# Density = 2.222931 g / cm^3
# Si number density = 22.280016 Si / 1000 Ang^3
#
#
#
# Elastic Constant Matrix: (Units=GPa)
#
#
# Indices 1 2 3 4 5 6 
#
# 1 143.8931 39.1782 58.5959 -1.8952 4.7287 7.0140
# 2 39.1782 85.2941 46.8249 9.0336 0.1979 6.0794
# 3 58.5959 46.8249 116.5200 12.1069 -7.1229 2.5860
# 4 -1.8952 9.0336 12.1069 32.1944 7.1220 0.6598
# 5 4.7287 0.1979 -7.1229 7.1220 51.2840 -7.6345
# 6 7.0140 6.0794 2.5860 0.6598 -7.6345 35.5928
#
#
#
# Elastic Compliance Matrix: (Units=1/GPa)
#
#
# Indices 1 2 3 4 5 6 
#
# 1 0.009519 -0.002217 -0.004338 0.003333 -0.002190 -0.001714
# 2 -0.002217 0.015897 -0.004993 -0.002565 -0.000488 -0.001973
# 3 -0.004338 -0.004993 0.013410 -0.004624 0.003146 0.001494
# 4 0.003333 -0.002565 -0.004624 0.035101 -0.006088 -0.001839
# 5 -0.002190 -0.000488 0.003146 -0.006088 0.021739 0.005062
# 6 -0.001714 -0.001973 0.001494 -0.001839 0.005062 0.029782
#
#
# Mechanical properties :
#
#
# Convention : Reuss Voigt Hill
#
# Bulk Modulus (GPa) = 63.57373 70.54501 67.05937
# Shear Modulus (GPa) = 32.51246 37.22145 34.86696
#
# Velocity S-wave (km/s) = 3.82418 4.09176 3.96023
# Velocity P-wave (km/s) = 6.93506 7.35221 7.14668
#
# Compressibility (1/GPa) = 0.01572977
#
# Stress axis : x y z
#
# Youngs Moduli (GPa) = 105.05072 62.90555 74.57022
#
# Poissons Ratio (x) = 0.13943 0.32352
# Poissons Ratio (y) = 0.23285 0.37234
# Poissons Ratio (z) = 0.45576 0.31410
#
# Static dielectric constant tensor:
#      x y z
#    x 4.212460 0.000320 0.080770 
#    y 0.000320 4.053820 0.054580 
#    z 0.080770 0.054580 4.044330 
# 
# 
# High freq. dielectric constant tensor:
#      x y z
#    x 1.892820 0.002700 0.008170 
#    y 0.002700 1.879440 0.003720 
#    z 0.008170 0.003720 1.883140 
# 
# From -- ./inp_files/226077.got.cif
#   From: 2010.06.25/outbox.cif.g09.slc.cpg/sg2_114_cif.got.tgz:226077.got - 2010.06.27 13:26:56.
