data_PCOD8032476
_publ_section_title
;
Structure prediction by ZEFSAII (Michael W. Deem and Ramdas Pophale) SiO2 
 PCOD8032476
Probable space group: P -1
;
_chemical_formula_sum "Si O2"
_cell_formula_units_Z 14
_cell_length_a 17.816750
_cell_length_b 11.645046
_cell_length_c 17.536543
_cell_angle_alpha 149.862342
_cell_angle_beta 158.162033
_cell_angle_gamma 29.681695
_cell_volume 635.647191
_symmetry_space_group_name_H-M "P -1"
_symmetry_group_IT_number 2
_symmetry_cell_setting 'triclinic'
loop_
_space_group_symop_operation_xyz
x,y,z
-x,-y,-z
loop_
_atom_site_type_symbol
_atom_site_label
_atom_site_fract_x
_atom_site_fract_y
_atom_site_fract_z
Si Si1 0.423825 0.381811 0.131881
Si Si2 0.598313 0.077803 0.839559
Si Si3 0.195372 0.773397 0.021480
Si Si4 0.989216 0.962795 0.254985
Si Si5 0.140075 0.390691 0.641829
Si Si6 0.434135 0.639336 0.439612
Si Si7 0.161005 0.064133 0.744627
O O1 0.348350 0.623892 0.148025
O O2 0.493895 0.443732 0.316249
O O3 0.634649 0.175945 0.178347
O O4 0.232072 0.272953 0.893044
O O5 0.658467 0.134227 0.843888
O O6 0.389831 0.294415 0.797910
O O7 0.563733 0.821342 0.655764
O O8 0.785014 0.068291 0.068804
O O9 0.094900 0.596852 0.781767
O O10 0.000000 0.000000 0.000000
O O11 0.068919 0.175517 0.484386
O O12 0.947024 0.831050 0.215552
O O13 0.177055 0.777687 0.274816
O O14 0.000000 0.500000 0.500000
O O15 0.500000 0.500000 0.500000
O O16 0.000000 0.000000 0.500000
#
# Coordination Sequence:
#
# PCOD8032476 Si02
#       7
#     2   2   2   2   2   2   2
#     4  11  26  44  65  98 140 170 220 284 335 393
#     4  11  25  44  68  99 133 179 225 272 337 404
#     4  12  26  44  68 102 144 177 220 277 346 403
#     4  11  23  42  71  95 129 173 228 274 329 397
#     4  11  24  43  69  97 131 176 229 269 327 406
#     4  11  25  44  67  99 132 175 227 277 330 399
#     4  11  24  44  69  96 127 177 226 275 337 393
#
# _framework density 22.024795999999998
#
# number of rings (size 3 to 8) (size 9 to 14) (size 15 to 20)
#    0.000    0.857    1.429    4.714    4.000   12.000 
#    0.000    0.000    0.000    0.000    0.000    0.000 
#    0.000    0.000    0.000    0.000    0.000    0.000 
#
# Total GULP energy -173694.556027 kJ/mol
# GULP energy per Si atom -12406.754002 kJ/mol
# Density = 2.197467 g / cm^3
# Si number density = 22.024796 Si / 1000 Ang^3
#
#
#
# Elastic Constant Matrix: (Units=GPa)
#
#
# Indices 1 2 3 4 5 6 
#
# 1 124.0973 36.2641 50.9949 0.9154 3.0529 15.1415
# 2 36.2641 100.5114 42.3441 -0.7004 5.8793 6.5718
# 3 50.9949 42.3441 118.1492 -1.9761 7.2431 -0.7927
# 4 0.9154 -0.7004 -1.9761 36.8079 -0.8059 -8.4375
# 5 3.0529 5.8793 7.2431 -0.8059 43.7158 0.7796
# 6 15.1415 6.5718 -0.7927 -8.4375 0.7796 46.1514
#
#
#
# Elastic Compliance Matrix: (Units=1/GPa)
#
#
# Indices 1 2 3 4 5 6 
#
# 1 0.010705 -0.001980 -0.003970 -0.001325 0.000215 -0.003544
# 2 -0.001980 0.012266 -0.003496 -0.000195 -0.000915 -0.001177
# 3 -0.003970 -0.003496 0.011537 0.001136 -0.001183 0.002226
# 4 -0.001325 -0.000195 0.001136 0.028573 0.000356 0.005700
# 5 0.000215 -0.000915 -0.001183 0.000356 0.023191 -0.000287
# 6 -0.003544 -0.001177 0.002226 0.005700 -0.000287 0.024083
#
#
# Mechanical properties :
#
#
# Convention : Reuss Voigt Hill
#
# Bulk Modulus (GPa) = 64.04159 66.88489 65.46324
# Shear Modulus (GPa) = 37.18802 39.54535 38.36668
#
# Velocity S-wave (km/s) = 4.11355 4.24192 4.17823
# Velocity P-wave (km/s) = 7.19040 7.37738 7.28449
#
# Compressibility (1/GPa) = 0.01561485
#
# Stress axis : x y z
#
# Youngs Moduli (GPa) = 93.41365 81.52895 86.67813
#
# Poissons Ratio (x) = 0.16142 0.34411
# Poissons Ratio (y) = 0.18495 0.30307
# Poissons Ratio (z) = 0.37085 0.28506
#
# Static dielectric constant tensor:
#      x y z
#    x 3.963020 0.077730 0.275510 
#    y 0.077730 4.031610 0.004940 
#    z 0.275510 0.004940 4.087570 
# 
# 
# High freq. dielectric constant tensor:
#      x y z
#    x 1.876630 0.003040 0.003600 
#    y 0.003040 1.874490 -0.000490 
#    z 0.003600 -0.000490 1.877150 
# 
# From -- ./inp_files/69287.got.cif
#   From: 2010.06.25/outbox.cif.g09.slc.cpg/sg2_35_cif.got.tgz:69287.got - 2010.06.27 13:26:56.
