data_PCOD8032186
_publ_section_title
;
Structure prediction by ZEFSAII (Michael W. Deem and Ramdas Pophale) SiO2 
 PCOD8032186
Probable space group: P -1
;
_chemical_formula_sum "Si O2"
_cell_formula_units_Z 12
_cell_length_a 9.473093
_cell_length_b 12.662019
_cell_length_c 9.286391
_cell_angle_alpha 122.145006
_cell_angle_beta 45.808854
_cell_angle_gamma 95.056207
_cell_volume 598.427726
_symmetry_space_group_name_H-M "P -1"
_symmetry_group_IT_number 2
_symmetry_cell_setting 'triclinic'
loop_
_space_group_symop_operation_xyz
x,y,z
-x,-y,-z
loop_
_atom_site_type_symbol
_atom_site_label
_atom_site_fract_x
_atom_site_fract_y
_atom_site_fract_z
Si Si1 0.255750 0.659746 0.644965
Si Si2 0.548526 0.339016 0.193212
Si Si3 0.241435 0.162369 0.930872
Si Si4 0.322734 0.156008 0.199076
Si Si5 0.099481 0.858997 0.419430
Si Si6 0.667115 0.129140 0.450752
O O1 0.389865 0.499710 0.380327
O O2 0.290751 0.673640 0.798856
O O3 0.344126 0.749546 0.556240
O O4 0.997377 0.707845 0.837618
O O5 0.398577 0.264895 0.291393
O O6 0.695502 0.265682 0.896240
O O7 0.415383 0.171346 0.703578
O O8 0.226052 0.017734 0.818279
O O9 0.316246 0.173193 0.045301
O O10 0.084802 0.192211 0.460633
O O11 0.500000 0.000000 0.000000
O O12 0.175704 0.891893 0.540708
O O13 0.000000 0.000000 0.500000
#
# Coordination Sequence:
#
# PCOD8032186 Si02
#       6
#     2   2   2   2   2   2
#     4  11  25  44  66  90 136 174 206 267 320 386
#     4  11  26  44  63  98 129 170 218 257 327 380
#     4  11  23  41  68  98 125 169 217 263 318 378
#     4  12  23  41  67  97 128 165 214 270 317 376
#     4  12  23  41  67  97 128 165 214 270 317 376
#     4  11  23  41  68  98 125 169 217 263 318 378
#
# _framework density 20.052547000000001
#
# number of rings (size 3 to 8) (size 9 to 14) (size 15 to 20)
#    0.000    0.667    5.000    2.500    0.000    6.667 
#    0.000    3.333    0.000    0.000    0.000    0.000 
#    0.000    0.000    0.000    0.000    0.000    0.000 
#
# Total GULP energy -148898.512145 kJ/mol
# GULP energy per Si atom -12408.209345 kJ/mol
# Density = 2.000691 g / cm^3
# Si number density = 20.052547 Si / 1000 Ang^3
#
#
#
# Elastic Constant Matrix: (Units=GPa)
#
#
# Indices 1 2 3 4 5 6 
#
# 1 84.0277 9.9581 28.5941 16.1483 -13.6384 -4.8175
# 2 9.9581 84.1475 30.0799 14.6881 -15.2349 1.0177
# 3 28.5941 30.0799 92.1008 13.1591 -12.7270 -0.1554
# 4 16.1483 14.6881 13.1591 36.7867 2.0535 -6.5153
# 5 -13.6384 -15.2349 -12.7270 2.0535 34.0701 -2.7856
# 6 -4.8175 1.0177 -0.1554 -6.5153 -2.7856 40.0301
#
#
#
# Elastic Compliance Matrix: (Units=1/GPa)
#
#
# Indices 1 2 3 4 5 6 
#
# 1 0.015116 0.001597 -0.003518 -0.006136 0.005917 0.001178
# 2 0.001597 0.015226 -0.003747 -0.005924 0.006345 -0.000732
# 3 -0.003518 -0.003747 0.013768 -0.002087 0.002147 -0.000465
# 4 -0.006136 -0.005924 -0.002087 0.034199 -0.007583 0.004443
# 5 0.005917 0.006345 0.002147 -0.007583 0.035966 0.001828
# 6 0.001178 -0.000732 -0.000465 0.004443 0.001828 0.025990
#
#
# Mechanical properties :
#
#
# Convention : Reuss Voigt Hill
#
# Bulk Modulus (GPa) = 30.51206 44.17114 37.34160
# Shear Modulus (GPa) = 30.76455 34.95366 32.85910
#
# Velocity S-wave (km/s) = 3.92113 4.17958 4.05242
# Velocity P-wave (km/s) = 5.97908 6.73553 6.36855
#
# Compressibility (1/GPa) = 0.03277393
#
# Stress axis : x y z
#
# Youngs Moduli (GPa) = 66.15525 65.67747 72.63430
#
# Poissons Ratio (x) = -0.10488 0.25554
# Poissons Ratio (y) = -0.10564 0.27213
# Poissons Ratio (z) = 0.23275 0.24606
#
# Static dielectric constant tensor:
#      x y z
#    x 3.905330 0.097240 -0.032030 
#    y 0.097240 3.387740 -0.077230 
#    z -0.032030 -0.077230 3.740540 
# 
# 
# High freq. dielectric constant tensor:
#      x y z
#    x 1.801230 0.002380 -0.005020 
#    y 0.002380 1.784910 -0.006920 
#    z -0.005020 -0.006920 1.787860 
# 
# From -- ./inp_files/148999.got.cif
#   From: 2010.06.25/outbox.cif.g09.slc.cpg/sg2_75_cif.got.tgz:148999.got - 2010.06.27 13:26:56.
