data_PCOD8032600
_publ_section_title
;
Structure prediction by ZEFSAII (Michael W. Deem and Ramdas Pophale) SiO2 
 PCOD8032600
Probable space group: P -1
;
_chemical_formula_sum "Si O2"
_cell_formula_units_Z 10
_cell_length_a 17.601724
_cell_length_b 4.883242
_cell_length_c 13.652206
_cell_angle_alpha 77.651113
_cell_angle_beta 157.348106
_cell_angle_gamma 108.627405
_cell_volume 417.602922
_symmetry_space_group_name_H-M "P -1"
_symmetry_group_IT_number 2
_symmetry_cell_setting 'triclinic'
loop_
_space_group_symop_operation_xyz
x,y,z
-x,-y,-z
loop_
_atom_site_type_symbol
_atom_site_label
_atom_site_fract_x
_atom_site_fract_y
_atom_site_fract_z
Si Si1 0.154139 0.768460 0.603908
Si Si2 0.916456 0.769613 0.131099
Si Si3 0.467085 0.194992 0.074040
Si Si4 0.060049 0.393794 0.181655
Si Si5 0.503752 0.377030 0.754710
O O1 0.345481 0.680054 0.790546
O O2 0.000000 0.500000 0.500000
O O3 0.026994 0.868000 0.359905
O O4 0.248609 0.044444 0.768841
O O5 0.053480 0.619459 0.242064
O O6 0.901551 0.065236 0.039434
O O7 0.686296 0.537019 0.884309
O O8 0.449328 0.468732 0.094873
O O9 0.510009 0.961061 0.218744
O O10 0.292749 0.382456 0.453439
O O11 0.000000 0.500000 0.000000
#
# Coordination Sequence:
#
# PCOD8032600 Si02
#       5
#     2   2   2   2   2
#     4  11  23  43  67 106 139 183 221 267 337 413
#     4  12  26  45  72 103 137 178 229 278 340 409
#     4  11  25  41  67 100 143 182 218 273 332 407
#     4  12  27  49  72  98 135 179 232 293 341 389
#     4  12  24  46  69 100 138 179 228 280 336 405
#
# _framework density 23.946190999999999
#
# number of rings (size 3 to 8) (size 9 to 14) (size 15 to 20)
#    0.000    0.400    6.000    1.800    0.000    7.200 
#    0.000    0.000    0.000    0.000    0.000    0.000 
#    0.000    0.000    0.000    0.000    0.000    0.000 
#
# Total GULP energy -124095.176530 kJ/mol
# GULP energy per Si atom -12409.517653 kJ/mol
# Density = 2.389169 g / cm^3
# Si number density = 23.946191 Si / 1000 Ang^3
#
#
#
# Elastic Constant Matrix: (Units=GPa)
#
#
# Indices 1 2 3 4 5 6 
#
# 1 82.3782 35.5432 48.0149 -2.6104 4.3079 36.9301
# 2 35.5432 99.2100 14.5693 1.1824 0.4435 30.3559
# 3 48.0149 14.5693 117.4295 -0.0469 0.0265 32.2673
# 4 -2.6104 1.1824 -0.0469 34.8558 13.9801 -0.6369
# 5 4.3079 0.4435 0.0265 13.9801 29.5825 5.3564
# 6 36.9301 30.3559 32.2673 -0.6369 5.3564 48.2037
#
#
#
# Elastic Compliance Matrix: (Units=1/GPa)
#
#
# Indices 1 2 3 4 5 6 
#
# 1 0.021931 -0.003914 -0.005669 0.002582 -0.002498 -0.010231
# 2 -0.003914 0.013348 0.001853 -0.001879 0.002515 -0.006952
# 3 -0.005669 0.001853 0.012022 -0.001550 0.002455 -0.005165
# 4 0.002582 -0.001879 -0.001550 0.036190 -0.017941 0.002714
# 5 -0.002498 0.002515 0.002455 -0.017941 0.043767 -0.006414
# 6 -0.010231 -0.006952 -0.005165 0.002714 -0.006414 0.037167
#
#
# Mechanical properties :
#
#
# Convention : Reuss Voigt Hill
#
# Bulk Modulus (GPa) = 31.40525 55.03027 43.21776
# Shear Modulus (GPa) = 26.24708 35.92108 31.08408
#
# Velocity S-wave (km/s) = 3.31431 3.87728 3.60680
# Velocity P-wave (km/s) = 5.27158 6.56316 5.95251
#
# Compressibility (1/GPa) = 0.03184181
#
# Stress axis : x y z
#
# Youngs Moduli (GPa) = 45.59808 74.91775 83.18354
#
# Poissons Ratio (x) = 0.29321 0.47154
# Poissons Ratio (y) = 0.17846 -0.15416
# Poissons Ratio (z) = 0.25848 -0.13884
#
# Static dielectric constant tensor:
#      x y z
#    x 4.410950 0.128980 0.230380 
#    y 0.128980 4.316890 0.123630 
#    z 0.230380 0.123630 4.317540 
# 
# 
# High freq. dielectric constant tensor:
#      x y z
#    x 1.946500 0.011780 0.013400 
#    y 0.011780 1.961960 0.004780 
#    z 0.013400 0.004780 1.951730 
# 
# From -- ./inp_files/372657.got.cif
#   From: 2010.06.25/outbox.cif.g09.slc.cpg/sg2_187_cif.got.tgz:372657.got - 2010.06.27 13:26:56.
