data_PCOD8032029
_publ_section_title
;
Structure prediction by ZEFSAII (Michael W. Deem and Ramdas Pophale) SiO2 
 PCOD8032029
Probable space group: P -1
;
_chemical_formula_sum "Si O2"
_cell_formula_units_Z 16
_cell_length_a 12.080358
_cell_length_b 11.422932
_cell_length_c 9.143305
_cell_angle_alpha 119.048272
_cell_angle_beta 53.760121
_cell_angle_gamma 83.750204
_cell_volume 736.151840
_symmetry_space_group_name_H-M "P -1"
_symmetry_group_IT_number 2
_symmetry_cell_setting 'triclinic'
loop_
_space_group_symop_operation_xyz
x,y,z
-x,-y,-z
loop_
_atom_site_type_symbol
_atom_site_label
_atom_site_fract_x
_atom_site_fract_y
_atom_site_fract_z
Si Si1 0.002709 0.288955 0.911665
Si Si2 0.676404 0.321948 0.613871
Si Si3 0.976494 0.481960 0.777605
Si Si4 0.677626 0.336886 0.285876
Si Si5 0.633853 0.103536 0.993653
Si Si6 0.146745 0.950214 0.469648
Si Si7 0.706176 0.770083 0.780858
Si Si8 0.642896 0.609901 0.972540
O O1 0.044932 0.359166 0.784483
O O2 0.808373 0.360385 0.116600
O O3 0.109171 0.096176 0.693079
O O4 0.054814 0.345288 0.049252
O O5 0.731440 0.289312 0.383110
O O6 0.821338 0.191004 0.530590
O O7 0.630241 0.499776 0.794750
O O8 0.515630 0.313782 0.751226
O O9 0.808843 0.502594 0.871371
O O10 0.119715 0.397276 0.491892
O O11 0.500000 0.500000 0.500000
O O12 0.685353 0.186777 0.118757
O O13 0.688075 0.114393 0.793351
O O14 0.729081 0.917179 0.856299
O O15 0.435420 0.190685 0.203386
O O16 0.000000 0.000000 0.500000
O O17 0.649212 0.749659 0.971939
#
# Coordination Sequence:
#
# PCOD8032029 Si02
#       8
#     2   2   2   2   2   2   2   2
#     4  11  24  41  65  97 135 174 225 274 331 399
#     4  11  26  42  70 100 133 175 227 278 331 403
#     4  11  23  40  66  99 132 178 220 276 336 397
#     4  12  25  44  68 101 137 176 223 280 334 392
#     4  11  24  43  69  97 133 182 222 271 339 396
#     4  12  23  46  71  96 135 179 223 279 335 394
#     4  11  23  42  67  96 133 176 226 271 330 404
#     4  11  23  43  66  97 134 172 225 275 336 398
#
# _framework density 21.734646000000001
#
# number of rings (size 3 to 8) (size 9 to 14) (size 15 to 20)
#    0.000    0.750    3.750    4.125    1.750    2.500 
#    0.000    1.250    0.000    0.000    0.000    0.000 
#    0.000    0.000    0.000    0.000    0.000    0.000 
#
# Total GULP energy -198466.773017 kJ/mol
# GULP energy per Si atom -12404.173314 kJ/mol
# Density = 2.168518 g / cm^3
# Si number density = 21.734646 Si / 1000 Ang^3
#
#
#
# Elastic Constant Matrix: (Units=GPa)
#
#
# Indices 1 2 3 4 5 6 
#
# 1 88.5619 13.7772 32.0074 2.0323 -4.8185 6.7155
# 2 13.7772 94.9616 16.1927 -1.6174 15.4190 -1.7932
# 3 32.0074 16.1927 91.0659 4.6443 3.7159 8.1511
# 4 2.0323 -1.6174 4.6443 28.3457 5.5658 -1.2897
# 5 -4.8185 15.4190 3.7159 5.5658 32.4342 3.9334
# 6 6.7155 -1.7932 8.1511 -1.2897 3.9334 38.5389
#
#
#
# Elastic Compliance Matrix: (Units=1/GPa)
#
#
# Indices 1 2 3 4 5 6 
#
# 1 0.013545 -0.001910 -0.004341 -0.001217 0.003865 -0.001966
# 2 -0.001910 0.012217 -0.001536 0.002468 -0.006580 0.001980
# 3 -0.004341 -0.001536 0.013093 -0.001849 -0.000848 -0.002060
# 4 -0.001217 0.002468 -0.001849 0.037490 -0.007913 0.002780
# 5 0.003865 -0.006580 -0.000848 -0.007913 0.036571 -0.004798
# 6 -0.001966 0.001980 -0.002060 0.002780 -0.004798 0.027401
#
#
# Mechanical properties :
#
#
# Convention : Reuss Voigt Hill
#
# Bulk Modulus (GPa) = 42.95169 44.28265 43.61717
# Shear Modulus (GPa) = 30.55299 34.03790 32.29545
#
# Velocity S-wave (km/s) = 3.75337 3.96165 3.85892
# Velocity P-wave (km/s) = 6.21196 6.42998 6.32191
#
# Compressibility (1/GPa) = 0.02328197
#
# Stress axis : x y z
#
# Youngs Moduli (GPa) = 73.82905 81.85096 76.37692
#
# Poissons Ratio (x) = 0.15637 0.33152
# Poissons Ratio (y) = 0.14104 0.11728
# Poissons Ratio (z) = 0.32046 0.12569
#
# Static dielectric constant tensor:
#      x y z
#    x 3.850970 0.214470 -0.029440 
#    y 0.214470 3.910970 -0.041640 
#    z -0.029440 -0.041640 4.017720 
# 
# 
# High freq. dielectric constant tensor:
#      x y z
#    x 1.848210 0.012270 -0.007380 
#    y 0.012270 1.858500 -0.005450 
#    z -0.007380 -0.005450 1.855260 
# 
# From -- ./inp_files/262918.got.cif
#   From: 2010.06.25/outbox.cif.g09.slc.cpg/sg2_132_cif.got.tgz:262918.got - 2010.06.27 13:26:56.
