data_PCOD8032757
_publ_section_title
;
Structure prediction by ZEFSAII (Michael W. Deem and Ramdas Pophale) SiO2 
 PCOD8032757
Probable space group: P -1
;
_chemical_formula_sum "Si O2"
_cell_formula_units_Z 16
_cell_length_a 14.695747
_cell_length_b 8.892030
_cell_length_c 12.415766
_cell_angle_alpha 77.967328
_cell_angle_beta 116.799033
_cell_angle_gamma 147.231375
_cell_volume 733.295424
_symmetry_space_group_name_H-M "P -1"
_symmetry_group_IT_number 2
_symmetry_cell_setting 'triclinic'
loop_
_space_group_symop_operation_xyz
x,y,z
-x,-y,-z
loop_
_atom_site_type_symbol
_atom_site_label
_atom_site_fract_x
_atom_site_fract_y
_atom_site_fract_z
Si Si1 0.351452 0.239244 0.376713
Si Si2 0.578544 0.859454 0.773326
Si Si3 0.063578 0.629512 0.397527
Si Si4 0.325632 0.721413 0.813952
Si Si5 0.122856 0.247029 0.206284
Si Si6 0.360704 0.630433 0.082465
Si Si7 0.707028 0.280922 0.632794
Si Si8 0.314195 0.264545 0.011428
O O1 0.500000 0.500000 0.500000
O O2 0.469774 0.312769 0.329044
O O3 0.194773 0.162894 0.260434
O O4 0.255241 0.982295 0.436989
O O5 0.385061 0.672103 0.761974
O O6 0.713054 0.937487 0.917582
O O7 0.702729 0.164831 0.752290
O O8 0.110604 0.533471 0.373065
O O9 0.000000 0.500000 0.500000
O O10 0.897074 0.518361 0.274622
O O11 0.453834 0.041769 0.816231
O O12 0.333587 0.663910 0.945403
O O13 0.178696 0.409354 0.101336
O O14 0.232601 0.471583 0.331824
O O15 0.884415 0.944156 0.128069
O O16 0.382702 0.475495 0.106787
O O17 0.500000 0.000000 0.500000
O O18 0.500000 0.500000 0.000000
#
# Coordination Sequence:
#
# PCOD8032757 Si02
#       8
#     2   2   2   2   2   2   2   2
#     4  11  26  46  71 101 135 187 240 290 353 421
#     4  11  23  43  71  94 138 177 228 287 342 420
#     4  11  26  44  71  96 136 178 233 291 350 408
#     4  11  24  43  68 103 135 183 229 283 345 422
#     4  12  25  44  73 100 140 186 228 286 360 417
#     4  11  24  42  69  97 146 178 225 281 350 416
#     4  11  25  47  70  98 132 181 238 287 347 421
#     4  12  26  42  67 103 141 178 231 289 349 419
#
# _framework density 21.819309000000001
#
# number of rings (size 3 to 8) (size 9 to 14) (size 15 to 20)
#    0.000    0.750    3.750    3.375    7.000    0.500 
#    0.000    1.250    0.000    0.000    0.000    0.000 
#    0.000    0.000    0.000    0.000    0.000    0.000 
#
# Total GULP energy -198245.439104 kJ/mol
# GULP energy per Si atom -12390.339944 kJ/mol
# Density = 2.176965 g / cm^3
# Si number density = 21.819309 Si / 1000 Ang^3
#
#
#
# Elastic Constant Matrix: (Units=GPa)
#
#
# Indices 1 2 3 4 5 6 
#
# 1 150.3402 37.5315 48.3876 10.6653 -15.0981 10.1780
# 2 37.5315 93.9565 38.8718 -6.7561 -9.8731 3.5272
# 3 48.3876 38.8718 77.2921 -3.5849 -10.0472 9.0452
# 4 10.6653 -6.7561 -3.5849 42.5898 -2.6040 -0.9185
# 5 -15.0981 -9.8731 -10.0472 -2.6040 38.2224 -1.9531
# 6 10.1780 3.5272 9.0452 -0.9185 -1.9531 43.6225
#
#
#
# Elastic Compliance Matrix: (Units=1/GPa)
#
#
# Indices 1 2 3 4 5 6 
#
# 1 0.008978 -0.001686 -0.004571 -0.002820 0.001667 -0.000996
# 2 -0.001686 0.014003 -0.005737 0.002272 0.001627 0.000571
# 3 -0.004571 -0.005737 0.019281 0.001916 0.001792 -0.002347
# 4 -0.002820 0.002272 0.001916 0.024826 0.001703 0.000676
# 5 0.001667 0.001627 0.001792 0.001703 0.027848 0.000391
# 6 -0.000996 0.000571 -0.002347 0.000676 0.000391 0.023628
#
#
# Mechanical properties :
#
#
# Convention : Reuss Voigt Hill
#
# Bulk Modulus (GPa) = 54.71779 63.46342 59.09060
# Shear Modulus (GPa) = 33.63737 38.00679 35.82208
#
# Velocity S-wave (km/s) = 3.93062 4.17812 4.05626
# Velocity P-wave (km/s) = 6.76253 7.24049 7.00559
#
# Compressibility (1/GPa) = 0.01827559
#
# Stress axis : x y z
#
# Youngs Moduli (GPa) = 111.37948 71.41282 51.86452
#
# Poissons Ratio (x) = 0.12039 0.23705
# Poissons Ratio (y) = 0.18776 0.29755
# Poissons Ratio (z) = 0.50907 0.40970
#
# Static dielectric constant tensor:
#      x y z
#    x 6.527140 -0.171110 -0.410840 
#    y -0.171110 4.009330 -0.312390 
#    z -0.410840 -0.312390 3.865240 
# 
# 
# High freq. dielectric constant tensor:
#      x y z
#    x 1.878540 -0.005230 -0.007240 
#    y -0.005230 1.856610 -0.020850 
#    z -0.007240 -0.020850 1.847150 
# 
# From -- ./inp_files/188778.got.cif
#   From: 2010.06.25/outbox.cif.g09.slc.cpg/sg2_95_cif.got.tgz:188778.got - 2010.06.27 13:26:56.
