data_PCOD8032370
_publ_section_title
;
Structure prediction by ZEFSAII (Michael W. Deem and Ramdas Pophale) SiO2 
 PCOD8032370
Probable space group: P -1
;
_chemical_formula_sum "Si O2"
_cell_formula_units_Z 14
_cell_length_a 4.959456
_cell_length_b 7.234265
_cell_length_c 22.106991
_cell_angle_alpha 126.330629
_cell_angle_beta 89.318671
_cell_angle_gamma 113.875784
_cell_volume 555.630409
_symmetry_space_group_name_H-M "P -1"
_symmetry_group_IT_number 2
_symmetry_cell_setting 'triclinic'
loop_
_space_group_symop_operation_xyz
x,y,z
-x,-y,-z
loop_
_atom_site_type_symbol
_atom_site_label
_atom_site_fract_x
_atom_site_fract_y
_atom_site_fract_z
Si Si1 0.525588 0.447835 0.155832
Si Si2 0.820697 0.612745 0.349092
Si Si3 0.327617 0.619739 0.989529
Si Si4 0.159335 0.841451 0.864850
Si Si5 0.759766 0.963147 0.323926
Si Si6 0.285719 0.563596 0.553324
Si Si7 0.131630 0.282584 0.277615
O O1 0.701161 0.469404 0.096786
O O2 0.733627 0.378151 0.186952
O O3 0.549281 0.715965 0.233311
O O4 0.155205 0.248103 0.112570
O O5 0.882500 0.884116 0.368794
O O6 0.798538 0.625778 0.424439
O O7 0.090980 0.542154 0.321484
O O8 0.487072 0.378575 0.280428
O O9 0.500000 0.500000 0.000000
O O10 0.000000 0.500000 0.000000
O O11 0.542587 0.934000 0.057095
O O12 0.087083 0.919712 0.813711
O O13 0.576478 0.124202 0.369328
O O14 0.058621 0.161404 0.321227
O O15 0.500000 0.500000 0.500000
O O16 0.000000 0.500000 0.500000
#
# Coordination Sequence:
#
# PCOD8032370 Si02
#       7
#     2   2   2   2   2   2   2
#     4  12  25  44  71 106 140 200 254 307 378 442
#     4  11  24  45  70 106 143 185 246 298 367 438
#     4  12  26  45  68 104 150 199 251 306 378 440
#     4  12  23  44  69 103 148 191 255 316 363 439
#     4  11  25  45  76 103 145 195 245 303 376 441
#     4  11  26  47  72 109 148 190 240 303 370 451
#     4  11  23  42  68 106 143 185 248 306 356 438
#
# _framework density 25.196601999999999
#
# number of rings (size 3 to 8) (size 9 to 14) (size 15 to 20)
#    0.000    0.571    2.857    5.143    0.000    9.143 
#    0.000    0.000    0.000    0.000    0.000    0.000 
#    0.000    0.000    0.000    0.000    0.000    0.000 
#
# Total GULP energy -173480.040237 kJ/mol
# GULP energy per Si atom -12391.431445 kJ/mol
# Density = 2.513925 g / cm^3
# Si number density = 25.196602 Si / 1000 Ang^3
#
#
#
# Elastic Constant Matrix: (Units=GPa)
#
#
# Indices 1 2 3 4 5 6 
#
# 1 155.3575 65.9723 48.1044 -9.6618 -2.9696 12.3333
# 2 65.9723 154.6080 48.7473 -27.5049 -12.8509 -14.7028
# 3 48.1044 48.7473 128.1816 -25.6005 -16.5464 -0.2337
# 4 -9.6618 -27.5049 -25.6005 42.6786 -0.1524 1.7633
# 5 -2.9696 -12.8509 -16.5464 -0.1524 40.8726 -5.4286
# 6 12.3333 -14.7028 -0.2337 1.7633 -5.4286 52.0828
#
#
#
# Elastic Compliance Matrix: (Units=1/GPa)
#
#
# Indices 1 2 3 4 5 6 
#
# 1 0.008970 -0.003844 -0.002541 -0.001839 -0.002040 -0.003371
# 2 -0.003844 0.009873 -0.000972 0.004761 0.002959 0.003840
# 3 -0.002541 -0.000972 0.010669 0.005187 0.003929 0.000609
# 4 -0.001839 0.004761 0.005187 0.029158 0.003732 0.001205
# 5 -0.002040 0.002959 0.003929 0.003732 0.027393 0.004065
# 6 -0.003371 0.003840 0.000609 0.001205 0.004065 0.021468
#
#
# Mechanical properties :
#
#
# Convention : Reuss Voigt Hill
#
# Bulk Modulus (GPa) = 67.57890 84.86613 76.22251
# Shear Modulus (GPa) = 39.31504 45.48167 42.39835
#
# Velocity S-wave (km/s) = 3.95439 4.25322 4.10652
# Velocity P-wave (km/s) = 6.90858 7.60753 7.26646
#
# Compressibility (1/GPa) = 0.01479752
#
# Stress axis : x y z
#
# Youngs Moduli (GPa) = 111.48147 101.28866 93.72848
#
# Poissons Ratio (x) = 0.38931 0.23820
# Poissons Ratio (y) = 0.42849 0.09113
# Poissons Ratio (z) = 0.28332 0.09848
#
# Static dielectric constant tensor:
#      x y z
#    x 4.561940 -0.263310 -0.209630 
#    y -0.263310 4.724340 -0.217330 
#    z -0.209630 -0.217330 4.324390 
# 
# 
# High freq. dielectric constant tensor:
#      x y z
#    x 2.020230 -0.006570 -0.005320 
#    y -0.006570 2.005270 -0.027470 
#    z -0.005320 -0.027470 2.001890 
# 
# From -- ./inp_files/603864.got.cif
#   From: 2010.06.25/outbox.cif.g09.slc.cpg/sg2_302_cif.got.tgz:603864.got - 2010.06.27 13:26:56.
