data_PCOD8032810
_publ_section_title
;
Structure prediction by ZEFSAII (Michael W. Deem and Ramdas Pophale) SiO2 
 PCOD8032810
Probable space group: P -1
;
_chemical_formula_sum "Si O2"
_cell_formula_units_Z 16
_cell_length_a 9.770106
_cell_length_b 20.982556
_cell_length_c 17.039080
_cell_angle_alpha 159.711480
_cell_angle_beta 38.879028
_cell_angle_gamma 142.321328
_cell_volume 729.494369
_symmetry_space_group_name_H-M "P -1"
_symmetry_group_IT_number 2
_symmetry_cell_setting 'triclinic'
loop_
_space_group_symop_operation_xyz
x,y,z
-x,-y,-z
loop_
_atom_site_type_symbol
_atom_site_label
_atom_site_fract_x
_atom_site_fract_y
_atom_site_fract_z
Si Si1 0.938584 0.946194 0.285870
Si Si2 0.306624 0.203738 0.205655
Si Si3 0.916622 0.425006 0.035673
Si Si4 0.825306 0.130610 0.395833
Si Si5 0.457960 0.423815 0.550581
Si Si6 0.642928 0.011115 0.635027
Si Si7 0.234137 0.466628 0.081117
Si Si8 0.557935 0.890831 0.698462
O O1 0.843245 0.062334 0.397708
O O2 0.821215 0.965503 0.443246
O O3 0.878141 0.719993 0.030684
O O4 0.207848 0.024564 0.261418
O O5 0.421736 0.294972 0.340242
O O6 0.366281 0.368723 0.303098
O O7 0.036095 0.114855 0.231034
O O8 0.399432 0.029117 0.937727
O O9 0.787670 0.561045 0.293585
O O10 0.135977 0.425078 0.988956
O O11 0.743585 0.215949 0.866774
O O12 0.000000 0.500000 0.000000
O O13 0.822639 0.350144 0.645878
O O14 0.592945 0.993572 0.306956
O O15 0.560419 0.315669 0.447786
O O16 0.599601 0.860038 0.552070
O O17 0.500000 0.500000 0.000000
#
# Coordination Sequence:
#
# PCOD8032810 Si02
#       8
#     2   2   2   2   2   2   2   2
#     4  12  25  44  73 101 142 183 233 281 351 416
#     4  11  24  45  71  97 140 182 243 279 333 420
#     4  12  25  44  72 105 141 181 223 289 357 406
#     4  12  27  47  69 104 141 190 225 285 344 416
#     4  11  23  43  73  99 135 183 237 282 341 411
#     4  12  26  45  68 105 150 173 229 292 355 407
#     4  12  25  43  68 102 139 181 230 277 339 415
#     4  12  24  44  72 107 129 187 232 290 346 408
#
# _framework density 21.933001999999998
#
# number of rings (size 3 to 8) (size 9 to 14) (size 15 to 20)
#    0.000    0.250    6.250    2.625    5.250    0.500 
#    0.000    0.625    0.000    0.000    0.000    0.000 
#    0.000    0.000    0.000    0.000    0.000    0.000 
#
# Total GULP energy -198473.208926 kJ/mol
# GULP energy per Si atom -12404.575558 kJ/mol
# Density = 2.188308 g / cm^3
# Si number density = 21.933002 Si / 1000 Ang^3
#
#
#
# Elastic Constant Matrix: (Units=GPa)
#
#
# Indices 1 2 3 4 5 6 
#
# 1 90.4448 41.1341 40.9995 4.0139 -6.8948 6.0915
# 2 41.1341 110.2108 49.7468 -3.6967 -13.5761 -16.3964
# 3 40.9995 49.7468 116.8919 6.9413 -20.5116 -9.4382
# 4 4.0139 -3.6967 6.9413 29.7813 -5.7053 -6.8955
# 5 -6.8948 -13.5761 -20.5116 -5.7053 28.4829 5.9862
# 6 6.0915 -16.3964 -9.4382 -6.8955 5.9862 49.2924
#
#
#
# Elastic Compliance Matrix: (Units=1/GPa)
#
#
# Indices 1 2 3 4 5 6 
#
# 1 0.015333 -0.004994 -0.003600 -0.003080 -0.000918 -0.004565
# 2 -0.004994 0.013748 -0.003510 0.004853 0.002767 0.004861
# 3 -0.003600 -0.003510 0.012516 -0.001549 0.006006 0.000728
# 4 -0.003080 0.004853 -0.001549 0.037666 0.006704 0.006153
# 5 -0.000918 0.002767 0.006006 0.006704 0.042297 -0.002015
# 6 -0.004565 0.004861 0.000728 0.006153 -0.002015 0.023713
#
#
# Mechanical properties :
#
#
# Convention : Reuss Voigt Hill
#
# Bulk Modulus (GPa) = 57.49938 64.58980 61.04459
# Shear Modulus (GPa) = 28.52643 33.88913 31.20778
#
# Velocity S-wave (km/s) = 3.61032 3.93507 3.77619
# Velocity P-wave (km/s) = 6.60697 7.08230 6.84876
#
# Compressibility (1/GPa) = 0.01739149
#
# Stress axis : x y z
#
# Youngs Moduli (GPa) = 65.21682 72.73610 79.89948
#
# Poissons Ratio (x) = 0.36321 0.28762
# Poissons Ratio (y) = 0.32567 0.28042
# Poissons Ratio (z) = 0.23477 0.25528
#
# Static dielectric constant tensor:
#      x y z
#    x 3.854120 0.089370 -0.031130 
#    y 0.089370 4.081380 0.008740 
#    z -0.031130 0.008740 4.023100 
# 
# 
# High freq. dielectric constant tensor:
#      x y z
#    x 1.852590 -0.007980 -0.013460 
#    y -0.007980 1.871910 0.005060 
#    z -0.013460 0.005060 1.869730 
# 
# From -- ./inp_files/338179.got.cif
#   From: 2010.06.25/outbox.cif.g09.slc.cpg/sg2_170_cif.got.tgz:338179.got - 2010.06.27 13:26:56.
