data_PCOD8032895
_publ_section_title
;
Structure prediction by ZEFSAII (Michael W. Deem and Ramdas Pophale) SiO2 
 PCOD8032895
Probable space group: P -1
;
_chemical_formula_sum "Si O2"
_cell_formula_units_Z 14
_cell_length_a 9.263669
_cell_length_b 8.369147
_cell_length_c 17.081719
_cell_angle_alpha 110.559771
_cell_angle_beta 31.532049
_cell_angle_gamma 100.988370
_cell_volume 632.291254
_symmetry_space_group_name_H-M "P -1"
_symmetry_group_IT_number 2
_symmetry_cell_setting 'triclinic'
loop_
_space_group_symop_operation_xyz
x,y,z
-x,-y,-z
loop_
_atom_site_type_symbol
_atom_site_label
_atom_site_fract_x
_atom_site_fract_y
_atom_site_fract_z
Si Si1 0.841046 0.549756 0.663003
Si Si2 0.705361 0.957820 0.825041
Si Si3 0.257003 0.155825 0.960334
Si Si4 0.305359 0.372094 0.540144
Si Si5 0.273969 0.951349 0.759301
Si Si6 0.898073 0.827816 0.261936
Si Si7 0.775250 0.487756 0.033839
O O1 0.784222 0.755588 0.734474
O O2 0.545790 0.486691 0.782050
O O3 0.000000 0.500000 0.500000
O O4 0.025436 0.464855 0.638155
O O5 0.563051 0.066928 0.835310
O O6 0.988345 0.026275 0.718141
O O7 0.500000 0.000000 0.000000
O O8 0.215205 0.364555 0.010005
O O9 0.242561 0.081141 0.868172
O O10 0.019919 0.113997 0.121588
O O11 0.500000 0.500000 0.500000
O O12 0.473778 0.219685 0.378732
O O13 0.241151 0.288354 0.636746
O O14 0.324609 0.062088 0.678338
O O15 0.146841 0.700550 0.076094
O O16 0.000000 0.500000 0.000000
#
# Coordination Sequence:
#
# PCOD8032895 Si02
#       7
#     2   2   2   2   2   2   2
#     4  12  29  49  73 109 150 191 244 301 368 435
#     4  12  24  46  72 104 141 187 242 305 352 426
#     4  11  24  41  75  98 141 188 247 287 358 434
#     4  12  28  44  71 107 151 187 236 305 372 426
#     4  11  23  44  67 104 139 192 234 292 358 439
#     4  12  25  45  74 103 143 190 248 294 365 432
#     4  12  26  46  75 108 142 195 244 300 361 438
#
# _framework density 22.141694999999999
#
# number of rings (size 3 to 8) (size 9 to 14) (size 15 to 20)
#    0.000    0.286    4.286    3.857    8.000    2.286 
#    0.000    2.857    0.000    0.000    0.000    0.000 
#    0.000    0.000    0.000    0.000    0.000    0.000 
#
# Total GULP energy -173637.106042 kJ/mol
# GULP energy per Si atom -12402.650432 kJ/mol
# Density = 2.209130 g / cm^3
# Si number density = 22.141695 Si / 1000 Ang^3
#
#
#
# Elastic Constant Matrix: (Units=GPa)
#
#
# Indices 1 2 3 4 5 6 
#
# 1 120.1648 60.7795 38.2635 -8.5840 -19.8791 -16.0200
# 2 60.7795 136.2506 33.0186 3.5578 -2.5814 -9.3705
# 3 38.2635 33.0186 84.1939 3.2923 -4.2654 5.3237
# 4 -8.5840 3.5578 3.2923 50.8381 -5.9814 -4.3199
# 5 -19.8791 -2.5814 -4.2654 -5.9814 36.5035 1.2554
# 6 -16.0200 -9.3705 5.3237 -4.3199 1.2554 41.9051
#
#
#
# Elastic Compliance Matrix: (Units=1/GPa)
#
#
# Indices 1 2 3 4 5 6 
#
# 1 0.014679 -0.004979 -0.004846 0.004493 0.007628 0.005349
# 2 -0.004979 0.010014 -0.001754 -0.001683 -0.002500 0.000460
# 3 -0.004846 -0.001754 0.015067 -0.002183 -0.001211 -0.004348
# 4 0.004493 -0.001683 -0.002183 0.021647 0.005493 0.003686
# 5 0.007628 -0.002500 -0.001211 0.005493 0.032058 0.002117
# 6 0.005349 0.000460 -0.004348 0.003686 0.002117 0.026880
#
#
# Mechanical properties :
#
#
# Convention : Reuss Voigt Hill
#
# Bulk Modulus (GPa) = 60.23685 67.19252 63.71468
# Shear Modulus (GPa) = 33.54871 39.75254 36.65062
#
# Velocity S-wave (km/s) = 3.89676 4.24178 4.07292
# Velocity P-wave (km/s) = 6.89279 7.37582 7.13839
#
# Compressibility (1/GPa) = 0.01660113
#
# Stress axis : x y z
#
# Youngs Moduli (GPa) = 68.12355 99.86285 66.37133
#
# Poissons Ratio (x) = 0.49719 0.32165
# Poissons Ratio (y) = 0.33917 0.11644
# Poissons Ratio (z) = 0.33014 0.17520
#
# Static dielectric constant tensor:
#      x y z
#    x 4.398300 -0.197120 0.187850 
#    y -0.197120 4.313440 -0.101420 
#    z 0.187850 -0.101420 4.356700 
# 
# 
# High freq. dielectric constant tensor:
#      x y z
#    x 1.879370 -0.007040 -0.002290 
#    y -0.007040 1.891730 0.009240 
#    z -0.002290 0.009240 1.871470 
# 
# From -- ./inp_files/182448.got.cif
#   From: 2010.06.25/outbox.cif.g09.slc.cpg/sg2_92_cif.got.tgz:182448.got - 2010.06.27 13:26:56.
