data_PCOD8032667
_publ_section_title
;
Structure prediction by ZEFSAII (Michael W. Deem and Ramdas Pophale) SiO2 
 PCOD8032667
Probable space group: P -1
;
_chemical_formula_sum "Si O2"
_cell_formula_units_Z 16
_cell_length_a 9.713637
_cell_length_b 13.881170
_cell_length_c 5.429518
_cell_angle_alpha 121.561130
_cell_angle_beta 81.667319
_cell_angle_gamma 92.619623
_cell_volume 616.827590
_symmetry_space_group_name_H-M "P -1"
_symmetry_group_IT_number 2
_symmetry_cell_setting 'triclinic'
loop_
_space_group_symop_operation_xyz
x,y,z
-x,-y,-z
loop_
_atom_site_type_symbol
_atom_site_label
_atom_site_fract_x
_atom_site_fract_y
_atom_site_fract_z
Si Si1 0.074029 0.339497 0.152030
Si Si2 0.776919 0.113492 0.315520
Si Si3 0.398265 0.082892 0.781328
Si Si4 0.460197 0.770884 0.720109
Si Si5 0.126278 0.490709 0.766138
Si Si6 0.580294 0.421548 0.186170
Si Si7 0.062422 0.880199 0.234518
Si Si8 0.648809 0.684619 0.184765
O O1 0.134471 0.372107 0.450192
O O2 0.924630 0.406491 0.265398
O O3 0.193796 0.372156 0.957917
O O4 0.054066 0.206882 0.933231
O O5 0.642107 0.198926 0.441747
O O6 0.858064 0.164963 0.597748
O O7 0.740355 0.983911 0.208934
O O8 0.847923 0.107209 0.019715
O O9 0.353272 0.200817 0.821458
O O10 0.500000 0.000000 0.500000
O O11 0.492002 0.110150 0.028717
O O12 0.381215 0.696737 0.842863
O O13 0.605944 0.710212 0.510654
O O14 0.279772 0.519284 0.868119
O O15 0.000000 0.500000 0.000000
O O16 0.500000 0.500000 0.500000
O O17 0.471145 0.401192 0.970472
O O18 0.000000 0.000000 0.500000
#
# Coordination Sequence:
#
# PCOD8032667 Si02
#       8
#     2   2   2   2   2   2   2   2
#     4  11  27  48  71 110 153 199 264 320 401 467
#     4  12  26  47  76 110 158 208 266 320 392 475
#     4  11  23  43  69 110 155 196 255 318 390 466
#     4  11  26  41  77 109 147 200 255 327 390 466
#     4  11  27  49  77 105 151 204 256 327 396 473
#     4  11  25  49  73 111 149 191 261 319 392 463
#     4  12  29  49  76 113 158 214 261 327 396 483
#     4  11  25  44  76 110 148 196 256 325 390 469
#
# _framework density 25.939177000000001
#
# number of rings (size 3 to 8) (size 9 to 14) (size 15 to 20)
#    0.000    0.750    2.500    3.000   10.500    2.500 
#    0.000    0.000    0.000    0.000    0.000    0.000 
#    0.000    0.000    0.000    0.000    0.000    0.000 
#
# Total GULP energy -198264.174680 kJ/mol
# GULP energy per Si atom -12391.510918 kJ/mol
# Density = 2.588014 g / cm^3
# Si number density = 25.939177 Si / 1000 Ang^3
#
#
#
# Elastic Constant Matrix: (Units=GPa)
#
#
# Indices 1 2 3 4 5 6 
#
# 1 162.3869 35.4919 64.5268 11.5092 1.8939 21.5222
# 2 35.4919 74.7924 31.0314 14.4276 4.7085 37.0702
# 3 64.5268 31.0314 185.4077 7.0868 -1.0038 27.7367
# 4 11.5092 14.4276 7.0868 47.4555 11.0704 -0.9204
# 5 1.8939 4.7085 -1.0038 11.0704 44.7805 -0.0071
# 6 21.5222 37.0702 27.7367 -0.9204 -0.0071 53.5437
#
#
#
# Elastic Compliance Matrix: (Units=1/GPa)
#
#
# Indices 1 2 3 4 5 6 
#
# 1 0.007651 -0.002440 -0.002183 -0.000813 0.000085 -0.000269
# 2 -0.002440 0.023621 -0.000584 -0.006620 -0.000759 -0.015185
# 3 -0.002183 -0.000584 0.006589 -0.000413 0.000403 -0.002139
# 4 -0.000813 -0.006620 -0.000413 0.024708 -0.005386 0.005548
# 5 0.000085 -0.000759 0.000403 -0.005386 0.023748 0.000193
# 6 -0.000269 -0.015185 -0.002139 0.005548 0.000193 0.030501
#
#
# Mechanical properties :
#
#
# Convention : Reuss Voigt Hill
#
# Bulk Modulus (GPa) = 36.43233 76.07634 56.25434
# Shear Modulus (GPa) = 36.66226 48.59174 42.62700
#
# Velocity S-wave (km/s) = 3.76359 4.33285 4.05822
# Velocity P-wave (km/s) = 5.74125 7.37726 6.61006
#
# Compressibility (1/GPa) = 0.02744815
#
# Stress axis : x y z
#
# Youngs Moduli (GPa) = 130.70090 42.33440 151.77513
#
# Poissons Ratio (x) = 0.10331 0.33125
# Poissons Ratio (y) = 0.31895 0.08859
# Poissons Ratio (z) = 0.28526 0.02471
#
# Static dielectric constant tensor:
#      x y z
#    x 5.338800 -0.166220 -0.048330 
#    y -0.166220 5.364450 0.104400 
#    z -0.048330 0.104400 4.677070 
# 
# 
# High freq. dielectric constant tensor:
#      x y z
#    x 2.045580 -0.002390 -0.003000 
#    y -0.002390 2.050810 0.004980 
#    z -0.003000 0.004980 2.049270 
# 
# From -- ./inp_files/49280.got.cif
#   From: 2010.06.25/outbox.cif.g09.slc.cpg/sg2_25_cif.got.tgz:49280.got - 2010.06.27 13:26:56.
