data_PCOD8032992
_publ_section_title
;
Structure prediction by ZEFSAII (Michael W. Deem and Ramdas Pophale) SiO2 
 PCOD8032992
Probable space group: P -1
;
_chemical_formula_sum "Si O2"
_cell_formula_units_Z 16
_cell_length_a 11.647244
_cell_length_b 9.150924
_cell_length_c 16.751253
_cell_angle_alpha 92.348970
_cell_angle_beta 55.291901
_cell_angle_gamma 137.510056
_cell_volume 724.734469
_symmetry_space_group_name_H-M "P -1"
_symmetry_group_IT_number 2
_symmetry_cell_setting 'triclinic'
loop_
_space_group_symop_operation_xyz
x,y,z
-x,-y,-z
loop_
_atom_site_type_symbol
_atom_site_label
_atom_site_fract_x
_atom_site_fract_y
_atom_site_fract_z
Si Si1 0.410560 0.794142 0.803144
Si Si2 0.136041 0.975575 0.280492
Si Si3 0.251387 0.161258 0.069666
Si Si4 0.383923 0.692941 0.497827
Si Si5 0.858379 0.762785 0.613837
Si Si6 0.701637 0.080032 0.529774
Si Si7 0.727825 0.881969 0.226466
Si Si8 0.809993 0.123445 0.042919
O O1 0.607009 0.855119 0.767897
O O2 0.388065 0.913748 0.873290
O O3 0.532518 0.957850 0.674385
O O4 0.111754 0.445583 0.896112
O O5 0.185865 0.997924 0.167607
O O6 0.126829 0.141527 0.304678
O O7 0.845785 0.643265 0.420120
O O8 0.500000 0.500000 0.000000
O O9 0.967817 0.986363 0.155629
O O10 0.335740 0.129502 0.962864
O O11 0.225553 0.699148 0.535925
O O12 0.637579 0.890379 0.340644
O O13 0.509112 0.811798 0.539717
O O14 0.536033 0.446200 0.711117
O O15 0.011246 0.745143 0.559436
O O16 0.000000 0.000000 0.500000
O O17 0.853806 0.103114 0.114505
#
# Coordination Sequence:
#
# PCOD8032992 Si02
#       8
#     2   2   2   2   2   2   2   2
#     4  11  23  44  70  96 136 181 233 278 331 414
#     4  12  25  43  69 103 135 179 226 283 343 404
#     4  12  27  47  68 100 140 181 231 288 335 400
#     4  11  25  41  70 104 136 178 215 288 349 405
#     4  12  24  40  73 102 134 178 223 275 347 410
#     4  11  24  45  66 102 142 173 225 278 349 404
#     4  12  24  45  70  99 137 176 229 278 342 407
#     4  11  25  43  70  96 130 189 231 277 337 399
#
# _framework density 22.077051999999998
#
# number of rings (size 3 to 8) (size 9 to 14) (size 15 to 20)
#    0.000    0.500    3.750    4.125    3.500    2.500 
#    2.250    0.000    0.000    0.000    0.000    0.000 
#    0.000    0.000    0.000    0.000    0.000    0.000 
#
# Total GULP energy -198489.586587 kJ/mol
# GULP energy per Si atom -12405.599162 kJ/mol
# Density = 2.202680 g / cm^3
# Si number density = 22.077052 Si / 1000 Ang^3
#
#
#
# Elastic Constant Matrix: (Units=GPa)
#
#
# Indices 1 2 3 4 5 6 
#
# 1 80.6820 26.7162 35.9209 -4.3581 0.7074 5.1669
# 2 26.7162 131.6506 50.7600 6.5517 -18.2618 -4.4661
# 3 35.9209 50.7600 100.5665 6.0833 -6.4558 7.2040
# 4 -4.3581 6.5517 6.0833 42.0180 4.2097 1.1748
# 5 0.7074 -18.2618 -6.4558 4.2097 33.2584 3.7930
# 6 5.1669 -4.4661 7.2040 1.1748 3.7930 28.1438
#
#
#
# Elastic Compliance Matrix: (Units=1/GPa)
#
#
# Indices 1 2 3 4 5 6 
#
# 1 0.015416 -0.001814 -0.004799 0.002867 -0.002427 -0.001682
# 2 -0.001814 0.010522 -0.004426 -0.001749 0.004888 0.002550
# 3 -0.004799 -0.004426 0.014332 -0.001893 0.001099 -0.003559
# 4 0.002867 -0.001749 -0.001893 0.025114 -0.004480 -0.000764
# 5 -0.002427 0.004888 0.001099 -0.004480 0.033977 -0.003452
# 6 -0.001682 0.002550 -0.003559 -0.000764 -0.003452 0.037653
#
#
# Mechanical properties :
#
#
# Convention : Reuss Voigt Hill
#
# Bulk Modulus (GPa) = 54.97329 59.96593 57.46961
# Shear Modulus (GPa) = 30.27433 33.98417 32.12925
#
# Velocity S-wave (km/s) = 3.70713 3.92770 3.81901
# Velocity P-wave (km/s) = 6.57863 6.91305 6.74791
#
# Compressibility (1/GPa) = 0.01819065
#
# Stress axis : x y z
#
# Youngs Moduli (GPa) = 64.86925 95.03818 69.77450
#
# Poissons Ratio (x) = 0.17243 0.33486
# Poissons Ratio (y) = 0.11769 0.30882
# Poissons Ratio (z) = 0.31132 0.42064
#
# Static dielectric constant tensor:
#      x y z
#    x 4.026440 -0.033890 0.088280 
#    y -0.033890 4.137740 0.226880 
#    z 0.088280 0.226880 4.103150 
# 
# 
# High freq. dielectric constant tensor:
#      x y z
#    x 1.873590 -0.002600 0.004620 
#    y -0.002600 1.876550 0.009190 
#    z 0.004620 0.009190 1.877290 
# 
# From -- ./inp_files/566770.got.cif
#   From: 2010.06.25/outbox.cif.g09.slc.cpg/sg2_284_cif.got.tgz:566770.got - 2010.06.27 13:26:56.
