data_PCOD8032143
_publ_section_title
;
Structure prediction by ZEFSAII (Michael W. Deem and Ramdas Pophale) SiO2 
 PCOD8032143
Probable space group: P -1
;
_chemical_formula_sum "Si O2"
_cell_formula_units_Z 16
_cell_length_a 15.804290
_cell_length_b 15.635139
_cell_length_c 16.302943
_cell_angle_alpha 37.308299
_cell_angle_beta 18.640749
_cell_angle_gamma 36.329825
_cell_volume 751.850223
_symmetry_space_group_name_H-M "P -1"
_symmetry_group_IT_number 2
_symmetry_cell_setting 'triclinic'
loop_
_space_group_symop_operation_xyz
x,y,z
-x,-y,-z
loop_
_atom_site_type_symbol
_atom_site_label
_atom_site_fract_x
_atom_site_fract_y
_atom_site_fract_z
Si Si1 0.966888 0.112657 0.740521
Si Si2 0.682837 0.070360 0.720518
Si Si3 0.646312 0.404322 0.074167
Si Si4 0.247631 0.935924 0.757720
Si Si5 0.837255 0.572121 0.907736
Si Si6 0.574811 0.413826 0.581871
Si Si7 0.628350 0.876851 0.780711
Si Si8 0.204839 0.592084 0.251625
O O1 0.950335 0.239342 0.724600
O O2 0.118601 0.149681 0.493435
O O3 0.663502 0.098517 0.013031
O O4 0.146932 0.970972 0.730118
O O5 0.609250 0.243606 0.663495
O O6 0.617515 0.028001 0.721293
O O7 0.000000 0.000000 0.500000
O O8 0.500000 0.000000 0.000000
O O9 0.641272 0.238825 0.218410
O O10 0.361296 0.534261 0.239675
O O11 0.851615 0.455850 0.908368
O O12 0.657566 0.419932 0.954141
O O13 0.500000 0.000000 0.500000
O O14 0.000000 0.000000 0.000000
O O15 0.687534 0.738178 0.892707
O O16 0.147812 0.557102 0.660498
O O17 0.667511 0.529294 0.172338
O O18 0.500000 0.500000 0.500000
O O19 0.000000 0.500000 0.500000
#
# Coordination Sequence:
#
# PCOD8032143 Si02
#       8
#     2   2   2   2   2   2   2   2
#     4  12  25  42  68  98 137 174 229 287 330 394
#     4  12  23  44  72 100 134 184 226 273 354 421
#     4  11  26  41  69 100 138 185 231 280 347 405
#     4  12  26  46  65  94 138 189 226 277 342 405
#     4  12  25  45  73 105 140 179 232 291 347 414
#     4  12  27  47  73 105 144 181 228 294 357 423
#     4  12  24  43  71 105 132 173 235 288 333 411
#     4  11  23  41  66 100 134 183 231 281 329 407
#
# _framework density 21.280833999999999
#
# number of rings (size 3 to 8) (size 9 to 14) (size 15 to 20)
#    0.000    0.250    5.000    4.125    3.500    2.000 
#    0.000    0.000    0.000    0.000    0.000    0.000 
#    0.000    0.000    0.000    0.000    0.000    0.000 
#
# Total GULP energy -198257.292496 kJ/mol
# GULP energy per Si atom -12391.080781 kJ/mol
# Density = 2.123240 g / cm^3
# Si number density = 21.280834 Si / 1000 Ang^3
#
#
#
# Elastic Constant Matrix: (Units=GPa)
#
#
# Indices 1 2 3 4 5 6 
#
# 1 290.1931 39.5231 185.0621 -15.9857 -78.2622 -56.9015
# 2 39.5231 123.1265 25.1250 -22.7208 4.6583 10.4998
# 3 185.0621 25.1250 248.3441 -5.2500 -72.6622 -48.8086
# 4 -15.9857 -22.7208 -5.2500 32.6251 5.7202 1.7405
# 5 -78.2622 4.6583 -72.6622 5.7202 73.4884 22.3552
# 6 -56.9015 10.4998 -48.8086 1.7405 22.3552 72.7144
#
#
#
# Elastic Compliance Matrix: (Units=1/GPa)
#
#
# Indices 1 2 3 4 5 6 
#
# 1 0.007804 -0.001808 -0.004079 0.001154 0.003538 0.002515
# 2 -0.001808 0.010606 -0.001127 0.007066 -0.003403 -0.002826
# 3 -0.004079 -0.001127 0.008589 -0.002171 0.003906 0.001587
# 4 0.001154 0.007066 -0.002171 0.036526 -0.003821 -0.001274
# 5 0.003538 -0.003403 0.003906 -0.003821 0.021991 -0.000787
# 6 0.002515 -0.002826 0.001587 -0.001274 -0.000787 0.017467
#
#
# Mechanical properties :
#
#
# Convention : Reuss Voigt Hill
#
# Bulk Modulus (GPa) = 77.09599 129.00935 103.05267
# Shear Modulus (GPa) = 41.20828 63.22915 52.21872
#
# Velocity S-wave (km/s) = 4.40523 5.45677 4.95895
# Velocity P-wave (km/s) = 7.88551 10.02276 9.01768
#
# Compressibility (1/GPa) = 0.01297084
#
# Stress axis : x y z
#
# Youngs Moduli (GPa) = 128.13478 94.28759 116.42477
#
# Poissons Ratio (x) = 0.17049 0.47488
# Poissons Ratio (y) = 0.23170 0.13123
# Poissons Ratio (z) = 0.52264 0.10628
#
# Static dielectric constant tensor:
#      x y z
#    x 3.153660 -0.088390 0.477490 
#    y -0.088390 4.099530 0.107940 
#    z 0.477490 0.107940 3.596220 
# 
# 
# High freq. dielectric constant tensor:
#      x y z
#    x 1.851280 0.002820 -0.005530 
#    y 0.002820 1.840040 -0.002720 
#    z -0.005530 -0.002720 1.845200 
# 
# From -- ./inp_files/494704.got.cif
#   From: 2010.06.25/outbox.cif.g09.slc.cpg/sg2_248_cif.got.tgz:494704.got - 2010.06.27 13:26:56.
