data_PCOD8032857
_publ_section_title
;
Structure prediction by ZEFSAII (Michael W. Deem and Ramdas Pophale) SiO2 
 PCOD8032857
Probable space group: P -1
;
_chemical_formula_sum "Si O2"
_cell_formula_units_Z 14
_cell_length_a 13.187676
_cell_length_b 26.759128
_cell_length_c 10.903547
_cell_angle_alpha 23.070394
_cell_angle_beta 34.191078
_cell_angle_gamma 23.005242
_cell_volume 584.379017
_symmetry_space_group_name_H-M "P -1"
_symmetry_group_IT_number 2
_symmetry_cell_setting 'triclinic'
loop_
_space_group_symop_operation_xyz
x,y,z
-x,-y,-z
loop_
_atom_site_type_symbol
_atom_site_label
_atom_site_fract_x
_atom_site_fract_y
_atom_site_fract_z
Si Si1 0.596283 0.812583 0.868623
Si Si2 0.004995 0.725791 0.230263
Si Si3 0.883851 0.369473 0.154904
Si Si4 0.341731 0.887559 0.212328
Si Si5 0.015258 0.155316 0.281198
Si Si6 0.485306 0.603190 0.394996
Si Si7 0.449459 0.227461 0.475435
O O1 0.912633 0.656506 0.904907
O O2 0.500000 0.000000 0.500000
O O3 0.501591 0.823749 0.073510
O O4 0.488408 0.754223 0.017553
O O5 0.774034 0.741692 0.431577
O O6 0.265989 0.534677 0.454830
O O7 0.064330 0.735312 0.010880
O O8 0.911191 0.891559 0.032848
O O9 0.779556 0.297734 0.492136
O O10 0.050163 0.242214 0.156468
O O11 0.631334 0.583946 0.888008
O O12 0.525656 0.823672 0.290575
O O13 0.233987 0.800370 0.530111
O O14 0.276245 0.937140 0.496151
O O15 0.500000 0.500000 0.500000
#
# Coordination Sequence:
#
# PCOD8032857 Si02
#       7
#     2   2   2   2   2   2   2
#     4  12  29  50  74 107 147 206 259 309 369 444
#     4  11  23  44  74 111 152 190 241 310 379 448
#     4  12  26  48  80 108 150 192 248 314 374 452
#     4  11  23  44  74 111 152 190 241 310 379 448
#     4  11  23  43  76 118 151 187 239 310 386 450
#     4  12  29  50  74 107 147 206 259 309 369 444
#     4  11  23  43  76 118 151 187 239 310 386 450
#
# _framework density 23.957052999999998
#
# number of rings (size 3 to 8) (size 9 to 14) (size 15 to 20)
#    0.000    0.571    2.857    6.857    4.000    6.857 
#    0.000    1.429    0.000    0.000    0.000    0.000 
#    0.000    0.000    0.000    0.000    0.000    0.000 
#
# Total GULP energy -173622.968811 kJ/mol
# GULP energy per Si atom -12401.640629 kJ/mol
# Density = 2.390253 g / cm^3
# Si number density = 23.957053 Si / 1000 Ang^3
#
#
#
# Elastic Constant Matrix: (Units=GPa)
#
#
# Indices 1 2 3 4 5 6 
#
# 1 111.8927 50.1373 39.1605 5.1688 -23.2079 1.4723
# 2 50.1373 102.2333 41.7094 6.8802 4.6034 -8.2657
# 3 39.1605 41.7094 128.4962 -1.6208 -17.7979 -6.0373
# 4 5.1688 6.8802 -1.6208 36.8496 -3.7649 -16.8946
# 5 -23.2079 4.6034 -17.7979 -3.7649 33.8591 -4.3828
# 6 1.4723 -8.2657 -6.0373 -16.8946 -4.3828 32.3553
#
#
#
# Elastic Compliance Matrix: (Units=1/GPa)
#
#
# Indices 1 2 3 4 5 6 
#
# 1 0.014783 -0.007558 -0.000653 -0.000261 0.010603 -0.001426
# 2 -0.007558 0.015889 -0.004192 -0.002666 -0.009723 0.000912
# 3 -0.000653 -0.004192 0.010467 0.003713 0.006520 0.003734
# 4 -0.000261 -0.002666 0.003713 0.038597 0.009200 0.021424
# 5 0.010603 -0.009723 0.006520 0.009200 0.043736 0.008979
# 6 -0.001426 0.000912 0.003734 0.021424 0.008979 0.044304
#
#
# Mechanical properties :
#
#
# Convention : Reuss Voigt Hill
#
# Bulk Modulus (GPa) = 61.22672 67.18186 64.20429
# Shear Modulus (GPa) = 25.24904 34.72046 29.98475
#
# Velocity S-wave (km/s) = 3.24995 3.81107 3.54164
# Velocity P-wave (km/s) = 6.30042 6.88979 6.60168
#
# Compressibility (1/GPa) = 0.01633274
#
# Stress axis : x y z
#
# Youngs Moduli (GPa) = 67.64747 62.93545 95.53406
#
# Poissons Ratio (x) = 0.47568 0.06243
# Poissons Ratio (y) = 0.51129 0.40044
# Poissons Ratio (z) = 0.04421 0.26380
#
# Static dielectric constant tensor:
#      x y z
#    x 4.447210 -0.104020 -0.285790 
#    y -0.104020 4.203110 0.068090 
#    z -0.285790 0.068090 4.527920 
# 
# 
# High freq. dielectric constant tensor:
#      x y z
#    x 1.948130 -0.008610 -0.018670 
#    y -0.008610 1.955870 0.006640 
#    z -0.018670 0.006640 1.955650 
# 
# From -- ./inp_files/458355.got.cif
#   From: 2010.06.25/outbox.cif.g09.slc.cpg/sg2_230_cif.got.tgz:458355.got - 2010.06.27 13:26:56.
