data_PCOD8033896
_publ_section_title
;
Structure prediction by ZEFSAII (Michael W. Deem and Ramdas Pophale) SiO2 
 PCOD8033896
Probable space group: P -1
;
_chemical_formula_sum "Si O2"
_cell_formula_units_Z 14
_cell_length_a 8.781929
_cell_length_b 8.514026
_cell_length_c 18.319476
_cell_angle_alpha 62.886234
_cell_angle_beta 31.138152
_cell_angle_gamma 69.968186
_cell_volume 627.083741
_symmetry_space_group_name_H-M "P -1"
_symmetry_group_IT_number 2
_symmetry_cell_setting 'triclinic'
loop_
_space_group_symop_operation_xyz
x,y,z
-x,-y,-z
loop_
_atom_site_type_symbol
_atom_site_label
_atom_site_fract_x
_atom_site_fract_y
_atom_site_fract_z
Si Si1 0.435470 0.597687 0.582327
Si Si2 0.116440 0.126379 0.716805
Si Si3 0.128333 0.242042 0.170590
Si Si4 0.691564 0.380838 0.645107
Si Si5 0.803047 0.780148 0.699976
Si Si6 0.394260 0.919173 0.364857
Si Si7 0.368244 0.622777 0.165861
O O1 0.500000 0.500000 0.500000
O O2 0.664436 0.775817 0.454265
O O3 0.477858 0.479964 0.660422
O O4 0.100835 0.640866 0.719776
O O5 0.286799 0.119060 0.726265
O O6 0.832598 0.235710 0.817547
O O7 0.024998 0.926429 0.772906
O O8 0.316689 0.188177 0.175237
O O9 0.328622 0.364834 0.006634
O O10 0.716356 0.191506 0.638033
O O11 0.553108 0.334945 0.791112
O O12 0.000000 0.500000 0.500000
O O13 0.796789 0.573755 0.726548
O O14 0.145809 0.866887 0.539194
O O15 0.602415 0.874781 0.703892
#
# Coordination Sequence:
#
# PCOD8033896 Si02
#       7
#     2   2   2   2   2   2   2
#     4  12  24  45  75 105 138 184 241 292 350 416
#     4  12  24  45  74 103 141 187 238 288 348 422
#     4  12  27  45  70 105 146 186 236 291 356 424
#     4  12  23  42  73 100 140 184 237 291 345 422
#     4  11  24  43  70 101 142 181 238 299 345 413
#     4  11  24  42  72 107 134 177 251 295 343 402
#     4  12  27  47  71 102 146 194 229 285 368 417
#
# _framework density 22.325568000000001
#
# number of rings (size 3 to 8) (size 9 to 14) (size 15 to 20)
#    0.000    0.286    5.714    3.000    2.000    0.571 
#    0.000    1.429    0.000    0.000    0.000    0.000 
#    0.000    0.000    0.000    0.000    0.000    0.000 
#
# Total GULP energy -173579.892656 kJ/mol
# GULP energy per Si atom -12398.563761 kJ/mol
# Density = 2.227475 g / cm^3
# Si number density = 22.325568 Si / 1000 Ang^3
#
#
#
# Elastic Constant Matrix: (Units=GPa)
#
#
# Indices 1 2 3 4 5 6 
#
# 1 141.1801 60.0034 43.1795 2.4665 19.2478 -2.7557
# 2 60.0034 118.7717 38.6208 -1.9023 0.5587 -6.2245
# 3 43.1795 38.6208 112.4095 13.0867 23.3342 -10.9156
# 4 2.4665 -1.9023 13.0867 28.7730 1.6696 0.3125
# 5 19.2478 0.5587 23.3342 1.6696 32.8324 2.7073
# 6 -2.7557 -6.2245 -10.9156 0.3125 2.7073 33.0806
#
#
#
# Elastic Compliance Matrix: (Units=1/GPa)
#
#
# Indices 1 2 3 4 5 6 
#
# 1 0.010141 -0.004716 -0.001202 -0.000345 -0.004991 -0.000027
# 2 -0.004716 0.012010 -0.003624 0.002555 0.004987 0.000239
# 3 -0.001202 -0.003624 0.013578 -0.005841 -0.008957 0.004486
# 4 -0.000345 0.002555 -0.005841 0.037483 0.002572 -0.002040
# 5 -0.004991 0.004987 -0.008957 0.002572 0.040006 -0.005731
# 6 -0.000027 0.000239 0.004486 -0.002040 -0.005731 0.032240
#
#
# Mechanical properties :
#
#
# Convention : Reuss Voigt Hill
#
# Bulk Modulus (GPa) = 60.07657 72.88541 66.48099
# Shear Modulus (GPa) = 29.39607 34.30771 31.85189
#
# Velocity S-wave (km/s) = 3.63257 3.92433 3.78127
# Velocity P-wave (km/s) = 6.67547 7.29735 6.99332
#
# Compressibility (1/GPa) = 0.01664542
#
# Stress axis : x y z
#
# Youngs Moduli (GPa) = 98.61019 83.26048 73.65013
#
# Poissons Ratio (x) = 0.39265 0.08850
# Poissons Ratio (y) = 0.46504 0.26693
# Poissons Ratio (z) = 0.11849 0.30176
#
# Static dielectric constant tensor:
#      x y z
#    x 4.328620 -0.095470 0.247880 
#    y -0.095470 4.111180 -0.125180 
#    z 0.247880 -0.125180 3.882960 
# 
# 
# High freq. dielectric constant tensor:
#      x y z
#    x 1.891400 -0.003810 0.014100 
#    y -0.003810 1.888160 -0.011320 
#    z 0.014100 -0.011320 1.855710 
# 
# From -- ./inp_files/271492.got.cif
#   From: 2010.06.25/outbox.cif.g09.slc.cpg/sg2_136_cif.got.tgz:271492.got - 2010.06.27 13:26:56.
