data_PCOD8033460
_publ_section_title
;
Structure prediction by ZEFSAII (Michael W. Deem and Ramdas Pophale) SiO2 
 PCOD8033460
Probable space group: P -1
;
_chemical_formula_sum "Si O2"
_cell_formula_units_Z 16
_cell_length_a 9.229280
_cell_length_b 11.105670
_cell_length_c 15.091997
_cell_angle_alpha 45.400200
_cell_angle_beta 121.401356
_cell_angle_gamma 140.981146
_cell_volume 692.397345
_symmetry_space_group_name_H-M "P -1"
_symmetry_group_IT_number 2
_symmetry_cell_setting 'triclinic'
loop_
_space_group_symop_operation_xyz
x,y,z
-x,-y,-z
loop_
_atom_site_type_symbol
_atom_site_label
_atom_site_fract_x
_atom_site_fract_y
_atom_site_fract_z
Si Si1 0.486031 0.498165 0.677932
Si Si2 0.579358 0.302265 0.659879
Si Si3 0.524834 0.405647 0.929888
Si Si4 0.362075 0.964106 0.061338
Si Si5 0.220950 0.029884 0.542969
Si Si6 0.128853 0.186971 0.043454
Si Si7 0.047101 0.640512 0.558901
Si Si8 0.003371 0.756405 0.304841
O O1 0.561712 0.453765 0.636663
O O2 0.577218 0.479126 0.806867
O O3 0.594597 0.757971 0.572999
O O4 0.214083 0.296979 0.696142
O O5 0.685748 0.224679 0.793007
O O6 0.658619 0.915430 0.350746
O O7 0.768679 0.478275 0.555147
O O8 0.738651 0.623799 0.936944
O O9 0.273825 0.305941 0.936378
O O10 0.526150 0.203771 0.043211
O O11 0.124609 0.903999 0.995096
O O12 0.500000 0.000000 0.000000
O O13 0.160341 0.808764 0.593102
O O14 0.000000 0.000000 0.500000
O O15 0.136980 0.989957 0.170620
O O16 0.084442 0.462362 0.669269
O O17 0.144654 0.780552 0.423819
#
# Coordination Sequence:
#
# PCOD8033460 Si02
#       8
#     2   2   2   2   2   2   2   2
#     4  12  23  45  72  99 140 186 233 283 351 423
#     4  12  25  45  68 104 142 180 235 286 348 417
#     4  11  25  45  72 106 135 192 243 284 350 427
#     4  12  25  45  70 103 144 188 234 296 352 411
#     4  12  25  45  74 102 141 185 231 285 357 420
#     4  11  25  48  74 100 144 192 237 292 353 422
#     4  11  25  44  71 106 138 181 225 298 347 414
#     4  11  23  46  73 101 143 182 231 289 353 414
#
# _framework density 23.10812
#
# number of rings (size 3 to 8) (size 9 to 14) (size 15 to 20)
#    0.000    0.500    5.000    3.000    1.750    3.000 
#    4.500    0.000    0.000    0.000    0.000    0.000 
#    0.000    0.000    0.000    0.000    0.000    0.000 
#
# Total GULP energy -198308.512834 kJ/mol
# GULP energy per Si atom -12394.282052 kJ/mol
# Density = 2.305552 g / cm^3
# Si number density = 23.108120 Si / 1000 Ang^3
#
#
#
# Elastic Constant Matrix: (Units=GPa)
#
#
# Indices 1 2 3 4 5 6 
#
# 1 65.0594 47.3912 22.3804 8.9428 2.7483 -21.6999
# 2 47.3912 138.1328 48.2205 -10.4172 7.2412 -25.5887
# 3 22.3804 48.2205 78.3016 -2.5537 0.7911 -5.7935
# 4 8.9428 -10.4172 -2.5537 31.8908 -6.8481 4.1362
# 5 2.7483 7.2412 0.7911 -6.8481 36.9119 -4.3551
# 6 -21.6999 -25.5887 -5.7935 4.1362 -4.3551 41.0299
#
#
#
# Elastic Compliance Matrix: (Units=1/GPa)
#
#
# Indices 1 2 3 4 5 6 
#
# 1 0.026546 -0.006994 -0.002883 -0.011612 -0.001484 0.010284
# 2 -0.006994 0.012391 -0.005259 0.005123 -0.000527 0.002714
# 3 -0.002883 -0.005259 0.016674 0.000910 0.000767 -0.002460
# 4 -0.011612 0.005123 0.000910 0.038488 0.006269 -0.006032
# 5 -0.001484 -0.000527 0.000767 0.006269 0.028617 0.001401
# 6 0.010284 0.002714 -0.002460 -0.006032 0.001401 0.031913
#
#
# Mechanical properties :
#
#
# Convention : Reuss Voigt Hill
#
# Bulk Modulus (GPa) = 39.46468 57.49755 48.48111
# Shear Modulus (GPa) = 25.86022 32.86665 29.36344
#
# Velocity S-wave (km/s) = 3.34892 3.77543 3.56855
# Velocity P-wave (km/s) = 5.66295 6.62881 6.16483
#
# Compressibility (1/GPa) = 0.02533912
#
# Stress axis : x y z
#
# Youngs Moduli (GPa) = 37.67089 80.70111 59.97506
#
# Poissons Ratio (x) = 0.56441 0.17292
# Poissons Ratio (y) = 0.26346 0.31540
# Poissons Ratio (z) = 0.10861 0.42439
#
# Static dielectric constant tensor:
#      x y z
#    x 4.312650 -0.111150 -0.125080 
#    y -0.111150 4.202360 -0.212060 
#    z -0.125080 -0.212060 4.280110 
# 
# 
# High freq. dielectric constant tensor:
#      x y z
#    x 1.925140 -0.012660 -0.007650 
#    y -0.012660 1.909690 -0.010960 
#    z -0.007650 -0.010960 1.916840 
# 
# From -- ./inp_files/558398.got.cif
#   From: 2010.06.25/outbox.cif.g09.slc.cpg/sg2_280_cif.got.tgz:558398.got - 2010.06.27 13:26:56.
