data_PCOD8033131
_publ_section_title
;
Structure prediction by ZEFSAII (Michael W. Deem and Ramdas Pophale) SiO2 
 PCOD8033131
Probable space group: P -1
;
_chemical_formula_sum "Si O2"
_cell_formula_units_Z 16
_cell_length_a 14.392092
_cell_length_b 9.100462
_cell_length_c 14.330586
_cell_angle_alpha 41.563572
_cell_angle_beta 39.855399
_cell_angle_gamma 38.900760
_cell_volume 700.320807
_symmetry_space_group_name_H-M "P -1"
_symmetry_group_IT_number 2
_symmetry_cell_setting 'triclinic'
loop_
_space_group_symop_operation_xyz
x,y,z
-x,-y,-z
loop_
_atom_site_type_symbol
_atom_site_label
_atom_site_fract_x
_atom_site_fract_y
_atom_site_fract_z
Si Si1 0.511771 0.740030 0.845857
Si Si2 0.020037 0.088704 0.841733
Si Si3 0.033793 0.223238 0.132933
Si Si4 0.862600 0.608283 0.632898
Si Si5 0.238133 0.831760 0.529694
Si Si6 0.472852 0.496617 0.659034
Si Si7 0.607929 0.918800 0.048348
Si Si8 0.389388 0.886972 0.677562
O O1 0.687655 0.662458 0.699247
O O2 0.377007 0.891723 0.797585
O O3 0.493992 0.904873 0.871536
O O4 0.500000 0.500000 0.000000
O O5 0.907175 0.391859 0.779718
O O6 0.206193 0.034729 0.706372
O O7 0.973598 0.939300 0.871418
O O8 0.000000 0.000000 0.000000
O O9 0.906624 0.238246 0.303711
O O10 0.219560 0.079534 0.099789
O O11 0.000000 0.500000 0.000000
O O12 0.000000 0.500000 0.500000
O O13 0.846575 0.867243 0.563711
O O14 0.378519 0.735156 0.548553
O O15 0.336501 0.686115 0.430036
O O16 0.361380 0.357730 0.814662
O O17 0.475784 0.597982 0.711946
O O18 0.500000 0.000000 0.000000
O O19 0.500000 0.000000 0.500000
#
# Coordination Sequence:
#
# PCOD8033131 Si02
#       8
#     2   2   2   2   2   2   2   2
#     4  12  26  45  72 108 146 195 247 304 373 441
#     4  12  26  46  73 111 152 189 242 312 373 447
#     4  12  24  46  75 105 142 199 245 304 373 442
#     4  12  23  45  74 104 145 194 247 301 369 439
#     4  11  23  44  76 103 145 200 244 307 367 441
#     4  11  23  46  73 104 148 193 253 303 374 444
#     4  12  26  47  72 105 146 195 248 310 373 446
#     4  12  25  45  74 111 143 195 246 301 372 448
#
# _framework density 22.846672999999999
#
# number of rings (size 3 to 8) (size 9 to 14) (size 15 to 20)
#    0.000    0.250    5.000    4.500    1.750    2.000 
#    2.250    1.875    0.000    0.000    0.000    0.000 
#    0.000    0.000    0.000    0.000    0.000    0.000 
#
# Total GULP energy -198420.227355 kJ/mol
# GULP energy per Si atom -12401.264210 kJ/mol
# Density = 2.279467 g / cm^3
# Si number density = 22.846673 Si / 1000 Ang^3
#
#
#
# Elastic Constant Matrix: (Units=GPa)
#
#
# Indices 1 2 3 4 5 6 
#
# 1 139.5514 55.2150 44.1834 2.3663 -10.3571 2.9608
# 2 55.2150 141.4824 50.1741 -7.7459 -9.7017 4.4677
# 3 44.1834 50.1741 122.5257 -8.4289 -25.8348 -2.0160
# 4 2.3663 -7.7459 -8.4289 56.2488 -8.8926 -4.2662
# 5 -10.3571 -9.7017 -25.8348 -8.8926 47.1269 4.9075
# 6 2.9608 4.4677 -2.0160 -4.2662 4.9075 37.8588
#
#
#
# Elastic Compliance Matrix: (Units=1/GPa)
#
#
# Indices 1 2 3 4 5 6 
#
# 1 0.008990 -0.002773 -0.002181 -0.001125 0.000062 -0.000627
# 2 -0.002773 0.009192 -0.002701 0.000919 0.000071 -0.000917
# 3 -0.002181 -0.002701 0.011407 0.002362 0.005598 0.000637
# 4 -0.001125 0.000919 0.002362 0.019172 0.004682 0.001659
# 5 0.000062 0.000071 0.005598 0.004682 0.025459 -0.002488
# 6 -0.000627 -0.000917 0.000637 0.001659 -0.002488 0.027115
#
#
# Mechanical properties :
#
#
# Convention : Reuss Voigt Hill
#
# Bulk Modulus (GPa) = 70.02693 78.07828 74.05261
# Shear Modulus (GPa) = 41.18433 45.17936 43.18184
#
# Velocity S-wave (km/s) = 4.25036 4.45174 4.35221
# Velocity P-wave (km/s) = 7.40302 7.78929 7.59861
#
# Compressibility (1/GPa) = 0.01428022
#
# Stress axis : x y z
#
# Youngs Moduli (GPa) = 111.22980 108.78831 87.66181
#
# Poissons Ratio (x) = 0.30163 0.19120
# Poissons Ratio (y) = 0.30840 0.23679
# Poissons Ratio (z) = 0.24261 0.29386
#
# Static dielectric constant tensor:
#      x y z
#    x 4.034770 -0.115330 -0.182440 
#    y -0.115330 4.477640 -0.010150 
#    z -0.182440 -0.010150 4.370430 
# 
# 
# High freq. dielectric constant tensor:
#      x y z
#    x 1.885900 -0.002920 -0.013900 
#    y -0.002920 1.914030 0.001400 
#    z -0.013900 0.001400 1.921170 
# 
# From -- ./inp_files/529277.got.cif
#   From: 2010.06.25/outbox.cif.g09.slc.cpg/sg2_265_cif.got.tgz:529277.got - 2010.06.27 13:26:56.
