data_PCOD8033831
_publ_section_title
;
Structure prediction by ZEFSAII (Michael W. Deem and Ramdas Pophale) SiO2 
 PCOD8033831
Probable space group: P -1
;
_chemical_formula_sum "Si O2"
_cell_formula_units_Z 14
_cell_length_a 12.012066
_cell_length_b 10.317640
_cell_length_c 6.585993
_cell_angle_alpha 96.219531
_cell_angle_beta 127.750253
_cell_angle_gamma 73.521127
_cell_volume 616.581256
_symmetry_space_group_name_H-M "P -1"
_symmetry_group_IT_number 2
_symmetry_cell_setting 'triclinic'
loop_
_space_group_symop_operation_xyz
x,y,z
-x,-y,-z
loop_
_atom_site_type_symbol
_atom_site_label
_atom_site_fract_x
_atom_site_fract_y
_atom_site_fract_z
Si Si1 0.894104 0.939186 0.589258
Si Si2 0.503627 0.372636 0.121608
Si Si3 0.818894 0.035462 0.939792
Si Si4 0.778719 0.304256 0.688346
Si Si5 0.186647 0.489567 0.918362
Si Si6 0.615459 0.076831 0.069239
Si Si7 0.978641 0.315909 0.565049
O O1 0.911118 0.798925 0.467256
O O2 0.862813 0.921435 0.793162
O O3 0.751599 0.053399 0.372642
O O4 0.045239 0.984551 0.751647
O O5 0.616049 0.360694 0.429320
O O6 0.541579 0.237241 0.003242
O O7 0.500000 0.500000 0.000000
O O8 0.346482 0.388520 0.048196
O O9 0.786516 0.184228 0.833592
O O10 0.677931 0.022526 0.906746
O O11 0.896763 0.251080 0.632052
O O12 0.819238 0.427030 0.868201
O O13 0.072954 0.401119 0.797614
O O14 0.146941 0.589702 0.698623
O O15 0.500000 0.000000 0.000000
#
# Coordination Sequence:
#
# PCOD8033831 Si02
#       7
#     2   2   2   2   2   2   2
#     4  11  24  45  71 101 139 181 237 292 347 418
#     4  12  24  47  70 100 142 193 234 289 355 425
#     4  11  25  43  73 106 131 185 244 287 350 424
#     4  12  23  45  71 102 138 186 244 289 346 430
#     4  11  24  43  64 100 138 186 235 290 351 414
#     4  12  27  47  70 105 148 185 230 296 364 418
#     4  11  24  42  68  99 143 182 231 295 356 407
#
# _framework density 22.705846999999999
#
# number of rings (size 3 to 8) (size 9 to 14) (size 15 to 20)
#    0.000    0.571    4.286    3.857    4.000    0.571 
#    0.000    0.000    0.000    0.000    0.000    0.000 
#    0.000    0.000    0.000    0.000    0.000    0.000 
#
# Total GULP energy -173662.457529 kJ/mol
# GULP energy per Si atom -12404.461252 kJ/mol
# Density = 2.265417 g / cm^3
# Si number density = 22.705847 Si / 1000 Ang^3
#
#
#
# Elastic Constant Matrix: (Units=GPa)
#
#
# Indices 1 2 3 4 5 6 
#
# 1 159.6968 50.1685 40.8899 3.1514 2.0077 -9.7007
# 2 50.1685 117.1966 43.4953 0.0166 6.8456 -14.5156
# 3 40.8899 43.4953 97.8945 -3.5273 17.9065 -11.3373
# 4 3.1514 0.0166 -3.5273 42.7529 -9.9583 -7.4670
# 5 2.0077 6.8456 17.9065 -9.9583 23.2989 1.7239
# 6 -9.7007 -14.5156 -11.3373 -7.4670 1.7239 36.8885
#
#
#
# Elastic Compliance Matrix: (Units=1/GPa)
#
#
# Indices 1 2 3 4 5 6 
#
# 1 0.007648 -0.002461 -0.002420 -0.000323 0.001775 0.000151
# 2 -0.002461 0.011281 -0.003572 0.000261 -0.000450 0.002768
# 3 -0.002420 -0.003572 0.015120 -0.000572 -0.010829 0.002995
# 4 -0.000323 0.000261 -0.000572 0.026881 0.011529 0.004744
# 5 0.001775 -0.000450 -0.010829 0.011529 0.056397 -0.003340
# 6 0.000151 0.002768 0.002995 0.004744 -0.003340 0.030275
#
#
# Mechanical properties :
#
#
# Convention : Reuss Voigt Hill
#
# Bulk Modulus (GPa) = 58.33155 71.54393 64.93774
# Shear Modulus (GPa) = 29.37372 36.60369 32.98871
#
# Velocity S-wave (km/s) = 3.60066 4.01943 3.81579
# Velocity P-wave (km/s) = 6.55989 7.28825 6.93364
#
# Compressibility (1/GPa) = 0.01714338
#
# Stress axis : x y z
#
# Youngs Moduli (GPa) = 130.75855 88.64651 66.13787
#
# Poissons Ratio (x) = 0.21812 0.16005
# Poissons Ratio (y) = 0.32174 0.23625
# Poissons Ratio (z) = 0.31642 0.31665
#
# Static dielectric constant tensor:
#      x y z
#    x 4.025460 -0.299800 0.036630 
#    y -0.299800 4.092320 -0.056510 
#    z 0.036630 -0.056510 4.302620 
# 
# 
# High freq. dielectric constant tensor:
#      x y z
#    x 1.894810 -0.017870 -0.000870 
#    y -0.017870 1.901340 -0.003890 
#    z -0.000870 -0.003890 1.904850 
# 
# From -- ./inp_files/68616.got.cif
#   From: 2010.06.25/outbox.cif.g09.slc.cpg/sg2_35_cif.got.tgz:68616.got - 2010.06.27 13:26:56.
