data_PCOD8033298
_publ_section_title
;
Structure prediction by ZEFSAII (Michael W. Deem and Ramdas Pophale) SiO2 
 PCOD8033298
Probable space group: P -1
;
_chemical_formula_sum "Si O2"
_cell_formula_units_Z 14
_cell_length_a 12.136020
_cell_length_b 8.358086
_cell_length_c 11.291283
_cell_angle_alpha 63.857643
_cell_angle_beta 141.334131
_cell_angle_gamma 125.162433
_cell_volume 584.902378
_symmetry_space_group_name_H-M "P -1"
_symmetry_group_IT_number 2
_symmetry_cell_setting 'triclinic'
loop_
_space_group_symop_operation_xyz
x,y,z
-x,-y,-z
loop_
_atom_site_type_symbol
_atom_site_label
_atom_site_fract_x
_atom_site_fract_y
_atom_site_fract_z
Si Si1 0.512085 0.952042 0.215519
Si Si2 0.158570 0.302230 0.199924
Si Si3 0.718796 0.197711 0.514743
Si Si4 0.398858 0.224974 0.870140
Si Si5 0.207329 0.688158 0.206334
Si Si6 0.924186 0.857671 0.206034
Si Si7 0.591156 0.649327 0.820326
O O1 0.625800 0.004370 0.418555
O O2 0.628142 0.872935 0.249641
O O3 0.303580 0.784590 0.130316
O O4 0.487963 0.130751 0.073384
O O5 0.212146 0.472700 0.290237
O O6 0.350458 0.334611 0.274393
O O7 0.067285 0.087510 0.250206
O O8 0.012984 0.336419 0.974000
O O9 0.688333 0.170443 0.640410
O O10 0.615243 0.336847 0.343164
O O11 0.950505 0.272889 0.661397
O O12 0.187283 0.200974 0.743082
O O13 0.556552 0.446383 0.920080
O O14 0.766378 0.819422 0.981380
#
# Coordination Sequence:
#
# PCOD8033298 Si02
#       7
#     2   2   2   2   2   2   2
#     4  11  24  45  73 107 139 193 231 289 353 429
#     4  11  24  44  74 103 147 186 235 288 357 410
#     4  12  28  42  76 107 143 179 246 292 350 411
#     4  11  25  49  74  97 152 190 230 282 363 423
#     4  11  23  45  73 113 137 182 241 296 347 422
#     4  12  26  46  71 108 141 189 232 294 349 420
#     4  12  25  48  72 105 143 191 231 294 351 417
#
# _framework density 23.935618000000002
#
# number of rings (size 3 to 8) (size 9 to 14) (size 15 to 20)
#    0.000    0.571    5.714    1.286    4.000    2.857 
#    0.000    0.000    0.000    0.000    0.000    0.000 
#    0.000    0.000    0.000    0.000    0.000    0.000 
#
# Total GULP energy -173518.404574 kJ/mol
# GULP energy per Si atom -12394.171755 kJ/mol
# Density = 2.388114 g / cm^3
# Si number density = 23.935618 Si / 1000 Ang^3
#
#
#
# Elastic Constant Matrix: (Units=GPa)
#
#
# Indices 1 2 3 4 5 6 
#
# 1 189.2105 39.4847 57.0197 10.4878 8.7779 -1.3802
# 2 39.4847 87.0404 13.3518 -3.3697 -2.8834 18.2206
# 3 57.0197 13.3518 93.8594 6.1621 10.6800 -12.5211
# 4 10.4878 -3.3697 6.1621 13.8407 -10.3903 -1.3078
# 5 8.7779 -2.8834 10.6800 -10.3903 45.0303 2.5666
# 6 -1.3802 18.2206 -12.5211 -1.3078 2.5666 39.2142
#
#
#
# Elastic Compliance Matrix: (Units=1/GPa)
#
#
# Indices 1 2 3 4 5 6 
#
# 1 0.007469 -0.003406 -0.003209 -0.006903 -0.002549 0.000758
# 2 -0.003406 0.015738 -0.002564 0.010692 0.005216 -0.008236
# 3 -0.003209 -0.002564 0.014904 -0.008261 -0.005316 0.005909
# 4 -0.006903 0.010692 -0.008261 0.104544 0.028467 -0.006225
# 5 -0.002549 0.005216 -0.005316 0.028467 0.031170 -0.005302
# 6 0.000758 -0.008236 0.005909 -0.006225 -0.005302 0.031381
#
#
# Mechanical properties :
#
#
# Convention : Reuss Voigt Hill
#
# Bulk Modulus (GPa) = 50.62298 65.53585 58.07942
# Shear Modulus (GPa) = 21.72511 36.96730 29.34620
#
# Velocity S-wave (km/s) = 3.01599 3.93421 3.50529
# Velocity P-wave (km/s) = 5.77268 6.93375 6.37968
#
# Compressibility (1/GPa) = 0.01975387
#
# Stress axis : x y z
#
# Youngs Moduli (GPa) = 133.88045 63.53945 67.09675
#
# Poissons Ratio (x) = 0.21644 0.21530
# Poissons Ratio (y) = 0.45606 0.17201
# Poissons Ratio (z) = 0.42959 0.16289
#
# Static dielectric constant tensor:
#      x y z
#    x 4.816290 -0.272410 0.248310 
#    y -0.272410 4.063080 0.087340 
#    z 0.248310 0.087340 4.035400 
# 
# 
# High freq. dielectric constant tensor:
#      x y z
#    x 1.971370 -0.015050 0.012930 
#    y -0.015050 1.933150 0.002530 
#    z 0.012930 0.002530 1.932150 
# 
# From -- ./inp_files/419261.got.cif
#   From: 2010.06.25/outbox.cif.g09.slc.cpg/sg2_210_cif.got.tgz:419261.got - 2010.06.27 13:26:56.
