data_PCOD8033676
_publ_section_title
;
Structure prediction by ZEFSAII (Michael W. Deem and Ramdas Pophale) SiO2 
 PCOD8033676
Probable space group: P -1
;
_chemical_formula_sum "Si O2"
_cell_formula_units_Z 16
_cell_length_a 11.459685
_cell_length_b 25.139482
_cell_length_c 7.814549
_cell_angle_alpha 47.869422
_cell_angle_beta 142.314454
_cell_angle_gamma 148.113732
_cell_volume 726.994565
_symmetry_space_group_name_H-M "P -1"
_symmetry_group_IT_number 2
_symmetry_cell_setting 'triclinic'
loop_
_space_group_symop_operation_xyz
x,y,z
-x,-y,-z
loop_
_atom_site_type_symbol
_atom_site_label
_atom_site_fract_x
_atom_site_fract_y
_atom_site_fract_z
Si Si1 0.450196 0.597861 0.649480
Si Si2 0.197324 0.943648 0.767795
Si Si3 0.274451 0.117061 0.054664
Si Si4 0.882163 0.628538 0.276514
Si Si5 0.781110 0.889079 0.630574
Si Si6 0.274302 0.708071 0.252060
Si Si7 0.162673 0.754754 0.672909
Si Si8 0.154754 0.229305 0.508941
O O1 0.231341 0.481264 0.599175
O O2 0.296235 0.628237 0.466675
O O3 0.616529 0.657754 0.539783
O O4 0.640440 0.620556 0.976148
O O5 0.055533 0.917902 0.843738
O O6 0.063220 0.840956 0.740016
O O7 0.159303 0.010532 0.487092
O O8 0.500000 0.000000 0.000000
O O9 0.276281 0.183497 0.783789
O O10 0.329295 0.167568 0.194649
O O11 0.534830 0.139367 0.252633
O O12 0.000000 0.000000 0.000000
O O13 0.079686 0.686130 0.220089
O O14 0.028563 0.683681 0.505248
O O15 0.568280 0.820303 0.380149
O O16 0.162069 0.700704 0.951748
O O17 0.988491 0.777770 0.473288
#
# Coordination Sequence:
#
# PCOD8033676 Si02
#       8
#     2   2   2   2   2   2   2   2
#     4  11  25  49  73 101 143 177 230 292 355 410
#     4  11  24  40  67  98 132 187 230 283 348 408
#     4  12  26  46  65 103 144 182 237 286 337 413
#     4  11  27  48  72 108 134 182 235 288 349 422
#     4  11  24  42  68  98 140 183 230 286 344 409
#     4  12  23  48  73 103 140 182 230 289 350 410
#     4  12  27  44  74 104 140 183 237 285 342 416
#     4  12  25  44  68 101 141 183 225 291 347 405
#
# _framework density 22.008417999999999
#
# number of rings (size 3 to 8) (size 9 to 14) (size 15 to 20)
#    0.000    0.500    6.250    1.125    5.250    2.500 
#    0.000    0.000    0.000    0.000    0.000    0.000 
#    0.000    0.000    0.000    0.000    0.000    0.000 
#
# Total GULP energy -198366.040145 kJ/mol
# GULP energy per Si atom -12397.877509 kJ/mol
# Density = 2.195833 g / cm^3
# Si number density = 22.008418 Si / 1000 Ang^3
#
#
#
# Elastic Constant Matrix: (Units=GPa)
#
#
# Indices 1 2 3 4 5 6 
#
# 1 137.3684 27.7924 36.7265 16.3658 -1.0168 0.6697
# 2 27.7924 104.1123 17.2105 6.9879 -6.8221 1.5686
# 3 36.7265 17.2105 71.2125 9.1361 -8.2271 -6.1085
# 4 16.3658 6.9879 9.1361 29.5208 1.1907 2.3260
# 5 -1.0168 -6.8221 -8.2271 1.1907 41.7497 -0.8119
# 6 0.6697 1.5686 -6.1085 2.3260 -0.8119 33.3566
#
#
#
# Elastic Compliance Matrix: (Units=1/GPa)
#
#
# Indices 1 2 3 4 5 6 
#
# 1 0.009064 -0.001573 -0.004006 -0.003333 -0.000743 -0.000627
# 2 -0.001573 0.010444 -0.001455 -0.001159 0.001403 -0.000611
# 3 -0.004006 -0.001455 0.017579 -0.003298 0.003294 0.003678
# 4 -0.003333 -0.001159 -0.003298 0.037347 -0.002046 -0.003137
# 5 -0.000743 0.001403 0.003294 -0.002046 0.024896 0.001301
# 6 -0.000627 -0.000611 0.003678 -0.003137 0.001301 0.030944
#
#
# Mechanical properties :
#
#
# Convention : Reuss Voigt Hill
#
# Bulk Modulus (GPa) = 43.44103 52.90581 48.17342
# Shear Modulus (GPa) = 32.89133 36.32299 34.60716
#
# Velocity S-wave (km/s) = 3.87006 4.06694 3.96972
# Velocity P-wave (km/s) = 6.30484 6.79296 6.55345
#
# Compressibility (1/GPa) = 0.02301971
#
# Stress axis : x y z
#
# Youngs Moduli (GPa) = 110.33034 95.74675 56.88455
#
# Poissons Ratio (x) = 0.15059 0.22790
# Poissons Ratio (y) = 0.17352 0.08275
# Poissons Ratio (z) = 0.44202 0.13929
#
# Static dielectric constant tensor:
#      x y z
#    x 4.180770 0.070260 0.038160 
#    y 0.070260 3.983440 -0.113770 
#    z 0.038160 -0.113770 4.331770 
# 
# 
# High freq. dielectric constant tensor:
#      x y z
#    x 1.882310 0.007120 0.006830 
#    y 0.007120 1.857910 0.001640 
#    z 0.006830 0.001640 1.864830 
# 
# From -- ./inp_files/284770.got.cif
#   From: 2010.06.25/outbox.cif.g09.slc.cpg/sg2_143_cif.got.tgz:284770.got - 2010.06.27 13:26:56.
