data_PCOD8033647
_publ_section_title
;
Structure prediction by ZEFSAII (Michael W. Deem and Ramdas Pophale) SiO2 
 PCOD8033647
Probable space group: P -1
;
_chemical_formula_sum "Si O2"
_cell_formula_units_Z 16
_cell_length_a 20.819303
_cell_length_b 12.955896
_cell_length_c 11.251162
_cell_angle_alpha 48.767993
_cell_angle_beta 29.842527
_cell_angle_gamma 31.401166
_cell_volume 747.209373
_symmetry_space_group_name_H-M "P -1"
_symmetry_group_IT_number 2
_symmetry_cell_setting 'triclinic'
loop_
_space_group_symop_operation_xyz
x,y,z
-x,-y,-z
loop_
_atom_site_type_symbol
_atom_site_label
_atom_site_fract_x
_atom_site_fract_y
_atom_site_fract_z
Si Si1 0.287052 0.151905 0.934389
Si Si2 0.802144 0.521337 0.766251
Si Si3 0.215226 0.177650 0.306586
Si Si4 0.143829 0.160961 0.916819
Si Si5 0.558155 0.712541 0.539741
Si Si6 0.278587 0.600379 0.655978
Si Si7 0.300630 0.293255 0.449643
Si Si8 0.519746 0.288933 0.712554
O O1 0.159726 0.165142 0.032066
O O2 0.301081 0.298442 0.756448
O O3 0.511824 0.925883 0.744762
O O4 0.202035 0.194149 0.170843
O O5 0.754175 0.693053 0.793578
O O6 0.815909 0.536353 0.593270
O O7 0.019107 0.283138 0.612583
O O8 0.623348 0.564908 0.055548
O O9 0.384539 0.939325 0.261471
O O10 0.149348 0.307356 0.739853
O O11 0.328722 0.931303 0.739896
O O12 0.951367 0.236730 0.123103
O O13 0.599080 0.528364 0.562980
O O14 0.631508 0.653198 0.601656
O O15 0.374211 0.418668 0.735572
O O16 0.309942 0.732733 0.544529
#
# Coordination Sequence:
#
# PCOD8033647 Si02
#       8
#     2   2   2   2   2   2   2   2
#     4   9  18  38  63  94 125 153 193 260 308 348
#     4  11  24  38  65  95 119 157 200 248 320 357
#     4  11  24  39  65  91 122 158 198 255 309 357
#     4   9  21  37  63  93 122 156 206 246 300 358
#     4   9  20  37  63  94 124 155 197 257 300 348
#     4  11  25  41  65  83 119 174 208 234 299 361
#     4   9  19  36  62  98 126 147 195 260 305 355
#     4  11  26  45  57  88 126 161 207 252 286 364
#
# _framework density 21.413008999999999
#
# number of rings (size 3 to 8) (size 9 to 14) (size 15 to 20)
#    0.000    2.000    1.250    2.625   10.500    2.000 
#    0.000    3.750    0.000    0.000    0.000    0.000 
#    0.000    0.000    0.000    0.000    0.000    0.000 
#
# Total GULP energy -198211.793001 kJ/mol
# GULP energy per Si atom -12388.237063 kJ/mol
# Density = 2.136427 g / cm^3
# Si number density = 21.413009 Si / 1000 Ang^3
#
#
#
# Elastic Constant Matrix: (Units=GPa)
#
#
# Indices 1 2 3 4 5 6 
#
# 1 100.9856 22.4005 56.8998 11.9074 -1.1357 -8.5195
# 2 22.4005 32.9152 38.8986 15.9499 8.0276 -1.9150
# 3 56.8998 38.8986 113.9984 19.2201 -3.3963 -13.7765
# 4 11.9074 15.9499 19.2201 21.2147 -6.2627 -0.2326
# 5 -1.1357 8.0276 -3.3963 -6.2627 38.3451 6.6032
# 6 -8.5195 -1.9150 -13.7765 -0.2326 6.6032 22.0237
#
#
#
# Elastic Compliance Matrix: (Units=1/GPa)
#
#
# Indices 1 2 3 4 5 6 
#
# 1 0.013919 -0.001668 -0.006002 -0.001172 -0.000227 0.001541
# 2 -0.001668 0.094015 -0.021862 -0.059308 -0.031832 0.002772
# 3 -0.006002 -0.021862 0.019506 0.003876 0.005671 0.006320
# 4 -0.001172 -0.059308 0.003876 0.097797 0.030651 -0.011343
# 5 -0.000227 -0.031832 0.005671 0.030651 0.040142 -0.011020
# 6 0.001541 0.002772 0.006320 -0.011343 -0.011020 0.053380
#
#
# Mechanical properties :
#
#
# Convention : Reuss Voigt Hill
#
# Bulk Modulus (GPa) = 14.62421 53.81077 34.21749
# Shear Modulus (GPa) = 12.48080 24.96339 18.72210
#
# Velocity S-wave (km/s) = 2.41687 3.41809 2.96012
# Velocity P-wave (km/s) = 3.82528 6.38454 5.26285
#
# Compressibility (1/GPa) = 0.06837976
#
# Stress axis : x y z
#
# Youngs Moduli (GPa) = 71.84184 10.63656 51.26505
#
# Poissons Ratio (x) = 0.01774 0.30767
# Poissons Ratio (y) = 0.11980 1.12074
# Poissons Ratio (z) = 0.43116 0.23253
#
# Static dielectric constant tensor:
#      x y z
#    x 3.879710 -0.161880 0.156750 
#    y -0.161880 3.608050 0.189500 
#    z 0.156750 0.189500 3.878740 
# 
# 
# High freq. dielectric constant tensor:
#      x y z
#    x 1.846260 -0.015460 0.009840 
#    y -0.015460 1.813670 0.030850 
#    z 0.009840 0.030850 1.841800 
# 
# From -- ./inp_files/475165.got.cif
#   From: 2010.06.25/outbox.cif.g09.slc.cpg/sg2_238_cif.got.tgz:475165.got - 2010.06.27 13:26:56.
