data_PCOD8033674
_publ_section_title
;
Structure prediction by ZEFSAII (Michael W. Deem and Ramdas Pophale) SiO2 
 PCOD8033674
Probable space group: P -1
;
_chemical_formula_sum "Si O2"
_cell_formula_units_Z 12
_cell_length_a 9.009445
_cell_length_b 15.894076
_cell_length_c 13.699607
_cell_angle_alpha 154.575168
_cell_angle_beta 46.169233
_cell_angle_gamma 142.212100
_cell_volume 514.385629
_symmetry_space_group_name_H-M "P -1"
_symmetry_group_IT_number 2
_symmetry_cell_setting 'triclinic'
loop_
_space_group_symop_operation_xyz
x,y,z
-x,-y,-z
loop_
_atom_site_type_symbol
_atom_site_label
_atom_site_fract_x
_atom_site_fract_y
_atom_site_fract_z
Si Si1 0.955563 0.977475 0.762333
Si Si2 0.573979 0.310365 0.272060
Si Si3 0.360727 0.704640 0.993935
Si Si4 0.851980 0.153153 0.286034
Si Si5 0.968880 0.615597 0.754349
Si Si6 0.984527 0.801813 0.362916
O O1 0.678649 0.921710 0.823890
O O2 0.041173 0.895032 0.545369
O O3 0.973467 0.843689 0.706924
O O4 0.110236 0.259156 0.999174
O O5 0.500000 0.500000 0.500000
O O6 0.776302 0.365278 0.317925
O O7 0.666876 0.278557 0.091659
O O8 0.189377 0.759148 0.190185
O O9 0.630554 0.890141 0.100764
O O10 0.279460 0.438800 0.776373
O O11 0.001712 0.247125 0.215777
O O12 0.773256 0.338606 0.545265
O O13 0.000000 0.000000 0.500000
#
# Coordination Sequence:
#
# PCOD8033674 Si02
#       6
#     2   2   2   2   2   2
#     4  12  24  44  69  99 136 175 225 275 329 394
#     4  12  22  42  73 100 131 175 226 276 327 390
#     4  11  25  44  67  96 138 170 220 279 331 383
#     4  11  25  41  66 102 142 169 215 278 344 383
#     4  11  24  40  67 106 138 169 218 275 338 397
#     4  11  26  45  68  95 130 181 229 265 327 403
#
# _framework density 23.328800999999999
#
# number of rings (size 3 to 8) (size 9 to 14) (size 15 to 20)
#    0.000    0.667    5.000    2.000    2.333    3.333 
#    0.000    1.667    0.000    0.000    0.000    0.000 
#    0.000    0.000    0.000    0.000    0.000    0.000 
#
# Total GULP energy -148718.103722 kJ/mol
# GULP energy per Si atom -12393.175310 kJ/mol
# Density = 2.327570 g / cm^3
# Si number density = 23.328801 Si / 1000 Ang^3
#
#
#
# Elastic Constant Matrix: (Units=GPa)
#
#
# Indices 1 2 3 4 5 6 
#
# 1 98.0004 28.9586 19.8011 -5.9232 14.3764 -26.3833
# 2 28.9586 82.8113 53.5417 7.2891 8.7294 -13.0288
# 3 19.8011 53.5417 200.9906 2.8566 6.5644 -13.5669
# 4 -5.9232 7.2891 2.8566 55.9463 -5.2401 -1.1067
# 5 14.3764 8.7294 6.5644 -5.2401 28.5979 2.4552
# 6 -26.3833 -13.0288 -13.5669 -1.1067 2.4552 21.3272
#
#
#
# Elastic Compliance Matrix: (Units=1/GPa)
#
#
# Indices 1 2 3 4 5 6 
#
# 1 0.018733 -0.002336 0.000682 0.001728 -0.010561 0.023487
# 2 -0.002336 0.016775 -0.003712 -0.002514 -0.004012 0.005328
# 3 0.000682 -0.003712 0.006092 0.000222 -0.000787 0.002554
# 4 0.001728 -0.002514 0.000222 0.018696 0.003157 0.001350
# 5 -0.010561 -0.004012 -0.000787 0.003157 0.044057 -0.020924
# 6 0.023487 0.005328 0.002554 0.001350 -0.020924 0.083302
#
#
# Mechanical properties :
#
#
# Convention : Reuss Voigt Hill
#
# Bulk Modulus (GPa) = 32.39486 65.15614 48.77550
# Shear Modulus (GPa) = 23.96066 39.80767 31.88416
#
# Velocity S-wave (km/s) = 3.20829 4.13531 3.70094
# Velocity P-wave (km/s) = 5.25743 7.12679 6.26226
#
# Compressibility (1/GPa) = 0.03086910
#
# Stress axis : x y z
#
# Youngs Moduli (GPa) = 53.38154 59.61225 164.15138
#
# Poissons Ratio (x) = 0.13924 -0.11202
# Poissons Ratio (y) = 0.12469 0.60935
# Poissons Ratio (z) = -0.03643 0.22129
#
# Static dielectric constant tensor:
#      x y z
#    x 3.923600 -0.219720 0.340860 
#    y -0.219720 4.181170 0.544080 
#    z 0.340860 0.544080 4.708500 
# 
# 
# High freq. dielectric constant tensor:
#      x y z
#    x 1.909160 -0.019190 0.002130 
#    y -0.019190 1.891340 0.020400 
#    z 0.002130 0.020400 1.969350 
# 
# From -- ./inp_files/159449.got.cif
#   From: 2010.06.25/outbox.cif.g09.slc.cpg/sg2_80_cif.got.tgz:159449.got - 2010.06.27 13:26:56.
