data_PCOD8033652
_publ_section_title
;
Structure prediction by ZEFSAII (Michael W. Deem and Ramdas Pophale) SiO2 
 PCOD8033652
Probable space group: P -1
;
_chemical_formula_sum "Si O2"
_cell_formula_units_Z 16
_cell_length_a 9.312327
_cell_length_b 15.794895
_cell_length_c 19.704241
_cell_angle_alpha 150.871819
_cell_angle_beta 145.506496
_cell_angle_gamma 39.348643
_cell_volume 783.831123
_symmetry_space_group_name_H-M "P -1"
_symmetry_group_IT_number 2
_symmetry_cell_setting 'triclinic'
loop_
_space_group_symop_operation_xyz
x,y,z
-x,-y,-z
loop_
_atom_site_type_symbol
_atom_site_label
_atom_site_fract_x
_atom_site_fract_y
_atom_site_fract_z
Si Si1 0.783577 0.585586 0.208305
Si Si2 0.670957 0.329043 0.187186
Si Si3 0.545981 0.623155 0.456403
Si Si4 0.012088 0.563628 0.418269
Si Si5 0.786922 0.263589 0.895467
Si Si6 0.994520 0.803172 0.342767
Si Si7 0.112700 0.298459 0.915735
Si Si8 0.883076 0.859210 0.687684
O O1 0.499171 0.633354 0.165665
O O2 0.990571 0.615001 0.366733
O O3 0.768990 0.724862 0.237410
O O4 0.866062 0.383829 0.071436
O O5 0.578783 0.475467 0.309205
O O6 0.820704 0.423726 0.255943
O O7 0.862338 0.165268 0.182790
O O8 0.424948 0.258291 0.012271
O O9 0.696394 0.537542 0.522131
O O10 0.242862 0.680402 0.388343
O O11 0.656867 0.793352 0.594478
O O12 0.938058 0.742304 0.558851
O O13 0.987808 0.242673 0.896818
O O14 0.786041 0.065157 0.780017
O O15 0.974291 0.803296 0.253708
O O16 0.000000 0.000000 0.500000
O O17 0.000000 0.500000 0.000000
#
# Coordination Sequence:
#
# PCOD8033652 Si02
#       8
#     2   2   2   2   2   2   2   2
#     4  11  24  40  58  89 125 156 192 252 299 346
#     4   9  18  38  65  89 116 154 206 237 290 359
#     4   9  18  40  62  86 121 158 195 241 295 355
#     4   9  20  37  65  88 117 158 195 244 299 347
#     4  11  24  39  60  90 123 154 201 244 295 355
#     4  12  26  41  60  90 123 153 202 250 294 350
#     4  12  22  41  65  84 116 169 195 238 301 357
#     4   9  20  38  63  92 115 154 202 247 285 353
#
# _framework density 20.412559000000002
#
# number of rings (size 3 to 8) (size 9 to 14) (size 15 to 20)
#    0.000    1.750    2.500    3.000    5.250    1.500 
#    2.250    1.250    0.000    0.000    0.000    0.000 
#    0.000    0.000    0.000    0.000    0.000    0.000 
#
# Total GULP energy -198321.164113 kJ/mol
# GULP energy per Si atom -12395.072757 kJ/mol
# Density = 2.036610 g / cm^3
# Si number density = 20.412559 Si / 1000 Ang^3
#
#
#
# Elastic Constant Matrix: (Units=GPa)
#
#
# Indices 1 2 3 4 5 6 
#
# 1 57.9081 21.4765 26.4797 -7.6444 -4.0966 0.2750
# 2 21.4765 83.9350 49.6837 -9.4868 -6.1212 5.6385
# 3 26.4797 49.6837 113.3768 -0.5862 -9.4693 5.0262
# 4 -7.6444 -9.4868 -0.5862 42.1173 4.3149 10.4880
# 5 -4.0966 -6.1212 -9.4693 4.3149 25.3508 -7.8190
# 6 0.2750 5.6385 5.0262 10.4880 -7.8190 25.3009
#
#
#
# Elastic Compliance Matrix: (Units=1/GPa)
#
#
# Indices 1 2 3 4 5 6 
#
# 1 0.020318 -0.002780 -0.003446 0.002883 0.000884 0.000161
# 2 -0.002780 0.017442 -0.006847 0.004613 -0.001040 -0.004730
# 3 -0.003446 -0.006847 0.012844 -0.002621 0.003387 0.001145
# 4 0.002883 0.004613 -0.002621 0.030223 -0.009477 -0.015996
# 5 0.000884 -0.001040 0.003387 -0.009477 0.047850 0.018266
# 6 0.000161 -0.004730 0.001145 -0.015996 0.018266 0.052625
#
#
# Mechanical properties :
#
#
# Convention : Reuss Voigt Hill
#
# Bulk Modulus (GPa) = 40.88609 50.05552 45.47081
# Shear Modulus (GPa) = 23.19114 29.05914 26.12514
#
# Velocity S-wave (km/s) = 3.37430 3.77714 3.58139
# Velocity P-wave (km/s) = 5.93755 6.60285 6.27902
#
# Compressibility (1/GPa) = 0.02445819
#
# Stress axis : x y z
#
# Youngs Moduli (GPa) = 49.21859 57.33373 77.85702
#
# Poissons Ratio (x) = 0.15937 0.26826
# Poissons Ratio (y) = 0.13681 0.53311
# Poissons Ratio (z) = 0.16959 0.39258
#
# Static dielectric constant tensor:
#      x y z
#    x 2.747410 0.129980 0.079950 
#    y 0.129980 3.550560 -0.075380 
#    z 0.079950 -0.075380 3.608680 
# 
# 
# High freq. dielectric constant tensor:
#      x y z
#    x 1.790490 -0.001660 0.002970 
#    y -0.001660 1.797730 -0.009310 
#    z 0.002970 -0.009310 1.794330 
# 
# From -- ./inp_files/259125.got.cif
#   From: 2010.06.25/outbox.cif.g09.slc.cpg/sg2_130_cif.got.tgz:259125.got - 2010.06.27 13:26:56.
