data_PCOD8033646
_publ_section_title
;
Structure prediction by ZEFSAII (Michael W. Deem and Ramdas Pophale) SiO2 
 PCOD8033646
Probable space group: P -1
;
_chemical_formula_sum "Si O2"
_cell_formula_units_Z 14
_cell_length_a 19.516671
_cell_length_b 9.726127
_cell_length_c 25.789893
_cell_angle_alpha 151.921719
_cell_angle_beta 160.785373
_cell_angle_gamma 37.692010
_cell_volume 730.133827
_symmetry_space_group_name_H-M "P -1"
_symmetry_group_IT_number 2
_symmetry_cell_setting 'triclinic'
loop_
_space_group_symop_operation_xyz
x,y,z
-x,-y,-z
loop_
_atom_site_type_symbol
_atom_site_label
_atom_site_fract_x
_atom_site_fract_y
_atom_site_fract_z
Si Si1 0.935840 0.753194 0.102535
Si Si2 0.637396 0.273529 0.654868
Si Si3 0.656664 0.708218 0.640093
Si Si4 0.122748 0.613912 0.955895
Si Si5 0.101312 0.346109 0.746965
Si Si6 0.239272 0.737874 0.886206
Si Si7 0.292931 0.118163 0.716351
O O1 0.899283 0.591045 0.077462
O O2 0.183988 0.821248 0.284588
O O3 0.883070 0.079138 0.177129
O O4 0.766750 0.556110 0.875387
O O5 0.463780 0.369761 0.526695
O O6 0.500000 0.000000 0.500000
O O7 0.500000 0.500000 0.500000
O O8 0.889058 0.644865 0.782544
O O9 0.700035 0.066250 0.802857
O O10 0.204457 0.446429 0.910361
O O11 0.106420 0.640361 0.812577
O O12 0.222871 0.127381 0.730371
O O13 0.853389 0.154875 0.512350
O O14 0.280339 0.438791 0.787668
O O15 0.474137 0.943163 0.139516
#
# Coordination Sequence:
#
# PCOD8033646 Si02
#       7
#     2   2   2   2   2   2   2
#     4  11  24  38  57  92 119 150 198 244 291 346
#     4  11  24  41  58  82 123 159 193 238 290 353
#     4  11  24  41  58  82 123 159 193 238 290 353
#     4  11  24  38  57  92 119 150 198 244 291 346
#     4   9  19  36  61  81 115 147 199 238 282 350
#     4   9  19  36  61  81 115 147 199 238 282 350
#     4   8  18  38  58  88 108 152 200 234 286 348
#
# _framework density 19.174568000000001
#
# number of rings (size 3 to 8) (size 9 to 14) (size 15 to 20)
#    0.857    1.143    2.857    0.000    6.000    0.000 
#    0.000    1.429    0.000    0.000    0.000    0.000 
#    0.000    0.000    0.000    0.000    0.000    0.000 
#
# Total GULP energy -173469.588123 kJ/mol
# GULP energy per Si atom -12390.684866 kJ/mol
# Density = 1.913093 g / cm^3
# Si number density = 19.174568 Si / 1000 Ang^3
#
#
#
# Elastic Constant Matrix: (Units=GPa)
#
#
# Indices 1 2 3 4 5 6 
#
# 1 69.2272 39.7971 31.1392 13.2340 -9.0576 24.0288
# 2 39.7971 107.2656 30.4337 -8.2344 4.9576 21.3256
# 3 31.1392 30.4337 107.1800 -1.5983 9.4307 15.0986
# 4 13.2340 -8.2344 -1.5983 21.0277 10.0740 1.7321
# 5 -9.0576 4.9576 9.4307 10.0740 33.7776 2.5827
# 6 24.0288 21.3256 15.0986 1.7321 2.5827 31.0833
#
#
#
# Elastic Compliance Matrix: (Units=1/GPa)
#
#
# Indices 1 2 3 4 5 6 
#
# 1 0.057834 -0.019806 -0.012343 -0.063488 0.042718 -0.025136
# 2 -0.019806 0.018753 0.002181 0.028085 -0.017144 0.001245
# 3 -0.012343 0.002181 0.013342 0.015263 -0.012038 0.001714
# 4 -0.063488 0.028085 0.015263 0.129387 -0.065575 0.020635
# 5 0.042718 -0.017144 -0.012038 -0.065575 0.067825 -0.017395
# 6 -0.025136 0.001245 0.001714 0.020635 -0.017395 0.050211
#
#
# Mechanical properties :
#
#
# Convention : Reuss Voigt Hill
#
# Bulk Modulus (GPa) = 33.34095 54.04588 43.69341
# Shear Modulus (GPa) = 12.27636 29.33123 20.80379
#
# Velocity S-wave (km/s) = 2.53304 3.91537 3.29746
# Velocity P-wave (km/s) = 5.09715 6.97765 6.11018
#
# Compressibility (1/GPa) = 0.02999315
#
# Stress axis : x y z
#
# Youngs Moduli (GPa) = 17.29090 53.32487 74.95010
#
# Poissons Ratio (x) = 1.05615 0.92513
# Poissons Ratio (y) = 0.34246 -0.16349
# Poissons Ratio (z) = 0.21343 -0.11632
#
# Static dielectric constant tensor:
#      x y z
#    x 3.492590 0.286840 0.010120 
#    y 0.286840 3.534410 -0.104350 
#    z 0.010120 -0.104350 3.785380 
# 
# 
# High freq. dielectric constant tensor:
#      x y z
#    x 1.727080 0.002440 0.013900 
#    y 0.002440 1.724510 0.005540 
#    z 0.013900 0.005540 1.764250 
# 
# From -- ./inp_files/620641.got.cif
#   From: 2010.06.25/outbox.cif.g09.slc.cpg/sg2_311_cif.got.tgz:620641.got - 2010.06.27 13:26:56.
