data_PCOD8033662
_publ_section_title
;
Structure prediction by ZEFSAII (Michael W. Deem and Ramdas Pophale) SiO2 
 PCOD8033662
Probable space group: P -1
;
_chemical_formula_sum "Si O2"
_cell_formula_units_Z 14
_cell_length_a 9.522381
_cell_length_b 10.761045
_cell_length_c 13.160794
_cell_angle_alpha 99.181190
_cell_angle_beta 145.811694
_cell_angle_gamma 95.879903
_cell_volume 678.000583
_symmetry_space_group_name_H-M "P -1"
_symmetry_group_IT_number 2
_symmetry_cell_setting 'triclinic'
loop_
_space_group_symop_operation_xyz
x,y,z
-x,-y,-z
loop_
_atom_site_type_symbol
_atom_site_label
_atom_site_fract_x
_atom_site_fract_y
_atom_site_fract_z
Si Si1 0.931934 0.937458 0.260186
Si Si2 0.466503 0.670021 0.571345
Si Si3 0.042523 0.062922 0.144518
Si Si4 0.158177 0.795444 0.526027
Si Si5 0.520243 0.093717 0.869989
Si Si6 0.709008 0.763856 0.397563
Si Si7 0.728305 0.474726 0.767158
O O1 0.620350 0.910049 0.104373
O O2 0.010235 0.822445 0.342008
O O3 0.972748 0.932752 0.162719
O O4 0.137542 0.092635 0.433779
O O5 0.648477 0.818894 0.648021
O O6 0.287955 0.690093 0.558875
O O7 0.670104 0.611131 0.737764
O O8 0.259129 0.574741 0.347580
O O9 0.844604 0.135190 0.073189
O O10 0.000000 0.000000 0.000000
O O11 0.932515 0.723396 0.469020
O O12 0.385001 0.942906 0.717712
O O13 0.488415 0.212454 0.799840
O O14 0.538149 0.640795 0.354171
O O15 0.000000 0.500000 0.000000
#
# Coordination Sequence:
#
# PCOD8033662 Si02
#       7
#     2   2   2   2   2   2   2
#     4   9  19  34  57  84 119 155 185 235 295 353
#     4  11  24  40  58  90 121 152 200 246 287 346
#     4  12  21  33  56  91 122 151 189 240 298 347
#     4   9  19  37  58  87 116 143 195 245 290 349
#     4   9  18  34  57  87 118 150 188 233 296 360
#     4   9  18  38  62  79 110 160 194 235 294 344
#     4  11  24  43  63  79 116 166 202 239 288 349
#
# _framework density 20.648949999999999
#
# number of rings (size 3 to 8) (size 9 to 14) (size 15 to 20)
#    0.000    2.000    2.857    3.000    0.000    3.429 
#    0.000    0.714    0.000    0.000    0.000    0.000 
#    0.000    0.000    0.000    0.000    0.000    0.000 
#
# Total GULP energy -173505.430337 kJ/mol
# GULP energy per Si atom -12393.245024 kJ/mol
# Density = 2.060195 g / cm^3
# Si number density = 20.648950 Si / 1000 Ang^3
#
#
#
# Elastic Constant Matrix: (Units=GPa)
#
#
# Indices 1 2 3 4 5 6 
#
# 1 112.5686 32.3302 18.3125 -1.0312 -2.5063 -3.6958
# 2 32.3302 57.0951 6.0277 -5.3491 -5.1483 -3.9978
# 3 18.3125 6.0277 65.4695 -13.3314 -0.7293 -9.5301
# 4 -1.0312 -5.3491 -13.3314 23.3362 2.9056 0.5983
# 5 -2.5063 -5.1483 -0.7293 2.9056 31.8257 -4.7238
# 6 -3.6958 -3.9978 -9.5301 0.5983 -4.7238 36.7587
#
#
#
# Elastic Compliance Matrix: (Units=1/GPa)
#
#
# Indices 1 2 3 4 5 6 
#
# 1 0.011160 -0.006267 -0.003150 -0.002733 -0.000007 -0.000332
# 2 -0.006267 0.021838 0.001121 0.004941 0.002960 0.002336
# 3 -0.003150 0.001121 0.018912 0.010799 0.000055 0.004540
# 4 -0.002733 0.004941 0.010799 0.050424 -0.003506 0.001791
# 5 -0.000007 0.002960 0.000055 -0.003506 0.032907 0.004621
# 6 -0.000332 0.002336 0.004540 0.001791 0.004621 0.029167
#
#
# Mechanical properties :
#
#
# Convention : Reuss Voigt Hill
#
# Bulk Modulus (GPa) = 28.31216 38.71934 33.51575
# Shear Modulus (GPa) = 25.93762 30.28161 28.10962
#
# Velocity S-wave (km/s) = 3.54803 3.83364 3.69360
# Velocity P-wave (km/s) = 5.52500 6.19578 5.86998
#
# Compressibility (1/GPa) = 0.03532052
#
# Stress axis : x y z
#
# Youngs Moduli (GPa) = 89.60968 45.79146 52.87542
#
# Poissons Ratio (x) = 0.28696 0.16653
# Poissons Ratio (y) = 0.56154 -0.05929
# Poissons Ratio (z) = 0.28223 -0.05135
#
# Static dielectric constant tensor:
#      x y z
#    x 4.002550 0.185410 0.023230 
#    y 0.185410 3.699530 -0.266600 
#    z 0.023230 -0.266600 3.656800 
# 
# 
# High freq. dielectric constant tensor:
#      x y z
#    x 1.822380 0.011000 0.004610 
#    y 0.011000 1.786150 -0.019300 
#    z 0.004610 -0.019300 1.790640 
# 
# From -- ./inp_files/173103.got.cif
#   From: 2010.06.25/outbox.cif.g09.slc.cpg/sg2_87_cif.got.tgz:173103.got - 2010.06.27 13:26:56.
