data_PCOD8033707
_publ_section_title
;
Structure prediction by ZEFSAII (Michael W. Deem and Ramdas Pophale) SiO2 
 PCOD8033707
Probable space group: P -1
;
_chemical_formula_sum "Si O2"
_cell_formula_units_Z 12
_cell_length_a 14.272326
_cell_length_b 6.872856
_cell_length_c 7.100788
_cell_angle_alpha 90.001195
_cell_angle_beta 60.164603
_cell_angle_gamma 92.692202
_cell_volume 603.322917
_symmetry_space_group_name_H-M "P -1"
_symmetry_group_IT_number 2
_symmetry_cell_setting 'triclinic'
loop_
_space_group_symop_operation_xyz
x,y,z
-x,-y,-z
loop_
_atom_site_type_symbol
_atom_site_label
_atom_site_fract_x
_atom_site_fract_y
_atom_site_fract_z
Si Si1 0.760728 0.518785 0.244283
Si Si2 0.134237 0.647249 0.219983
Si Si3 0.109578 0.317314 0.546826
Si Si4 0.739275 0.981263 0.765718
Si Si5 0.390414 0.182636 0.766027
Si Si6 0.634234 0.147282 0.511531
O O1 0.835559 0.654677 0.304834
O O2 0.656430 0.632461 0.289229
O O3 0.721870 0.323343 0.391467
O O4 0.832709 0.475951 0.992234
O O5 0.131296 0.513284 0.406604
O O6 0.017588 0.730926 0.297742
O O7 0.221894 0.823276 0.164783
O O8 0.156404 0.132384 0.397900
O O9 0.667317 0.024050 0.657569
O O10 0.664436 0.845367 0.975914
O O11 0.517577 0.230911 0.667121
O O12 0.368712 0.986656 0.669227
#
# Coordination Sequence:
#
# PCOD8033707 Si02
#       6
#     2   2   2   2   2   2
#     4  12  22  44  64  94 124 164 206 252 312 362
#     4  11  24  41  64  93 127 163 205 255 308 367
#     4  11  24  41  64  93 127 163 205 255 308 367
#     4  12  22  44  64  94 124 164 206 252 312 362
#     4  11  24  41  64  93 127 163 205 255 308 367
#     4  11  24  41  64  93 127 163 205 255 308 367
#
# _framework density 19.889848000000001
#
# number of rings (size 3 to 8) (size 9 to 14) (size 15 to 20)
#    0.000    0.667    6.667    2.000    0.000    0.000 
#    0.000    3.333    0.000    0.000    0.000    0.000 
#    0.000    0.000    0.000    0.000    0.000    0.000 
#
# Total GULP energy -148900.209306 kJ/mol
# GULP energy per Si atom -12408.350775 kJ/mol
# Density = 1.984458 g / cm^3
# Si number density = 19.889848 Si / 1000 Ang^3
#
#
#
# Elastic Constant Matrix: (Units=GPa)
#
#
# Indices 1 2 3 4 5 6 
#
# 1 99.4104 9.0412 39.8268 1.7362 0.2888 -22.5720
# 2 9.0412 47.7732 9.2445 5.2212 0.0979 -12.8764
# 3 39.8268 9.2445 74.0943 11.0780 -12.5284 -9.1019
# 4 1.7362 5.2212 11.0780 32.6013 -8.2085 -2.8288
# 5 0.2888 0.0979 -12.5284 -8.2085 23.8769 1.3623
# 6 -22.5720 -12.8764 -9.1019 -2.8288 1.3623 38.4587
#
#
#
# Elastic Compliance Matrix: (Units=1/GPa)
#
#
# Indices 1 2 3 4 5 6 
#
# 1 0.014910 0.000570 -0.008144 0.001409 -0.004387 0.007273
# 2 0.000570 0.023662 -0.002345 -0.003077 -0.002825 0.007575
# 3 -0.008144 -0.002345 0.020160 -0.003779 0.009467 -0.001408
# 4 0.001409 -0.003077 -0.003779 0.034985 0.009976 0.001122
# 5 -0.004387 -0.002825 0.009467 0.009976 0.050476 -0.002334
# 6 0.007273 0.007575 -0.001408 0.001122 -0.002334 0.032639
#
#
# Mechanical properties :
#
#
# Convention : Reuss Voigt Hill
#
# Bulk Modulus (GPa) = 25.71266 37.50031 31.60649
# Shear Modulus (GPa) = 23.85095 29.86509 26.85802
#
# Velocity S-wave (km/s) = 3.46663 3.87915 3.67868
# Velocity P-wave (km/s) = 5.38321 6.24169 5.82828
#
# Compressibility (1/GPa) = 0.03889134
#
# Stress axis : x y z
#
# Youngs Moduli (GPa) = 67.06953 42.26166 49.60432
#
# Poissons Ratio (x) = -0.02407 0.40399
# Poissons Ratio (y) = -0.03820 0.11634
# Poissons Ratio (z) = 0.54623 0.09912
#
# Static dielectric constant tensor:
#      x y z
#    x 3.646090 -0.157770 0.001230 
#    y -0.157770 3.472190 0.063920 
#    z 0.001230 0.063920 3.648630 
# 
# 
# High freq. dielectric constant tensor:
#      x y z
#    x 1.784580 -0.009520 0.001040 
#    y -0.009520 1.775670 0.003850 
#    z 0.001040 0.003850 1.786730 
# 
# From -- ./inp_files/4313.got.cif
#   From: 2010.06.25/outbox.cif.g09.slc.cpg/sg2_3_cif.got.tgz:4313.got - 2010.06.27 13:26:56.
