data_PCOD8033576
_publ_section_title
;
Structure prediction by ZEFSAII (Michael W. Deem and Ramdas Pophale) SiO2 
 PCOD8033576
Probable space group: P -1
;
_chemical_formula_sum "Si O2"
_cell_formula_units_Z 8
_cell_length_a 6.090344
_cell_length_b 7.634148
_cell_length_c 13.330252
_cell_angle_alpha 116.442787
_cell_angle_beta 54.513553
_cell_angle_gamma 139.778556
_cell_volume 325.879310
_symmetry_space_group_name_H-M "P -1"
_symmetry_group_IT_number 2
_symmetry_cell_setting 'triclinic'
loop_
_space_group_symop_operation_xyz
x,y,z
-x,-y,-z
loop_
_atom_site_type_symbol
_atom_site_label
_atom_site_fract_x
_atom_site_fract_y
_atom_site_fract_z
Si Si1 0.604815 0.875340 0.194164
Si Si2 0.549723 0.516008 0.255151
Si Si3 0.464960 0.205132 0.031529
Si Si4 0.148743 0.007551 0.356366
O O1 0.407330 0.646366 0.275433
O O2 0.520928 0.062531 0.283790
O O3 0.439915 0.717389 0.090610
O O4 0.047246 0.070545 0.131402
O O5 0.721090 0.467382 0.105534
O O6 0.217791 0.232778 0.326873
O O7 0.859584 0.715196 0.306481
O O8 0.500000 0.000000 0.000000
O O9 0.000000 0.000000 0.500000
#
# Coordination Sequence:
#
# PCOD8033576 Si02
#       4
#     2   2   2   2
#     4  11  25  44  77 104 146 185 231 288 368 408
#     4  12  25  49  71 108 141 186 238 293 349 420
#     4  11  23  47  73 110 145 180 233 293 357 428
#     4  12  29  49  72 103 144 189 243 290 343 419
#
# _framework density 24.548966
#
# number of rings (size 3 to 8) (size 9 to 14) (size 15 to 20)
#    0.000    0.500    5.000    1.500    3.500    6.000 
#    0.000    0.000    0.000    0.000    0.000    0.000 
#    0.000    0.000    0.000    0.000    0.000    0.000 
#
# Total GULP energy -99204.692201 kJ/mol
# GULP energy per Si atom -12400.586525 kJ/mol
# Density = 2.449309 g / cm^3
# Si number density = 24.548966 Si / 1000 Ang^3
#
#
#
# Elastic Constant Matrix: (Units=GPa)
#
#
# Indices 1 2 3 4 5 6 
#
# 1 121.7355 28.3374 76.7261 -1.3882 3.2035 -24.2378
# 2 28.3374 90.4757 50.6848 7.3645 5.5767 -26.0354
# 3 76.7261 50.6848 180.2001 -2.4363 8.1018 -3.8410
# 4 -1.3882 7.3645 -2.4363 43.8286 -0.2951 17.2404
# 5 3.2035 5.5767 8.1018 -0.2951 31.2364 -7.0194
# 6 -24.2378 -26.0354 -3.8410 17.2404 -7.0194 40.6123
#
#
#
# Elastic Compliance Matrix: (Units=1/GPa)
#
#
# Indices 1 2 3 4 5 6 
#
# 1 0.014198 0.003398 -0.006918 -0.005516 0.002551 0.012780
# 2 0.003398 0.020358 -0.007005 -0.011409 0.002137 0.019629
# 3 -0.006918 -0.007005 0.010455 0.005677 -0.003074 -0.010572
# 4 -0.005516 -0.011409 0.005677 0.034932 -0.004302 -0.025642
# 5 0.002551 0.002137 -0.003074 -0.004302 0.034461 0.010385
# 6 0.012780 0.019629 -0.010572 -0.025642 0.010385 0.056514
#
#
# Mechanical properties :
#
#
# Convention : Reuss Voigt Hill
#
# Bulk Modulus (GPa) = 41.73391 78.21198 59.97295
# Shear Modulus (GPa) = 25.00565 38.91300 31.95933
#
# Velocity S-wave (km/s) = 3.19502 3.98567 3.61204
# Velocity P-wave (km/s) = 5.53607 7.28763 6.47138
#
# Compressibility (1/GPa) = 0.02396133
#
# Stress axis : x y z
#
# Youngs Moduli (GPa) = 70.43097 49.12054 95.64991
#
# Poissons Ratio (x) = -0.16691 0.66170
# Poissons Ratio (y) = -0.23932 0.67001
# Poissons Ratio (z) = 0.48724 0.34408
#
# Static dielectric constant tensor:
#      x y z
#    x 4.835690 -0.123420 0.258450 
#    y -0.123420 4.300790 0.194230 
#    z 0.258450 0.194230 4.643180 
# 
# 
# High freq. dielectric constant tensor:
#      x y z
#    x 1.989700 -0.014840 0.019620 
#    y -0.014840 1.968500 0.014850 
#    z 0.019620 0.014850 1.973300 
# 
# From -- ./inp_files/1325.got.cif
#   From: 2010.06.25/outbox.cif.g09.slc.cpg/sg2_1_cif.got.tgz:1325.got - 2010.06.27 13:26:56.
