data_PCOD8033942
_publ_section_title
;
Structure prediction by ZEFSAII (Michael W. Deem and Ramdas Pophale) SiO2 
 PCOD8033942
Probable space group: P -1
;
_chemical_formula_sum "Si O2"
_cell_formula_units_Z 16
_cell_length_a 12.266495
_cell_length_b 6.634085
_cell_length_c 11.720759
_cell_angle_alpha 111.058599
_cell_angle_beta 112.962249
_cell_angle_gamma 61.779517
_cell_volume 755.648651
_symmetry_space_group_name_H-M "P -1"
_symmetry_group_IT_number 2
_symmetry_cell_setting 'triclinic'
loop_
_space_group_symop_operation_xyz
x,y,z
-x,-y,-z
loop_
_atom_site_type_symbol
_atom_site_label
_atom_site_fract_x
_atom_site_fract_y
_atom_site_fract_z
Si Si1 0.469483 0.765411 0.574161
Si Si2 0.910698 0.928570 0.299470
Si Si3 0.700661 0.854564 0.585136
Si Si4 0.913017 0.386934 0.503007
Si Si5 0.441374 0.772510 0.038505
Si Si6 0.199567 0.939024 0.135977
Si Si7 0.371156 0.979142 0.805337
Si Si8 0.996085 0.250274 0.944078
O O1 0.500000 0.500000 0.500000
O O2 0.587532 0.839763 0.613058
O O3 0.440082 0.778257 0.699501
O O4 0.347995 0.951718 0.495385
O O5 0.945620 0.893503 0.174777
O O6 0.022518 0.736468 0.378249
O O7 0.890724 0.194462 0.375556
O O8 0.778738 0.891236 0.260372
O O9 0.776802 0.595977 0.513490
O O10 0.790919 0.937963 0.717144
O O11 0.000000 0.500000 0.500000
O O12 0.332871 0.852512 0.106602
O O13 0.559544 0.839981 0.135720
O O14 0.500000 0.500000 0.000000
O O15 0.380986 0.873079 0.913117
O O16 0.082421 0.126287 0.060309
O O17 0.152001 0.726949 0.098635
O O18 0.000000 0.500000 0.000000
#
# Coordination Sequence:
#
# PCOD8033942 Si02
#       8
#     2   2   2   2   2   2   2   2
#     4  11  25  42  69  99 134 180 218 277 332 398
#     4  11  24  43  66 104 133 175 229 274 337 399
#     4  11  24  44  66 100 135 173 227 274 336 397
#     4  11  24  43  69  96 136 179 221 281 335 398
#     4  11  26  43  70  96 134 182 218 279 333 397
#     4  11  24  46  65 101 134 169 230 270 336 400
#     4  11  24  45  67 100 136 171 231 269 334 402
#     4  11  25  42  70  98 133 178 218 280 333 396
#
# _framework density 21.173862
#
# number of rings (size 3 to 8) (size 9 to 14) (size 15 to 20)
#    0.000    1.000    2.500    3.000    3.500    7.000 
#    0.000    0.000    0.000    0.000    0.000    0.000 
#    0.000    0.000    0.000    0.000    0.000    0.000 
#
# Total GULP energy -198435.786098 kJ/mol
# GULP energy per Si atom -12402.236631 kJ/mol
# Density = 2.112567 g / cm^3
# Si number density = 21.173862 Si / 1000 Ang^3
#
#
#
# Elastic Constant Matrix: (Units=GPa)
#
#
# Indices 1 2 3 4 5 6 
#
# 1 123.0467 44.2756 48.1175 8.4090 7.0289 7.6512
# 2 44.2756 130.1651 52.5009 24.4343 11.6457 -1.8986
# 3 48.1175 52.5009 132.3978 19.7868 8.2673 0.6246
# 4 8.4090 24.4343 19.7868 24.2824 -0.6580 3.3755
# 5 7.0289 11.6457 8.2673 -0.6580 38.3834 4.3869
# 6 7.6512 -1.8986 0.6246 3.3755 4.3869 36.6488
#
#
#
# Elastic Compliance Matrix: (Units=1/GPa)
#
#
# Indices 1 2 3 4 5 6 
#
# 1 0.010265 -0.002684 -0.002925 0.001857 -0.000131 -0.002388
# 2 -0.002684 0.011467 -0.001991 -0.009404 -0.002996 0.002413
# 3 -0.002925 -0.001991 0.010312 -0.005561 -0.001291 0.000998
# 4 0.001857 -0.009404 -0.005561 0.055590 0.005412 -0.006548
# 5 -0.000131 -0.002996 -0.001291 0.005412 0.027806 -0.003933
# 6 -0.002388 0.002413 0.000998 -0.006548 -0.003933 0.028966
#
#
# Mechanical properties :
#
#
# Convention : Reuss Voigt Hill
#
# Bulk Modulus (GPa) = 59.36041 75.04416 67.20229
# Shear Modulus (GPa) = 30.26262 35.91065 33.08663
#
# Velocity S-wave (km/s) = 3.78464 4.12271 3.95728
# Velocity P-wave (km/s) = 6.86976 7.62765 7.25860
#
# Compressibility (1/GPa) = 0.01684624
#
# Stress axis : x y z
#
# Youngs Moduli (GPa) = 97.41415 87.20807 96.97224
#
# Poissons Ratio (x) = 0.23406 0.28361
# Poissons Ratio (y) = 0.26145 0.19303
# Poissons Ratio (z) = 0.28490 0.17359
#
# Static dielectric constant tensor:
#      x y z
#    x 3.215740 0.094130 0.028210 
#    y 0.094130 3.993210 -0.072100 
#    z 0.028210 -0.072100 4.138130 
# 
# 
# High freq. dielectric constant tensor:
#      x y z
#    x 1.848420 0.006870 0.002750 
#    y 0.006870 1.826080 0.003320 
#    z 0.002750 0.003320 1.848410 
# 
# From -- ./inp_files/410476.got.cif
#   From: 2010.06.25/outbox.cif.g09.slc.cpg/sg2_206_cif.got.tgz:410476.got - 2010.06.27 13:26:56.
