data_PCOD8034096
_publ_section_title
;
Structure prediction by ZEFSAII (Michael W. Deem and Ramdas Pophale) SiO2 
 PCOD8034096
Probable space group: P -1
;
_chemical_formula_sum "Si O2"
_cell_formula_units_Z 16
_cell_length_a 23.167681
_cell_length_b 6.575865
_cell_length_c 5.181078
_cell_angle_alpha 73.486155
_cell_angle_beta 118.949482
_cell_angle_gamma 102.059357
_cell_volume 659.807029
_symmetry_space_group_name_H-M "P -1"
_symmetry_group_IT_number 2
_symmetry_cell_setting 'triclinic'
loop_
_space_group_symop_operation_xyz
x,y,z
-x,-y,-z
loop_
_atom_site_type_symbol
_atom_site_label
_atom_site_fract_x
_atom_site_fract_y
_atom_site_fract_z
Si Si1 0.145714 0.944622 0.713407
Si Si2 0.671748 0.346937 0.216312
Si Si3 0.438183 0.997827 0.055242
Si Si4 0.657431 0.631548 0.573873
Si Si5 0.466354 0.272749 0.447893
Si Si6 0.965655 0.822646 0.812405
Si Si7 0.768182 0.013598 0.613702
Si Si8 0.058358 0.565171 0.795020
O O1 0.122051 0.691525 0.753297
O O2 0.081029 0.079748 0.537777
O O3 0.183087 0.009121 0.509156
O O4 0.192932 0.005252 0.030794
O O5 0.648980 0.465032 0.380539
O O6 0.741748 0.249507 0.451603
O O7 0.626957 0.126917 0.153248
O O8 0.671841 0.505025 0.914117
O O9 0.467499 0.849923 0.391750
O O10 0.427152 0.220734 0.107694
O O11 0.500000 0.000000 0.000000
O O12 0.589857 0.760085 0.427708
O O13 0.714124 0.812607 0.562437
O O14 0.500000 0.500000 0.500000
O O15 0.029761 0.724547 0.877060
O O16 0.919965 0.644398 0.938717
O O17 0.000000 0.000000 0.000000
O O18 0.000000 0.500000 0.500000
#
# Coordination Sequence:
#
# PCOD8034096 Si02
#       8
#     2   2   2   2   2   2   2   2
#     4  12  27  49  77 109 150 202 250 304 365 454
#     4  12  28  49  76 105 149 198 255 313 373 444
#     4  11  25  41  73 108 148 188 239 319 385 447
#     4  12  28  49  77 105 147 200 254 313 381 448
#     4  11  24  43  72 111 142 186 248 310 386 453
#     4  11  24  46  75 114 153 193 239 305 379 438
#     4  12  30  50  72 106 153 201 258 307 363 441
#     4  11  25  44  77 113 152 187 240 308 374 435
#
# _framework density 24.249511999999999
#
# number of rings (size 3 to 8) (size 9 to 14) (size 15 to 20)
#    0.000    0.500    2.500    4.125   12.250    4.000 
#    0.000    0.000    0.000    0.000    0.000    0.000 
#    0.000    0.000    0.000    0.000    0.000    0.000 
#
# Total GULP energy -198223.527598 kJ/mol
# GULP energy per Si atom -12388.970475 kJ/mol
# Density = 2.419432 g / cm^3
# Si number density = 24.249512 Si / 1000 Ang^3
#
#
#
# Elastic Constant Matrix: (Units=GPa)
#
#
# Indices 1 2 3 4 5 6 
#
# 1 114.5359 58.2095 56.3762 15.4676 -21.7483 24.8667
# 2 58.2095 151.3734 65.9539 26.5485 -10.6699 14.7212
# 3 56.3762 65.9539 166.0953 15.4234 -16.2030 5.4648
# 4 15.4676 26.5485 15.4234 59.0316 -8.5575 -0.6021
# 5 -21.7483 -10.6699 -16.2030 -8.5575 51.0956 -6.5048
# 6 24.8667 14.7212 5.4648 -0.6021 -6.5048 59.9868
#
#
#
# Elastic Compliance Matrix: (Units=1/GPa)
#
#
# Indices 1 2 3 4 5 6 
#
# 1 0.013352 -0.003138 -0.002725 -0.000913 0.003483 -0.004148
# 2 -0.003138 0.009423 -0.002451 -0.002892 -0.000744 -0.000898
# 3 -0.002725 -0.002451 0.007989 -0.000117 0.000983 0.001109
# 4 -0.000913 -0.002892 -0.000117 0.018863 0.002326 0.001540
# 5 0.003483 -0.000744 0.000983 0.002326 0.021731 0.001029
# 6 -0.004148 -0.000898 0.001109 0.001540 0.001029 0.018636
#
#
# Mechanical properties :
#
#
# Convention : Reuss Voigt Hill
#
# Bulk Modulus (GPa) = 70.74127 88.12041 79.43084
# Shear Modulus (GPa) = 44.90953 50.78713 47.84833
#
# Velocity S-wave (km/s) = 4.30813 4.58138 4.44685
# Velocity P-wave (km/s) = 7.34726 8.02517 7.69368
#
# Compressibility (1/GPa) = 0.01413602
#
# Stress axis : x y z
#
# Youngs Moduli (GPa) = 74.89395 106.12296 125.17051
#
# Poissons Ratio (x) = 0.33305 0.34107
# Poissons Ratio (y) = 0.23504 0.30679
# Poissons Ratio (z) = 0.20408 0.26011
#
# Static dielectric constant tensor:
#      x y z
#    x 3.807750 0.713110 0.080140 
#    y 0.713110 4.126350 -0.352970 
#    z 0.080140 -0.352970 4.250090 
# 
# 
# High freq. dielectric constant tensor:
#      x y z
#    x 1.958860 0.001420 -0.007260 
#    y 0.001420 1.986580 -0.005080 
#    z -0.007260 -0.005080 1.984220 
# 
# From -- ./inp_files/121600.got.cif
#   From: 2010.06.25/outbox.cif.g09.slc.cpg/sg2_61_cif.got.tgz:121600.got - 2010.06.27 13:26:56.
