data_PCOD8034052
_publ_section_title
;
Structure prediction by ZEFSAII (Michael W. Deem and Ramdas Pophale) SiO2 
 PCOD8034052
Probable space group: P -1
;
_chemical_formula_sum "Si O2"
_cell_formula_units_Z 14
_cell_length_a 12.693667
_cell_length_b 12.166700
_cell_length_c 10.897518
_cell_angle_alpha 87.983272
_cell_angle_beta 64.489665
_cell_angle_gamma 145.254638
_cell_volume 566.240636
_symmetry_space_group_name_H-M "P -1"
_symmetry_group_IT_number 2
_symmetry_cell_setting 'triclinic'
loop_
_space_group_symop_operation_xyz
x,y,z
-x,-y,-z
loop_
_atom_site_type_symbol
_atom_site_label
_atom_site_fract_x
_atom_site_fract_y
_atom_site_fract_z
Si Si1 0.640543 0.459889 0.184251
Si Si2 0.394374 0.353422 0.934100
Si Si3 0.522853 0.076138 0.845363
Si Si4 0.921291 0.497657 0.919146
Si Si5 0.983736 0.193885 0.511910
Si Si6 0.941624 0.154523 0.820651
Si Si7 0.193668 0.735387 0.529148
O O1 0.743842 0.671866 0.082493
O O2 0.791017 0.504091 0.012304
O O3 0.762653 0.546922 0.257962
O O4 0.264953 0.120999 0.378948
O O5 0.679716 0.542833 0.717171
O O6 0.500000 0.500000 0.000000
O O7 0.121202 0.028829 0.116110
O O8 0.507787 0.057094 0.700816
O O9 0.891214 0.394221 0.672987
O O10 0.359333 0.821714 0.991833
O O11 0.363138 0.047571 0.971142
O O12 0.000000 0.500000 0.000000
O O13 0.216473 0.762265 0.665989
O O14 0.016434 0.244346 0.638707
O O15 0.852132 0.184234 0.508143
#
# Coordination Sequence:
#
# PCOD8034052 Si02
#       7
#     2   2   2   2   2   2   2
#     4  12  26  48  74 109 145 191 242 301 361 424
#     4  12  26  52  75 103 148 192 245 301 360 430
#     4  11  24  43  71 102 142 188 244 291 352 438
#     4  12  25  46  68 102 149 183 234 302 353 428
#     4  12  26  50  75 108 146 192 242 301 362 433
#     4  12  27  48  75 107 148 192 245 298 361 429
#     4  11  25  42  73 105 141 198 236 291 368 424
#
# _framework density 24.724471000000001
#
# number of rings (size 3 to 8) (size 9 to 14) (size 15 to 20)
#    0.000    0.286    5.714    3.000    4.000    1.143 
#    7.714    0.000    0.000    0.000    0.000    0.000 
#    0.000    0.000    0.000    0.000    0.000    0.000 
#
# Total GULP energy -173596.920920 kJ/mol
# GULP energy per Si atom -12399.780066 kJ/mol
# Density = 2.466820 g / cm^3
# Si number density = 24.724471 Si / 1000 Ang^3
#
#
#
# Elastic Constant Matrix: (Units=GPa)
#
#
# Indices 1 2 3 4 5 6 
#
# 1 90.7795 9.1275 21.7017 18.9410 22.2688 -12.8897
# 2 9.1275 94.4808 27.2642 20.9662 13.2583 -5.9171
# 3 21.7017 27.2642 131.6977 33.8137 18.1500 2.3802
# 4 18.9410 20.9662 33.8137 41.0069 3.0224 7.6700
# 5 22.2688 13.2583 18.1500 3.0224 43.9381 4.2118
# 6 -12.8897 -5.9171 2.3802 7.6700 4.2118 40.8330
#
#
#
# Elastic Compliance Matrix: (Units=1/GPa)
#
#
# Indices 1 2 3 4 5 6 
#
# 1 0.016155 0.002296 0.000533 -0.009934 -0.009205 0.008217
# 2 0.002296 0.013240 -0.000497 -0.007934 -0.004855 0.004664
# 3 0.000533 -0.000497 0.010299 -0.008474 -0.003935 0.001494
# 4 -0.009934 -0.007934 -0.008474 0.041688 0.009267 -0.012578
# 5 -0.009205 -0.004855 -0.003935 0.009267 0.030672 -0.008284
# 6 0.008217 0.004664 0.001494 -0.012578 -0.008284 0.030890
#
#
# Mechanical properties :
#
#
# Convention : Reuss Voigt Hill
#
# Bulk Modulus (GPa) = 22.54377 48.12720 35.33549
# Shear Modulus (GPa) = 32.66578 42.41326 37.53952
#
# Velocity S-wave (km/s) = 3.63876 4.14628 3.90078
# Velocity P-wave (km/s) = 5.17609 6.51382 5.88310
#
# Compressibility (1/GPa) = 0.04435815
#
# Stress axis : x y z
#
# Youngs Moduli (GPa) = 61.90104 75.52941 97.09451
#
# Poissons Ratio (x) = -0.17343 -0.05178
# Poissons Ratio (y) = -0.14214 0.04829
# Poissons Ratio (z) = -0.03301 0.03757
#
# Static dielectric constant tensor:
#      x y z
#    x 4.410430 -0.075770 0.284510 
#    y -0.075770 5.229970 0.209660 
#    z 0.284510 0.209660 4.927740 
# 
# 
# High freq. dielectric constant tensor:
#      x y z
#    x 1.974170 0.001080 0.018380 
#    y 0.001080 2.010690 0.011890 
#    z 0.018380 0.011890 1.998830 
# 
# From -- ./inp_files/46238.got.cif
#   From: 2010.06.25/outbox.cif.g09.slc.cpg/sg2_24_cif.got.tgz:46238.got - 2010.06.27 13:26:56.
