data_PCOD8034077
_publ_section_title
;
Structure prediction by ZEFSAII (Michael W. Deem and Ramdas Pophale) SiO2 
 PCOD8034077
Probable space group: P -1
;
_chemical_formula_sum "Si O2"
_cell_formula_units_Z 14
_cell_length_a 11.845050
_cell_length_b 10.731138
_cell_length_c 7.049348
_cell_angle_alpha 81.576031
_cell_angle_beta 55.715280
_cell_angle_gamma 109.204006
_cell_volume 632.803241
_symmetry_space_group_name_H-M "P -1"
_symmetry_group_IT_number 2
_symmetry_cell_setting 'triclinic'
loop_
_space_group_symop_operation_xyz
x,y,z
-x,-y,-z
loop_
_atom_site_type_symbol
_atom_site_label
_atom_site_fract_x
_atom_site_fract_y
_atom_site_fract_z
Si Si1 0.596238 0.731962 0.291244
Si Si2 0.193025 0.519672 0.204411
Si Si3 0.002243 0.656200 0.237787
Si Si4 0.540535 0.214060 0.910825
Si Si5 0.719691 0.521661 0.251294
Si Si6 0.400256 0.976933 0.405872
Si Si7 0.856799 0.034594 0.119469
O O1 0.594091 0.757083 0.060500
O O2 0.664925 0.636109 0.332730
O O3 0.410031 0.646600 0.546021
O O4 0.695187 0.893185 0.242886
O O5 0.065476 0.382876 0.476201
O O6 0.315119 0.627076 0.218144
O O7 0.129269 0.604140 0.114886
O O8 0.260303 0.456159 0.998966
O O9 0.879349 0.573208 0.204341
O O10 0.085815 0.830878 0.108309
O O11 0.594446 0.138322 0.716969
O O12 0.479134 0.129434 0.184538
O O13 0.212966 0.925469 0.635786
O O14 0.500000 0.000000 0.500000
O O15 0.000000 0.000000 0.000000
#
# Coordination Sequence:
#
# PCOD8034077 Si02
#       7
#     2   2   2   2   2   2   2
#     4  11  24  45  69 102 136 181 239 282 346 425
#     4  11  25  43  71 101 137 182 236 288 345 413
#     4  11  25  44  67 102 141 177 234 285 350 421
#     4  11  24  43  72 109 131 182 247 285 341 422
#     4  11  24  47  70  95 141 188 229 286 344 413
#     4  11  24  43  72 101 143 183 232 293 350 416
#     4  12  25  45  71 105 144 184 228 292 363 417
#
# _framework density 22.12378
#
# number of rings (size 3 to 8) (size 9 to 14) (size 15 to 20)
#    0.000    0.857    4.286    2.143    4.000    4.000 
#    0.000    1.429    0.000    0.000    0.000    0.000 
#    0.000    0.000    0.000    0.000    0.000    0.000 
#
# Total GULP energy -173443.487087 kJ/mol
# GULP energy per Si atom -12388.820506 kJ/mol
# Density = 2.207343 g / cm^3
# Si number density = 22.123780 Si / 1000 Ang^3
#
#
#
# Elastic Constant Matrix: (Units=GPa)
#
#
# Indices 1 2 3 4 5 6 
#
# 1 90.5039 17.8199 24.3437 -1.0640 6.2972 0.4448
# 2 17.8199 94.7680 33.8760 -24.4887 4.2426 10.7599
# 3 24.3437 33.8760 104.6741 -9.8841 11.1071 -11.1257
# 4 -1.0640 -24.4887 -9.8841 45.0554 -3.0837 7.2120
# 5 6.2972 4.2426 11.1071 -3.0837 35.6594 -0.9413
# 6 0.4448 10.7599 -11.1257 7.2120 -0.9413 33.1768
#
#
#
# Elastic Compliance Matrix: (Units=1/GPa)
#
#
# Indices 1 2 3 4 5 6 
#
# 1 0.012067 -0.001703 -0.002242 -0.001202 -0.001338 -0.000138
# 2 -0.001703 0.015897 -0.004878 0.008955 0.000474 -0.008702
# 3 -0.002242 -0.004878 0.012484 -0.001115 -0.002851 0.005960
# 4 -0.001202 0.008955 -0.001115 0.028409 0.001703 -0.009389
# 5 -0.001338 0.000474 -0.002851 0.001703 0.029242 -0.000632
# 6 -0.000138 -0.008702 0.005960 -0.009389 -0.000632 0.036988
#
#
# Mechanical properties :
#
#
# Convention : Reuss Voigt Hill
#
# Bulk Modulus (GPa) = 43.85352 49.11391 46.48372
# Shear Modulus (GPa) = 31.18504 37.03873 34.11188
#
# Velocity S-wave (km/s) = 3.75850 4.09609 3.93092
# Velocity P-wave (km/s) = 6.22093 6.67970 6.45439
#
# Compressibility (1/GPa) = 0.02280319
#
# Stress axis : x y z
#
# Youngs Moduli (GPa) = 82.87012 62.90453 80.10015
#
# Poissons Ratio (x) = 0.10711 0.17954
# Poissons Ratio (y) = 0.14111 0.39076
# Poissons Ratio (z) = 0.18575 0.30687
#
# Static dielectric constant tensor:
#      x y z
#    x 4.098730 -0.098230 -0.034710 
#    y -0.098230 3.953310 -0.158670 
#    z -0.034710 -0.158670 4.122090 
# 
# 
# High freq. dielectric constant tensor:
#      x y z
#    x 1.874770 -0.003730 0.007630 
#    y -0.003730 1.872120 -0.015560 
#    z 0.007630 -0.015560 1.876720 
# 
# From -- ./inp_files/69735.got.cif
#   From: 2010.06.25/outbox.cif.g09.slc.cpg/sg2_35_cif.got.tgz:69735.got - 2010.06.27 13:26:56.
