data_PCOD8034350
_publ_section_title
;
Structure prediction by ZEFSAII (Michael W. Deem and Ramdas Pophale) SiO2 
 PCOD8034350
Probable space group: P -1
;
_chemical_formula_sum "Si O2"
_cell_formula_units_Z 12
_cell_length_a 9.257947
_cell_length_b 9.541189
_cell_length_c 12.020822
_cell_angle_alpha 63.184378
_cell_angle_beta 135.930559
_cell_angle_gamma 134.208253
_cell_volume 526.729998
_symmetry_space_group_name_H-M "P -1"
_symmetry_group_IT_number 2
_symmetry_cell_setting 'triclinic'
loop_
_space_group_symop_operation_xyz
x,y,z
-x,-y,-z
loop_
_atom_site_type_symbol
_atom_site_label
_atom_site_fract_x
_atom_site_fract_y
_atom_site_fract_z
Si Si1 0.556375 0.276597 0.320877
Si Si2 0.955520 0.795391 0.840394
Si Si3 0.014427 0.324632 0.664757
Si Si4 0.394718 0.585811 0.327956
Si Si5 0.249917 0.860857 0.203774
Si Si6 0.127004 0.109807 0.646068
O O1 0.307826 0.234700 0.260096
O O2 0.774295 0.336276 0.513150
O O3 0.701159 0.465191 0.251212
O O4 0.477608 0.087875 0.274007
O O5 0.876965 0.596023 0.809567
O O6 0.126974 0.967592 0.784298
O O7 0.136635 0.845422 0.026683
O O8 0.978398 0.223276 0.800355
O O9 0.977642 0.185859 0.593273
O O10 0.500000 0.500000 0.500000
O O11 0.361392 0.735428 0.318892
O O12 0.583945 0.699529 0.287290
O O13 0.000000 0.000000 0.500000
#
# Coordination Sequence:
#
# PCOD8034350 Si02
#       6
#     2   2   2   2   2   2
#     4  11  24  44  72 106 140 184 240 290 346 418
#     4  12  26  46  71 107 148 184 230 295 363 414
#     4  11  25  43  74 105 136 189 243 288 347 416
#     4  12  26  47  72 103 144 186 240 291 344 426
#     4  12  27  45  73 106 146 185 233 295 358 420
#     4  12  25  43  74 103 138 187 236 289 350 419
#
# _framework density 22.782070999999998
#
# number of rings (size 3 to 8) (size 9 to 14) (size 15 to 20)
#    0.000    0.333    5.000    3.500    2.333    4.000 
#    0.000    0.000    0.000    0.000    0.000    0.000 
#    0.000    0.000    0.000    0.000    0.000    0.000 
#
# Total GULP energy -148802.179556 kJ/mol
# GULP energy per Si atom -12400.181630 kJ/mol
# Density = 2.273022 g / cm^3
# Si number density = 22.782071 Si / 1000 Ang^3
#
#
#
# Elastic Constant Matrix: (Units=GPa)
#
#
# Indices 1 2 3 4 5 6 
#
# 1 97.8080 41.7063 40.4537 -16.2307 -16.7061 2.2161
# 2 41.7063 166.0056 58.2599 -3.8930 -21.1415 8.9746
# 3 40.4537 58.2599 95.0496 -8.5274 -29.6852 12.9517
# 4 -16.2307 -3.8930 -8.5274 27.4101 1.3676 -7.4394
# 5 -16.7061 -21.1415 -29.6852 1.3676 36.9927 -6.6390
# 6 2.2161 8.9746 12.9517 -7.4394 -6.6390 55.1636
#
#
#
# Elastic Compliance Matrix: (Units=1/GPa)
#
#
# Indices 1 2 3 4 5 6 
#
# 1 0.014149 -0.001872 -0.003723 0.007347 0.002399 0.001890
# 2 -0.001872 0.007946 -0.003993 -0.001356 0.000468 -0.000406
# 3 -0.003723 -0.003993 0.018173 0.001832 0.010194 -0.001994
# 4 0.007347 -0.001356 0.001832 0.042572 0.003454 0.005652
# 5 0.002399 0.000468 0.010194 0.003454 0.036855 0.002335
# 6 0.001890 -0.000406 -0.001994 0.005652 0.002335 0.019629
#
#
# Mechanical properties :
#
#
# Convention : Reuss Voigt Hill
#
# Bulk Modulus (GPa) = 47.41756 71.07812 59.24784
# Shear Modulus (GPa) = 30.20577 38.47618 34.34098
#
# Velocity S-wave (km/s) = 3.64518 4.11406 3.88670
# Velocity P-wave (km/s) = 6.21089 7.33718 6.79740
#
# Compressibility (1/GPa) = 0.02108923
#
# Stress axis : x y z
#
# Youngs Moduli (GPa) = 70.67844 125.85679 55.02726
#
# Poissons Ratio (x) = 0.23564 0.20488
# Poissons Ratio (y) = 0.13233 0.21975
# Poissons Ratio (z) = 0.26315 0.50260
#
# Static dielectric constant tensor:
#      x y z
#    x 4.293260 0.093890 -0.129250 
#    y 0.093890 4.693010 0.016250 
#    z -0.129250 0.016250 3.754400 
# 
# 
# High freq. dielectric constant tensor:
#      x y z
#    x 1.904160 0.001110 -0.015260 
#    y 0.001110 1.928620 0.000060 
#    z -0.015260 0.000060 1.873890 
# 
# From -- ./inp_files/157783.got.cif
#   From: 2010.06.25/outbox.cif.g09.slc.cpg/sg2_79_cif.got.tgz:157783.got - 2010.06.27 13:26:56.
