data_PCOD8034965
_publ_section_title
;
Structure prediction by ZEFSAII (Michael W. Deem and Ramdas Pophale) SiO2 
 PCOD8034965
Probable space group: P -1
;
_chemical_formula_sum "Si O2"
_cell_formula_units_Z 16
_cell_length_a 7.800374
_cell_length_b 8.390137
_cell_length_c 19.308897
_cell_angle_alpha 40.416911
_cell_angle_beta 104.086367
_cell_angle_gamma 122.643668
_cell_volume 656.701587
_symmetry_space_group_name_H-M "P -1"
_symmetry_group_IT_number 2
_symmetry_cell_setting 'triclinic'
loop_
_space_group_symop_operation_xyz
x,y,z
-x,-y,-z
loop_
_atom_site_type_symbol
_atom_site_label
_atom_site_fract_x
_atom_site_fract_y
_atom_site_fract_z
Si Si1 0.041169 0.865528 0.327810
Si Si2 0.352408 0.186671 0.914416
Si Si3 0.056209 0.106285 0.109881
Si Si4 0.236515 0.546912 0.872447
Si Si5 0.416730 0.816713 0.353422
Si Si6 0.536713 0.403627 0.436823
Si Si7 0.170679 0.731568 0.155222
Si Si8 0.695507 0.669640 0.693291
O O1 0.173806 0.723219 0.368440
O O2 0.791517 0.615055 0.387200
O O3 0.083056 0.110057 0.193677
O O4 0.112344 0.016421 0.360929
O O5 0.236848 0.289780 0.918536
O O6 0.564437 0.482880 0.810188
O O7 0.189567 0.015005 0.891407
O O8 0.363798 0.959980 0.043805
O O9 0.120151 0.891190 0.155654
O O10 0.206525 0.446275 0.983725
O O11 0.027951 0.512862 0.831388
O O12 0.446190 0.875274 0.776763
O O13 0.425939 0.566942 0.397669
O O14 0.517061 0.855407 0.427997
O O15 0.435983 0.270286 0.395275
O O16 0.234271 0.532761 0.268400
#
# Coordination Sequence:
#
# PCOD8034965 Si02
#       8
#     2   2   2   2   2   2   2   2
#     4  12  24  43  69 101 128 167 218 265 323 388
#     4   9  17  37  60  92 133 165 207 260 318 382
#     4   9  19  38  65  92 134 169 204 264 322 383
#     4   9  18  39  64  96 125 170 219 257 318 390
#     4  11  24  47  68  89 130 176 216 268 323 380
#     4  11  27  47  66  95 131 166 223 275 314 375
#     4   9  19  35  64  92 132 174 204 259 323 384
#     4  12  22  40  63  98 128 167 214 264 323 379
#
# _framework density 24.364189
#
# number of rings (size 3 to 8) (size 9 to 14) (size 15 to 20)
#    0.000    1.750    2.500    3.750    0.000    1.000 
#    4.500    8.750    0.000    0.000    0.000    0.000 
#    0.000    0.000    0.000    0.000    0.000    0.000 
#
# Total GULP energy -198275.096608 kJ/mol
# GULP energy per Si atom -12392.193538 kJ/mol
# Density = 2.430873 g / cm^3
# Si number density = 24.364189 Si / 1000 Ang^3
#
#
#
# Elastic Constant Matrix: (Units=GPa)
#
#
# Indices 1 2 3 4 5 6 
#
# 1 51.1218 1.9061 12.2661 -1.2082 -1.0378 13.4659
# 2 1.9061 81.4910 26.5873 20.3035 1.2834 23.3664
# 3 12.2661 26.5873 90.7989 18.6423 7.6668 6.1774
# 4 -1.2082 20.3035 18.6423 29.0136 5.4021 5.6380
# 5 -1.0378 1.2834 7.6668 5.4021 25.6127 7.1167
# 6 13.4659 23.3664 6.1774 5.6380 7.1167 21.7353
#
#
#
# Elastic Compliance Matrix: (Units=1/GPa)
#
#
# Indices 1 2 3 4 5 6 
#
# 1 0.028766 0.009001 -0.005883 0.002575 0.010224 -0.029841
# 2 0.009001 0.025495 -0.005440 -0.009814 0.011896 -0.032788
# 3 -0.005883 -0.005440 0.014598 -0.006522 -0.005407 0.008806
# 4 0.002575 -0.009814 -0.006522 0.046831 -0.007653 0.001168
# 5 0.010224 0.011896 -0.005407 -0.007653 0.051076 -0.032325
# 6 -0.029841 -0.032788 0.008806 0.001168 -0.032325 0.107522
#
#
# Mechanical properties :
#
#
# Convention : Reuss Voigt Hill
#
# Bulk Modulus (GPa) = 15.57306 33.88119 24.72712
# Shear Modulus (GPa) = 16.64799 27.44913 22.04856
#
# Velocity S-wave (km/s) = 2.61683 3.36015 3.01152
# Velocity P-wave (km/s) = 3.94158 5.38428 4.71840
#
# Compressibility (1/GPa) = 0.06421346
#
# Stress axis : x y z
#
# Youngs Moduli (GPa) = 34.76328 39.22350 68.50477
#
# Poissons Ratio (x) = -0.35304 0.40303
# Poissons Ratio (y) = -0.31289 0.37266
# Poissons Ratio (z) = 0.20452 0.21337
#
# Static dielectric constant tensor:
#      x y z
#    x 4.480820 0.040680 0.169450 
#    y 0.040680 3.924180 0.382830 
#    z 0.169450 0.382830 4.520640 
# 
# 
# High freq. dielectric constant tensor:
#      x y z
#    x 1.974290 0.003290 0.009410 
#    y 0.003290 1.940790 0.018960 
#    z 0.009410 0.018960 1.970510 
# 
# From -- ./inp_files/178807.got.cif
#   From: 2010.06.25/outbox.cif.g09.slc.cpg/sg2_90_cif.got.tgz:178807.got - 2010.06.27 13:26:56.
