data_PCOD8034581
_publ_section_title
;
Structure prediction by ZEFSAII (Michael W. Deem and Ramdas Pophale) SiO2 
 PCOD8034581
Probable space group: P -1
;
_chemical_formula_sum "Si O2"
_cell_formula_units_Z 14
_cell_length_a 12.202747
_cell_length_b 5.237448
_cell_length_c 9.493924
_cell_angle_alpha 75.681443
_cell_angle_beta 107.132210
_cell_angle_gamma 89.178531
_cell_volume 559.335945
_symmetry_space_group_name_H-M "P -1"
_symmetry_group_IT_number 2
_symmetry_cell_setting 'triclinic'
loop_
_space_group_symop_operation_xyz
x,y,z
-x,-y,-z
loop_
_atom_site_type_symbol
_atom_site_label
_atom_site_fract_x
_atom_site_fract_y
_atom_site_fract_z
Si Si1 0.135649 0.404070 0.756408
Si Si2 0.011284 0.079017 0.297461
Si Si3 0.614961 0.084229 0.467759
Si Si4 0.457070 0.757952 0.865702
Si Si5 0.794767 0.201966 0.744668
Si Si6 0.811713 0.681051 0.513327
Si Si7 0.683758 0.984402 0.990598
O O1 0.181945 0.484570 0.608446
O O2 0.075709 0.655147 0.784230
O O3 0.237530 0.288826 0.914179
O O4 0.054195 0.180532 0.710018
O O5 0.088417 0.109014 0.466086
O O6 0.109231 0.044409 0.215194
O O7 0.581558 0.295892 0.300844
O O8 0.686053 0.211365 0.597540
O O9 0.500000 0.000000 0.500000
O O10 0.685131 0.828860 0.458922
O O11 0.562958 0.941483 0.875740
O O12 0.500000 0.500000 0.000000
O O13 0.343304 0.886844 0.885035
O O14 0.842115 0.483245 0.685805
O O15 0.752097 0.178522 0.891920
#
# Coordination Sequence:
#
# PCOD8034581 Si02
#       7
#     2   2   2   2   2   2   2
#     4  12  26  46  77 104 150 192 248 298 367 432
#     4  11  26  47  73 110 145 193 246 304 360 433
#     4  11  24  45  71 107 143 188 242 300 368 433
#     4  11  26  47  70 103 146 191 242 301 366 438
#     4  11  26  45  72 107 147 189 243 302 367 433
#     4  11  25  44  74 106 144 192 245 300 368 436
#     4  11  27  46  68 108 143 192 242 302 366 438
#
# _framework density 25.029682000000001
#
# number of rings (size 3 to 8) (size 9 to 14) (size 15 to 20)
#    0.000    0.857    4.286    0.857   10.000    1.714 
#    0.000    0.000    0.000    0.000    0.000    0.000 
#    0.000    0.000    0.000    0.000    0.000    0.000 
#
# Total GULP energy -173505.090875 kJ/mol
# GULP energy per Si atom -12393.220777 kJ/mol
# Density = 2.497271 g / cm^3
# Si number density = 25.029682 Si / 1000 Ang^3
#
#
#
# Elastic Constant Matrix: (Units=GPa)
#
#
# Indices 1 2 3 4 5 6 
#
# 1 101.8527 25.3327 26.5682 -1.9781 2.0071 -24.6757
# 2 25.3327 87.2164 5.3553 -16.7263 -5.6512 -12.7801
# 3 26.5682 5.3553 101.9595 -16.3607 -15.7633 -15.0619
# 4 -1.9781 -16.7263 -16.3607 36.3568 0.2116 8.9140
# 5 2.0071 -5.6512 -15.7633 0.2116 27.6328 -9.6111
# 6 -24.6757 -12.7801 -15.0619 8.9140 -9.6111 33.1511
#
#
#
# Elastic Compliance Matrix: (Units=1/GPa)
#
#
# Indices 1 2 3 4 5 6 
#
# 1 0.013313 -0.003259 -0.002742 -0.004076 -0.000232 0.008436
# 2 -0.003259 0.014588 0.002797 0.006648 0.006336 0.004518
# 3 -0.002742 0.002797 0.014083 0.005649 0.011260 0.007182
# 4 -0.004076 0.006648 0.005649 0.034461 0.002358 -0.006487
# 5 -0.000232 0.006336 0.011260 0.002358 0.051443 0.021666
# 6 0.008436 0.004518 0.007182 -0.006487 0.021666 0.049475
#
#
# Mechanical properties :
#
#
# Convention : Reuss Voigt Hill
#
# Bulk Modulus (GPa) = 28.10792 45.06008 36.58400
# Shear Modulus (GPa) = 25.55859 35.01297 30.28578
#
# Velocity S-wave (km/s) = 3.19898 3.74419 3.48227
# Velocity P-wave (km/s) = 4.98988 6.06083 5.55124
#
# Compressibility (1/GPa) = 0.03557715
#
# Stress axis : x y z
#
# Youngs Moduli (GPa) = 75.11443 68.54856 71.00535
#
# Poissons Ratio (x) = 0.22340 0.19466
# Poissons Ratio (y) = 0.24480 -0.19859
# Poissons Ratio (z) = 0.20593 -0.19172
#
# Static dielectric constant tensor:
#      x y z
#    x 5.226950 -0.026840 0.026920 
#    y -0.026840 4.611630 0.004160 
#    z 0.026920 0.004160 4.309500 
# 
# 
# High freq. dielectric constant tensor:
#      x y z
#    x 2.025810 -0.006780 0.002830 
#    y -0.006780 1.983760 -0.000970 
#    z 0.002830 -0.000970 1.982230 
# 
# From -- ./inp_files/84311.got.cif
#   From: 2010.06.25/outbox.cif.g09.slc.cpg/sg2_43_cif.got.tgz:84311.got - 2010.06.27 13:26:56.
