data_PCOD8034694
_publ_section_title
;
Structure prediction by ZEFSAII (Michael W. Deem and Ramdas Pophale) SiO2 
 PCOD8034694
Probable space group: P -1
;
_chemical_formula_sum "Si O2"
_cell_formula_units_Z 16
_cell_length_a 9.154195
_cell_length_b 9.038367
_cell_length_c 20.626267
_cell_angle_alpha 55.222589
_cell_angle_beta 31.055038
_cell_angle_gamma 60.929194
_cell_volume 723.095332
_symmetry_space_group_name_H-M "P -1"
_symmetry_group_IT_number 2
_symmetry_cell_setting 'triclinic'
loop_
_space_group_symop_operation_xyz
x,y,z
-x,-y,-z
loop_
_atom_site_type_symbol
_atom_site_label
_atom_site_fract_x
_atom_site_fract_y
_atom_site_fract_z
Si Si1 0.105931 0.553203 0.804544
Si Si2 0.136227 0.807018 0.989143
Si Si3 0.779363 0.387881 0.779498
Si Si4 0.947614 0.920779 0.319127
Si Si5 0.583185 0.783384 0.933634
Si Si6 0.398125 0.680071 0.791145
Si Si7 0.369751 0.018467 0.448888
Si Si8 0.262021 0.619844 0.591555
O O1 0.207822 0.634191 0.812988
O O2 0.303964 0.627803 0.652026
O O3 0.098828 0.336117 0.860403
O O4 0.781949 0.609404 0.900597
O O5 0.426375 0.800212 0.920527
O O6 0.198085 0.758891 0.903136
O O7 0.000000 0.000000 0.000000
O O8 0.987951 0.281450 0.678453
O O9 0.543499 0.494055 0.802583
O O10 0.955461 0.535996 0.715444
O O11 0.642900 0.241070 0.916519
O O12 0.861262 0.913015 0.429036
O O13 0.228840 0.038625 0.171291
O O14 0.689517 0.009151 0.356496
O O15 0.627697 0.835372 0.646560
O O16 0.278367 0.821691 0.506545
O O17 0.500000 0.500000 0.500000
#
# Coordination Sequence:
#
# PCOD8034694 Si02
#       8
#     2   2   2   2   2   2   2   2
#     4  12  24  49  76 101 147 193 233 293 358 430
#     4  12  29  45  70 110 147 182 238 301 358 416
#     4  12  27  45  74 110 141 190 241 293 363 421
#     4  11  24  45  75 104 140 189 243 288 353 432
#     4  12  24  48  77 102 142 188 241 288 360 426
#     4  12  28  45  70 109 147 184 236 302 356 415
#     4  11  24  47  71 104 141 189 239 291 351 422
#     4  12  25  47  77 101 140 197 240 287 351 436
#
# _framework density 22.127095000000001
#
# number of rings (size 3 to 8) (size 9 to 14) (size 15 to 20)
#    0.000    0.250    6.250    2.625    5.250    1.000 
#    0.000    0.000    0.000    0.000    0.000    0.000 
#    0.000    0.000    0.000    0.000    0.000    0.000 
#
# Total GULP energy -198478.203812 kJ/mol
# GULP energy per Si atom -12404.887738 kJ/mol
# Density = 2.207673 g / cm^3
# Si number density = 22.127095 Si / 1000 Ang^3
#
#
#
# Elastic Constant Matrix: (Units=GPa)
#
#
# Indices 1 2 3 4 5 6 
#
# 1 108.1683 48.3402 41.0960 5.6348 -4.7419 3.8145
# 2 48.3402 133.0282 35.4749 0.7579 7.9860 7.2785
# 3 41.0960 35.4749 99.9896 -7.3188 0.3411 4.4483
# 4 5.6348 0.7579 -7.3188 54.7556 7.6288 0.2956
# 5 -4.7419 7.9860 0.3411 7.6288 27.6953 -5.3920
# 6 3.8145 7.2785 4.4483 0.2956 -5.3920 29.2668
#
#
#
# Elastic Compliance Matrix: (Units=1/GPa)
#
#
# Indices 1 2 3 4 5 6 
#
# 1 0.012804 -0.003826 -0.004126 -0.002397 0.004142 0.000697
# 2 -0.003826 0.009739 -0.001717 0.000611 -0.004082 -0.002421
# 3 -0.004126 -0.001717 0.012531 0.002301 -0.001231 -0.001190
# 4 -0.002397 0.000611 0.002301 0.019701 -0.006345 -0.001557
# 5 0.004142 -0.004082 -0.001231 -0.006345 0.041382 0.008351
# 6 0.000697 -0.002421 -0.001190 -0.001557 0.008351 0.036415
#
#
# Mechanical properties :
#
#
# Convention : Reuss Voigt Hill
#
# Bulk Modulus (GPa) = 63.53883 65.66758 64.60321
# Shear Modulus (GPa) = 31.81586 36.76189 34.28887
#
# Velocity S-wave (km/s) = 3.79604 4.08045 3.94081
# Velocity P-wave (km/s) = 6.92755 7.20707 7.06869
#
# Compressibility (1/GPa) = 0.01573841
#
# Stress axis : x y z
#
# Youngs Moduli (GPa) = 78.10142 102.67827 79.79989
#
# Poissons Ratio (x) = 0.39281 0.32923
# Poissons Ratio (y) = 0.29879 0.13699
# Poissons Ratio (z) = 0.32223 0.17626
#
# Static dielectric constant tensor:
#      x y z
#    x 3.999860 0.068070 0.120230 
#    y 0.068070 4.072660 -0.210220 
#    z 0.120230 -0.210220 4.097540 
# 
# 
# High freq. dielectric constant tensor:
#      x y z
#    x 1.861480 0.012290 0.003650 
#    y 0.012290 1.882260 -0.011570 
#    z 0.003650 -0.011570 1.880640 
# 
# From -- ./inp_files/207983.got.cif
#   From: 2010.06.25/outbox.cif.g09.slc.cpg/sg2_104_cif.got.tgz:207983.got - 2010.06.27 13:26:56.
