data_PCOD8034599
_publ_section_title
;
Structure prediction by ZEFSAII (Michael W. Deem and Ramdas Pophale) SiO2 
 PCOD8034599
Probable space group: P -1
;
_chemical_formula_sum "Si O2"
_cell_formula_units_Z 16
_cell_length_a 14.788761
_cell_length_b 8.749756
_cell_length_c 8.401084
_cell_angle_alpha 136.342335
_cell_angle_beta 82.773527
_cell_angle_gamma 110.839058
_cell_volume 686.632405
_symmetry_space_group_name_H-M "P -1"
_symmetry_group_IT_number 2
_symmetry_cell_setting 'triclinic'
loop_
_space_group_symop_operation_xyz
x,y,z
-x,-y,-z
loop_
_atom_site_type_symbol
_atom_site_label
_atom_site_fract_x
_atom_site_fract_y
_atom_site_fract_z
Si Si1 0.307325 0.906372 0.457705
Si Si2 0.353557 0.745216 0.002625
Si Si3 0.039620 0.373274 0.030578
Si Si4 0.451974 0.240355 0.892550
Si Si5 0.275028 0.989673 0.955500
Si Si6 0.157640 0.589998 0.454022
Si Si7 0.804015 0.758811 0.293858
Si Si8 0.132177 0.119165 0.282696
O O1 0.260647 0.657640 0.381700
O O2 0.416947 0.055076 0.612844
O O3 0.230423 0.035377 0.607229
O O4 0.311169 0.864286 0.239126
O O5 0.334348 0.840975 0.909678
O O6 0.296862 0.460676 0.804405
O O7 0.469373 0.811727 0.053719
O O8 0.073101 0.555673 0.312164
O O9 0.132645 0.315504 0.905847
O O10 0.000000 0.500000 0.000000
O O11 0.956723 0.128182 0.926197
O O12 0.353672 0.198382 0.987148
O O13 0.500000 0.500000 0.000000
O O14 0.180515 0.807694 0.739606
O O15 0.235109 0.111583 0.193690
O O16 0.119731 0.339313 0.363955
O O17 0.869786 0.846474 0.502650
#
# Coordination Sequence:
#
# PCOD8034599 Si02
#       8
#     2   2   2   2   2   2   2   2
#     4  11  24  45  72 102 141 190 233 291 352 417
#     4  12  22  47  71 101 146 187 237 287 355 418
#     4  12  27  49  74 104 142 187 239 292 353 420
#     4  11  25  43  71 108 141 188 239 292 346 422
#     4  11  26  47  71 102 151 182 237 288 357 418
#     4  11  26  44  70 103 139 186 231 292 349 413
#     4  12  24  47  74 102 143 185 239 287 353 422
#     4  12  26  47  71 106 140 189 235 295 349 419
#
# _framework density 23.302135
#
# number of rings (size 3 to 8) (size 9 to 14) (size 15 to 20)
#    0.000    0.500    5.000    3.000    5.250    0.500 
#    0.000    1.250    0.000    0.000    0.000    0.000 
#    0.000    0.000    0.000    0.000    0.000    0.000 
#
# Total GULP energy -198347.646771 kJ/mol
# GULP energy per Si atom -12396.727923 kJ/mol
# Density = 2.324910 g / cm^3
# Si number density = 23.302135 Si / 1000 Ang^3
#
#
#
# Elastic Constant Matrix: (Units=GPa)
#
#
# Indices 1 2 3 4 5 6 
#
# 1 81.0473 11.6278 20.4551 -1.3773 11.3619 -1.6919
# 2 11.6278 107.7406 13.0728 8.0759 13.4956 14.1237
# 3 20.4551 13.0728 74.9339 -8.6632 21.9879 3.5968
# 4 -1.3773 8.0759 -8.6632 37.0218 2.4519 14.3179
# 5 11.3619 13.4956 21.9879 2.4519 48.6176 -3.3623
# 6 -1.6919 14.1237 3.5968 14.3179 -3.3623 39.7142
#
#
#
# Elastic Compliance Matrix: (Units=1/GPa)
#
#
# Indices 1 2 3 4 5 6 
#
# 1 0.013505 -0.001038 -0.003239 -0.000442 -0.001292 0.001288
# 2 -0.001038 0.010326 -0.000725 -0.000932 -0.002493 -0.003526
# 3 -0.003239 -0.000725 0.017528 0.006343 -0.007593 -0.004397
# 4 -0.000442 -0.000932 0.006343 0.034036 -0.005120 -0.012966
# 5 -0.001292 -0.002493 -0.007593 -0.005120 0.025637 0.005535
# 6 0.001288 -0.003526 -0.004397 -0.012966 0.005535 0.032030
#
#
# Mechanical properties :
#
#
# Convention : Reuss Voigt Hill
#
# Bulk Modulus (GPa) = 31.89415 39.33701 35.61558
# Shear Modulus (GPa) = 32.56900 39.64178 36.10539
#
# Velocity S-wave (km/s) = 3.74262 4.12905 3.94057
# Velocity P-wave (km/s) = 5.69150 6.29682 6.00180
#
# Compressibility (1/GPa) = 0.03135371
#
# Stress axis : x y z
#
# Youngs Moduli (GPa) = 74.04401 96.84406 57.05072
#
# Poissons Ratio (x) = 0.10057 0.18481
# Poissons Ratio (y) = 0.07689 0.04137
# Poissons Ratio (z) = 0.23986 0.07022
#
# Static dielectric constant tensor:
#      x y z
#    x 4.083030 0.018920 0.337040 
#    y 0.018920 4.243790 -0.044210 
#    z 0.337040 -0.044210 4.274300 
# 
# 
# High freq. dielectric constant tensor:
#      x y z
#    x 1.911660 0.001710 0.026790 
#    y 0.001710 1.938160 -0.002850 
#    z 0.026790 -0.002850 1.922790 
# 
# From -- ./inp_files/37853.got.cif
#   From: 2010.06.25/outbox.cif.g09.slc.cpg/sg2_19_cif.got.tgz:37853.got - 2010.06.27 13:26:56.
