data_PCOD8034417
_publ_section_title
;
Structure prediction by ZEFSAII (Michael W. Deem and Ramdas Pophale) SiO2 
 PCOD8034417
Probable space group: P -1
;
_chemical_formula_sum "Si O2"
_cell_formula_units_Z 16
_cell_length_a 9.662051
_cell_length_b 10.628458
_cell_length_c 8.896040
_cell_angle_alpha 130.226722
_cell_angle_beta 99.049366
_cell_angle_gamma 83.222290
_cell_volume 688.651806
_symmetry_space_group_name_H-M "P -1"
_symmetry_group_IT_number 2
_symmetry_cell_setting 'triclinic'
loop_
_space_group_symop_operation_xyz
x,y,z
-x,-y,-z
loop_
_atom_site_type_symbol
_atom_site_label
_atom_site_fract_x
_atom_site_fract_y
_atom_site_fract_z
Si Si1 0.344167 0.441007 0.446756
Si Si2 0.098136 0.644722 0.571481
Si Si3 0.407082 0.097143 0.177764
Si Si4 0.290218 0.386507 0.743053
Si Si5 0.816270 0.295910 0.848038
Si Si6 0.132171 0.899481 0.012928
Si Si7 0.969724 0.815249 0.411470
Si Si8 0.461240 0.828421 0.428293
O O1 0.500000 0.500000 0.500000
O O2 0.231604 0.563462 0.440974
O O3 0.340250 0.264938 0.225424
O O4 0.285079 0.430784 0.599898
O O5 0.000000 0.500000 0.500000
O O6 0.019349 0.785254 0.568383
O O7 0.162198 0.738083 0.795568
O O8 0.504951 0.159430 0.378975
O O9 0.276374 0.994066 0.126182
O O10 0.500000 0.000000 0.000000
O O11 0.192691 0.232486 0.652666
O O12 0.447343 0.318327 0.749759
O O13 0.247025 0.542300 0.957973
O O14 0.890878 0.164215 0.872068
O O15 0.699133 0.207880 0.659880
O O16 0.944807 0.324842 0.778516
O O17 0.000000 0.000000 0.000000
O O18 0.000000 0.000000 0.500000
O O19 0.500000 0.000000 0.500000
#
# Coordination Sequence:
#
# PCOD8034417 Si02
#       8
#     2   2   2   2   2   2   2   2
#     4  11  24  44  75 103 146 191 246 306 366 433
#     4  12  24  47  76 107 146 197 247 310 374 437
#     4  11  26  46  70 106 146 189 251 303 372 444
#     4  11  25  48  73 107 146 195 245 306 367 447
#     4  12  25  47  73 109 149 195 249 301 376 447
#     4  12  25  44  74 106 145 192 247 306 372 444
#     4  12  27  46  76 110 154 196 248 310 376 442
#     4  11  24  46  73 100 148 193 233 308 378 437
#
# _framework density 23.233803000000002
#
# number of rings (size 3 to 8) (size 9 to 14) (size 15 to 20)
#    0.000    0.500    3.750    3.750    8.750    0.000 
#    4.500    0.000    0.000    0.000    0.000    0.000 
#    0.000    0.000    0.000    0.000    0.000    0.000 
#
# Total GULP energy -198266.452275 kJ/mol
# GULP energy per Si atom -12391.653267 kJ/mol
# Density = 2.318092 g / cm^3
# Si number density = 23.233803 Si / 1000 Ang^3
#
#
#
# Elastic Constant Matrix: (Units=GPa)
#
#
# Indices 1 2 3 4 5 6 
#
# 1 107.0422 31.4062 36.8449 -4.2855 -6.2791 -4.9243
# 2 31.4062 105.7335 23.5497 7.7100 9.7415 -3.3763
# 3 36.8449 23.5497 119.4525 10.8541 -6.2436 -2.2182
# 4 -4.2855 7.7100 10.8541 34.9967 -4.7508 1.9657
# 5 -6.2791 9.7415 -6.2436 -4.7508 42.0036 2.9278
# 6 -4.9243 -3.3763 -2.2182 1.9657 2.9278 46.7688
#
#
#
# Elastic Compliance Matrix: (Units=1/GPa)
#
#
# Indices 1 2 3 4 5 6 
#
# 1 0.011667 -0.003215 -0.003140 0.003401 0.002369 0.000556
# 2 -0.003215 0.011248 -0.001124 -0.003063 -0.003657 0.000778
# 3 -0.003140 -0.001124 0.009892 -0.003089 0.000903 0.000131
# 4 0.003401 -0.003063 -0.003089 0.031313 0.004413 -0.001602
# 5 0.002369 -0.003657 0.000903 0.004413 0.025766 -0.001770
# 6 0.000556 0.000778 0.000131 -0.001602 -0.001770 0.021681
#
#
# Mechanical properties :
#
#
# Convention : Reuss Voigt Hill
#
# Bulk Modulus (GPa) = 56.02395 57.31441 56.66918
# Shear Modulus (GPa) = 37.74334 40.78234 39.26284
#
# Velocity S-wave (km/s) = 4.03488 4.19418 4.11530
# Velocity P-wave (km/s) = 6.77292 6.94096 6.85746
#
# Compressibility (1/GPa) = 0.01784951
#
# Stress axis : x y z
#
# Youngs Moduli (GPa) = 85.71431 88.90376 101.09181
#
# Poissons Ratio (x) = 0.28578 0.31740
# Poissons Ratio (y) = 0.27553 0.11367
# Poissons Ratio (z) = 0.26912 0.09996
#
# Static dielectric constant tensor:
#      x y z
#    x 4.346060 -0.076730 -0.270280 
#    y -0.076730 4.206570 0.430790 
#    z -0.270280 0.430790 4.130530 
# 
# 
# High freq. dielectric constant tensor:
#      x y z
#    x 1.933370 -0.006990 -0.008940 
#    y -0.006990 1.929350 0.015800 
#    z -0.008940 0.015800 1.916370 
# 
# From -- ./inp_files/190893.got.cif
#   From: 2010.06.25/outbox.cif.g09.slc.cpg/sg2_96_cif.got.tgz:190893.got - 2010.06.27 13:26:56.
