data_PCOD8034041
_publ_section_title
;
Structure prediction by ZEFSAII (Michael W. Deem and Ramdas Pophale) SiO2 
 PCOD8034041
Probable space group: P -1
;
_chemical_formula_sum "Si O2"
_cell_formula_units_Z 16
_cell_length_a 9.776391
_cell_length_b 15.193492
_cell_length_c 8.912618
_cell_angle_alpha 142.350706
_cell_angle_beta 76.729015
_cell_angle_gamma 114.373860
_cell_volume 725.248521
_symmetry_space_group_name_H-M "P -1"
_symmetry_group_IT_number 2
_symmetry_cell_setting 'triclinic'
loop_
_space_group_symop_operation_xyz
x,y,z
-x,-y,-z
loop_
_atom_site_type_symbol
_atom_site_label
_atom_site_fract_x
_atom_site_fract_y
_atom_site_fract_z
Si Si1 0.670540 0.122947 0.652328
Si Si2 0.848744 0.918076 0.328998
Si Si3 0.597292 0.811881 0.723751
Si Si4 0.053882 0.643666 0.570770
Si Si5 0.159735 0.564000 0.128177
Si Si6 0.323440 0.853755 0.971353
Si Si7 0.878360 0.844954 0.890953
Si Si8 0.651388 0.638095 0.201218
O O1 0.708580 0.281500 0.763817
O O2 0.500000 0.000000 0.500000
O O3 0.789147 0.049729 0.468892
O O4 0.705320 0.174843 0.884774
O O5 0.711318 0.788529 0.280601
O O6 0.886081 0.846221 0.071558
O O7 0.000000 0.000000 0.500000
O O8 0.431557 0.762473 0.774269
O O9 0.714698 0.832885 0.858035
O O10 0.611524 0.682937 0.435555
O O11 0.611563 0.962337 0.826122
O O12 0.136851 0.601944 0.355400
O O13 0.169712 0.789466 0.829285
O O14 0.000000 0.500000 0.500000
O O15 0.916293 0.696188 0.627206
O O16 0.212739 0.421500 0.908354
O O17 0.000000 0.500000 0.000000
O O18 0.000000 0.000000 0.000000
O O19 0.500000 0.500000 0.000000
#
# Coordination Sequence:
#
# PCOD8034041 Si02
#       8
#     2   2   2   2   2   2   2   2
#     4  12  25  43  69 102 135 179 229 281 339 409
#     4  12  24  43  69 101 137 178 227 279 340 409
#     4  11  24  43  70  99 136 180 225 285 334 412
#     4  12  25  45  71 100 141 182 223 282 348 406
#     4  12  26  45  68 100 141 179 226 279 343 406
#     4  11  24  44  69 100 136 178 228 277 351 398
#     4  12  23  42  68 104 134 177 234 281 334 404
#     4  12  25  46  68 100 137 182 226 279 343 404
#
# _framework density 22.061404
#
# number of rings (size 3 to 8) (size 9 to 14) (size 15 to 20)
#    0.000    0.250    2.500    7.500    3.500    0.000 
#    0.000    1.875    0.000    0.000    0.000    0.000 
#    0.000    0.000    0.000    0.000    0.000    0.000 
#
# Total GULP energy -198458.392970 kJ/mol
# GULP energy per Si atom -12403.649561 kJ/mol
# Density = 2.201119 g / cm^3
# Si number density = 22.061404 Si / 1000 Ang^3
#
#
#
# Elastic Constant Matrix: (Units=GPa)
#
#
# Indices 1 2 3 4 5 6 
#
# 1 112.4832 11.4544 32.9861 -7.9675 -6.8498 -2.4030
# 2 11.4544 100.5908 30.5647 -5.2724 1.6648 1.2833
# 3 32.9861 30.5647 122.0978 -24.1684 -8.6370 0.8050
# 4 -7.9675 -5.2724 -24.1684 40.4328 0.0032 0.9049
# 5 -6.8498 1.6648 -8.6370 0.0032 57.9759 7.1725
# 6 -2.4030 1.2833 0.8050 0.9049 7.1725 33.4012
#
#
#
# Elastic Compliance Matrix: (Units=1/GPa)
#
#
# Indices 1 2 3 4 5 6 
#
# 1 0.009719 -0.000375 -0.002402 0.000417 0.000726 0.000604
# 2 -0.000375 0.010808 -0.002710 -0.000280 -0.000732 -0.000212
# 3 -0.002402 -0.002710 0.010739 0.005610 0.001493 -0.000800
# 4 0.000417 -0.000280 0.005610 0.028156 0.001025 -0.001077
# 5 0.000726 -0.000732 0.001493 0.001025 0.018055 -0.003860
# 6 0.000604 -0.000212 -0.000800 -0.001077 -0.003860 0.030868
#
#
# Mechanical properties :
#
#
# Convention : Reuss Voigt Hill
#
# Bulk Modulus (GPa) = 49.27978 53.90914 51.59446
# Shear Modulus (GPa) = 39.65663 43.70643 41.68153
#
# Velocity S-wave (km/s) = 4.24436 4.45581 4.35137
# Velocity P-wave (km/s) = 6.81216 7.13872 6.97735
#
# Compressibility (1/GPa) = 0.02029230
#
# Stress axis : x y z
#
# Youngs Moduli (GPa) = 102.88618 92.52809 93.12028
#
# Poissons Ratio (x) = 0.03468 0.22368
# Poissons Ratio (y) = 0.03856 0.25235
# Poissons Ratio (z) = 0.24714 0.25074
#
# Static dielectric constant tensor:
#      x y z
#    x 3.984530 -0.203090 0.438960 
#    y -0.203090 3.970320 0.201220 
#    z 0.438960 0.201220 3.211330 
# 
# 
# High freq. dielectric constant tensor:
#      x y z
#    x 1.885280 -0.001220 -0.009990 
#    y -0.001220 1.869910 -0.007170 
#    z -0.009990 -0.007170 1.879860 
# 
# From -- ./inp_files/209296.got.cif
#   From: 2010.06.25/outbox.cif.g09.slc.cpg/sg2_105_cif.got.tgz:209296.got - 2010.06.27 13:26:56.
