data_PCOD8034172
_publ_section_title
;
Structure prediction by ZEFSAII (Michael W. Deem and Ramdas Pophale) SiO2 
 PCOD8034172
Probable space group: P -1
;
_chemical_formula_sum "Si O2"
_cell_formula_units_Z 10
_cell_length_a 4.959973
_cell_length_b 6.570608
_cell_length_c 15.676373
_cell_angle_alpha 120.681289
_cell_angle_beta 105.150954
_cell_angle_gamma 97.028742
_cell_volume 403.479671
_symmetry_space_group_name_H-M "P -1"
_symmetry_group_IT_number 2
_symmetry_cell_setting 'triclinic'
loop_
_space_group_symop_operation_xyz
x,y,z
-x,-y,-z
loop_
_atom_site_type_symbol
_atom_site_label
_atom_site_fract_x
_atom_site_fract_y
_atom_site_fract_z
Si Si1 0.488892 0.945039 0.731863
Si Si2 0.194752 0.545925 0.203790
Si Si3 0.003826 0.206637 0.475923
Si Si4 0.351524 0.522152 0.396616
Si Si5 0.567211 0.216460 0.119835
O O1 0.716051 0.221456 0.803026
O O2 0.202353 0.921154 0.646016
O O3 0.675087 0.765408 0.679499
O O4 0.373094 0.890389 0.806994
O O5 0.349145 0.640434 0.328002
O O6 0.291868 0.320417 0.124464
O O7 0.845724 0.446605 0.165053
O O8 0.658379 0.672680 0.501780
O O9 0.915087 0.436994 0.560862
O O10 0.000000 0.000000 0.500000
O O11 0.500000 0.000000 0.000000
#
# Coordination Sequence:
#
# PCOD8034172 Si02
#       5
#     2   2   2   2   2
#     4  11  26  45  75 103 142 193 231 285 354 408
#     4  11  25  45  74 103 141 179 236 288 348 421
#     4  12  24  42  68 102 148 188 228 280 339 415
#     4  11  24  44  65 105 146 184 230 281 336 420
#     4  11  27  49  71 104 139 176 238 300 351 417
#
# _framework density 24.784397999999999
#
# number of rings (size 3 to 8) (size 9 to 14) (size 15 to 20)
#    0.000    0.800    2.000    4.800    0.000    9.600 
#    0.000    0.000    0.000    0.000    0.000    0.000 
#    0.000    0.000    0.000    0.000    0.000    0.000 
#
# Total GULP energy -124094.669062 kJ/mol
# GULP energy per Si atom -12409.466906 kJ/mol
# Density = 2.472799 g / cm^3
# Si number density = 24.784398 Si / 1000 Ang^3
#
#
#
# Elastic Constant Matrix: (Units=GPa)
#
#
# Indices 1 2 3 4 5 6 
#
# 1 133.4186 31.8320 34.2983 1.7954 -8.2665 19.7918
# 2 31.8320 111.5034 34.7189 0.4337 9.8268 25.2453
# 3 34.2983 34.7189 132.5921 2.2494 -14.9137 6.6112
# 4 1.7954 0.4337 2.2494 21.9065 1.6144 6.6674
# 5 -8.2665 9.8268 -14.9137 1.6144 36.6850 5.2886
# 6 19.7918 25.2453 6.6112 6.6674 5.2886 46.4582
#
#
#
# Elastic Compliance Matrix: (Units=1/GPa)
#
#
# Indices 1 2 3 4 5 6 
#
# 1 0.008829 -0.001587 -0.001472 0.000199 0.002236 -0.002973
# 2 -0.001587 0.011858 -0.002929 0.002074 -0.004068 -0.005185
# 3 -0.001472 -0.002929 0.009145 -0.001256 0.004135 0.000627
# 4 0.000199 0.002074 -0.001256 0.048220 -0.002030 -0.007722
# 5 0.002236 -0.004068 0.004135 -0.002030 0.030993 -0.002567
# 6 -0.002973 -0.005185 0.000627 -0.007722 -0.002567 0.026920
#
#
# Mechanical properties :
#
#
# Convention : Reuss Voigt Hill
#
# Bulk Modulus (GPa) = 56.00266 64.35696 60.17981
# Shear Modulus (GPa) = 32.49028 39.45427 35.97227
#
# Velocity S-wave (km/s) = 3.62459 3.99419 3.81387
# Velocity P-wave (km/s) = 6.33734 6.87710 6.61273
#
# Compressibility (1/GPa) = 0.01785630
#
# Stress axis : x y z
#
# Youngs Moduli (GPa) = 113.26215 84.33327 109.35244
#
# Poissons Ratio (x) = 0.13384 0.16096
# Poissons Ratio (y) = 0.17975 0.32025
# Poissons Ratio (z) = 0.16672 0.24698
#
# Static dielectric constant tensor:
#      x y z
#    x 4.553320 0.006520 -0.093400 
#    y 0.006520 4.790070 -0.194580 
#    z -0.093400 -0.194580 4.295230 
# 
# 
# High freq. dielectric constant tensor:
#      x y z
#    x 2.001600 0.009130 -0.011040 
#    y 0.009130 2.011310 -0.006380 
#    z -0.011040 -0.006380 1.967250 
# 
# From -- ./inp_files/2913.got.cif
#   From: 2010.06.25/outbox.cif.g09.slc.cpg/sg2_2_cif.got.tgz:2913.got - 2010.06.27 13:26:56.
