data_PCOD8034555
_publ_section_title
;
Structure prediction by ZEFSAII (Michael W. Deem and Ramdas Pophale) SiO2 
 PCOD8034555
Probable space group: P -1
;
_chemical_formula_sum "Si O2"
_cell_formula_units_Z 16
_cell_length_a 20.860020
_cell_length_b 17.282945
_cell_length_c 11.608288
_cell_angle_alpha 144.691531
_cell_angle_beta 43.932971
_cell_angle_gamma 160.894601
_cell_volume 762.457288
_symmetry_space_group_name_H-M "P -1"
_symmetry_group_IT_number 2
_symmetry_cell_setting 'triclinic'
loop_
_space_group_symop_operation_xyz
x,y,z
-x,-y,-z
loop_
_atom_site_type_symbol
_atom_site_label
_atom_site_fract_x
_atom_site_fract_y
_atom_site_fract_z
Si Si1 0.938251 0.352043 0.587741
Si Si2 0.045056 0.700828 0.240597
Si Si3 0.494866 0.289068 0.733259
Si Si4 0.148790 0.316578 0.675231
Si Si5 0.632852 0.697268 0.891259
Si Si6 0.713622 0.346573 0.628109
Si Si7 0.477414 0.372257 0.479241
Si Si8 0.074200 0.349332 0.046560
O O1 0.992222 0.352884 0.639874
O O2 0.960649 0.539224 0.794384
O O3 0.103192 0.513439 0.478186
O O4 0.707900 0.018808 0.444941
O O5 0.917153 0.656988 0.299287
O O6 0.275472 0.028040 0.310564
O O7 0.000000 0.500000 0.000000
O O8 0.618067 0.562588 0.841534
O O9 0.667782 0.399200 0.655628
O O10 0.430771 0.248300 0.896515
O O11 0.354119 0.524632 0.609680
O O12 0.185086 0.432054 0.892053
O O13 0.000000 0.000000 0.500000
O O14 0.479872 0.466838 0.705341
O O15 0.859272 0.998431 0.914485
O O16 0.782538 0.496850 0.843455
O O17 0.500000 0.000000 0.500000
O O18 0.500000 0.500000 0.500000
#
# Coordination Sequence:
#
# PCOD8034555 Si02
#       8
#     2   2   2   2   2   2   2   2
#     4  12  25  47  72 100 144 180 230 295 352 410
#     4  12  27  48  73 106 142 188 238 297 350 415
#     4  11  25  46  68 104 138 183 229 289 355 412
#     4  12  26  46  72 105 141 187 239 284 353 427
#     4  11  24  45  70  99 143 178 230 292 347 419
#     4  12  26  42  74 102 135 184 231 281 353 417
#     4  12  26  46  74 103 144 191 234 292 357 418
#     4  12  24  46  71 101 140 181 233 293 346 421
#
# _framework density 20.984783
#
# number of rings (size 3 to 8) (size 9 to 14) (size 15 to 20)
#    0.000    0.250    7.500    1.125    3.500    2.000 
#    0.000    0.000    0.000    0.000    0.000    0.000 
#    0.000    0.000    0.000    0.000    0.000    0.000 
#
# Total GULP energy -198435.018485 kJ/mol
# GULP energy per Si atom -12402.188655 kJ/mol
# Density = 2.093702 g / cm^3
# Si number density = 20.984783 Si / 1000 Ang^3
#
#
#
# Elastic Constant Matrix: (Units=GPa)
#
#
# Indices 1 2 3 4 5 6 
#
# 1 139.5551 26.2469 51.2005 -0.1233 1.1424 5.2836
# 2 26.2469 80.8816 29.6065 14.6031 -1.3114 4.5881
# 3 51.2005 29.6065 123.3784 4.6343 12.5976 2.7456
# 4 -0.1233 14.6031 4.6343 39.5172 -6.3068 -0.3286
# 5 1.1424 -1.3114 12.5976 -6.3068 40.9436 -3.4552
# 6 5.2836 4.5881 2.7456 -0.3286 -3.4552 36.5994
#
#
#
# Elastic Compliance Matrix: (Units=1/GPa)
#
#
# Indices 1 2 3 4 5 6 
#
# 1 0.008738 -0.001787 -0.003313 0.001205 0.000845 -0.000698
# 2 -0.001787 0.014936 -0.002662 -0.005156 0.000433 -0.001420
# 3 -0.003313 -0.002662 0.010500 -0.000799 -0.003372 -0.000301
# 4 0.001205 -0.005156 -0.000799 0.028031 0.004467 0.001206
# 5 0.000845 0.000433 -0.003372 0.004467 0.026359 0.002605
# 6 -0.000698 -0.001420 -0.000301 0.001206 0.002605 0.027881
#
#
# Mechanical properties :
#
#
# Convention : Reuss Voigt Hill
#
# Bulk Modulus (GPa) = 53.61865 61.99142 57.80504
# Shear Modulus (GPa) = 36.18309 39.19612 37.68961
#
# Velocity S-wave (km/s) = 4.15692 4.32653 4.24257
# Velocity P-wave (km/s) = 6.97471 7.38673 7.18368
#
# Compressibility (1/GPa) = 0.01865023
#
# Stress axis : x y z
#
# Youngs Moduli (GPa) = 114.44386 66.95075 95.23976
#
# Poissons Ratio (x) = 0.11964 0.31556
# Poissons Ratio (y) = 0.20451 0.25349
# Poissons Ratio (z) = 0.37919 0.17820
#
# Static dielectric constant tensor:
#      x y z
#    x 3.933360 -0.048100 0.112280 
#    y -0.048100 3.943880 -0.004110 
#    z 0.112280 -0.004110 4.030950 
# 
# 
# High freq. dielectric constant tensor:
#      x y z
#    x 1.837990 -0.007530 0.002270 
#    y -0.007530 1.822230 0.003670 
#    z 0.002270 0.003670 1.837830 
# 
# From -- ./inp_files/398171.got.cif
#   From: 2010.06.25/outbox.cif.g09.slc.cpg/sg2_200_cif.got.tgz:398171.got - 2010.06.27 13:26:56.
