data_PCOD8034135
_publ_section_title
;
Structure prediction by ZEFSAII (Michael W. Deem and Ramdas Pophale) SiO2 
 PCOD8034135
Probable space group: P -1
;
_chemical_formula_sum "Si O2"
_cell_formula_units_Z 16
_cell_length_a 8.710969
_cell_length_b 21.329670
_cell_length_c 9.074195
_cell_angle_alpha 57.136496
_cell_angle_beta 58.378538
_cell_angle_gamma 31.024757
_cell_volume 723.035944
_symmetry_space_group_name_H-M "P -1"
_symmetry_group_IT_number 2
_symmetry_cell_setting 'triclinic'
loop_
_space_group_symop_operation_xyz
x,y,z
-x,-y,-z
loop_
_atom_site_type_symbol
_atom_site_label
_atom_site_fract_x
_atom_site_fract_y
_atom_site_fract_z
Si Si1 0.129497 0.447238 0.659865
Si Si2 0.192226 0.008042 0.562068
Si Si3 0.886896 0.234716 0.920090
Si Si4 0.193163 0.004870 0.228818
Si Si5 0.810373 0.258262 0.584695
Si Si6 0.745239 0.621988 0.878317
Si Si7 0.780256 0.755397 0.099385
Si Si8 0.753250 0.787954 0.737985
O O1 0.450687 0.380249 0.604140
O O2 0.146157 0.355847 0.818347
O O3 0.000000 0.500000 0.500000
O O4 0.872192 0.578552 0.706163
O O5 0.097365 0.952608 0.683577
O O6 0.925909 0.146729 0.583947
O O7 0.262088 0.007683 0.358249
O O8 0.486013 0.923609 0.622747
O O9 0.919010 0.221567 0.745229
O O10 0.959973 0.292773 0.871279
O O11 0.555337 0.326055 0.024336
O O12 0.131260 0.097463 0.041831
O O13 0.468483 0.867583 0.198844
O O14 0.936403 0.289619 0.396965
O O15 0.681050 0.725963 0.830466
O O16 0.000000 0.500000 0.000000
O O17 0.764825 0.800363 0.890334
#
# Coordination Sequence:
#
# PCOD8034135 Si02
#       8
#     2   2   2   2   2   2   2   2
#     4  12  30  47  74  99 141 186 235 288 336 412
#     4  11  24  43  74 106 140 179 227 285 351 414
#     4  12  26  45  75 102 143 180 230 288 343 415
#     4  11  24  43  74 106 140 179 227 285 351 414
#     4  12  26  47  71 107 138 183 230 285 350 408
#     4  12  26  51  70 101 137 188 237 278 346 404
#     4  12  26  47  71 107 138 183 230 285 350 408
#     4  12  26  45  75 102 143 180 230 288 343 415
#
# _framework density 22.128910999999999
#
# number of rings (size 3 to 8) (size 9 to 14) (size 15 to 20)
#    0.000    0.250    5.000    3.000    7.000    3.000 
#    0.000    0.000    0.000    0.000    0.000    0.000 
#    0.000    0.000    0.000    0.000    0.000    0.000 
#
# Total GULP energy -198477.694077 kJ/mol
# GULP energy per Si atom -12404.855880 kJ/mol
# Density = 2.207855 g / cm^3
# Si number density = 22.128911 Si / 1000 Ang^3
#
#
#
# Elastic Constant Matrix: (Units=GPa)
#
#
# Indices 1 2 3 4 5 6 
#
# 1 104.7361 21.3619 48.4627 8.5923 7.7793 -14.9055
# 2 21.3619 79.5622 23.0529 17.4829 7.7674 -5.9978
# 3 48.4627 23.0529 140.1513 18.7789 33.2887 -11.9236
# 4 8.5923 17.4829 18.7789 41.4079 1.3589 6.1457
# 5 7.7793 7.7674 33.2887 1.3589 53.1062 9.5432
# 6 -14.9055 -5.9978 -11.9236 6.1457 9.5432 27.7301
#
#
#
# Elastic Compliance Matrix: (Units=1/GPa)
#
#
# Indices 1 2 3 4 5 6 
#
# 1 0.012268 -0.001666 -0.003279 -0.001115 -0.000406 0.005211
# 2 -0.001666 0.015092 0.000025 -0.006659 -0.002667 0.004773
# 3 -0.003279 0.000025 0.011427 -0.005298 -0.007812 0.007020
# 4 -0.001115 -0.006659 -0.005298 0.031379 0.006056 -0.013356
# 5 -0.000406 -0.002667 -0.007812 0.006056 0.026658 -0.014671
# 6 0.005211 0.004773 0.007020 -0.013356 -0.014671 0.050922
#
#
# Mechanical properties :
#
#
# Convention : Reuss Voigt Hill
#
# Bulk Modulus (GPa) = 34.54475 56.68941 45.61708
# Shear Modulus (GPa) = 29.89780 39.88699 34.89240
#
# Velocity S-wave (km/s) = 3.67968 4.25017 3.97518
# Velocity P-wave (km/s) = 5.80500 7.05398 6.45975
#
# Compressibility (1/GPa) = 0.02894796
#
# Stress axis : x y z
#
# Youngs Moduli (GPa) = 81.51220 66.25966 87.50836
#
# Poissons Ratio (x) = 0.11041 0.28693
# Poissons Ratio (y) = 0.13583 -0.00222
# Poissons Ratio (z) = 0.26727 -0.00168
#
# Static dielectric constant tensor:
#      x y z
#    x 4.266000 0.151580 -0.073220 
#    y 0.151580 3.766470 -0.171280 
#    z -0.073220 -0.171280 4.245620 
# 
# 
# High freq. dielectric constant tensor:
#      x y z
#    x 1.886940 -0.001560 0.004880 
#    y -0.001560 1.867430 0.008820 
#    z 0.004880 0.008820 1.886200 
# 
# From -- ./inp_files/185346.got.cif
#   From: 2010.06.25/outbox.cif.g09.slc.cpg/sg2_93_cif.got.tgz:185346.got - 2010.06.27 13:26:56.
