data_PCOD8034835
_publ_section_title
;
Structure prediction by ZEFSAII (Michael W. Deem and Ramdas Pophale) SiO2 
 PCOD8034835
Probable space group: P -1
;
_chemical_formula_sum "Si O2"
_cell_formula_units_Z 16
_cell_length_a 17.072064
_cell_length_b 22.887396
_cell_length_c 14.332218
_cell_angle_alpha 20.558401
_cell_angle_beta 32.711739
_cell_angle_gamma 21.634585
_cell_volume 706.671101
_symmetry_space_group_name_H-M "P -1"
_symmetry_group_IT_number 2
_symmetry_cell_setting 'triclinic'
loop_
_space_group_symop_operation_xyz
x,y,z
-x,-y,-z
loop_
_atom_site_type_symbol
_atom_site_label
_atom_site_fract_x
_atom_site_fract_y
_atom_site_fract_z
Si Si1 0.751082 0.125679 0.960546
Si Si2 0.872077 0.779979 0.198289
Si Si3 0.023558 0.449142 0.946333
Si Si4 0.082093 0.848787 0.764115
Si Si5 0.742566 0.390249 0.239945
Si Si6 0.114206 0.081746 0.658886
Si Si7 0.484536 0.041855 0.841701
Si Si8 0.405717 0.759015 0.679120
O O1 0.505187 0.405346 0.781387
O O2 0.920777 0.121344 0.761521
O O3 0.773209 0.937705 0.158040
O O4 0.786799 0.058711 0.132840
O O5 0.688877 0.932215 0.071945
O O6 0.000000 0.500000 0.500000
O O7 0.055687 0.749884 0.025713
O O8 0.981879 0.652271 0.625364
O O9 0.860082 0.446294 0.083498
O O10 0.000000 0.500000 0.000000
O O11 0.272040 0.190156 0.084179
O O12 0.223310 0.622196 0.886730
O O13 0.209884 0.901981 0.589006
O O14 0.848200 0.118927 0.561175
O O15 0.308106 0.926614 0.620173
O O16 0.426326 0.270916 0.506288
O O17 0.500000 0.000000 0.000000
O O18 0.500000 0.500000 0.000000
#
# Coordination Sequence:
#
# PCOD8034835 Si02
#       8
#     2   2   2   2   2   2   2   2
#     4  11  27  47  74 105 145 191 248 304 366 442
#     4  12  28  48  70 110 152 193 243 309 370 440
#     4  12  24  47  71 100 144 185 245 298 365 436
#     4  11  24  46  72 102 143 183 244 298 364 438
#     4  11  25  45  72 104 137 188 244 302 365 430
#     4  11  26  47  72 107 142 194 244 302 368 440
#     4  12  28  45  75 113 143 194 243 306 369 432
#     4  12  24  48  75 103 148 196 242 298 374 441
#
# _framework density 22.641368
#
# number of rings (size 3 to 8) (size 9 to 14) (size 15 to 20)
#    0.000    0.500    3.750    3.000    7.000    2.000 
#    0.000    0.000    0.000    0.000    0.000    0.000 
#    0.000    0.000    0.000    0.000    0.000    0.000 
#
# Total GULP energy -198254.846279 kJ/mol
# GULP energy per Si atom -12390.927892 kJ/mol
# Density = 2.258984 g / cm^3
# Si number density = 22.641368 Si / 1000 Ang^3
#
#
#
# Elastic Constant Matrix: (Units=GPa)
#
#
# Indices 1 2 3 4 5 6 
#
# 1 130.6726 41.1723 15.5944 5.8484 -8.5100 16.2029
# 2 41.1723 98.7393 29.3292 -0.4432 -2.8313 15.2877
# 3 15.5944 29.3292 114.0366 4.4277 -4.8023 8.3871
# 4 5.8484 -0.4432 4.4277 35.5569 2.1629 4.2106
# 5 -8.5100 -2.8313 -4.8023 2.1629 31.1774 2.3757
# 6 16.2029 15.2877 8.3871 4.2106 2.3757 39.5159
#
#
#
# Elastic Compliance Matrix: (Units=1/GPa)
#
#
# Indices 1 2 3 4 5 6 
#
# 1 0.009262 -0.003399 -0.000050 -0.001419 0.002498 -0.002471
# 2 -0.003399 0.012829 -0.002659 0.001426 -0.000031 -0.003155
# 3 -0.000050 -0.002659 0.009635 -0.001196 0.001384 -0.000951
# 4 -0.001419 0.001426 -0.001196 0.028977 -0.002249 -0.002668
# 5 0.002498 -0.000031 0.001384 -0.002249 0.033357 -0.003072
# 6 -0.002471 -0.003155 -0.000951 -0.002668 -0.003072 0.028211
#
#
# Mechanical properties :
#
#
# Convention : Reuss Voigt Hill
#
# Bulk Modulus (GPa) = 51.26057 57.29337 54.27697
# Shear Modulus (GPa) = 35.46308 38.40688 36.93498
#
# Velocity S-wave (km/s) = 3.96194 4.12310 4.04332
# Velocity P-wave (km/s) = 6.60444 6.93010 6.76923
#
# Compressibility (1/GPa) = 0.01950817
#
# Stress axis : x y z
#
# Youngs Moduli (GPa) = 107.96299 77.94796 103.79229
#
# Poissons Ratio (x) = 0.26498 0.00522
# Poissons Ratio (y) = 0.36701 0.27601
# Poissons Ratio (z) = 0.00543 0.20728
#
# Static dielectric constant tensor:
#      x y z
#    x 4.212350 -0.144630 -0.001810 
#    y -0.144630 4.077180 0.232830 
#    z -0.001810 0.232830 4.511280 
# 
# 
# High freq. dielectric constant tensor:
#      x y z
#    x 1.905120 -0.000750 0.003670 
#    y -0.000750 1.898060 0.001680 
#    z 0.003670 0.001680 1.902920 
# 
# From -- ./inp_files/539267.got.cif
#   From: 2010.06.25/outbox.cif.g09.slc.cpg/sg2_270_cif.got.tgz:539267.got - 2010.06.27 13:26:56.
