data_PCOD8034126
_publ_section_title
;
Structure prediction by ZEFSAII (Michael W. Deem and Ramdas Pophale) SiO2 
 PCOD8034126
Probable space group: P -1
;
_chemical_formula_sum "Si O2"
_cell_formula_units_Z 14
_cell_length_a 12.305120
_cell_length_b 6.376611
_cell_length_c 13.284637
_cell_angle_alpha 77.927193
_cell_angle_beta 132.114891
_cell_angle_gamma 130.144291
_cell_volume 543.364462
_symmetry_space_group_name_H-M "P -1"
_symmetry_group_IT_number 2
_symmetry_cell_setting 'triclinic'
loop_
_space_group_symop_operation_xyz
x,y,z
-x,-y,-z
loop_
_atom_site_type_symbol
_atom_site_label
_atom_site_fract_x
_atom_site_fract_y
_atom_site_fract_z
Si Si1 0.826736 0.664508 0.891456
Si Si2 0.591422 0.559778 0.281663
Si Si3 0.721306 0.238885 0.016380
Si Si4 0.345796 0.779817 0.513015
Si Si5 0.107765 0.884758 0.460028
Si Si6 0.307756 0.619996 0.803685
Si Si7 0.032288 0.215986 0.252042
O O1 0.607259 0.506848 0.813736
O O2 0.827678 0.643769 0.774827
O O3 0.857334 0.466871 0.985619
O O4 0.000000 0.000000 0.000000
O O5 0.559451 0.306032 0.348641
O O6 0.610872 0.523452 0.178272
O O7 0.801576 0.898390 0.408674
O O8 0.744933 0.430206 0.105287
O O9 0.807515 0.087014 0.107349
O O10 0.482932 0.978926 0.863063
O O11 0.296406 0.942303 0.529080
O O12 0.135262 0.483116 0.366433
O O13 0.500000 0.000000 0.500000
O O14 0.895643 0.530662 0.377744
O O15 0.024403 0.969160 0.315790
#
# Coordination Sequence:
#
# PCOD8034126 Si02
#       7
#     2   2   2   2   2   2   2
#     4  12  26  45  74 104 143 184 235 290 355 415
#     4  11  27  44  70 110 134 186 235 289 351 415
#     4  11  26  45  71 106 138 194 233 285 345 419
#     4  11  24  43  74 101 142 179 232 297 350 409
#     4  11  24  48  72 105 139 187 231 290 357 407
#     4  11  25  47  70 100 147 187 238 281 344 424
#     4  11  24  45  72 104 138 179 236 291 352 409
#
# _framework density 25.765395999999999
#
# number of rings (size 3 to 8) (size 9 to 14) (size 15 to 20)
#    0.000    0.857    1.429    4.286    6.000    6.286 
#    0.000    0.000    0.000    0.000    0.000    0.000 
#    0.000    0.000    0.000    0.000    0.000    0.000 
#
# Total GULP energy -173554.106044 kJ/mol
# GULP energy per Si atom -12396.721860 kJ/mol
# Density = 2.570675 g / cm^3
# Si number density = 25.765396 Si / 1000 Ang^3
#
#
#
# Elastic Constant Matrix: (Units=GPa)
#
#
# Indices 1 2 3 4 5 6 
#
# 1 117.8252 -15.8901 18.3893 14.6883 -7.9069 -14.4436
# 2 -15.8901 44.3010 24.1252 22.3364 8.1989 -9.2172
# 3 18.3893 24.1252 106.0396 29.3551 -1.1435 -8.4785
# 4 14.6883 22.3364 29.3551 45.7836 -5.0296 3.3566
# 5 -7.9069 8.1989 -1.1435 -5.0296 47.9014 8.7847
# 6 -14.4436 -9.2172 -8.4785 3.3566 8.7847 34.3477
#
#
#
# Elastic Compliance Matrix: (Units=1/GPa)
#
#
# Indices 1 2 3 4 5 6 
#
# 1 0.013177 0.014236 -0.001532 -0.011382 -0.003509 0.010993
# 2 0.014236 0.054508 -0.003969 -0.032262 -0.015362 0.026716
# 3 -0.001532 -0.003969 0.012311 -0.005633 -0.000227 0.001938
# 4 -0.011382 -0.032262 -0.005633 0.047911 0.012715 -0.022768
# 5 -0.003509 -0.015362 -0.000227 0.012715 0.026777 -0.013745
# 6 0.010993 0.026716 0.001938 -0.022768 -0.013745 0.047125
#
#
# Mechanical properties :
#
#
# Convention : Reuss Voigt Hill
#
# Bulk Modulus (GPa) = 10.25979 35.71273 22.98626
# Shear Modulus (GPa) = 23.05998 41.70929 32.38464
#
# Velocity S-wave (km/s) = 2.99490 4.02781 3.54913
# Velocity P-wave (km/s) = 3.99373 5.96002 5.07305
#
# Compressibility (1/GPa) = 0.09746786
#
# Stress axis : x y z
#
# Youngs Moduli (GPa) = 75.88851 18.34587 81.22923
#
# Poissons Ratio (x) = -0.26118 0.12445
# Poissons Ratio (y) = -1.08038 0.32236
# Poissons Ratio (z) = 0.11626 0.07281
#
# Static dielectric constant tensor:
#      x y z
#    x 4.834690 0.041200 -0.167730 
#    y 0.041200 4.675680 0.139490 
#    z -0.167730 0.139490 4.779260 
# 
# 
# High freq. dielectric constant tensor:
#      x y z
#    x 2.042350 -0.003630 -0.002220 
#    y -0.003630 2.027780 0.013180 
#    z -0.002220 0.013180 2.037590 
# 
# From -- ./inp_files/258426.got.cif
#   From: 2010.06.25/outbox.cif.g09.slc.cpg/sg2_130_cif.got.tgz:258426.got - 2010.06.27 13:26:56.
