data_PCOD8034722
_publ_section_title
;
Structure prediction by ZEFSAII (Michael W. Deem and Ramdas Pophale) SiO2 
 PCOD8034722
Probable space group: P -1
;
_chemical_formula_sum "Si O2"
_cell_formula_units_Z 12
_cell_length_a 9.527366
_cell_length_b 8.710236
_cell_length_c 11.632708
_cell_angle_alpha 142.075515
_cell_angle_beta 56.481425
_cell_angle_gamma 126.119295
_cell_volume 471.828102
_symmetry_space_group_name_H-M "P -1"
_symmetry_group_IT_number 2
_symmetry_cell_setting 'triclinic'
loop_
_space_group_symop_operation_xyz
x,y,z
-x,-y,-z
loop_
_atom_site_type_symbol
_atom_site_label
_atom_site_fract_x
_atom_site_fract_y
_atom_site_fract_z
Si Si1 0.851669 0.587174 0.555279
Si Si2 0.002990 0.609759 0.261564
Si Si3 0.395035 0.669574 0.077796
Si Si4 0.964289 0.052440 0.917823
Si Si5 0.774314 0.733259 0.257795
Si Si6 0.496519 0.750635 0.570950
O O1 0.919987 0.701122 0.465687
O O2 0.679268 0.340352 0.479069
O O3 0.000000 0.500000 0.500000
O O4 0.813643 0.815001 0.785495
O O5 0.955341 0.748462 0.253118
O O6 0.208577 0.645701 0.210504
O O7 0.898840 0.306698 0.101193
O O8 0.501061 0.981735 0.204602
O O9 0.500000 0.500000 0.000000
O O10 0.347766 0.550606 0.900569
O O11 0.148753 0.091325 0.785658
O O12 0.000000 0.000000 0.000000
O O13 0.658382 0.841905 0.462317
O O14 0.500000 0.500000 0.500000
#
# Coordination Sequence:
#
# PCOD8034722 Si02
#       6
#     2   2   2   2   2   2
#     4  12  27  45  76 108 152 201 255 320 382 463
#     4  11  25  49  77 109 149 208 255 314 390 458
#     4  11  28  48  76 113 157 200 258 321 387 459
#     4  11  24  45  77 109 145 198 257 313 384 456
#     4  11  27  49  80 110 155 205 261 318 382 468
#     4  12  29  49  75 117 156 203 259 322 388 454
#
# _framework density 25.43299
#
# number of rings (size 3 to 8) (size 9 to 14) (size 15 to 20)
#    0.000    0.667    3.333    3.000   11.667    4.000 
#    0.000    0.000    0.000    0.000    0.000    0.000 
#    0.000    0.000    0.000    0.000    0.000    0.000 
#
# Total GULP energy -148688.807892 kJ/mol
# GULP energy per Si atom -12390.733991 kJ/mol
# Density = 2.537510 g / cm^3
# Si number density = 25.432990 Si / 1000 Ang^3
#
#
#
# Elastic Constant Matrix: (Units=GPa)
#
#
# Indices 1 2 3 4 5 6 
#
# 1 165.9948 48.1437 42.8978 9.0101 8.5250 2.8599
# 2 48.1437 96.9737 32.8843 4.0339 4.4672 -13.4452
# 3 42.8978 32.8843 135.5324 22.4040 30.3097 -7.5519
# 4 9.0101 4.0339 22.4040 63.0477 5.7689 10.6235
# 5 8.5250 4.4672 30.3097 5.7689 44.1670 0.6083
# 6 2.8599 -13.4452 -7.5519 10.6235 0.6083 32.2826
#
#
#
# Elastic Compliance Matrix: (Units=1/GPa)
#
#
# Indices 1 2 3 4 5 6 
#
# 1 0.007521 -0.003522 -0.001725 0.000193 0.000099 -0.002602
# 2 -0.003522 0.013485 -0.001854 -0.000720 0.000604 0.005720
# 3 -0.001725 -0.001854 0.010497 -0.003301 -0.006294 0.003041
# 4 0.000193 -0.000720 -0.003301 0.018247 0.000016 -0.007094
# 5 0.000099 0.000604 -0.006294 0.000016 0.026902 -0.001742
# 6 -0.002602 0.005720 0.003041 -0.007094 -0.001742 0.036668
#
#
# Mechanical properties :
#
#
# Convention : Reuss Voigt Hill
#
# Bulk Modulus (GPa) = 57.80492 71.81695 64.81093
# Shear Modulus (GPa) = 37.51263 46.20447 41.85855
#
# Velocity S-wave (km/s) = 3.84469 4.26692 4.06129
# Velocity P-wave (km/s) = 6.51817 7.25082 6.89423
#
# Compressibility (1/GPa) = 0.01729957
#
# Stress axis : x y z
#
# Youngs Moduli (GPa) = 132.96308 74.15799 95.26681
#
# Poissons Ratio (x) = 0.26120 0.16432
# Poissons Ratio (y) = 0.46833 0.17666
# Poissons Ratio (z) = 0.22934 0.13751
#
# Static dielectric constant tensor:
#      x y z
#    x 5.218580 0.027320 0.254070 
#    y 0.027320 4.763240 0.764640 
#    z 0.254070 0.764640 6.471580 
# 
# 
# High freq. dielectric constant tensor:
#      x y z
#    x 2.013050 0.003910 0.021640 
#    y 0.003910 2.004270 0.009740 
#    z 0.021640 0.009740 2.035370 
# 
# From -- ./inp_files/383656.got.cif
#   From: 2010.06.25/outbox.cif.g09.slc.cpg/sg2_192_cif.got.tgz:383656.got - 2010.06.27 13:26:56.
