data_PCOD8034254
_publ_section_title
;
Structure prediction by ZEFSAII (Michael W. Deem and Ramdas Pophale) SiO2 
 PCOD8034254
Probable space group: P -1
;
_chemical_formula_sum "Si O2"
_cell_formula_units_Z 16
_cell_length_a 9.383843
_cell_length_b 14.431325
_cell_length_c 9.101172
_cell_angle_alpha 141.295465
_cell_angle_beta 68.903824
_cell_angle_gamma 113.843780
_cell_volume 702.771967
_symmetry_space_group_name_H-M "P -1"
_symmetry_group_IT_number 2
_symmetry_cell_setting 'triclinic'
loop_
_space_group_symop_operation_xyz
x,y,z
-x,-y,-z
loop_
_atom_site_type_symbol
_atom_site_label
_atom_site_fract_x
_atom_site_fract_y
_atom_site_fract_z
Si Si1 0.496465 0.224686 0.852847
Si Si2 0.040388 0.541352 0.370277
Si Si3 0.274148 0.597185 0.795288
Si Si4 0.006781 0.872199 0.717574
Si Si5 0.339036 0.921247 0.633661
Si Si6 0.570126 0.171795 0.228010
Si Si7 0.321575 0.417647 0.993785
Si Si8 0.277317 0.293291 0.544117
O O1 0.553775 0.161208 0.604916
O O2 0.345823 0.295338 0.956657
O O3 0.434084 0.094367 0.834238
O O4 0.650455 0.336358 0.996747
O O5 0.000000 0.500000 0.500000
O O6 0.914234 0.426403 0.172000
O O7 0.015625 0.710326 0.579555
O O8 0.214385 0.524784 0.237676
O O9 0.350693 0.709381 0.776620
O O10 0.306641 0.426187 0.572471
O O11 0.859763 0.847854 0.631519
O O12 0.169458 0.924572 0.631112
O O13 0.000000 0.000000 0.000000
O O14 0.305955 0.837581 0.700291
O O15 0.433404 0.234328 0.432355
O O16 0.500000 0.000000 0.000000
O O17 0.236838 0.349113 0.789904
O O18 0.500000 0.500000 0.000000
#
# Coordination Sequence:
#
# PCOD8034254 Si02
#       8
#     2   2   2   2   2   2   2   2
#     4  11  24  44  70 105 136 190 239 302 354 433
#     4  11  28  46  73 109 145 190 241 303 373 427
#     4  11  25  43  74 103 144 179 242 302 360 424
#     4  11  26  46  69 100 147 190 235 298 362 434
#     4  11  24  44  69  99 146 187 239 287 370 426
#     4  12  23  44  70 104 143 189 243 296 358 435
#     4  12  25  46  76 105 148 188 247 301 366 437
#     4  11  26  44  71 109 138 193 244 299 366 428
#
# _framework density 22.766988000000001
#
# number of rings (size 3 to 8) (size 9 to 14) (size 15 to 20)
#    0.000    0.750    3.750    2.625    5.250    2.000 
#    0.000    0.625    0.000    0.000    0.000    0.000 
#    0.000    0.000    0.000    0.000    0.000    0.000 
#
# Total GULP energy -198229.004046 kJ/mol
# GULP energy per Si atom -12389.312753 kJ/mol
# Density = 2.271517 g / cm^3
# Si number density = 22.766988 Si / 1000 Ang^3
#
#
#
# Elastic Constant Matrix: (Units=GPa)
#
#
# Indices 1 2 3 4 5 6 
#
# 1 138.7203 42.7105 49.1971 8.6758 10.6139 8.9663
# 2 42.7105 89.1428 42.7887 2.9842 1.6469 -6.3015
# 3 49.1971 42.7887 103.4294 15.4224 -0.6729 -1.3218
# 4 8.6758 2.9842 15.4224 25.5691 4.8901 4.3896
# 5 10.6139 1.6469 -0.6729 4.8901 47.8562 1.4963
# 6 8.9663 -6.3015 -1.3218 4.3896 1.4963 35.1441
#
#
#
# Elastic Compliance Matrix: (Units=1/GPa)
#
#
# Indices 1 2 3 4 5 6 
#
# 1 0.009750 -0.003248 -0.003348 0.000007 -0.002001 -0.003111
# 2 -0.003248 0.015361 -0.005045 0.001840 -0.000166 0.003170
# 3 -0.003348 -0.005045 0.014514 -0.007619 0.001856 0.001368
# 4 0.000007 0.001840 -0.007619 0.045305 -0.004632 -0.005420
# 5 -0.002001 -0.000166 0.001856 -0.004632 0.021839 0.000199
# 6 -0.003111 0.003170 0.001368 -0.005420 0.000199 0.030537
#
#
# Mechanical properties :
#
#
# Convention : Reuss Voigt Hill
#
# Bulk Modulus (GPa) = 61.18594 66.74278 63.96436
# Shear Modulus (GPa) = 30.11444 34.82029 32.46736
#
# Velocity S-wave (km/s) = 3.64087 3.91502 3.78043
# Velocity P-wave (km/s) = 6.67891 7.05803 6.87108
#
# Compressibility (1/GPa) = 0.01634363
#
# Stress axis : x y z
#
# Youngs Moduli (GPa) = 102.56694 65.09909 68.90047
#
# Poissons Ratio (x) = 0.21141 0.23067
# Poissons Ratio (y) = 0.33309 0.34761
# Poissons Ratio (z) = 0.34338 0.32843
#
# Static dielectric constant tensor:
#      x y z
#    x 3.909140 0.034450 0.534630 
#    y 0.034450 4.362430 0.339020 
#    z 0.534630 0.339020 3.857940 
# 
# 
# High freq. dielectric constant tensor:
#      x y z
#    x 1.916680 -0.003030 0.009810 
#    y -0.003030 1.898060 0.020880 
#    z 0.009810 0.020880 1.894510 
# 
# From -- ./inp_files/209227.got.cif
#   From: 2010.06.25/outbox.cif.g09.slc.cpg/sg2_105_cif.got.tgz:209227.got - 2010.06.27 13:26:56.
