data_PCOD8034447
_publ_section_title
;
Structure prediction by ZEFSAII (Michael W. Deem and Ramdas Pophale) SiO2 
 PCOD8034447
Probable space group: P -1
;
_chemical_formula_sum "Si O2"
_cell_formula_units_Z 16
_cell_length_a 9.661194
_cell_length_b 8.839861
_cell_length_c 14.029521
_cell_angle_alpha 67.207314
_cell_angle_beta 79.952689
_cell_angle_gamma 130.618630
_cell_volume 664.589001
_symmetry_space_group_name_H-M "P -1"
_symmetry_group_IT_number 2
_symmetry_cell_setting 'triclinic'
loop_
_space_group_symop_operation_xyz
x,y,z
-x,-y,-z
loop_
_atom_site_type_symbol
_atom_site_label
_atom_site_fract_x
_atom_site_fract_y
_atom_site_fract_z
Si Si1 0.569542 0.118836 0.066733
Si Si2 0.690978 0.902561 0.774247
Si Si3 0.106741 0.426036 0.495972
Si Si4 0.016208 0.855571 0.597483
Si Si5 0.821148 0.691010 0.866512
Si Si6 0.144253 0.934727 0.933690
Si Si7 0.525068 0.356577 0.473909
Si Si8 0.294451 0.420950 0.806290
O O1 0.690218 0.407904 0.984969
O O2 0.351859 0.961830 0.198797
O O3 0.726028 0.116916 0.088771
O O4 0.500000 0.000000 0.000000
O O5 0.687495 0.741377 0.885615
O O6 0.500874 0.704528 0.763770
O O7 0.941004 0.138892 0.636895
O O8 0.112983 0.400359 0.388016
O O9 0.000000 0.500000 0.500000
O O10 0.354887 0.654657 0.461909
O O11 0.867500 0.726166 0.740961
O O12 0.280224 0.058164 0.542883
O O13 0.000000 0.000000 0.500000
O O14 0.048634 0.906914 0.850437
O O15 0.310440 0.239014 0.871240
O O16 0.946347 0.728854 0.087845
O O17 0.500000 0.500000 0.500000
O O18 0.689419 0.529589 0.320273
#
# Coordination Sequence:
#
# PCOD8034447 Si02
#       8
#     2   2   2   2   2   2   2   2
#     4  12  29  45  71 107 150 189 242 306 373 429
#     4  12  25  49  72 102 145 196 243 301 368 446
#     4  12  29  47  71 112 151 190 252 310 369 438
#     4  12  24  49  77 108 142 192 255 303 363 448
#     4  12  25  47  75 104 144 191 245 301 365 444
#     4  11  26  46  69 113 141 191 243 304 368 438
#     4  12  24  46  78 106 141 199 247 300 366 436
#     4  11  24  44  79 100 149 189 250 296 368 445
#
# _framework density 24.075032
#
# number of rings (size 3 to 8) (size 9 to 14) (size 15 to 20)
#    0.000    0.250    5.000    3.000    7.000    2.500 
#    0.000    0.000    0.000    0.000    0.000    0.000 
#    0.000    0.000    0.000    0.000    0.000    0.000 
#
# Total GULP energy -198355.109460 kJ/mol
# GULP energy per Si atom -12397.194341 kJ/mol
# Density = 2.402024 g / cm^3
# Si number density = 24.075032 Si / 1000 Ang^3
#
#
#
# Elastic Constant Matrix: (Units=GPa)
#
#
# Indices 1 2 3 4 5 6 
#
# 1 167.3451 44.6883 4.4463 23.8697 -8.6885 -1.8300
# 2 44.6883 117.4511 7.9349 29.5083 -2.0738 17.0115
# 3 4.4463 7.9349 58.7741 31.3367 -9.6796 6.4469
# 4 23.8697 29.5083 31.3367 48.6690 -3.0741 -2.4309
# 5 -8.6885 -2.0738 -9.6796 -3.0741 28.3165 2.0086
# 6 -1.8300 17.0115 6.4469 -2.4309 2.0086 47.0893
#
#
#
# Elastic Compliance Matrix: (Units=1/GPa)
#
#
# Indices 1 2 3 4 5 6 
#
# 1 0.007048 -0.002034 0.001750 -0.003184 0.002230 0.000510
# 2 -0.002034 0.012182 0.004302 -0.009367 0.001119 -0.005600
# 3 0.001750 0.004302 0.031049 -0.023227 0.009465 -0.007340
# 4 -0.003184 -0.009367 -0.023227 0.042835 -0.005583 0.008890
# 5 0.002230 0.001119 0.009465 -0.005583 0.038963 -0.003564
# 6 0.000510 -0.005600 -0.007340 0.008890 -0.003564 0.024895
#
#
# Mechanical properties :
#
#
# Convention : Reuss Voigt Hill
#
# Bulk Modulus (GPa) = 17.14809 50.85658 34.00234
# Shear Modulus (GPa) = 29.69571 43.91502 36.80536
#
# Velocity S-wave (km/s) = 3.51588 4.27557 3.91420
# Velocity P-wave (km/s) = 4.86006 6.74863 5.88065
#
# Compressibility (1/GPa) = 0.05831552
#
# Stress axis : x y z
#
# Youngs Moduli (GPa) = 141.88526 82.08875 32.20695
#
# Poissons Ratio (x) = 0.16700 -0.05638
# Poissons Ratio (y) = 0.28865 -0.13856
# Poissons Ratio (z) = -0.24836 -0.35317
#
# Static dielectric constant tensor:
#      x y z
#    x 4.448520 -0.164120 0.159590 
#    y -0.164120 4.517280 0.670120 
#    z 0.159590 0.670120 3.454170 
# 
# 
# High freq. dielectric constant tensor:
#      x y z
#    x 1.951500 -0.000760 -0.008170 
#    y -0.000760 1.970540 0.014650 
#    z -0.008170 0.014650 1.958860 
# 
# From -- ./inp_files/494665.got.cif
#   From: 2010.06.25/outbox.cif.g09.slc.cpg/sg2_248_cif.got.tgz:494665.got - 2010.06.27 13:26:56.
