data_PCOD8034908
_publ_section_title
;
Structure prediction by ZEFSAII (Michael W. Deem and Ramdas Pophale) SiO2 
 PCOD8034908
Probable space group: P -1
;
_chemical_formula_sum "Si O2"
_cell_formula_units_Z 16
_cell_length_a 15.027266
_cell_length_b 6.664639
_cell_length_c 8.542904
_cell_angle_alpha 109.344318
_cell_angle_beta 115.736805
_cell_angle_gamma 64.737818
_cell_volume 685.726844
_symmetry_space_group_name_H-M "P -1"
_symmetry_group_IT_number 2
_symmetry_cell_setting 'triclinic'
loop_
_space_group_symop_operation_xyz
x,y,z
-x,-y,-z
loop_
_atom_site_type_symbol
_atom_site_label
_atom_site_fract_x
_atom_site_fract_y
_atom_site_fract_z
Si Si1 0.750553 0.452902 0.868992
Si Si2 0.212386 0.497728 0.431367
Si Si3 0.430542 0.717395 0.406465
Si Si4 0.926413 0.124163 0.114997
Si Si5 0.624274 0.876637 0.071991
Si Si6 0.593207 0.808963 0.363493
Si Si7 0.802246 0.056282 0.275841
Si Si8 0.917423 0.728109 0.540928
O O1 0.815086 0.451909 0.758564
O O2 0.680333 0.296532 0.737767
O O3 0.838975 0.351984 0.042896
O O4 0.673195 0.699251 0.924640
O O5 0.335229 0.357674 0.495848
O O6 0.187402 0.719329 0.578645
O O7 0.157191 0.322121 0.399813
O O8 0.500000 0.500000 0.500000
O O9 0.482266 0.773555 0.300749
O O10 0.411644 0.932007 0.560277
O O11 0.860153 0.002800 0.136944
O O12 0.014814 0.131488 0.304397
O O13 0.000000 0.000000 0.000000
O O14 0.639978 0.731655 0.207100
O O15 0.682003 0.065347 0.164095
O O16 0.500000 0.000000 0.000000
O O17 0.853396 0.844198 0.371071
O O18 0.000000 0.500000 0.500000
#
# Coordination Sequence:
#
# PCOD8034908 Si02
#       8
#     2   2   2   2   2   2   2   2
#     4  12  28  47  71 115 150 193 245 311 376 436
#     4  12  26  47  80 102 145 199 251 303 357 453
#     4  11  24  46  75 103 144 192 249 292 363 446
#     4  12  29  47  75 110 149 193 241 317 380 422
#     4  12  28  46  72 112 154 192 237 308 380 433
#     4  11  25  45  74 104 140 198 249 293 358 453
#     4  12  27  52  75 107 150 197 251 300 367 455
#     4  12  26  50  77 103 140 198 258 297 367 444
#
# _framework density 23.332906999999999
#
# number of rings (size 3 to 8) (size 9 to 14) (size 15 to 20)
#    0.000    0.250    3.750    4.125   10.500    1.000 
#    0.000    0.000    0.000    0.000    0.000    0.000 
#    0.000    0.000    0.000    0.000    0.000    0.000 
#
# Total GULP energy -198302.512299 kJ/mol
# GULP energy per Si atom -12393.907019 kJ/mol
# Density = 2.327980 g / cm^3
# Si number density = 23.332907 Si / 1000 Ang^3
#
#
#
# Elastic Constant Matrix: (Units=GPa)
#
#
# Indices 1 2 3 4 5 6 
#
# 1 163.4225 38.5300 55.7872 -12.1864 -17.0865 11.5649
# 2 38.5300 97.6918 23.8657 -3.1842 -0.5657 -3.4244
# 3 55.7872 23.8657 85.7997 -9.8030 -10.1030 6.7481
# 4 -12.1864 -3.1842 -9.8030 27.1293 -8.0948 -5.3743
# 5 -17.0865 -0.5657 -10.1030 -8.0948 46.5020 -3.7818
# 6 11.5649 -3.4244 6.7481 -5.3743 -3.7818 42.8986
#
#
#
# Elastic Compliance Matrix: (Units=1/GPa)
#
#
# Indices 1 2 3 4 5 6 
#
# 1 0.008690 -0.002322 -0.004303 0.002586 0.002574 -0.001300
# 2 -0.002322 0.011695 -0.002052 -0.000391 -0.001084 0.001738
# 3 -0.004303 -0.002052 0.015852 0.004150 0.002499 -0.000757
# 4 0.002586 -0.000391 0.004150 0.043373 0.009797 0.004916
# 5 0.002574 -0.001084 0.002499 0.009797 0.024868 0.002246
# 6 -0.001300 0.001738 -0.000757 0.004916 0.002246 0.024733
#
#
# Mechanical properties :
#
#
# Convention : Reuss Voigt Hill
#
# Bulk Modulus (GPa) = 52.96200 64.80885 58.88543
# Shear Modulus (GPa) = 32.70970 38.55472 35.63221
#
# Velocity S-wave (km/s) = 3.74822 4.06935 3.91208
# Velocity P-wave (km/s) = 6.44049 7.06509 6.76001
#
# Compressibility (1/GPa) = 0.01888146
#
# Stress axis : x y z
#
# Youngs Moduli (GPa) = 115.07975 85.50343 63.08491
#
# Poissons Ratio (x) = 0.19857 0.27146
# Poissons Ratio (y) = 0.26725 0.12946
# Poissons Ratio (z) = 0.49521 0.17546
#
# Static dielectric constant tensor:
#      x y z
#    x 4.473530 0.001360 -0.014510 
#    y 0.001360 4.031240 -0.159580 
#    z -0.014510 -0.159580 4.129690 
# 
# 
# High freq. dielectric constant tensor:
#      x y z
#    x 1.951520 0.001940 -0.004160 
#    y 0.001940 1.916770 -0.009410 
#    z -0.004160 -0.009410 1.922060 
# 
# From -- ./inp_files/324016.got.cif
#   From: 2010.06.25/outbox.cif.g09.slc.cpg/sg2_163_cif.got.tgz:324016.got - 2010.06.27 13:26:56.
