data_PCOD8034865
_publ_section_title
;
Structure prediction by ZEFSAII (Michael W. Deem and Ramdas Pophale) SiO2 
 PCOD8034865
Probable space group: P -1
;
_chemical_formula_sum "Si O2"
_cell_formula_units_Z 12
_cell_length_a 9.561253
_cell_length_b 9.275227
_cell_length_c 10.863343
_cell_angle_alpha 53.563451
_cell_angle_beta 76.626204
_cell_angle_gamma 44.706243
_cell_volume 513.309920
_symmetry_space_group_name_H-M "P -1"
_symmetry_group_IT_number 2
_symmetry_cell_setting 'triclinic'
loop_
_space_group_symop_operation_xyz
x,y,z
-x,-y,-z
loop_
_atom_site_type_symbol
_atom_site_label
_atom_site_fract_x
_atom_site_fract_y
_atom_site_fract_z
Si Si1 0.112747 0.735361 0.177481
Si Si2 0.180346 0.885627 0.331387
Si Si3 0.483642 0.192416 0.824591
Si Si4 0.260585 0.713358 0.668634
Si Si5 0.174258 0.292020 0.673315
Si Si6 0.526391 0.154228 0.336965
O O1 0.319566 0.466515 0.204660
O O2 0.944843 0.730269 0.199056
O O3 0.164122 0.745674 0.301661
O O4 0.000000 0.000000 0.000000
O O5 0.955164 0.159131 0.290762
O O6 0.306152 0.946935 0.225115
O O7 0.286700 0.696238 0.523469
O O8 0.436816 0.401646 0.821840
O O9 0.275940 0.364348 0.690560
O O10 0.500000 0.000000 0.000000
O O11 0.296676 0.880812 0.622371
O O12 0.000000 0.500000 0.500000
O O13 0.380502 0.995977 0.734293
O O14 0.500000 0.000000 0.500000
#
# Coordination Sequence:
#
# PCOD8034865 Si02
#       6
#     2   2   2   2   2   2
#     4  12  26  45  72 106 148 188 239 307 369 429
#     4  11  24  46  73 103 142 191 246 298 360 441
#     4  12  27  46  72 107 150 192 239 304 376 438
#     4  11  25  44  77 102 140 191 247 297 364 436
#     4  12  26  45  72 108 145 187 251 298 357 445
#     4  12  25  44  76 107 139 192 245 298 367 431
#
# _framework density 23.377692
#
# number of rings (size 3 to 8) (size 9 to 14) (size 15 to 20)
#    0.000    0.333    5.000    3.500    2.333    4.000 
#    0.000    0.000    0.000    0.000    0.000    0.000 
#    0.000    0.000    0.000    0.000    0.000    0.000 
#
# Total GULP energy -148683.909969 kJ/mol
# GULP energy per Si atom -12390.325831 kJ/mol
# Density = 2.332448 g / cm^3
# Si number density = 23.377692 Si / 1000 Ang^3
#
#
#
# Elastic Constant Matrix: (Units=GPa)
#
#
# Indices 1 2 3 4 5 6 
#
# 1 146.0105 20.1174 32.0334 9.2535 -29.8079 -19.1657
# 2 20.1174 98.2961 22.7872 -9.0044 -20.0067 -20.1606
# 3 32.0334 22.7872 84.6930 -21.5553 -24.1972 -13.3940
# 4 9.2535 -9.0044 -21.5553 34.4729 3.1452 -3.9691
# 5 -29.8079 -20.0067 -24.1972 3.1452 35.6173 5.5883
# 6 -19.1657 -20.1606 -13.3940 -3.9691 5.5883 47.9312
#
#
#
# Elastic Compliance Matrix: (Units=1/GPa)
#
#
# Indices 1 2 3 4 5 6 
#
# 1 0.009168 -0.000091 -0.002569 -0.004424 0.005977 0.001847
# 2 -0.000091 0.012727 -0.000068 0.003323 0.005968 0.004877
# 3 -0.002569 -0.000068 0.019219 0.012351 0.009107 0.004276
# 4 -0.004424 0.003323 0.012351 0.039293 0.002130 0.006086
# 5 0.005977 0.005968 0.009107 0.002130 0.042002 0.002725
# 6 0.001847 0.004877 0.004276 0.006086 0.002725 0.025034
#
#
# Mechanical properties :
#
#
# Convention : Reuss Voigt Hill
#
# Bulk Modulus (GPa) = 28.04380 53.20840 40.62610
# Shear Modulus (GPa) = 30.34259 40.54172 35.44216
#
# Velocity S-wave (km/s) = 3.60659 4.16890 3.89790
# Velocity P-wave (km/s) = 5.41898 6.78105 6.13791
#
# Compressibility (1/GPa) = 0.03565850
#
# Stress axis : x y z
#
# Youngs Moduli (GPa) = 109.07508 78.57199 52.03240
#
# Poissons Ratio (x) = 0.00712 0.13370
# Poissons Ratio (y) = 0.00989 0.00352
# Poissons Ratio (z) = 0.28027 0.00531
#
# Static dielectric constant tensor:
#      x y z
#    x -2.584670 -0.762640 -0.012450 
#    y -0.762640 4.387040 -0.015630 
#    z -0.012450 -0.015630 3.854170 
# 
# 
# High freq. dielectric constant tensor:
#      x y z
#    x 1.948600 -0.007840 -0.015220 
#    y -0.007840 1.933550 -0.009460 
#    z -0.015220 -0.009460 1.905160 
# 
# From -- ./inp_files/181992.got.cif
#   From: 2010.06.25/outbox.cif.g09.slc.cpg/sg2_91_cif.got.tgz:181992.got - 2010.06.27 13:26:56.
