data_PCOD8034820
_publ_section_title
;
Structure prediction by ZEFSAII (Michael W. Deem and Ramdas Pophale) SiO2 
 PCOD8034820
Probable space group: P -1
;
_chemical_formula_sum "Si O2"
_cell_formula_units_Z 14
_cell_length_a 12.330768
_cell_length_b 9.858388
_cell_length_c 8.889585
_cell_angle_alpha 111.237090
_cell_angle_beta 78.087481
_cell_angle_gamma 48.244157
_cell_volume 574.967856
_symmetry_space_group_name_H-M "P -1"
_symmetry_group_IT_number 2
_symmetry_cell_setting 'triclinic'
loop_
_space_group_symop_operation_xyz
x,y,z
-x,-y,-z
loop_
_atom_site_type_symbol
_atom_site_label
_atom_site_fract_x
_atom_site_fract_y
_atom_site_fract_z
Si Si1 0.176140 0.953069 0.462348
Si Si2 0.667394 0.472297 0.642667
Si Si3 0.286715 0.791639 0.028311
Si Si4 0.465714 0.767006 0.535316
Si Si5 0.172199 0.468464 0.197502
Si Si6 0.857628 0.816715 0.988379
Si Si7 0.245429 0.493935 0.881826
O O1 0.137176 0.826213 0.481314
O O2 0.247298 0.885695 0.245750
O O3 0.355311 0.781712 0.457520
O O4 0.023775 0.236515 0.658526
O O5 0.604804 0.523284 0.507650
O O6 0.720734 0.584454 0.706171
O O7 0.506427 0.590646 0.852738
O O8 0.232007 0.683181 0.970049
O O9 0.157083 0.028173 0.051777
O O10 0.603667 0.719351 0.373690
O O11 0.323396 0.009287 0.778989
O O12 0.133519 0.339051 0.177304
O O13 0.304541 0.362810 0.972585
O O14 0.044527 0.634820 0.959424
#
# Coordination Sequence:
#
# PCOD8034820 Si02
#       7
#     2   2   2   2   2   2   2
#     4  12  23  44  71 108 138 188 234 295 347 421
#     4  11  24  46  71 110 140 185 241 298 351 421
#     4  11  25  44  76 103 143 184 246 290 353 421
#     4  11  26  44  76 103 145 182 240 295 356 410
#     4  12  27  46  73 102 154 184 235 292 360 425
#     4  11  28  49  66 111 147 188 233 294 357 427
#     4  12  24  46  74 107 136 191 238 295 346 423
#
# _framework density 24.349186
#
# number of rings (size 3 to 8) (size 9 to 14) (size 15 to 20)
#    0.000    0.571    4.286    3.000    4.000    3.429 
#    2.571    0.000    0.000    0.000    0.000    0.000 
#    0.000    0.000    0.000    0.000    0.000    0.000 
#
# Total GULP energy -173548.596009 kJ/mol
# GULP energy per Si atom -12396.328286 kJ/mol
# Density = 2.429377 g / cm^3
# Si number density = 24.349186 Si / 1000 Ang^3
#
#
#
# Elastic Constant Matrix: (Units=GPa)
#
#
# Indices 1 2 3 4 5 6 
#
# 1 95.3881 14.3174 15.6030 0.7403 24.5227 22.2327
# 2 14.3174 29.8194 18.2955 -8.4541 6.4135 6.1366
# 3 15.6030 18.2955 98.9548 -17.3531 7.3121 -10.3358
# 4 0.7403 -8.4541 -17.3531 37.1127 1.5339 12.5303
# 5 24.5227 6.4135 7.3121 1.5339 32.8139 -0.8604
# 6 22.2327 6.1366 -10.3358 12.5303 -0.8604 30.6553
#
#
#
# Elastic Compliance Matrix: (Units=1/GPa)
#
#
# Indices 1 2 3 4 5 6 
#
# 1 0.018230 0.000731 -0.002919 0.004621 -0.013768 -0.016627
# 2 0.000731 0.047722 -0.007761 0.013906 -0.009283 -0.018644
# 3 -0.002919 -0.007761 0.013027 0.001872 0.000900 0.007323
# 4 0.004621 0.013906 0.001872 0.038526 -0.008953 -0.021502
# 5 -0.013768 -0.009283 0.000900 -0.008953 0.043243 0.017020
# 6 -0.016627 -0.018644 0.007323 -0.021502 0.017020 0.060147
#
#
# Mechanical properties :
#
#
# Convention : Reuss Voigt Hill
#
# Bulk Modulus (GPa) = 16.92579 35.62159 26.27369
# Shear Modulus (GPa) = 19.19473 31.84614 25.52043
#
# Velocity S-wave (km/s) = 2.81073 3.62040 3.24095
# Velocity P-wave (km/s) = 4.18330 5.66901 4.98185
#
# Compressibility (1/GPa) = 0.05908144
#
# Stress axis : x y z
#
# Youngs Moduli (GPa) = 54.85364 20.95468 76.76090
#
# Poissons Ratio (x) = -0.01531 0.22403
# Poissons Ratio (y) = -0.04008 0.59577
# Poissons Ratio (z) = 0.16009 0.16264
#
# Static dielectric constant tensor:
#      x y z
#    x 4.380640 -0.192760 -0.003820 
#    y -0.192760 4.318120 -0.024260 
#    z -0.003820 -0.024260 4.522690 
# 
# 
# High freq. dielectric constant tensor:
#      x y z
#    x 1.974780 -0.017070 0.007760 
#    y -0.017070 1.961680 -0.005030 
#    z 0.007760 -0.005030 1.971830 
# 
# From -- ./inp_files/244948.got.cif
#   From: 2010.06.25/outbox.cif.g09.slc.cpg/sg2_123_cif.got.tgz:244948.got - 2010.06.27 13:26:56.
