data_PCOD8034277
_publ_section_title
;
Structure prediction by ZEFSAII (Michael W. Deem and Ramdas Pophale) SiO2 
 PCOD8034277
Probable space group: P -1
;
_chemical_formula_sum "Si O2"
_cell_formula_units_Z 16
_cell_length_a 8.680558
_cell_length_b 22.722083
_cell_length_c 8.873641
_cell_angle_alpha 53.113701
_cell_angle_beta 94.393232
_cell_angle_gamma 137.855637
_cell_volume 683.000698
_symmetry_space_group_name_H-M "P -1"
_symmetry_group_IT_number 2
_symmetry_cell_setting 'triclinic'
loop_
_space_group_symop_operation_xyz
x,y,z
-x,-y,-z
loop_
_atom_site_type_symbol
_atom_site_label
_atom_site_fract_x
_atom_site_fract_y
_atom_site_fract_z
Si Si1 0.297554 0.057288 0.083588
Si Si2 0.467938 0.882852 0.301800
Si Si3 0.964295 0.398284 0.686823
Si Si4 0.785009 0.580870 0.056857
Si Si5 0.189711 0.089821 0.534008
Si Si6 0.282449 0.907554 0.483112
Si Si7 0.224709 0.435933 0.380601
Si Si8 0.308079 0.581116 0.934597
O O1 0.200313 0.956646 0.357786
O O2 0.287528 0.022204 0.965500
O O3 0.620451 0.233373 0.861049
O O4 0.032810 0.007440 0.183414
O O5 0.545845 0.861366 0.482457
O O6 0.486066 0.968563 0.255972
O O7 0.110175 0.728172 0.458285
O O8 0.000000 0.500000 0.500000
O O9 0.009348 0.392979 0.871768
O O10 0.207491 0.445581 0.542672
O O11 0.497631 0.491676 0.273698
O O12 0.648580 0.475579 0.072927
O O13 0.986294 0.731804 0.769751
O O14 0.368818 0.241108 0.319509
O O15 0.000000 0.000000 0.500000
O O16 0.500000 0.000000 0.500000
O O17 0.286173 0.543811 0.159954
O O18 0.000000 0.500000 0.000000
#
# Coordination Sequence:
#
# PCOD8034277 Si02
#       8
#     2   2   2   2   2   2   2   2
#     4  11  26  46  71 105 147 195 244 298 380 438
#     4  11  25  47  68 101 147 193 241 304 365 444
#     4  11  26  47  73 106 151 193 240 309 369 445
#     4  12  25  45  75 106 145 195 250 302 364 449
#     4  12  27  46  74 109 144 194 250 308 367 441
#     4  12  23  46  72 105 146 192 245 305 367 431
#     4  11  24  44  70 105 145 189 249 295 372 435
#     4  12  24  45  75 104 147 192 245 305 366 439
#
# _framework density 23.426038999999999
#
# number of rings (size 3 to 8) (size 9 to 14) (size 15 to 20)
#    0.000    0.500    3.750    3.750    7.000    0.000 
#    0.000    0.000    0.000    0.000    0.000    0.000 
#    0.000    0.000    0.000    0.000    0.000    0.000 
#
# Total GULP energy -198225.595982 kJ/mol
# GULP energy per Si atom -12389.099749 kJ/mol
# Density = 2.337272 g / cm^3
# Si number density = 23.426039 Si / 1000 Ang^3
#
#
#
# Elastic Constant Matrix: (Units=GPa)
#
#
# Indices 1 2 3 4 5 6 
#
# 1 79.3356 25.1689 35.0401 -12.3006 -3.6780 -12.0603
# 2 25.1689 115.3445 41.1517 -4.3128 -2.6297 -11.3629
# 3 35.0401 41.1517 105.5363 -6.4769 3.8288 -15.7561
# 4 -12.3006 -4.3128 -6.4769 33.4100 -4.5802 10.3774
# 5 -3.6780 -2.6297 3.8288 -4.5802 54.2322 14.4351
# 6 -12.0603 -11.3629 -15.7561 10.3774 14.4351 31.3563
#
#
#
# Elastic Compliance Matrix: (Units=1/GPa)
#
#
# Indices 1 2 3 4 5 6 
#
# 1 0.015972 -0.001645 -0.004239 0.004644 0.001361 0.001254
# 2 -0.001645 0.010341 -0.003293 -0.000342 0.000199 0.001481
# 3 -0.004239 -0.003293 0.013018 -0.001625 -0.003004 0.005639
# 4 0.004644 -0.000342 -0.001625 0.036905 0.007471 -0.014808
# 5 0.001361 0.000199 -0.003004 0.007471 0.023119 -0.014029
# 6 0.001254 0.001481 0.005639 -0.014808 -0.014029 0.047103
#
#
# Mechanical properties :
#
#
# Convention : Reuss Voigt Hill
#
# Bulk Modulus (GPa) = 47.66995 55.88197 51.77596
# Shear Modulus (GPa) = 29.10273 37.05674 33.07973
#
# Velocity S-wave (km/s) = 3.52849 3.98158 3.76186
# Velocity P-wave (km/s) = 6.08224 6.71146 6.40458
#
# Compressibility (1/GPa) = 0.02097757
#
# Stress axis : x y z
#
# Youngs Moduli (GPa) = 62.60801 96.70028 76.81636
#
# Poissons Ratio (x) = 0.15905 0.32563
# Poissons Ratio (y) = 0.10297 0.25298
# Poissons Ratio (z) = 0.26540 0.31846
#
# Static dielectric constant tensor:
#      x y z
#    x 4.555290 -0.234920 0.133720 
#    y -0.234920 4.252130 0.182590 
#    z 0.133720 0.182590 4.805370 
# 
# 
# High freq. dielectric constant tensor:
#      x y z
#    x 1.945160 -0.003290 -0.007260 
#    y -0.003290 1.929010 0.012220 
#    z -0.007260 0.012220 1.930690 
# 
# From -- ./inp_files/226156.got.cif
#   From: 2010.06.25/outbox.cif.g09.slc.cpg/sg2_114_cif.got.tgz:226156.got - 2010.06.27 13:26:56.
