data_PCOD8034624
_publ_section_title
;
Structure prediction by ZEFSAII (Michael W. Deem and Ramdas Pophale) SiO2 
 PCOD8034624
Probable space group: P -1
;
_chemical_formula_sum "Si O2"
_cell_formula_units_Z 16
_cell_length_a 8.832160
_cell_length_b 10.813820
_cell_length_c 9.379394
_cell_angle_alpha 113.435974
_cell_angle_beta 119.741535
_cell_angle_gamma 77.234369
_cell_volume 713.335113
_symmetry_space_group_name_H-M "P -1"
_symmetry_group_IT_number 2
_symmetry_cell_setting 'triclinic'
loop_
_space_group_symop_operation_xyz
x,y,z
-x,-y,-z
loop_
_atom_site_type_symbol
_atom_site_label
_atom_site_fract_x
_atom_site_fract_y
_atom_site_fract_z
Si Si1 0.909493 0.210391 0.587101
Si Si2 0.180496 0.065447 0.146332
Si Si3 0.128082 0.426014 0.919865
Si Si4 0.800118 0.932729 0.515336
Si Si5 0.507806 0.134457 0.862154
Si Si6 0.652566 0.421760 0.113389
Si Si7 0.613806 0.393951 0.409204
Si Si8 0.659376 0.767629 0.908935
O O1 0.789278 0.339119 0.542781
O O2 0.053197 0.279170 0.782876
O O3 0.015507 0.136318 0.475727
O O4 0.803557 0.095264 0.568091
O O5 0.209361 0.101616 0.339104
O O6 0.180406 0.195290 0.101948
O O7 0.351986 0.985507 0.135258
O O8 0.000000 0.000000 0.000000
O O9 0.169564 0.521512 0.848250
O O10 0.304005 0.378599 0.064699
O O11 0.000000 0.500000 0.000000
O O12 0.628931 0.869163 0.335164
O O13 0.625102 0.266640 0.987288
O O14 0.390973 0.120205 0.943585
O O15 0.662715 0.451342 0.301291
O O16 0.500000 0.500000 0.000000
O O17 0.500000 0.500000 0.500000
O O18 0.507234 0.257799 0.279595
#
# Coordination Sequence:
#
# PCOD8034624 Si02
#       8
#     2   2   2   2   2   2   2   2
#     4  11  25  44  70 106 145 181 237 291 363 413
#     4  12  28  41  71 108 135 180 240 295 347 419
#     4  12  25  45  72 102 143 190 231 291 352 426
#     4  11  25  46  72 103 144 188 231 296 355 425
#     4  11  24  47  71  97 141 190 229 287 359 425
#     4  11  24  45  73 102 139 187 238 283 357 424
#     4  11  25  44  72 105 140 188 239 299 349 424
#     4  11  24  47  67  99 141 187 229 289 357 412
#
# _framework density 22.429850999999999
#
# number of rings (size 3 to 8) (size 9 to 14) (size 15 to 20)
#    0.000    0.750    3.750    3.000    8.750    2.500 
#    0.000    0.000    0.000    0.000    0.000    0.000 
#    0.000    0.000    0.000    0.000    0.000    0.000 
#
# Total GULP energy -198291.990556 kJ/mol
# GULP energy per Si atom -12393.249410 kJ/mol
# Density = 2.237880 g / cm^3
# Si number density = 22.429851 Si / 1000 Ang^3
#
#
#
# Elastic Constant Matrix: (Units=GPa)
#
#
# Indices 1 2 3 4 5 6 
#
# 1 136.2051 42.9454 52.3992 -4.4570 -26.4941 15.9864
# 2 42.9454 82.8748 26.1032 -4.6971 -18.7659 2.7993
# 3 52.3992 26.1032 122.6803 1.9226 -18.4738 13.4846
# 4 -4.4570 -4.6971 1.9226 35.0731 1.4599 2.3913
# 5 -26.4941 -18.7659 -18.4738 1.4599 43.0504 -5.5212
# 6 15.9864 2.7993 13.4846 2.3913 -5.5212 50.2214
#
#
#
# Elastic Compliance Matrix: (Units=1/GPa)
#
#
# Indices 1 2 3 4 5 6 
#
# 1 0.010577 -0.003646 -0.003034 0.001022 0.003323 -0.002032
# 2 -0.003646 0.015290 -0.001230 0.001418 0.003974 0.001008
# 3 -0.003034 -0.001230 0.010157 -0.001084 0.001807 -0.001442
# 4 0.001022 0.001418 -0.001084 0.029013 -0.000399 -0.001539
# 5 0.003323 0.003974 0.001807 -0.000399 0.027965 0.001329
# 6 -0.002032 0.001008 -0.001442 -0.001539 0.001329 0.021109
#
#
# Mechanical properties :
#
#
# Convention : Reuss Voigt Hill
#
# Bulk Modulus (GPa) = 49.50143 64.96176 57.23159
# Shear Modulus (GPa) = 36.58561 40.35648 38.47104
#
# Velocity S-wave (km/s) = 4.04308 4.24634 4.14596
# Velocity P-wave (km/s) = 6.62667 7.28470 6.96346
#
# Compressibility (1/GPa) = 0.02020144
#
# Stress axis : x y z
#
# Youngs Moduli (GPa) = 94.54365 65.40374 98.45828
#
# Poissons Ratio (x) = 0.23849 0.29874
# Poissons Ratio (y) = 0.34475 0.12114
# Poissons Ratio (z) = 0.28686 0.08047
#
# Static dielectric constant tensor:
#      x y z
#    x -2.865020 -4.456680 -7.227380 
#    y -4.456680 1.049480 -4.305880 
#    z -7.227380 -4.305880 -3.459780 
# 
# 
# High freq. dielectric constant tensor:
#      x y z
#    x 1.896590 0.000260 0.000680 
#    y 0.000260 1.881790 -0.003710 
#    z 0.000680 -0.003710 1.889530 
# 
# From -- ./inp_files/190349.got.cif
#   From: 2010.06.25/outbox.cif.g09.slc.cpg/sg2_96_cif.got.tgz:190349.got - 2010.06.27 13:26:56.
