data_PCOD8034616
_publ_section_title
;
Structure prediction by ZEFSAII (Michael W. Deem and Ramdas Pophale) SiO2 
 PCOD8034616
Probable space group: P -1
;
_chemical_formula_sum "Si O2"
_cell_formula_units_Z 12
_cell_length_a 9.341728
_cell_length_b 9.678113
_cell_length_c 11.100800
_cell_angle_alpha 129.240207
_cell_angle_beta 118.204959
_cell_angle_gamma 44.287156
_cell_volume 542.396290
_symmetry_space_group_name_H-M "P -1"
_symmetry_group_IT_number 2
_symmetry_cell_setting 'triclinic'
loop_
_space_group_symop_operation_xyz
x,y,z
-x,-y,-z
loop_
_atom_site_type_symbol
_atom_site_label
_atom_site_fract_x
_atom_site_fract_y
_atom_site_fract_z
Si Si1 0.657738 0.343846 0.143149
Si Si2 0.022906 0.691779 0.151782
Si Si3 0.299906 0.519499 0.399763
Si Si4 0.581782 0.096085 0.169702
Si Si5 0.014435 0.700528 0.608954
Si Si6 0.733197 0.194462 0.827465
O O1 0.602713 0.257166 0.185237
O O2 0.864323 0.313637 0.233901
O O3 0.481480 0.610250 0.209907
O O4 0.695100 0.203978 0.960630
O O5 0.180080 0.631984 0.288348
O O6 0.099420 0.760487 0.107068
O O7 0.794286 0.907545 0.216535
O O8 0.000000 0.500000 0.000000
O O9 0.500000 0.500000 0.500000
O O10 0.402380 0.253023 0.283918
O O11 0.132605 0.664433 0.513835
O O12 0.500000 0.000000 0.000000
O O13 0.000000 0.500000 0.500000
O O14 0.802324 0.955996 0.668541
#
# Coordination Sequence:
#
# PCOD8034616 Si02
#       6
#     2   2   2   2   2   2
#     4  11  24  46  70  99 138 183 232 290 348 414
#     4  12  24  42  74 105 131 186 238 288 354 416
#     4  12  25  47  69 102 143 180 234 292 356 410
#     4  12  24  43  71 102 138 181 238 292 344 420
#     4  12  28  44  68 102 144 184 226 285 360 417
#     4  11  24  45  72  97 139 180 235 287 346 418
#
# _framework density 22.124043
#
# number of rings (size 3 to 8) (size 9 to 14) (size 15 to 20)
#    0.000    0.333    6.667    0.500    4.667    4.667 
#    0.000    0.000    0.000    0.000    0.000    0.000 
#    0.000    0.000    0.000    0.000    0.000    0.000 
#
# Total GULP energy -148698.019609 kJ/mol
# GULP energy per Si atom -12391.501634 kJ/mol
# Density = 2.207369 g / cm^3
# Si number density = 22.124043 Si / 1000 Ang^3
#
#
#
# Elastic Constant Matrix: (Units=GPa)
#
#
# Indices 1 2 3 4 5 6 
#
# 1 50.1835 30.5287 29.9748 8.5747 -1.5078 -3.5336
# 2 30.5287 139.1663 68.1166 15.9310 -6.1916 -25.4857
# 3 29.9748 68.1166 135.9203 21.1371 -4.6345 -7.2587
# 4 8.5747 15.9310 21.1371 50.6056 -13.2906 2.9738
# 5 -1.5078 -6.1916 -4.6345 -13.2906 47.9911 10.6517
# 6 -3.5336 -25.4857 -7.2587 2.9738 10.6517 41.1282
#
#
#
# Elastic Compliance Matrix: (Units=1/GPa)
#
#
# Indices 1 2 3 4 5 6 
#
# 1 0.024365 -0.003638 -0.003334 -0.001655 -0.000365 -0.000535
# 2 -0.003638 0.011444 -0.004344 -0.001804 -0.000977 0.006396
# 3 -0.003334 -0.004344 0.010603 -0.002477 -0.000129 -0.000895
# 4 -0.001655 -0.001804 -0.002477 0.023863 0.007262 -0.005303
# 5 -0.000365 -0.000977 -0.000129 0.007262 0.024361 -0.007494
# 6 -0.000535 0.006396 -0.000895 -0.005303 -0.007494 0.030398
#
#
# Mechanical properties :
#
#
# Convention : Reuss Voigt Hill
#
# Bulk Modulus (GPa) = 42.05130 64.72336 53.38733
# Shear Modulus (GPa) = 32.13507 41.05501 36.59504
#
# Velocity S-wave (km/s) = 3.81530 4.31243 4.07146
# Velocity P-wave (km/s) = 6.20137 7.35624 6.80335
#
# Compressibility (1/GPa) = 0.02378048
#
# Stress axis : x y z
#
# Youngs Moduli (GPa) = 41.04171 87.37901 94.31593
#
# Poissons Ratio (x) = 0.31788 0.31443
# Poissons Ratio (y) = 0.14931 0.40973
# Poissons Ratio (z) = 0.13682 0.37960
#
# Static dielectric constant tensor:
#      x y z
#    x 4.873090 -0.366000 -0.315130 
#    y -0.366000 4.260830 0.122170 
#    z -0.315130 0.122170 4.091220 
# 
# 
# High freq. dielectric constant tensor:
#      x y z
#    x 1.860290 -0.022250 -0.009310 
#    y -0.022250 1.882610 0.011070 
#    z -0.009310 0.011070 1.883170 
# 
# From -- ./inp_files/149830.got.cif
#   From: 2010.06.25/outbox.cif.g09.slc.cpg/sg2_75_cif.got.tgz:149830.got - 2010.06.27 13:26:56.
