data_PCOD8034037
_publ_section_title
;
Structure prediction by ZEFSAII (Michael W. Deem and Ramdas Pophale) SiO2 
 PCOD8034037
Probable space group: P -1
;
_chemical_formula_sum "Si O2"
_cell_formula_units_Z 12
_cell_length_a 8.441871
_cell_length_b 6.679738
_cell_length_c 11.169781
_cell_angle_alpha 124.153194
_cell_angle_beta 104.905370
_cell_angle_gamma 75.822815
_cell_volume 499.699530
_symmetry_space_group_name_H-M "P -1"
_symmetry_group_IT_number 2
_symmetry_cell_setting 'triclinic'
loop_
_space_group_symop_operation_xyz
x,y,z
-x,-y,-z
loop_
_atom_site_type_symbol
_atom_site_label
_atom_site_fract_x
_atom_site_fract_y
_atom_site_fract_z
Si Si1 0.740094 0.997948 0.444943
Si Si2 0.362805 0.099903 0.346462
Si Si3 0.910825 0.707321 0.174009
Si Si4 0.139059 0.512976 0.329141
Si Si5 0.903647 0.136739 0.137554
Si Si6 0.675486 0.342319 0.977300
O O1 0.735911 0.898678 0.546903
O O2 0.850053 0.221374 0.521107
O O3 0.555960 0.097514 0.401646
O O4 0.817216 0.772490 0.304269
O O5 0.320632 0.864630 0.189550
O O6 0.307029 0.337817 0.332751
O O7 0.096790 0.580681 0.202612
O O8 0.895216 0.952069 0.180215
O O9 0.819023 0.504733 0.021126
O O10 0.990019 0.358666 0.286349
O O11 0.721224 0.233676 0.082980
O O12 0.000000 0.000000 0.000000
O O13 0.500000 0.500000 0.000000
#
# Coordination Sequence:
#
# PCOD8034037 Si02
#       6
#     2   2   2   2   2   2
#     4  11  25  45  67  99 139 176 221 271 332 400
#     4  11  24  45  69 101 134 177 223 269 337 393
#     4  11  26  44  70 102 133 175 223 275 334 391
#     4  11  24  43  70  97 136 176 221 273 330 396
#     4  11  25  44  67 101 131 173 226 273 332 391
#     4  11  24  46  71  98 132 175 223 281 328 396
#
# _framework density 24.014430999999998
#
# number of rings (size 3 to 8) (size 9 to 14) (size 15 to 20)
#    0.000    1.000    3.333    2.000    2.333    6.000 
#    3.000    0.000    0.000    0.000    0.000    0.000 
#    0.000    0.000    0.000    0.000    0.000    0.000 
#
# Total GULP energy -148664.908426 kJ/mol
# GULP energy per Si atom -12388.742369 kJ/mol
# Density = 2.395977 g / cm^3
# Si number density = 24.014431 Si / 1000 Ang^3
#
#
#
# Elastic Constant Matrix: (Units=GPa)
#
#
# Indices 1 2 3 4 5 6 
#
# 1 27.0093 42.1153 27.4943 -23.5647 11.0937 -11.9594
# 2 42.1153 193.1413 42.1817 -17.4970 18.5684 -14.0792
# 3 27.4943 42.1817 109.2039 3.5458 9.8930 8.7761
# 4 -23.5647 -17.4970 3.5458 45.0195 -7.5749 14.1672
# 5 11.0937 18.5684 9.8930 -7.5749 43.1546 -2.5578
# 6 -11.9594 -14.0792 8.7761 14.1672 -2.5578 45.3103
#
#
#
# Elastic Compliance Matrix: (Units=1/GPa)
#
#
# Indices 1 2 3 4 5 6 
#
# 1 0.309812 -0.034653 -0.070334 0.137856 -0.022024 0.040282
# 2 -0.034653 0.010029 0.005446 -0.013667 0.000781 -0.002767
# 3 -0.070334 0.005446 0.026458 -0.032574 0.003265 -0.011627
# 4 0.137856 -0.013667 -0.032574 0.087178 -0.006145 0.010844
# 5 -0.022024 0.000781 0.003265 -0.006145 0.026506 -0.002785
# 6 0.040282 -0.002767 -0.011627 0.010844 -0.002785 0.030547
#
#
# Mechanical properties :
#
#
# Convention : Reuss Voigt Hill
#
# Bulk Modulus (GPa) = 6.79271 61.43747 34.11509
# Shear Modulus (GPa) = 6.76879 41.20109 23.98494
#
# Velocity S-wave (km/s) = 1.68070 4.14657 3.16376
# Velocity P-wave (km/s) = 2.56925 6.96882 5.25193
#
# Compressibility (1/GPa) = 0.14721673
#
# Stress axis : x y z
#
# Youngs Moduli (GPa) = 3.22777 99.70685 37.79566
#
# Poissons Ratio (x) = 3.45511 2.65834
# Poissons Ratio (y) = 0.11185 -0.20583
# Poissons Ratio (z) = 0.22702 -0.54299
#
# Static dielectric constant tensor:
#      x y z
#    x 5.016450 -0.906330 0.176860 
#    y -0.906330 5.299360 0.000710 
#    z 0.176860 0.000710 4.762910 
# 
# 
# High freq. dielectric constant tensor:
#      x y z
#    x 1.924590 -0.022400 0.028540 
#    y -0.022400 1.978820 0.003420 
#    z 0.028540 0.003420 1.972660 
# 
# From -- ./inp_files/29158.got.cif
#   From: 2010.06.25/outbox.cif.g09.slc.cpg/sg2_15_cif.got.tgz:29158.got - 2010.06.27 13:26:56.
