data_PCOD8034765
_publ_section_title
;
Structure prediction by ZEFSAII (Michael W. Deem and Ramdas Pophale) SiO2 
 PCOD8034765
Probable space group: P -1
;
_chemical_formula_sum "Si O2"
_cell_formula_units_Z 16
_cell_length_a 14.798844
_cell_length_b 8.532589
_cell_length_c 11.783634
_cell_angle_alpha 106.060247
_cell_angle_beta 68.557352
_cell_angle_gamma 48.374731
_cell_volume 688.698049
_symmetry_space_group_name_H-M "P -1"
_symmetry_group_IT_number 2
_symmetry_cell_setting 'triclinic'
loop_
_space_group_symop_operation_xyz
x,y,z
-x,-y,-z
loop_
_atom_site_type_symbol
_atom_site_label
_atom_site_fract_x
_atom_site_fract_y
_atom_site_fract_z
Si Si1 0.457003 0.226922 0.839062
Si Si2 0.672580 0.796918 0.302429
Si Si3 0.133040 0.461462 0.445142
Si Si4 0.824349 0.496148 0.818314
Si Si5 0.575513 0.568020 0.466552
Si Si6 0.953393 0.107558 0.294614
Si Si7 0.942579 0.646203 0.930132
Si Si8 0.246935 0.756208 0.911689
O O1 0.316320 0.332301 0.838794
O O2 0.405098 0.492310 0.886030
O O3 0.675185 0.877094 0.651453
O O4 0.383349 0.269400 0.003114
O O5 0.867046 0.530929 0.230855
O O6 0.500000 0.000000 0.500000
O O7 0.613080 0.062714 0.342561
O O8 0.182840 0.472224 0.305847
O O9 0.022194 0.749496 0.631602
O O10 0.000000 0.500000 0.500000
O O11 0.889547 0.572497 0.860181
O O12 0.968466 0.146554 0.712329
O O13 0.500000 0.500000 0.500000
O O14 0.733048 0.387020 0.448533
O O15 0.674643 0.457524 0.275947
O O16 0.052314 0.965471 0.096314
O O17 0.000000 0.500000 0.000000
O O18 0.776152 0.020714 0.069723
#
# Coordination Sequence:
#
# PCOD8034765 Si02
#       8
#     2   2   2   2   2   2   2   2
#     4  11  25  46  67  99 134 184 229 282 346 403
#     4  12  23  39  66  98 144 177 219 279 348 405
#     4  12  27  48  72  99 134 185 239 287 340 405
#     4  11  25  46  72  98 137 184 232 285 341 412
#     4  12  24  38  64 107 140 177 220 280 346 411
#     4  11  24  46  69  99 137 182 232 282 344 401
#     4  12  24  43  68 108 140 178 224 280 350 415
#     4  11  25  41  69 100 140 184 221 280 344 413
#
# _framework density 23.232240999999998
#
# number of rings (size 3 to 8) (size 9 to 14) (size 15 to 20)
#    0.000    0.500    3.750    4.875    3.500    1.000 
#    0.000    6.875    0.000    0.000    0.000    0.000 
#    0.000    0.000    0.000    0.000    0.000    0.000 
#
# Total GULP energy -198264.667435 kJ/mol
# GULP energy per Si atom -12391.541715 kJ/mol
# Density = 2.317936 g / cm^3
# Si number density = 23.232241 Si / 1000 Ang^3
#
#
#
# Elastic Constant Matrix: (Units=GPa)
#
#
# Indices 1 2 3 4 5 6 
#
# 1 91.8358 21.7848 16.0284 16.0419 3.5919 6.2362
# 2 21.7848 126.2838 30.4963 16.1931 5.9312 20.3627
# 3 16.0284 30.4963 83.0835 8.2369 7.5779 1.2619
# 4 16.0419 16.1931 8.2369 50.3063 7.3656 1.0037
# 5 3.5919 5.9312 7.5779 7.3656 29.6071 2.6512
# 6 6.2362 20.3627 1.2619 1.0037 2.6512 29.2588
#
#
#
# Elastic Compliance Matrix: (Units=1/GPa)
#
#
# Indices 1 2 3 4 5 6 
#
# 1 0.012090 -0.001007 -0.001625 -0.003247 0.000111 -0.001705
# 2 -0.001007 0.010252 -0.003243 -0.002325 0.000078 -0.006707
# 3 -0.001625 -0.003243 0.013794 -0.000331 -0.002805 0.002274
# 4 -0.003247 -0.002325 -0.000331 0.022380 -0.004801 0.001992
# 5 0.000111 0.000078 -0.002805 -0.004801 0.035932 -0.003048
# 6 -0.001705 -0.006707 0.002274 0.001992 -0.003048 0.039319
#
#
# Mechanical properties :
#
#
# Convention : Reuss Voigt Hill
#
# Bulk Modulus (GPa) = 41.00891 48.64689 44.82790
# Shear Modulus (GPa) = 32.54233 37.36069 34.95151
#
# Velocity S-wave (km/s) = 3.74671 4.01451 3.88292
# Velocity P-wave (km/s) = 6.03383 6.51715 6.28014
#
# Compressibility (1/GPa) = 0.02438495
#
# Stress axis : x y z
#
# Youngs Moduli (GPa) = 82.71165 97.54483 72.49424
#
# Poissons Ratio (x) = 0.09824 0.11781
# Poissons Ratio (y) = 0.08331 0.23512
# Poissons Ratio (z) = 0.13441 0.31637
#
# Static dielectric constant tensor:
#      x y z
#    x 3.618780 -1.057690 -2.596270 
#    y -1.057690 0.712130 -6.531770 
#    z -2.596270 -6.531770 -7.321100 
# 
# 
# High freq. dielectric constant tensor:
#      x y z
#    x 1.895310 0.026500 -0.003810 
#    y 0.026500 1.942180 0.009990 
#    z -0.003810 0.009990 1.932000 
# 
# From -- ./inp_files/328559.got.cif
#   From: 2010.06.25/outbox.cif.g09.slc.cpg/sg2_165_cif.got.tgz:328559.got - 2010.06.27 13:26:56.
