data_PCOD8034880
_publ_section_title
;
Structure prediction by ZEFSAII (Michael W. Deem and Ramdas Pophale) SiO2 
 PCOD8034880
Probable space group: P -1
;
_chemical_formula_sum "Si O2"
_cell_formula_units_Z 14
_cell_length_a 6.500913
_cell_length_b 15.196178
_cell_length_c 14.596456
_cell_angle_alpha 148.592293
_cell_angle_beta 101.847085
_cell_angle_gamma 63.943345
_cell_volume 629.213652
_symmetry_space_group_name_H-M "P -1"
_symmetry_group_IT_number 2
_symmetry_cell_setting 'triclinic'
loop_
_space_group_symop_operation_xyz
x,y,z
-x,-y,-z
loop_
_atom_site_type_symbol
_atom_site_label
_atom_site_fract_x
_atom_site_fract_y
_atom_site_fract_z
Si Si1 0.600946 0.841629 0.950404
Si Si2 0.431970 0.127053 0.518665
Si Si3 0.529918 0.437466 0.229226
Si Si4 0.931368 0.515102 0.403485
Si Si5 0.679011 0.449716 0.059593
Si Si6 0.809346 0.927719 0.215856
Si Si7 0.977414 0.212520 0.457816
O O1 0.430815 0.746642 0.867511
O O2 0.876658 0.676883 0.804581
O O3 0.621338 0.922354 0.122430
O O4 0.500000 0.000000 0.000000
O O5 0.332979 0.353934 0.732738
O O6 0.209137 0.101779 0.445862
O O7 0.500000 0.000000 0.500000
O O8 0.658517 0.043105 0.394588
O O9 0.670612 0.535299 0.377682
O O10 0.601473 0.369949 0.070127
O O11 0.244590 0.601728 0.346369
O O12 0.000000 0.500000 0.500000
O O13 0.930949 0.711728 0.551001
O O14 0.500000 0.500000 0.000000
O O15 0.962679 0.283966 0.916836
O O16 0.907153 0.052008 0.281263
#
# Coordination Sequence:
#
# PCOD8034880 Si02
#       7
#     2   2   2   2   2   2   2
#     4  11  28  43  70 109 145 192 241 298 370 428
#     4  12  28  48  73 109 143 193 245 296 367 429
#     4  11  24  50  70 104 150 184 248 300 355 443
#     4  11  25  45  74 103 141 194 240 297 367 424
#     4  12  26  47  74 107 146 194 240 302 367 424
#     4  12  27  48  74 108 147 189 247 301 360 440
#     4  11  24  46  74 100 145 185 239 300 358 428
#
# _framework density 22.249995999999999
#
# number of rings (size 3 to 8) (size 9 to 14) (size 15 to 20)
#    0.000    0.571    4.286    1.714   12.000    3.429 
#    0.000    0.000    0.000    0.000    0.000    0.000 
#    0.000    0.000    0.000    0.000    0.000    0.000 
#
# Total GULP energy -173549.394288 kJ/mol
# GULP energy per Si atom -12396.385306 kJ/mol
# Density = 2.219935 g / cm^3
# Si number density = 22.249996 Si / 1000 Ang^3
#
#
#
# Elastic Constant Matrix: (Units=GPa)
#
#
# Indices 1 2 3 4 5 6 
#
# 1 126.9420 57.6702 42.8183 5.3970 10.7386 5.5315
# 2 57.6702 166.6103 38.4821 1.7403 3.8400 4.9334
# 3 42.8183 38.4821 103.7360 10.0933 4.0733 8.1751
# 4 5.3970 1.7403 10.0933 43.9265 -2.6998 5.4934
# 5 10.7386 3.8400 4.0733 -2.6998 30.6457 7.9922
# 6 5.5315 4.9334 8.1751 5.4934 7.9922 40.4803
#
#
#
# Elastic Compliance Matrix: (Units=1/GPa)
#
#
# Indices 1 2 3 4 5 6 
#
# 1 0.010493 -0.002844 -0.003110 -0.000677 -0.003027 0.000230
# 2 -0.002844 0.007349 -0.001590 0.000491 0.000418 -0.000335
# 3 -0.003110 -0.001590 0.011836 -0.002096 -0.000086 -0.001470
# 4 -0.000677 0.000491 -0.002096 0.023959 0.003473 -0.003481
# 5 -0.003027 0.000418 -0.000086 0.003473 0.035825 -0.007164
# 6 0.000230 -0.000335 -0.001470 -0.003481 -0.007164 0.026897
#
#
# Mechanical properties :
#
#
# Convention : Reuss Voigt Hill
#
# Bulk Modulus (GPa) = 68.53404 75.02550 71.77977
# Shear Modulus (GPa) = 36.68087 40.23168 38.45628
#
# Velocity S-wave (km/s) = 4.06467 4.25687 4.16188
# Velocity P-wave (km/s) = 7.27306 7.61274 7.44484
#
# Compressibility (1/GPa) = 0.01459129
#
# Stress axis : x y z
#
# Youngs Moduli (GPa) = 95.29868 136.07615 84.48470
#
# Poissons Ratio (x) = 0.38698 0.26272
# Poissons Ratio (y) = 0.27102 0.13434
# Poissons Ratio (z) = 0.29635 0.21637
#
# Static dielectric constant tensor:
#      x y z
#    x 4.132920 0.094120 0.071050 
#    y 0.094120 3.990250 0.238900 
#    z 0.071050 0.238900 4.009460 
# 
# 
# High freq. dielectric constant tensor:
#      x y z
#    x 1.887680 0.002020 -0.000190 
#    y 0.002020 1.884040 0.012310 
#    z -0.000190 0.012310 1.882020 
# 
# From -- ./inp_files/48495.got.cif
#   From: 2010.06.25/outbox.cif.g09.slc.cpg/sg2_25_cif.got.tgz:48495.got - 2010.06.27 13:26:56.
