data_PCOD8034823
_publ_section_title
;
Structure prediction by ZEFSAII (Michael W. Deem and Ramdas Pophale) SiO2 
 PCOD8034823
Probable space group: P -1
;
_chemical_formula_sum "Si O2"
_cell_formula_units_Z 10
_cell_length_a 8.868739
_cell_length_b 8.532127
_cell_length_c 8.902426
_cell_angle_alpha 80.366075
_cell_angle_beta 112.998139
_cell_angle_gamma 56.239926
_cell_volume 445.750934
_symmetry_space_group_name_H-M "P -1"
_symmetry_group_IT_number 2
_symmetry_cell_setting 'triclinic'
loop_
_space_group_symop_operation_xyz
x,y,z
-x,-y,-z
loop_
_atom_site_type_symbol
_atom_site_label
_atom_site_fract_x
_atom_site_fract_y
_atom_site_fract_z
Si Si1 0.660332 0.836693 0.956769
Si Si2 0.948020 0.442660 0.642776
Si Si3 0.389037 0.373257 0.276314
Si Si4 0.876583 0.130408 0.578028
Si Si5 0.978713 0.855014 0.928086
O O1 0.539825 0.801875 0.795076
O O2 0.751517 0.921812 0.881749
O O3 0.868784 0.614938 0.158011
O O4 0.500000 0.000000 0.000000
O O5 0.712484 0.636133 0.606313
O O6 0.965452 0.239640 0.660486
O O7 0.000000 0.500000 0.500000
O O8 0.608922 0.326156 0.415655
O O9 0.203649 0.605272 0.085328
O O10 0.940324 0.932646 0.730462
O O11 0.000000 0.000000 0.500000
O O12 0.000000 0.000000 0.000000
#
# Coordination Sequence:
#
# PCOD8034823 Si02
#       5
#     2   2   2   2   2
#     4  11  25  46  70 103 139 188 230 284 355 411
#     4  11  25  45  69 103 139 182 234 287 348 413
#     4  11  26  47  72  99 145 186 229 292 351 406
#     4  12  27  45  70 106 139 186 236 283 350 415
#     4  11  24  46  71  99 144 181 236 286 342 420
#
# _framework density 22.434052999999999
#
# number of rings (size 3 to 8) (size 9 to 14) (size 15 to 20)
#    0.000    0.800    4.000    4.200    8.400    1.600 
#    0.000    0.000    0.000    0.000    0.000    0.000 
#    0.000    0.000    0.000    0.000    0.000    0.000 
#
# Total GULP energy -123905.078959 kJ/mol
# GULP energy per Si atom -12390.507896 kJ/mol
# Density = 2.238299 g / cm^3
# Si number density = 22.434053 Si / 1000 Ang^3
#
#
#
# Elastic Constant Matrix: (Units=GPa)
#
#
# Indices 1 2 3 4 5 6 
#
# 1 112.0167 25.2832 64.0681 -7.3393 -29.8860 -15.8692
# 2 25.2832 96.7829 20.0475 12.4492 -12.9249 -22.3949
# 3 64.0681 20.0475 109.4132 5.8586 -19.0335 -8.8289
# 4 -7.3393 12.4492 5.8586 37.3205 -6.4678 -1.0429
# 5 -29.8860 -12.9249 -19.0335 -6.4678 52.2117 6.3959
# 6 -15.8692 -22.3949 -8.8289 -1.0429 6.3959 45.8302
#
#
#
# Elastic Compliance Matrix: (Units=1/GPa)
#
#
# Indices 1 2 3 4 5 6 
#
# 1 0.016707 -0.002025 -0.008435 0.006478 0.006494 0.002412
# 2 -0.002025 0.012816 -0.000383 -0.004346 0.000687 0.005293
# 3 -0.008435 -0.000383 0.014296 -0.003810 -0.000132 -0.000422
# 4 0.006478 -0.004346 -0.003810 0.030993 0.005160 -0.000630
# 5 0.006494 0.000687 -0.000132 0.005160 0.023709 -0.000632
# 6 0.002412 0.005293 -0.000422 -0.000630 -0.000632 0.025234
#
#
# Mechanical properties :
#
#
# Convention : Reuss Voigt Hill
#
# Bulk Modulus (GPa) = 45.18016 59.66781 52.42399
# Shear Modulus (GPa) = 32.71837 40.99340 36.85589
#
# Velocity S-wave (km/s) = 3.82308 4.27931 4.05761
# Velocity P-wave (km/s) = 6.29847 7.14643 6.73580
#
# Compressibility (1/GPa) = 0.02213361
#
# Stress axis : x y z
#
# Youngs Moduli (GPa) = 59.85405 78.02497 69.95030
#
# Poissons Ratio (x) = 0.15803 0.59000
# Poissons Ratio (y) = 0.12123 0.02679
# Poissons Ratio (z) = 0.50484 0.02988
#
# Static dielectric constant tensor:
#      x y z
#    x 4.467300 -0.208070 0.677400 
#    y -0.208070 3.841720 0.637170 
#    z 0.677400 0.637170 4.360230 
# 
# 
# High freq. dielectric constant tensor:
#      x y z
#    x 1.892880 -0.009660 -0.000330 
#    y -0.009660 1.886400 0.022270 
#    z -0.000330 0.022270 1.893850 
# 
# From -- ./inp_files/143881.got.cif
#   From: 2010.06.25/outbox.cif.g09.slc.cpg/sg2_72_cif.got.tgz:143881.got - 2010.06.27 13:26:56.
