data_PCOD8034671
_publ_section_title
;
Structure prediction by ZEFSAII (Michael W. Deem and Ramdas Pophale) SiO2 
 PCOD8034671
Probable space group: P -1
;
_chemical_formula_sum "Si O2"
_cell_formula_units_Z 14
_cell_length_a 26.493214
_cell_length_b 24.070993
_cell_length_c 6.657629
_cell_angle_alpha 59.665825
_cell_angle_beta 120.287545
_cell_angle_gamma 170.189386
_cell_volume 623.744899
_symmetry_space_group_name_H-M "P -1"
_symmetry_group_IT_number 2
_symmetry_cell_setting 'triclinic'
loop_
_space_group_symop_operation_xyz
x,y,z
-x,-y,-z
loop_
_atom_site_type_symbol
_atom_site_label
_atom_site_fract_x
_atom_site_fract_y
_atom_site_fract_z
Si Si1 0.307665 0.513555 0.690936
Si Si2 0.315029 0.746474 0.206912
Si Si3 0.696679 0.696311 0.348499
Si Si4 0.235741 0.539455 0.168663
Si Si5 0.332154 0.031495 0.082744
Si Si6 0.886590 0.317424 0.481009
Si Si7 0.336310 0.225969 0.171552
O O1 0.355826 0.613844 0.420539
O O2 0.406724 0.655520 0.833531
O O3 0.502628 0.660714 0.804789
O O4 0.968943 0.127718 0.705764
O O5 0.190067 0.560188 0.139530
O O6 0.051612 0.491885 0.278392
O O7 0.536165 0.947960 0.428623
O O8 0.500000 0.000000 0.000000
O O9 0.500000 0.500000 0.500000
O O10 0.543520 0.476549 0.307014
O O11 0.740116 0.805434 0.097639
O O12 0.000000 0.000000 0.500000
O O13 0.491922 0.818843 0.005498
O O14 0.897143 0.160461 0.105114
O O15 0.097884 0.732582 0.276503
O O16 0.000000 0.500000 0.500000
#
# Coordination Sequence:
#
# PCOD8034671 Si02
#       7
#     2   2   2   2   2   2   2
#     4  12  26  45  68 100 148 178 238 282 348 414
#     4  12  24  43  68  97 135 174 232 297 355 419
#     4  11  24  45  74 104 144 179 234 279 337 405
#     4  12  26  44  68  98 136 183 233 289 353 420
#     4  12  26  44  68  98 136 183 233 289 353 420
#     4  12  24  43  68  97 135 174 232 297 355 419
#     4  11  26  44  70 106 138 188 226 286 338 408
#
# _framework density 22.445072
#
# number of rings (size 3 to 8) (size 9 to 14) (size 15 to 20)
#    0.000    0.286    1.429    7.714    2.000    9.143 
#    0.000    0.000    0.000    0.000    0.000    0.000 
#    0.000    0.000    0.000    0.000    0.000    0.000 
#
# Total GULP energy -173600.001218 kJ/mol
# GULP energy per Si atom -12400.000087 kJ/mol
# Density = 2.239399 g / cm^3
# Si number density = 22.445072 Si / 1000 Ang^3
#
#
#
# Elastic Constant Matrix: (Units=GPa)
#
#
# Indices 1 2 3 4 5 6 
#
# 1 129.4904 46.8179 53.8593 -7.3701 -6.8839 -1.5175
# 2 46.8179 128.8562 47.9737 9.2196 -2.7995 4.9487
# 3 53.8593 47.9737 115.9046 6.9378 -8.5865 -8.0144
# 4 -7.3701 9.2196 6.9378 48.6350 9.8183 1.8134
# 5 -6.8839 -2.7995 -8.5865 9.8183 36.7486 -3.5185
# 6 -1.5175 4.9487 -8.0144 1.8134 -3.5185 45.2360
#
#
#
# Elastic Compliance Matrix: (Units=1/GPa)
#
#
# Indices 1 2 3 4 5 6 
#
# 1 0.010427 -0.002485 -0.003976 0.002600 0.000123 -0.000177
# 2 -0.002485 0.009961 -0.002983 -0.001760 -0.000090 -0.001638
# 3 -0.003976 -0.002983 0.012249 -0.002450 0.002801 0.002679
# 4 0.002600 -0.001760 -0.002450 0.023014 -0.006520 -0.001584
# 5 0.000123 -0.000090 0.002801 -0.006520 0.029921 0.003099
# 6 -0.000177 -0.001638 0.002679 -0.001584 0.003099 0.023059
#
#
# Mechanical properties :
#
#
# Convention : Reuss Voigt Hill
#
# Bulk Modulus (GPa) = 72.72396 74.61702 73.67049
# Shear Modulus (GPa) = 37.84995 41.16393 39.50694
#
# Velocity S-wave (km/s) = 4.11096 4.28715 4.19998
# Velocity P-wave (km/s) = 7.41650 7.60412 7.51090
#
# Compressibility (1/GPa) = 0.01375063
#
# Stress axis : x y z
#
# Youngs Moduli (GPa) = 95.90457 100.39351 81.63847
#
# Poissons Ratio (x) = 0.24947 0.32456
# Poissons Ratio (y) = 0.23832 0.24350
# Poissons Ratio (z) = 0.38127 0.29945
#
# Static dielectric constant tensor:
#      x y z
#    x 3.781020 0.013300 -0.053920 
#    y 0.013300 3.343720 -0.047880 
#    z -0.053920 -0.047880 4.177850 
# 
# 
# High freq. dielectric constant tensor:
#      x y z
#    x 1.892320 0.005900 0.000040 
#    y 0.005900 1.901520 0.010680 
#    z 0.000040 0.010680 1.899860 
# 
# From -- ./inp_files/127655.got.cif
#   From: 2010.06.25/outbox.cif.g09.slc.cpg/sg2_64_cif.got.tgz:127655.got - 2010.06.27 13:26:56.
