data_PCOD8034564
_publ_section_title
;
Structure prediction by ZEFSAII (Michael W. Deem and Ramdas Pophale) SiO2 
 PCOD8034564
Probable space group: P -1
;
_chemical_formula_sum "Si O2"
_cell_formula_units_Z 16
_cell_length_a 12.504029
_cell_length_b 9.621562
_cell_length_c 17.631376
_cell_angle_alpha 98.590449
_cell_angle_beta 42.740154
_cell_angle_gamma 133.011798
_cell_volume 742.810259
_symmetry_space_group_name_H-M "P -1"
_symmetry_group_IT_number 2
_symmetry_cell_setting 'triclinic'
loop_
_space_group_symop_operation_xyz
x,y,z
-x,-y,-z
loop_
_atom_site_type_symbol
_atom_site_label
_atom_site_fract_x
_atom_site_fract_y
_atom_site_fract_z
Si Si1 0.912985 0.571732 0.096414
Si Si2 0.788152 0.361455 0.406882
Si Si3 0.815333 0.484527 0.560800
Si Si4 0.230415 0.187073 0.105140
Si Si5 0.803075 0.974683 0.565662
Si Si6 0.817349 0.076660 0.393758
Si Si7 0.191010 0.842794 0.137095
Si Si8 0.233593 0.084253 0.926592
O O1 0.552124 0.322458 0.259997
O O2 0.023884 0.662860 0.133004
O O3 0.000000 0.500000 0.000000
O O4 0.100039 0.827342 0.972403
O O5 0.655194 0.312118 0.552676
O O6 0.964256 0.344745 0.326097
O O7 0.006811 0.651273 0.290007
O O8 0.532427 0.156499 0.459164
O O9 0.561229 0.344462 0.739476
O O10 0.000000 0.500000 0.500000
O O11 0.069501 0.794768 0.436773
O O12 0.932853 0.047989 0.271822
O O13 0.238393 0.047227 0.136780
O O14 0.500000 0.500000 0.000000
O O15 0.245201 0.153838 0.009184
O O16 0.867041 0.051912 0.449480
O O17 0.000000 0.000000 0.500000
O O18 0.500000 0.000000 0.000000
O O19 0.000000 0.000000 0.000000
#
# Coordination Sequence:
#
# PCOD8034564 Si02
#       8
#     2   2   2   2   2   2   2   2
#     4  11  26  46  71 103 145 184 242 298 360 430
#     4  11  25  45  72 103 142 186 248 293 362 431
#     4  12  25  43  74 102 141 187 239 296 358 433
#     4  11  25  44  70 102 143 181 235 296 360 432
#     4  12  26  45  69 108 146 188 243 298 366 434
#     4  11  24  45  71 102 140 193 240 298 363 433
#     4  11  26  44  72 106 142 187 243 298 365 435
#     4  11  25  47  68 100 137 186 233 288 360 425
#
# _framework density 21.539821
#
# number of rings (size 3 to 8) (size 9 to 14) (size 15 to 20)
#    0.000    0.750    2.500    3.750    7.000    3.500 
#    0.000    0.000    0.000    0.000    0.000    0.000 
#    0.000    0.000    0.000    0.000    0.000    0.000 
#
# Total GULP energy -198295.793368 kJ/mol
# GULP energy per Si atom -12393.487085 kJ/mol
# Density = 2.149080 g / cm^3
# Si number density = 21.539821 Si / 1000 Ang^3
#
#
#
# Elastic Constant Matrix: (Units=GPa)
#
#
# Indices 1 2 3 4 5 6 
#
# 1 153.1628 58.3807 48.9042 1.2760 -9.2851 -16.7177
# 2 58.3807 149.0609 38.2481 1.3532 -0.7642 -22.1924
# 3 48.9042 38.2481 105.6962 2.8456 -9.5756 -6.1513
# 4 1.2760 1.3532 2.8456 44.1890 -0.9455 -1.4731
# 5 -9.2851 -0.7642 -9.5756 -0.9455 41.0364 -3.5465
# 6 -16.7177 -22.1924 -6.1513 -1.4731 -3.5465 33.3257
#
#
#
# Elastic Compliance Matrix: (Units=1/GPa)
#
#
# Indices 1 2 3 4 5 6 
#
# 1 0.008687 -0.002280 -0.002922 0.000120 0.001457 0.002461
# 2 -0.002280 0.008720 -0.001892 0.000054 -0.000425 0.004271
# 3 -0.002922 -0.001892 0.011670 -0.000580 0.001980 -0.000387
# 4 0.000120 0.000054 -0.000580 0.022708 0.000507 0.001047
# 5 0.001457 -0.000425 0.001980 0.000507 0.025470 0.003546
# 6 0.002461 0.004271 -0.000387 0.001047 0.003546 0.034438
#
#
# Mechanical properties :
#
#
# Convention : Reuss Voigt Hill
#
# Bulk Modulus (GPa) = 67.16337 77.66510 72.41423
# Shear Modulus (GPa) = 38.21294 41.20267 39.70780
#
# Velocity S-wave (km/s) = 4.21653 4.37837 4.29821
# Velocity P-wave (km/s) = 7.41311 7.85461 7.63705
#
# Compressibility (1/GPa) = 0.01488907
#
# Stress axis : x y z
#
# Youngs Moduli (GPa) = 115.11524 114.67479 85.68667
#
# Poissons Ratio (x) = 0.26143 0.25042
# Poissons Ratio (y) = 0.26243 0.16213
# Poissons Ratio (z) = 0.33642 0.21698
#
# Static dielectric constant tensor:
#      x y z
#    x 4.207350 -0.300730 0.148580 
#    y -0.300730 4.019810 -0.172470 
#    z 0.148580 -0.172470 4.008810 
# 
# 
# High freq. dielectric constant tensor:
#      x y z
#    x 1.861930 -0.005720 0.001300 
#    y -0.005720 1.863020 -0.003740 
#    z 0.001300 -0.003740 1.846060 
# 
# From -- ./inp_files/559679.got.cif
#   From: 2010.06.25/outbox.cif.g09.slc.cpg/sg2_280_cif.got.tgz:559679.got - 2010.06.27 13:26:56.
