data_PCOD8035354
_publ_section_title
;
Structure prediction by ZEFSAII (Michael W. Deem and Ramdas Pophale) SiO2 
 PCOD8035354
Probable space group: P -1
;
_chemical_formula_sum "Si O2"
_cell_formula_units_Z 16
_cell_length_a 11.753384
_cell_length_b 13.748243
_cell_length_c 14.493165
_cell_angle_alpha 32.091681
_cell_angle_beta 41.364180
_cell_angle_gamma 64.391999
_cell_volume 669.799304
_symmetry_space_group_name_H-M "P -1"
_symmetry_group_IT_number 2
_symmetry_cell_setting 'triclinic'
loop_
_space_group_symop_operation_xyz
x,y,z
-x,-y,-z
loop_
_atom_site_type_symbol
_atom_site_label
_atom_site_fract_x
_atom_site_fract_y
_atom_site_fract_z
Si Si1 0.251038 0.896039 0.631946
Si Si2 0.824288 0.787493 0.976272
Si Si3 0.980172 0.713278 0.581380
Si Si4 0.551350 0.327645 0.207579
Si Si5 0.461195 0.505418 0.290016
Si Si6 0.832638 0.314780 0.323605
Si Si7 0.814144 0.313204 0.699197
Si Si8 0.394117 0.197719 0.727560
O O1 0.351487 0.777297 0.708860
O O2 0.286277 0.911006 0.487192
O O3 0.995974 0.735110 0.940716
O O4 0.360976 0.143701 0.406771
O O5 0.698115 0.663330 0.059569
O O6 0.658766 0.731193 0.202564
O O7 0.980386 0.051107 0.649738
O O8 0.052636 0.711402 0.641583
O O9 0.104437 0.667327 0.469195
O O10 0.730465 0.523293 0.875414
O O11 0.461061 0.426087 0.251225
O O12 0.369000 0.651432 0.225959
O O13 0.321080 0.281287 0.619619
O O14 0.651142 0.341971 0.450272
O O15 0.000000 0.500000 0.000000
O O16 0.000000 0.500000 0.500000
O O17 0.720010 0.068335 0.996078
#
# Coordination Sequence:
#
# PCOD8035354 Si02
#       8
#     2   2   2   2   2   2   2   2
#     4  11  25  44  69 105 146 188 246 298 366 431
#     4  11  26  45  72 109 143 193 245 303 365 438
#     4  11  25  46  71 106 147 191 244 304 365 437
#     4  11  26  45  70 108 143 194 247 298 369 449
#     4  12  25  47  77 107 142 194 249 300 369 441
#     4  12  22  44  76 105 144 193 246 303 364 429
#     4  11  29  48  74 112 154 191 241 304 376 439
#     4  11  25  46  74 111 144 193 243 305 362 438
#
# _framework density 23.887751999999999
#
# number of rings (size 3 to 8) (size 9 to 14) (size 15 to 20)
#    0.000    0.750    2.500    3.375    7.000    6.000 
#    0.000    0.000    0.000    0.000    0.000    0.000 
#    0.000    0.000    0.000    0.000    0.000    0.000 
#
# Total GULP energy -198435.408366 kJ/mol
# GULP energy per Si atom -12402.213023 kJ/mol
# Density = 2.383338 g / cm^3
# Si number density = 23.887752 Si / 1000 Ang^3
#
#
#
# Elastic Constant Matrix: (Units=GPa)
#
#
# Indices 1 2 3 4 5 6 
#
# 1 90.3053 26.9731 25.1666 3.5268 -11.3251 11.9298
# 2 26.9731 124.4770 25.8678 15.5303 7.3451 16.5595
# 3 25.1666 25.8678 106.0142 12.9273 0.5554 8.0757
# 4 3.5268 15.5303 12.9273 36.8026 -1.1926 0.3425
# 5 -11.3251 7.3451 0.5554 -1.1926 30.5745 -8.9443
# 6 11.9298 16.5595 8.0757 0.3425 -8.9443 40.5809
#
#
#
# Elastic Compliance Matrix: (Units=1/GPa)
#
#
# Indices 1 2 3 4 5 6 
#
# 1 0.013366 -0.002632 -0.002581 0.000920 0.005322 -0.001176
# 2 -0.002632 0.010126 -0.001044 -0.003769 -0.004755 -0.004167
# 3 -0.002581 -0.001044 0.010784 -0.003133 -0.001386 -0.001240
# 4 0.000920 -0.003769 -0.003133 0.029856 0.003151 0.002334
# 5 0.005322 -0.004755 -0.001386 0.003151 0.038643 0.009142
# 6 -0.001176 -0.004167 -0.001240 0.002334 0.009142 0.028930
#
#
# Mechanical properties :
#
#
# Convention : Reuss Voigt Hill
#
# Bulk Modulus (GPa) = 45.95292 52.97904 49.46598
# Shear Modulus (GPa) = 33.00908 37.77753 35.39330
#
# Velocity S-wave (km/s) = 3.72135 3.98107 3.85340
# Velocity P-wave (km/s) = 6.14356 6.58471 6.36796
#
# Compressibility (1/GPa) = 0.02176140
#
# Stress axis : x y z
#
# Youngs Moduli (GPa) = 74.81690 98.75474 92.72990
#
# Poissons Ratio (x) = 0.25995 0.23935
# Poissons Ratio (y) = 0.19694 0.09681
# Poissons Ratio (z) = 0.19311 0.10310
#
# Static dielectric constant tensor:
#      x y z
#    x 4.327500 0.158990 -0.080230 
#    y 0.158990 4.812510 -0.174760 
#    z -0.080230 -0.174760 4.544180 
# 
# 
# High freq. dielectric constant tensor:
#      x y z
#    x 1.942960 0.001090 -0.004840 
#    y 0.001090 1.974650 -0.008140 
#    z -0.004840 -0.008140 1.956190 
# 
# From -- ./inp_files/522113.got.cif
#   From: 2010.06.25/outbox.cif.g09.slc.cpg/sg2_262_cif.got.tgz:522113.got - 2010.06.27 13:26:56.
