data_PCOD8035384
_publ_section_title
;
Structure prediction by ZEFSAII (Michael W. Deem and Ramdas Pophale) SiO2 
 PCOD8035384
Probable space group: P -1
;
_chemical_formula_sum "Si O2"
_cell_formula_units_Z 14
_cell_length_a 8.752054
_cell_length_b 25.535079
_cell_length_c 5.268321
_cell_angle_alpha 76.773636
_cell_angle_beta 79.434593
_cell_angle_gamma 29.771456
_cell_volume 568.830998
_symmetry_space_group_name_H-M "P -1"
_symmetry_group_IT_number 2
_symmetry_cell_setting 'triclinic'
loop_
_space_group_symop_operation_xyz
x,y,z
-x,-y,-z
loop_
_atom_site_type_symbol
_atom_site_label
_atom_site_fract_x
_atom_site_fract_y
_atom_site_fract_z
Si Si1 0.487270 0.589466 0.056689
Si Si2 0.229948 0.559885 0.279721
Si Si3 0.366676 0.012972 0.278143
Si Si4 0.945983 0.556977 0.678980
Si Si5 0.419425 0.230730 0.947781
Si Si6 0.306008 0.755688 0.887926
Si Si7 0.638480 0.106922 0.517908
O O1 0.380568 0.573054 0.299737
O O2 0.816323 0.524222 0.066769
O O3 0.512390 0.554357 0.811681
O O4 0.240385 0.712079 0.021826
O O5 0.088618 0.572895 0.550401
O O6 0.949742 0.653481 0.063165
O O7 0.996893 0.128165 0.270920
O O8 0.500000 0.000000 0.500000
O O9 0.473541 0.919544 0.356268
O O10 0.500000 0.000000 0.000000
O O11 0.584903 0.672973 0.693120
O O12 0.000000 0.500000 0.500000
O O13 0.584010 0.240055 0.915721
O O14 0.498354 0.168367 0.226904
O O15 0.534402 0.174711 0.706725
O O16 0.000000 0.000000 0.500000
#
# Coordination Sequence:
#
# PCOD8035384 Si02
#       7
#     2   2   2   2   2   2   2
#     4  11  25  45  68 111 150 191 244 313 374 458
#     4  11  25  44  71 104 156 189 248 302 384 447
#     4  12  31  53  78 114 157 198 256 328 390 448
#     4  12  23  46  73 107 150 203 249 311 368 468
#     4  12  26  47  81 110 146 204 255 310 380 453
#     4  12  26  49  76 109 148 202 260 308 388 454
#     4  12  27  51  79 110 148 195 263 319 377 455
#
# _framework density 24.611877
#
# number of rings (size 3 to 8) (size 9 to 14) (size 15 to 20)
#    0.000    0.286    4.286    3.857    6.000    1.143 
#    0.000    0.000    0.000    0.000    0.000    0.000 
#    0.000    0.000    0.000    0.000    0.000    0.000 
#
# Total GULP energy -173558.490575 kJ/mol
# GULP energy per Si atom -12397.035041 kJ/mol
# Density = 2.455586 g / cm^3
# Si number density = 24.611877 Si / 1000 Ang^3
#
#
#
# Elastic Constant Matrix: (Units=GPa)
#
#
# Indices 1 2 3 4 5 6 
#
# 1 146.3648 30.8672 -0.5309 4.0694 8.7694 14.4763
# 2 30.8672 108.1811 6.5791 5.8987 15.1835 2.5599
# 3 -0.5309 6.5791 44.3671 21.4580 18.7747 -1.8641
# 4 4.0694 5.8987 21.4580 31.8088 -1.7255 -1.1392
# 5 8.7694 15.1835 18.7747 -1.7255 43.9980 -7.0851
# 6 14.4763 2.5599 -1.8641 -1.1392 -7.0851 54.3462
#
#
#
# Elastic Compliance Matrix: (Units=1/GPa)
#
#
# Indices 1 2 3 4 5 6 
#
# 1 0.007663 -0.001803 0.002553 -0.002582 -0.002457 -0.002243
# 2 -0.001803 0.010420 0.001642 -0.003054 -0.004147 -0.000559
# 3 0.002553 0.001642 0.049548 -0.035467 -0.024083 -0.002941
# 4 -0.002582 -0.003054 -0.035467 0.057439 0.019497 0.003361
# 5 -0.002457 -0.004147 -0.024083 0.019497 0.036527 0.005194
# 6 -0.002243 -0.000559 -0.002941 0.003361 0.005194 0.019671
#
#
# Mechanical properties :
#
#
# Convention : Reuss Voigt Hill
#
# Bulk Modulus (GPa) = 13.80933 41.41597 27.61265
# Shear Modulus (GPa) = 24.92265 43.49711 34.20988
#
# Velocity S-wave (km/s) = 3.18563 4.20851 3.73228
# Velocity P-wave (km/s) = 4.37653 6.36236 5.46048
#
# Compressibility (1/GPa) = 0.07241482
#
# Stress axis : x y z
#
# Youngs Moduli (GPa) = 130.50430 95.96809 20.18263
#
# Poissons Ratio (x) = 0.17302 -0.05153
# Poissons Ratio (y) = 0.23529 -0.03314
# Poissons Ratio (z) = -0.33323 -0.15756
#
# Static dielectric constant tensor:
#      x y z
#    x 5.046180 0.130690 -0.208000 
#    y 0.130690 4.761850 -0.316440 
#    z -0.208000 -0.316440 4.351950 
# 
# 
# High freq. dielectric constant tensor:
#      x y z
#    x 2.009570 0.009070 -0.007530 
#    y 0.009070 1.984170 -0.009710 
#    z -0.007530 -0.009710 1.979160 
# 
# From -- ./inp_files/55447.got.cif
#   From: 2010.06.25/outbox.cif.g09.slc.cpg/sg2_28_cif.got.tgz:55447.got - 2010.06.27 13:26:56.
