data_PCOD8035165
_publ_section_title
;
Structure prediction by ZEFSAII (Michael W. Deem and Ramdas Pophale) SiO2 
 PCOD8035165
Probable space group: P -1
;
_chemical_formula_sum "Si O2"
_cell_formula_units_Z 10
_cell_length_a 8.182828
_cell_length_b 10.376733
_cell_length_c 10.707318
_cell_angle_alpha 56.204442
_cell_angle_beta 40.629498
_cell_angle_gamma 87.628701
_cell_volume 349.579332
_symmetry_space_group_name_H-M "P -1"
_symmetry_group_IT_number 2
_symmetry_cell_setting 'triclinic'
loop_
_space_group_symop_operation_xyz
x,y,z
-x,-y,-z
loop_
_atom_site_type_symbol
_atom_site_label
_atom_site_fract_x
_atom_site_fract_y
_atom_site_fract_z
Si Si1 0.233768 0.724953 0.315811
Si Si2 0.995766 0.679296 0.874405
Si Si3 0.094866 0.086392 0.036981
Si Si4 0.360139 0.312691 0.304563
Si Si5 0.645802 0.946778 0.715458
O O1 0.000000 0.500000 0.500000
O O2 0.964800 0.725873 0.545887
O O3 0.497351 0.766602 0.241461
O O4 0.448740 0.911168 0.978088
O O5 0.979707 0.765280 0.968241
O O6 0.633431 0.553520 0.075444
O O7 0.309176 0.883384 0.493661
O O8 0.000000 0.500000 0.000000
O O9 0.810952 0.866731 0.395065
O O10 0.000000 0.000000 0.000000
O O11 0.571816 0.286669 0.103240
O O12 0.000000 0.000000 0.500000
#
# Coordination Sequence:
#
# PCOD8035165 Si02
#       5
#     2   2   2   2   2
#     4  12  24  51  86 119 156 217 280 339 401 490
#     4  11  26  51  79 121 167 215 270 340 423 483
#     4  11  26  50  79 118 166 209 274 338 412 487
#     4  11  25  49  78 119 157 212 281 332 411 483
#     4  11  24  48  80 119 158 212 278 342 395 496
#
# _framework density 28.605810000000002
#
# number of rings (size 3 to 8) (size 9 to 14) (size 15 to 20)
#    0.000    0.800    6.000    0.600    0.000   10.400 
#    3.600    2.000    0.000    0.000    0.000    0.000 
#    0.000    0.000    0.000    0.000    0.000    0.000 
#
# Total GULP energy -123913.981647 kJ/mol
# GULP energy per Si atom -12391.398165 kJ/mol
# Density = 2.854070 g / cm^3
# Si number density = 28.605810 Si / 1000 Ang^3
#
#
#
# Elastic Constant Matrix: (Units=GPa)
#
#
# Indices 1 2 3 4 5 6 
#
# 1 142.5320 85.6715 48.6499 2.7992 10.8731 15.2316
# 2 85.6715 234.9629 76.5261 20.4158 17.6063 16.1896
# 3 48.6499 76.5261 62.5228 -3.5205 -2.8260 2.6606
# 4 2.7992 20.4158 -3.5205 57.1486 5.4715 5.4215
# 5 10.8731 17.6063 -2.8260 5.4715 45.1234 -12.8975
# 6 15.2316 16.1896 2.6606 5.4215 -12.8975 58.3200
#
#
#
# Elastic Compliance Matrix: (Units=1/GPa)
#
#
# Indices 1 2 3 4 5 6 
#
# 1 0.010632 -0.001219 -0.006804 0.000089 -0.003345 -0.002876
# 2 -0.001219 0.008628 -0.009867 -0.003041 -0.003956 -0.002219
# 3 -0.006804 -0.009867 0.033821 0.004735 0.008281 0.004364
# 4 0.000089 -0.003041 0.004735 0.019132 -0.001274 -0.001455
# 5 -0.003345 -0.003956 0.008281 -0.001274 0.027406 0.007773
# 6 -0.002876 -0.002219 0.004364 -0.001455 0.007773 0.020169
#
#
# Mechanical properties :
#
#
# Convention : Reuss Voigt Hill
#
# Bulk Modulus (GPa) = 57.80572 95.74585 76.77578
# Shear Modulus (GPa) = 30.99139 47.39642 39.19390
#
# Velocity S-wave (km/s) = 3.29507 4.07490 3.70555
# Velocity P-wave (km/s) = 5.89306 7.46211 6.72352
#
# Compressibility (1/GPa) = 0.01729933
#
# Stress axis : x y z
#
# Youngs Moduli (GPa) = 94.05386 115.90538 29.56778
#
# Poissons Ratio (x) = 0.14134 0.20119
# Poissons Ratio (y) = 0.11470 0.29174
# Poissons Ratio (z) = 0.63997 1.14362
#
# Static dielectric constant tensor:
#      x y z
#    x 6.739440 2.175100 0.273520 
#    y 2.175100 8.457680 0.633850 
#    z 0.273520 0.633850 5.784970 
# 
# 
# High freq. dielectric constant tensor:
#      x y z
#    x 2.150890 0.022050 -0.012920 
#    y 0.022050 2.210950 -0.018510 
#    z -0.012920 -0.018510 2.158880 
# 
# From -- ./inp_files/383996.got.cif
#   From: 2010.06.25/outbox.cif.g09.slc.cpg/sg2_192_cif.got.tgz:383996.got - 2010.06.27 13:26:56.
