data_PCOD8035249
_publ_section_title
;
Structure prediction by ZEFSAII (Michael W. Deem and Ramdas Pophale) SiO2 
 PCOD8035249
Probable space group: P -1
;
_chemical_formula_sum "Si O2"
_cell_formula_units_Z 14
_cell_length_a 5.439343
_cell_length_b 17.594066
_cell_length_c 8.933193
_cell_angle_alpha 123.718644
_cell_angle_beta 82.359234
_cell_angle_gamma 123.961904
_cell_volume 570.008638
_symmetry_space_group_name_H-M "P -1"
_symmetry_group_IT_number 2
_symmetry_cell_setting 'triclinic'
loop_
_space_group_symop_operation_xyz
x,y,z
-x,-y,-z
loop_
_atom_site_type_symbol
_atom_site_label
_atom_site_fract_x
_atom_site_fract_y
_atom_site_fract_z
Si Si1 0.072321 0.073413 0.432072
Si Si2 0.283203 0.296505 0.740689
Si Si3 0.771625 0.456654 0.337391
Si Si4 0.750483 0.657478 0.520618
Si Si5 0.555877 0.913746 0.090378
Si Si6 0.222102 0.693054 0.070372
Si Si7 0.419044 0.874699 0.733642
O O1 0.007515 0.163650 0.585288
O O2 0.430987 0.151721 0.440796
O O3 0.000000 0.000000 0.500000
O O4 0.897759 0.996287 0.217309
O O5 0.429620 0.351221 0.625566
O O6 0.542684 0.307692 0.837484
O O7 0.105491 0.347111 0.876309
O O8 0.814643 0.565291 0.381834
O O9 0.432916 0.367917 0.337717
O O10 0.000000 0.500000 0.500000
O O11 0.856063 0.397743 0.147866
O O12 0.054930 0.784630 0.654783
O O13 0.361241 0.814550 0.117878
O O14 0.445107 0.994048 0.163786
O O15 0.535756 0.862282 0.872574
#
# Coordination Sequence:
#
# PCOD8035249 Si02
#       7
#     2   2   2   2   2   2   2
#     4  12  24  44  71 109 161 202 251 302 384 455
#     4  12  28  47  77 114 154 204 248 314 386 454
#     4  11  29  52  81 106 147 201 256 327 381 452
#     4  11  27  50  79 110 148 198 260 313 388 452
#     4  11  25  41  73 110 156 200 256 303 378 443
#     4  12  29  49  77 114 160 197 255 317 383 457
#     4  11  25  44  74 112 152 202 256 315 371 457
#
# _framework density 24.561031
#
# number of rings (size 3 to 8) (size 9 to 14) (size 15 to 20)
#    0.000    0.571    2.857    3.000   12.000    3.429 
#    0.000    0.000    0.000    0.000    0.000    0.000 
#    0.000    0.000    0.000    0.000    0.000    0.000 
#
# Total GULP energy -173492.995369 kJ/mol
# GULP energy per Si atom -12392.356812 kJ/mol
# Density = 2.450513 g / cm^3
# Si number density = 24.561031 Si / 1000 Ang^3
#
#
#
# Elastic Constant Matrix: (Units=GPa)
#
#
# Indices 1 2 3 4 5 6 
#
# 1 103.4552 12.9495 41.0430 -17.1752 12.3664 -16.9758
# 2 12.9495 54.6225 27.9040 -12.8305 10.9452 -32.8695
# 3 41.0430 27.9040 132.2867 -10.2492 7.7425 -8.5055
# 4 -17.1752 -12.8305 -10.2492 41.4290 -6.2237 2.6748
# 5 12.3664 10.9452 7.7425 -6.2237 49.7449 -5.9508
# 6 -16.9758 -32.8695 -8.5055 2.6748 -5.9508 43.0503
#
#
#
# Elastic Compliance Matrix: (Units=1/GPa)
#
#
# Indices 1 2 3 4 5 6 
#
# 1 0.013050 0.005400 -0.004152 0.005220 -0.002197 0.007820
# 2 0.005400 0.044646 -0.007807 0.011298 -0.004548 0.033344
# 3 -0.004152 -0.007807 0.010023 -0.001249 0.000377 -0.005488
# 4 0.005220 0.011298 -0.001249 0.029090 0.001101 0.008783
# 5 -0.002197 -0.004548 0.000377 0.001101 0.021567 -0.001352
# 6 0.007820 0.033344 -0.005488 0.008783 -0.001352 0.049954
#
#
# Mechanical properties :
#
#
# Convention : Reuss Voigt Hill
#
# Bulk Modulus (GPa) = 18.31538 50.46192 34.38865
# Shear Modulus (GPa) = 25.04411 40.74269 32.89340
#
# Velocity S-wave (km/s) = 3.19669 4.07730 3.66355
# Velocity P-wave (km/s) = 4.59330 6.53880 5.65041
#
# Compressibility (1/GPa) = 0.05459893
#
# Stress axis : x y z
#
# Youngs Moduli (GPa) = 76.62954 22.39862 99.77413
#
# Poissons Ratio (x) = -0.12094 0.41425
# Poissons Ratio (y) = -0.41377 0.77896
# Poissons Ratio (z) = 0.31816 0.17487
#
# Static dielectric constant tensor:
#      x y z
#    x 4.269270 -0.274720 -0.040340 
#    y -0.274720 4.393350 -0.229080 
#    z -0.040340 -0.229080 4.775970 
# 
# 
# High freq. dielectric constant tensor:
#      x y z
#    x 1.970210 -0.020400 0.000830 
#    y -0.020400 1.988940 -0.007440 
#    z 0.000830 -0.007440 1.988890 
# 
# From -- ./inp_files/122572.got.cif
#   From: 2010.06.25/outbox.cif.g09.slc.cpg/sg2_62_cif.got.tgz:122572.got - 2010.06.27 13:26:56.
