data_PCOD8035711
_publ_section_title
;
Structure prediction by ZEFSAII (Michael W. Deem and Ramdas Pophale) SiO2 
 PCOD8035711
Probable space group: P -1
;
_chemical_formula_sum "Si O2"
_cell_formula_units_Z 14
_cell_length_a 11.668401
_cell_length_b 20.040817
_cell_length_c 13.934983
_cell_angle_alpha 19.434571
_cell_angle_beta 148.302933
_cell_angle_gamma 147.140647
_cell_volume 556.325455
_symmetry_space_group_name_H-M "P -1"
_symmetry_group_IT_number 2
_symmetry_cell_setting 'triclinic'
loop_
_space_group_symop_operation_xyz
x,y,z
-x,-y,-z
loop_
_atom_site_type_symbol
_atom_site_label
_atom_site_fract_x
_atom_site_fract_y
_atom_site_fract_z
Si Si1 0.042628 0.081709 0.526049
Si Si2 0.696232 0.100338 0.705682
Si Si3 0.270900 0.119353 0.272180
Si Si4 0.013103 0.189958 0.647572
Si Si5 0.261861 0.542276 0.613824
Si Si6 0.226067 0.594486 0.147216
Si Si7 0.507778 0.657050 0.439932
O O1 0.303615 0.152405 0.644873
O O2 0.000000 0.000000 0.500000
O O3 0.928378 0.904274 0.758988
O O4 0.924934 0.274123 0.193219
O O5 0.478166 0.033669 0.575821
O O6 0.631132 0.244156 0.547340
O O7 0.915876 0.224981 0.635848
O O8 0.756749 0.892821 0.072122
O O9 0.353193 0.356989 0.978932
O O10 0.180555 0.984256 0.299481
O O11 0.058032 0.395478 0.339999
O O12 0.333939 0.563107 0.526225
O O13 0.000000 0.500000 0.500000
O O14 0.366301 0.724057 0.159461
O O15 0.387144 0.528771 0.272168
#
# Coordination Sequence:
#
# PCOD8035711 Si02
#       7
#     2   2   2   2   2   2   2
#     4  12  29  48  75 113 150 192 245 301 368 446
#     4  11  26  44  73 107 149 192 243 301 376 430
#     4  12  27  45  73 109 147 189 250 300 365 436
#     4  11  25  46  73 109 145 193 246 303 362 443
#     4  12  26  50  75 107 149 193 248 308 367 430
#     4  11  27  48  78 105 151 194 248 296 369 443
#     4  11  27  50  77 103 147 199 242 303 372 428
#
# _framework density 25.165126000000001
#
# number of rings (size 3 to 8) (size 9 to 14) (size 15 to 20)
#    0.000    0.571    2.857    3.000   12.000    0.571 
#    0.000    0.000    0.000    0.000    0.000    0.000 
#    0.000    0.000    0.000    0.000    0.000    0.000 
#
# Total GULP energy -173666.836114 kJ/mol
# GULP energy per Si atom -12404.774008 kJ/mol
# Density = 2.510785 g / cm^3
# Si number density = 25.165126 Si / 1000 Ang^3
#
#
#
# Elastic Constant Matrix: (Units=GPa)
#
#
# Indices 1 2 3 4 5 6 
#
# 1 139.3243 21.2051 -12.2665 -16.8564 -5.9400 0.4842
# 2 21.2051 116.2453 16.5758 21.0746 4.0623 1.6031
# 3 -12.2665 16.5758 37.1462 1.2739 0.2319 0.0614
# 4 -16.8564 21.0746 1.2739 40.1180 -0.5038 -2.1306
# 5 -5.9400 4.0623 0.2319 -0.5038 23.8047 -3.1234
# 6 0.4842 1.6031 0.0614 -2.1306 -3.1234 40.3395
#
#
#
# Elastic Compliance Matrix: (Units=1/GPa)
#
#
# Indices 1 2 3 4 5 6 
#
# 1 0.008815 -0.003284 0.004173 0.005361 0.002902 0.000526
# 2 -0.003284 0.011496 -0.005943 -0.007322 -0.003013 -0.001028
# 3 0.004173 -0.005943 0.030802 0.003947 0.001904 0.000495
# 4 0.005361 -0.007322 0.003947 0.031057 0.003486 0.002131
# 5 0.002902 -0.003013 0.001904 0.003486 0.043782 0.003656
# 6 0.000526 -0.001028 0.000495 0.002131 0.003656 0.025219
#
#
# Mechanical properties :
#
#
# Convention : Reuss Voigt Hill
#
# Bulk Modulus (GPa) = 24.38552 38.19386 31.28969
# Shear Modulus (GPa) = 28.58022 38.66586 33.62304
#
# Velocity S-wave (km/s) = 3.37368 3.92406 3.65923
# Velocity P-wave (km/s) = 4.98868 5.97839 5.50582
#
# Compressibility (1/GPa) = 0.04100794
#
# Stress axis : x y z
#
# Youngs Moduli (GPa) = 113.44077 86.98796 32.46494
#
# Poissons Ratio (x) = 0.28564 -0.13549
# Poissons Ratio (y) = 0.37250 0.19292
# Poissons Ratio (z) = -0.47343 0.51693
#
# Static dielectric constant tensor:
#      x y z
#    x 4.694290 -0.141100 0.029080 
#    y -0.141100 4.664680 0.066140 
#    z 0.029080 0.066140 4.486180 
# 
# 
# High freq. dielectric constant tensor:
#      x y z
#    x 2.018200 -0.004260 -0.003350 
#    y -0.004260 2.013260 0.007010 
#    z -0.003350 0.007010 1.992780 
# 
# From -- ./inp_files/383349.got.cif
#   From: 2010.06.25/outbox.cif.g09.slc.cpg/sg2_192_cif.got.tgz:383349.got - 2010.06.27 13:26:56.
