data_PCOD8035639
_publ_section_title
;
Structure prediction by ZEFSAII (Michael W. Deem and Ramdas Pophale) SiO2 
 PCOD8035639
Probable space group: P -1
;
_chemical_formula_sum "Si O2"
_cell_formula_units_Z 16
_cell_length_a 9.681559
_cell_length_b 23.552410
_cell_length_c 9.495104
_cell_angle_alpha 26.669668
_cell_angle_beta 133.388908
_cell_angle_gamma 131.823076
_cell_volume 696.841181
_symmetry_space_group_name_H-M "P -1"
_symmetry_group_IT_number 2
_symmetry_cell_setting 'triclinic'
loop_
_space_group_symop_operation_xyz
x,y,z
-x,-y,-z
loop_
_atom_site_type_symbol
_atom_site_label
_atom_site_fract_x
_atom_site_fract_y
_atom_site_fract_z
Si Si1 0.024629 0.003832 0.844338
Si Si2 0.481420 0.655612 0.261898
Si Si3 0.307095 0.693857 0.769192
Si Si4 0.446705 0.441168 0.942672
Si Si5 0.084424 0.285642 0.654617
Si Si6 0.743377 0.160108 0.152839
Si Si7 0.959190 0.633051 0.240993
Si Si8 0.438859 0.985748 0.147479
O O1 0.900524 0.106130 0.475159
O O2 0.251141 0.054759 0.868607
O O3 0.000000 0.000000 0.000000
O O4 0.960704 0.868537 0.018571
O O5 0.414070 0.547154 0.569365
O O6 0.710906 0.676542 0.360789
O O7 0.382481 0.620819 0.117551
O O8 0.404720 0.783211 0.975203
O O9 0.391085 0.843538 0.492361
O O10 0.075227 0.670594 0.658448
O O11 0.381398 0.633107 0.815083
O O12 0.243231 0.343848 0.022284
O O13 0.500000 0.500000 0.000000
O O14 0.071299 0.359233 0.629349
O O15 0.617926 0.050105 0.220780
O O16 0.859339 0.261766 0.902760
O O17 0.000000 0.500000 0.500000
O O18 0.500000 0.000000 0.000000
#
# Coordination Sequence:
#
# PCOD8035639 Si02
#       8
#     2   2   2   2   2   2   2   2
#     4  11  25  46  70 109 148 190 242 297 364 439
#     4  12  26  47  74 107 145 191 250 297 366 435
#     4  11  25  47  74 107 146 189 241 304 363 431
#     4  12  28  47  75 104 147 193 244 307 368 428
#     4  11  25  46  76 107 150 190 243 301 366 438
#     4  12  26  44  76 105 148 193 240 302 369 425
#     4  12  26  49  70 106 149 187 250 304 361 439
#     4  11  26  44  73 107 148 191 244 295 365 441
#
# _framework density 22.960757000000001
#
# number of rings (size 3 to 8) (size 9 to 14) (size 15 to 20)
#    0.000    0.500    2.500    5.625    3.500    5.000 
#    0.000    0.000    0.000    0.000    0.000    0.000 
#    0.000    0.000    0.000    0.000    0.000    0.000 
#
# Total GULP energy -198413.979751 kJ/mol
# GULP energy per Si atom -12400.873734 kJ/mol
# Density = 2.290850 g / cm^3
# Si number density = 22.960757 Si / 1000 Ang^3
#
#
#
# Elastic Constant Matrix: (Units=GPa)
#
#
# Indices 1 2 3 4 5 6 
#
# 1 167.4722 57.4986 53.3287 17.7158 11.2461 7.9822
# 2 57.4986 128.7620 50.6525 20.7012 -3.6057 5.1999
# 3 53.3287 50.6525 93.0373 13.6865 15.5117 8.2516
# 4 17.7158 20.7012 13.6865 34.8686 0.1197 10.3382
# 5 11.2461 -3.6057 15.5117 0.1197 39.4069 5.2272
# 6 7.9822 5.1999 8.2516 10.3382 5.2272 48.5662
#
#
#
# Elastic Compliance Matrix: (Units=1/GPa)
#
#
# Indices 1 2 3 4 5 6 
#
# 1 0.007892 -0.002171 -0.002889 -0.001552 -0.001295 -0.000104
# 2 -0.002171 0.011422 -0.005049 -0.003833 0.003608 0.000419
# 3 -0.002889 -0.005049 0.016483 -0.001757 -0.006019 -0.000763
# 4 -0.001552 -0.003833 -0.001757 0.034360 0.001544 -0.006516
# 5 -0.001295 0.003608 -0.006019 0.001544 0.028783 -0.002577
# 6 -0.000104 0.000419 -0.000763 -0.006516 -0.002577 0.022357
#
#
# Mechanical properties :
#
#
# Convention : Reuss Voigt Hill
#
# Bulk Modulus (GPa) = 64.18280 79.13681 71.65980
# Shear Modulus (GPa) = 34.08146 39.75445 36.91795
#
# Velocity S-wave (km/s) = 3.85689 4.16553 4.01418
# Velocity P-wave (km/s) = 6.91723 7.59450 7.26376
#
# Compressibility (1/GPa) = 0.01558050
#
# Stress axis : x y z
#
# Youngs Moduli (GPa) = 126.70542 87.54872 60.66880
#
# Poissons Ratio (x) = 0.19003 0.17525
# Poissons Ratio (y) = 0.27502 0.30634
# Poissons Ratio (z) = 0.36600 0.44206
#
# Static dielectric constant tensor:
#      x y z
#    x 4.593400 0.191550 0.235930 
#    y 0.191550 4.609410 -0.168230 
#    z 0.235930 -0.168230 4.041260 
# 
# 
# High freq. dielectric constant tensor:
#      x y z
#    x 1.933440 0.001940 0.015930 
#    y 0.001940 1.920600 0.007230 
#    z 0.015930 0.007230 1.899100 
# 
# From -- ./inp_files/225876.got.cif
#   From: 2010.06.25/outbox.cif.g09.slc.cpg/sg2_113_cif.got.tgz:225876.got - 2010.06.27 13:26:56.
