data_PCOD8035188
_publ_section_title
;
Structure prediction by ZEFSAII (Michael W. Deem and Ramdas Pophale) SiO2 
 PCOD8035188
Probable space group: P -1
;
_chemical_formula_sum "Si O2"
_cell_formula_units_Z 12
_cell_length_a 14.423268
_cell_length_b 5.194275
_cell_length_c 11.608585
_cell_angle_alpha 99.616567
_cell_angle_beta 32.593992
_cell_angle_gamma 99.226731
_cell_volume 461.592538
_symmetry_space_group_name_H-M "P -1"
_symmetry_group_IT_number 2
_symmetry_cell_setting 'triclinic'
loop_
_space_group_symop_operation_xyz
x,y,z
-x,-y,-z
loop_
_atom_site_type_symbol
_atom_site_label
_atom_site_fract_x
_atom_site_fract_y
_atom_site_fract_z
Si Si1 0.190543 0.895835 0.279520
Si Si2 0.691013 0.439702 0.327964
Si Si3 0.447245 0.796337 0.323068
Si Si4 0.206756 0.913087 0.005072
Si Si5 0.163389 0.167074 0.630910
Si Si6 0.723900 0.573617 0.679153
O O1 0.233673 0.810672 0.098498
O O2 0.205195 0.641600 0.324353
O O3 0.316456 0.151658 0.195439
O O4 0.000000 0.000000 0.500000
O O5 0.500000 0.500000 0.500000
O O6 0.670711 0.247266 0.443280
O O7 0.804052 0.694413 0.269343
O O8 0.782248 0.325083 0.113051
O O9 0.447984 0.550861 0.214819
O O10 0.335736 0.022024 0.398388
O O11 0.642897 0.868849 0.161283
O O12 0.012818 0.015267 0.195805
O O13 0.138896 0.371388 0.565137
#
# Coordination Sequence:
#
# PCOD8035188 Si02
#       6
#     2   2   2   2   2   2
#     4  12  25  46  77 112 155 195 256 309 365 456
#     4  11  25  48  74 108 156 191 252 318 374 449
#     4  11  25  49  75 105 155 195 251 319 368 447
#     4  12  26  45  77 112 143 209 246 302 392 438
#     4  11  24  49  75 108 150 194 255 313 371 449
#     4  11  24  49  73 107 156 198 243 321 365 432
#
# _framework density 25.996956000000001
#
# number of rings (size 3 to 8) (size 9 to 14) (size 15 to 20)
#    0.000    0.667    5.000    1.500    0.000    3.333 
#    6.000    0.000    0.000    0.000    0.000    0.000 
#    0.000    0.000    0.000    0.000    0.000    0.000 
#
# Total GULP energy -148662.997111 kJ/mol
# GULP energy per Si atom -12388.583093 kJ/mol
# Density = 2.593779 g / cm^3
# Si number density = 25.996956 Si / 1000 Ang^3
#
#
#
# Elastic Constant Matrix: (Units=GPa)
#
#
# Indices 1 2 3 4 5 6 
#
# 1 138.5313 55.9211 43.2410 -10.3089 5.9960 31.0125
# 2 55.9211 107.6499 9.1692 -27.2318 -16.3386 9.8165
# 3 43.2410 9.1692 59.6600 -37.6980 -26.3742 8.0228
# 4 -10.3089 -27.2318 -37.6980 1.4174 4.5807 -19.0133
# 5 5.9960 -16.3386 -26.3742 4.5807 56.8271 -12.9672
# 6 31.0125 9.8165 8.0228 -19.0133 -12.9672 47.2330
#
#
#
# Elastic Compliance Matrix: (Units=1/GPa)
#
#
# Indices 1 2 3 4 5 6 
#
# 1 0.009547 -0.002196 -0.000046 0.012094 -0.003039 -0.001771
# 2 -0.002196 0.008981 -0.004629 -0.008779 0.000693 -0.002982
# 3 -0.000046 -0.004629 0.006692 -0.019891 0.001625 -0.007705
# 4 0.012094 -0.008779 -0.019891 -0.011913 -0.014712 -0.011572
# 5 -0.003039 0.000693 0.001625 -0.014712 0.020339 0.001237
# 6 -0.001771 -0.002982 -0.007705 -0.011572 0.001237 0.019944
#
#
# Mechanical properties :
#
#
# Convention : Reuss Voigt Hill
#
# Bulk Modulus (GPa) = 87.11956 58.05599 72.58778
# Shear Modulus (GPa) = 70.26557 34.26284 52.26420
#
# Velocity S-wave (km/s) = 5.20452 3.63430 4.48861
# Velocity P-wave (km/s) = 8.34867 6.32386 7.40579
#
# Compressibility (1/GPa) = 0.01147848
#
# Stress axis : x y z
#
# Youngs Moduli (GPa) = 104.74175 111.35010 149.43152
#
# Poissons Ratio (x) = 0.24454 0.00686
# Poissons Ratio (y) = 0.23003 0.69167
# Poissons Ratio (z) = 0.00481 0.51540
#
# Static dielectric constant tensor:
#      x y z
#    x 4.824260 0.190890 -0.788190 
#    y 0.190890 4.985340 -0.386480 
#    z -0.788190 -0.386480 2.881200 
# 
# 
# High freq. dielectric constant tensor:
#      x y z
#    x 2.071730 0.020130 0.012300 
#    y 0.020130 2.027350 -0.012740 
#    z 0.012300 -0.012740 2.023110 
# 
# From -- ./inp_files/440574.got.cif
#   From: 2010.06.25/outbox.cif.g09.slc.cpg/sg2_221_cif.got.tgz:440574.got - 2010.06.27 13:26:56.
