data_PCOD8035126
_publ_section_title
;
Structure prediction by ZEFSAII (Michael W. Deem and Ramdas Pophale) SiO2 
 PCOD8035126
Probable space group: P -1
;
_chemical_formula_sum "Si O2"
_cell_formula_units_Z 16
_cell_length_a 12.050222
_cell_length_b 6.455212
_cell_length_c 10.758057
_cell_angle_alpha 101.863390
_cell_angle_beta 100.270900
_cell_angle_gamma 57.551805
_cell_volume 688.754439
_symmetry_space_group_name_H-M "P -1"
_symmetry_group_IT_number 2
_symmetry_cell_setting 'triclinic'
loop_
_space_group_symop_operation_xyz
x,y,z
-x,-y,-z
loop_
_atom_site_type_symbol
_atom_site_label
_atom_site_fract_x
_atom_site_fract_y
_atom_site_fract_z
Si Si1 0.788298 0.206802 0.088866
Si Si2 0.300187 0.108449 0.111787
Si Si3 0.901635 0.834671 0.289054
Si Si4 0.118863 0.484848 0.944088
Si Si5 0.437809 0.295389 0.783081
Si Si6 0.724023 0.833685 0.450328
Si Si7 0.407310 0.657605 0.390524
Si Si8 0.199251 0.494518 0.348372
O O1 0.899125 0.248043 0.050880
O O2 0.662842 0.479278 0.122760
O O3 0.840679 0.068338 0.213498
O O4 0.758199 0.060517 0.962451
O O5 0.228988 0.258140 0.241861
O O6 0.457372 0.934708 0.138623
O O7 0.259506 0.311801 0.020164
O O8 0.878298 0.624926 0.203077
O O9 0.827603 0.894863 0.413912
O O10 0.055149 0.731295 0.325806
O O11 0.000000 0.500000 0.000000
O O12 0.369024 0.184275 0.671839
O O13 0.512410 0.400125 0.728654
O O14 0.791819 0.582689 0.514773
O O15 0.642774 0.058008 0.556014
O O16 0.500000 0.500000 0.500000
O O17 0.296588 0.588455 0.341988
#
# Coordination Sequence:
#
# PCOD8035126 Si02
#       8
#     2   2   2   2   2   2   2   2
#     4  11  27  48  73 106 145 189 238 305 356 420
#     4  11  26  44  72 110 136 192 240 291 360 428
#     4  11  26  47  74 106 143 187 244 298 357 425
#     4  11  24  48  73 102 144 190 238 297 358 421
#     4  12  24  48  71 104 151 187 242 294 357 429
#     4  12  25  48  71 107 146 194 237 297 359 423
#     4  12  25  43  72 103 146 195 237 287 361 424
#     4  12  26  47  72 109 145 188 243 296 355 436
#
# _framework density 23.230340000000002
#
# number of rings (size 3 to 8) (size 9 to 14) (size 15 to 20)
#    0.000    0.500    5.000    2.625    1.750    5.000 
#    0.000    0.000    0.000    0.000    0.000    0.000 
#    0.000    0.000    0.000    0.000    0.000    0.000 
#
# Total GULP energy -198405.505549 kJ/mol
# GULP energy per Si atom -12400.344097 kJ/mol
# Density = 2.317747 g / cm^3
# Si number density = 23.230340 Si / 1000 Ang^3
#
#
#
# Elastic Constant Matrix: (Units=GPa)
#
#
# Indices 1 2 3 4 5 6 
#
# 1 138.5370 54.2696 42.9247 -12.2909 -1.6094 10.2016
# 2 54.2696 95.8418 16.5507 -3.9899 11.4600 3.4992
# 3 42.9247 16.5507 67.0854 1.1298 13.2646 8.7245
# 4 -12.2909 -3.9899 1.1298 37.5567 -8.1919 6.1282
# 5 -1.6094 11.4600 13.2646 -8.1919 31.4776 -9.3051
# 6 10.2016 3.4992 8.7245 6.1282 -9.3051 46.0643
#
#
#
# Elastic Compliance Matrix: (Units=1/GPa)
#
#
# Indices 1 2 3 4 5 6 
#
# 1 0.013002 -0.006656 -0.008387 0.005549 0.008099 0.000112
# 2 -0.006656 0.014667 0.002359 -0.002135 -0.007627 -0.001344
# 3 -0.008387 0.002359 0.023147 -0.005435 -0.013871 -0.004785
# 4 0.005549 -0.002135 -0.005435 0.031069 0.010852 -0.001978
# 5 0.008099 -0.007627 -0.013871 0.010852 0.046390 0.009340
# 6 0.000112 -0.001344 -0.004785 -0.001978 0.009340 0.024842
#
#
# Mechanical properties :
#
#
# Convention : Reuss Voigt Hill
#
# Bulk Modulus (GPa) = 39.29416 58.77270 49.03343
# Shear Modulus (GPa) = 26.74249 35.53433 31.13841
#
# Velocity S-wave (km/s) = 3.39660 3.91532 3.66515
# Velocity P-wave (km/s) = 5.68632 6.76717 6.25015
#
# Compressibility (1/GPa) = 0.02544907
#
# Stress axis : x y z
#
# Youngs Moduli (GPa) = 76.90950 68.17853 43.20164
#
# Poissons Ratio (x) = 0.45377 0.36233
# Poissons Ratio (y) = 0.51188 -0.10190
# Poissons Ratio (z) = 0.64504 -0.16082
#
# Static dielectric constant tensor:
#      x y z
#    x 4.160870 -0.153510 0.230240 
#    y -0.153510 4.426880 0.007300 
#    z 0.230240 0.007300 3.847020 
# 
# 
# High freq. dielectric constant tensor:
#      x y z
#    x 1.920360 -0.001040 0.001130 
#    y -0.001040 1.926280 -0.006290 
#    z 0.001130 -0.006290 1.926920 
# 
# From -- ./inp_files/410851.got.cif
#   From: 2010.06.25/outbox.cif.g09.slc.cpg/sg2_206_cif.got.tgz:410851.got - 2010.06.27 13:26:56.
