data_PCOD8035226
_publ_section_title
;
Structure prediction by ZEFSAII (Michael W. Deem and Ramdas Pophale) SiO2 
 PCOD8035226
Probable space group: P -1
;
_chemical_formula_sum "Si O2"
_cell_formula_units_Z 10
_cell_length_a 12.399345
_cell_length_b 9.185512
_cell_length_c 18.106625
_cell_angle_alpha 35.220601
_cell_angle_beta 18.184566
_cell_angle_gamma 36.997734
_cell_volume 368.253162
_symmetry_space_group_name_H-M "P -1"
_symmetry_group_IT_number 2
_symmetry_cell_setting 'triclinic'
loop_
_space_group_symop_operation_xyz
x,y,z
-x,-y,-z
loop_
_atom_site_type_symbol
_atom_site_label
_atom_site_fract_x
_atom_site_fract_y
_atom_site_fract_z
Si Si1 0.701195 0.838301 0.208031
Si Si2 0.274313 0.513792 0.527587
Si Si3 0.297981 0.349904 0.275766
Si Si4 0.220000 0.806439 0.762906
Si Si5 0.755964 0.142570 0.821588
O O1 0.368245 0.743569 0.422600
O O2 0.734466 0.734346 0.312767
O O3 0.634269 0.145913 0.125365
O O4 0.072251 0.749318 0.963650
O O5 0.589993 0.455740 0.286647
O O6 0.909315 0.580811 0.694706
O O7 0.422453 0.604384 0.124780
O O8 0.066295 0.217340 0.538992
O O9 0.500000 0.000000 0.500000
O O10 0.888602 0.929687 0.882437
O O11 0.500000 0.000000 0.000000
#
# Coordination Sequence:
#
# PCOD8035226 Si02
#       5
#     2   2   2   2   2
#     4  11  26  47  79 114 153 203 256 319 381 463
#     4  11  24  50  77 116 154 198 261 317 386 455
#     4  11  24  51  77 112 156 199 260 319 380 463
#     4  12  25  51  74 112 156 203 254 318 388 453
#     4  11  25  48  80 112 154 204 254 318 392 454
#
# _framework density 27.155232000000002
#
# number of rings (size 3 to 8) (size 9 to 14) (size 15 to 20)
#    0.000    0.800    4.000    2.400    0.000    1.600 
#    7.200    0.000    0.000    0.000    0.000    0.000 
#    0.000    0.000    0.000    0.000    0.000    0.000 
#
# Total GULP energy -124042.274065 kJ/mol
# GULP energy per Si atom -12404.227407 kJ/mol
# Density = 2.709343 g / cm^3
# Si number density = 27.155232 Si / 1000 Ang^3
#
#
#
# Elastic Constant Matrix: (Units=GPa)
#
#
# Indices 1 2 3 4 5 6 
#
# 1 113.2381 52.0836 35.1392 -1.8631 8.5797 12.7387
# 2 52.0836 143.0904 28.0040 0.3903 -6.2795 11.7152
# 3 35.1392 28.0040 84.4525 -0.6130 7.3062 13.7132
# 4 -1.8631 0.3903 -0.6130 37.1392 18.7651 -2.6569
# 5 8.5797 -6.2795 7.3062 18.7651 49.2848 -13.5168
# 6 12.7387 11.7152 13.7132 -2.6569 -13.5168 41.2523
#
#
#
# Elastic Compliance Matrix: (Units=1/GPa)
#
#
# Indices 1 2 3 4 5 6 
#
# 1 0.012136 -0.003776 -0.003003 0.002316 -0.003790 -0.002770
# 2 -0.003776 0.008795 -0.001575 -0.001635 0.002619 -0.000056
# 3 -0.003003 -0.001575 0.014705 0.001682 -0.003771 -0.004641
# 4 0.002316 -0.001635 0.001682 0.034366 -0.014900 -0.003479
# 5 -0.003790 0.002619 -0.003771 -0.014900 0.030450 0.010698
# 6 -0.002770 -0.000056 -0.004641 -0.003479 0.010698 0.029936
#
#
# Mechanical properties :
#
#
# Convention : Reuss Voigt Hill
#
# Bulk Modulus (GPa) = 52.82982 63.47053 58.15018
# Shear Modulus (GPa) = 32.59341 40.57218 36.58279
#
# Velocity S-wave (km/s) = 3.46824 3.86953 3.67437
# Velocity P-wave (km/s) = 5.96114 6.58698 6.28186
#
# Compressibility (1/GPa) = 0.01892870
#
# Stress axis : x y z
#
# Youngs Moduli (GPa) = 82.39716 113.70094 68.00495
#
# Poissons Ratio (x) = 0.42929 0.20424
# Poissons Ratio (y) = 0.31110 0.10709
# Poissons Ratio (z) = 0.24746 0.17906
#
# Static dielectric constant tensor:
#      x y z
#    x 5.264450 0.299230 0.115540 
#    y 0.299230 4.850920 0.068830 
#    z 0.115540 0.068830 4.842510 
# 
# 
# High freq. dielectric constant tensor:
#      x y z
#    x 2.114580 0.007030 0.004100 
#    y 0.007030 2.094020 -0.009140 
#    z 0.004100 -0.009140 2.096870 
# 
# From -- ./inp_files/166697.got.cif
#   From: 2010.06.25/outbox.cif.g09.slc.cpg/sg2_84_cif.got.tgz:166697.got - 2010.06.27 13:26:56.
