data_PCOD8035163
_publ_section_title
;
Structure prediction by ZEFSAII (Michael W. Deem and Ramdas Pophale) SiO2 
 PCOD8035163
Probable space group: P -1
;
_chemical_formula_sum "Si O2"
_cell_formula_units_Z 12
_cell_length_a 11.416096
_cell_length_b 7.395548
_cell_length_c 8.597206
_cell_angle_alpha 105.616319
_cell_angle_beta 41.597304
_cell_angle_gamma 109.181756
_cell_volume 454.810591
_symmetry_space_group_name_H-M "P -1"
_symmetry_group_IT_number 2
_symmetry_cell_setting 'triclinic'
loop_
_space_group_symop_operation_xyz
x,y,z
-x,-y,-z
loop_
_atom_site_type_symbol
_atom_site_label
_atom_site_fract_x
_atom_site_fract_y
_atom_site_fract_z
Si Si1 0.693292 0.245926 0.634807
Si Si2 0.867312 0.683395 0.068919
Si Si3 0.090663 0.660063 0.271255
Si Si4 0.297370 0.387179 0.462809
Si Si5 0.233075 0.926869 0.783754
Si Si6 0.562047 0.106605 0.144399
O O1 0.863054 0.354138 0.593256
O O2 0.618948 0.404832 0.645052
O O3 0.752896 0.094235 0.421758
O O4 0.536987 0.110202 0.863162
O O5 0.733401 0.587573 0.316484
O O6 0.802954 0.862684 0.095369
O O7 0.880111 0.531113 0.887755
O O8 0.064970 0.759053 0.966498
O O9 0.892196 0.702011 0.453171
O O10 0.237532 0.843751 0.111841
O O11 0.443163 0.260369 0.254338
O O12 0.588967 0.098020 0.304189
#
# Coordination Sequence:
#
# PCOD8035163 Si02
#       6
#     2   2   2   2   2   2
#     4  12  27  49  74 116 148 196 250 308 374 439
#     4  11  24  48  78 112 143 205 249 303 370 444
#     4  12  27  51  76 109 156 192 251 309 372 443
#     4  12  26  49  80 108 146 203 248 302 372 442
#     4  11  24  48  79 110 150 194 255 305 367 446
#     4  12  28  50  76 113 151 196 251 306 370 449
#
# _framework density 26.384611
#
# number of rings (size 3 to 8) (size 9 to 14) (size 15 to 20)
#    0.000    0.333    5.000    3.000    2.333    2.667 
#    3.000    0.000    0.000    0.000    0.000    0.000 
#    0.000    0.000    0.000    0.000    0.000    0.000 
#
# Total GULP energy -148847.237176 kJ/mol
# GULP energy per Si atom -12403.936431 kJ/mol
# Density = 2.632456 g / cm^3
# Si number density = 26.384611 Si / 1000 Ang^3
#
#
#
# Elastic Constant Matrix: (Units=GPa)
#
#
# Indices 1 2 3 4 5 6 
#
# 1 122.7541 50.9140 15.2125 29.5341 -14.7716 7.1444
# 2 50.9140 134.7953 18.5566 -10.1173 -18.9799 2.2224
# 3 15.2125 18.5566 41.8512 2.3912 -20.0957 -11.1798
# 4 29.5341 -10.1173 2.3912 39.2578 9.2479 3.9409
# 5 -14.7716 -18.9799 -20.0957 9.2479 37.0451 -0.5200
# 6 7.1444 2.2224 -11.1798 3.9409 -0.5200 35.6216
#
#
#
# Elastic Compliance Matrix: (Units=1/GPa)
#
#
# Indices 1 2 3 4 5 6 
#
# 1 0.014716 -0.005798 0.001372 -0.014298 0.007204 -0.000472
# 2 -0.005798 0.010622 -0.003928 0.007723 -0.000951 -0.001601
# 3 0.001372 -0.003928 0.041221 -0.011673 0.024014 0.014549
# 4 -0.014298 0.007723 -0.011673 0.044094 -0.019174 -0.006436
# 5 0.007204 -0.000951 0.024014 -0.019174 0.047319 0.008963
# 6 -0.000472 -0.001601 0.014549 -0.006436 0.008963 0.033676
#
#
# Mechanical properties :
#
#
# Convention : Reuss Voigt Hill
#
# Bulk Modulus (GPa) = 20.05989 52.08522 36.07256
# Shear Modulus (GPa) = 22.22499 36.69939 29.46219
#
# Velocity S-wave (km/s) = 2.90547 3.73358 3.34525
# Velocity P-wave (km/s) = 4.34454 6.19433 5.34999
#
# Compressibility (1/GPa) = 0.04985073
#
# Stress axis : x y z
#
# Youngs Moduli (GPa) = 67.95440 94.14808 24.25938
#
# Poissons Ratio (x) = 0.54589 -0.03328
# Poissons Ratio (y) = 0.39401 0.09528
# Poissons Ratio (z) = -0.09323 0.36978
#
# Static dielectric constant tensor:
#      x y z
#    x 5.054550 0.258400 0.074940 
#    y 0.258400 4.767860 -0.475410 
#    z 0.074940 -0.475410 4.859160 
# 
# 
# High freq. dielectric constant tensor:
#      x y z
#    x 2.070390 0.008780 0.010130 
#    y 0.008780 2.064480 -0.028650 
#    z 0.010130 -0.028650 2.055790 
# 
# From -- ./inp_files/239487.got.cif
#   From: 2010.06.25/outbox.cif.g09.slc.cpg/sg2_120_cif.got.tgz:239487.got - 2010.06.27 13:26:56.
