data_PCOD8035841
_publ_section_title
;
Structure prediction by ZEFSAII (Michael W. Deem and Ramdas Pophale) SiO2 
 PCOD8035841
Probable space group: P -1
;
_chemical_formula_sum "Si O2"
_cell_formula_units_Z 16
_cell_length_a 15.195334
_cell_length_b 15.777332
_cell_length_c 14.520459
_cell_angle_alpha 134.069158
_cell_angle_beta 29.927032
_cell_angle_gamma 153.157516
_cell_volume 736.013277
_symmetry_space_group_name_H-M "P -1"
_symmetry_group_IT_number 2
_symmetry_cell_setting 'triclinic'
loop_
_space_group_symop_operation_xyz
x,y,z
-x,-y,-z
loop_
_atom_site_type_symbol
_atom_site_label
_atom_site_fract_x
_atom_site_fract_y
_atom_site_fract_z
Si Si1 0.797825 0.934817 0.902886
Si Si2 0.253854 0.160417 0.320266
Si Si3 0.380729 0.011606 0.532102
Si Si4 0.693220 0.628962 0.834756
Si Si5 0.565393 0.693619 0.319760
Si Si6 0.776017 0.281995 0.007501
Si Si7 0.536020 0.013306 0.762585
Si Si8 0.871157 0.651530 0.421479
O O1 0.896221 0.942310 0.719589
O O2 0.652272 0.745350 0.942605
O O3 0.536122 0.887959 0.099529
O O4 0.090612 0.147224 0.846669
O O5 0.337841 0.344310 0.397266
O O6 0.521402 0.212767 0.129925
O O7 0.000000 0.000000 0.500000
O O8 0.541670 0.078280 0.337822
O O9 0.038403 0.788594 0.662426
O O10 0.500000 0.000000 0.500000
O O11 0.439525 0.181006 0.629833
O O12 0.561468 0.477484 0.758757
O O13 0.500000 0.500000 0.000000
O O14 0.352481 0.574255 0.514121
O O15 0.945319 0.281109 0.786609
O O16 0.000000 0.500000 0.000000
O O17 0.657778 0.152225 0.106759
O O18 0.887130 0.188000 0.596860
#
# Coordination Sequence:
#
# PCOD8035841 Si02
#       8
#     2   2   2   2   2   2   2   2
#     4  11  26  45  73 105 141 186 233 295 357 424
#     4  12  24  44  71  99 145 189 236 289 352 422
#     4  11  27  47  72 104 139 186 234 295 361 422
#     4  11  26  47  72 103 137 184 239 295 359 421
#     4  11  25  47  74 101 144 184 234 293 358 425
#     4  12  28  43  68 109 144 190 245 288 352 432
#     4  12  24  48  68 103 147 183 237 299 352 423
#     4  12  23  46  71 102 145 189 236 290 356 418
#
# _framework density 21.738738999999999
#
# number of rings (size 3 to 8) (size 9 to 14) (size 15 to 20)
#    0.000    0.500    5.000    2.625    7.000    3.000 
#    0.000    0.000    0.000    0.000    0.000    0.000 
#    0.000    0.000    0.000    0.000    0.000    0.000 
#
# Total GULP energy -198366.213458 kJ/mol
# GULP energy per Si atom -12397.888341 kJ/mol
# Density = 2.168926 g / cm^3
# Si number density = 21.738739 Si / 1000 Ang^3
#
#
#
# Elastic Constant Matrix: (Units=GPa)
#
#
# Indices 1 2 3 4 5 6 
#
# 1 124.8794 53.4102 43.3299 0.4473 10.7933 -17.7493
# 2 53.4102 138.0983 39.4191 -7.9208 1.8359 -3.5177
# 3 43.3299 39.4191 94.3274 7.3049 10.9421 -11.6519
# 4 0.4473 -7.9208 7.3049 35.5631 -12.0295 3.6804
# 5 10.7933 1.8359 10.9421 -12.0295 31.1583 2.0989
# 6 -17.7493 -3.5177 -11.6519 3.6804 2.0989 35.9231
#
#
#
# Elastic Compliance Matrix: (Units=1/GPa)
#
#
# Indices 1 2 3 4 5 6 
#
# 1 0.011532 -0.003714 -0.002453 -0.002403 -0.004181 0.005029
# 2 -0.003714 0.009830 -0.003543 0.004563 0.003896 -0.002717
# 3 -0.002453 -0.003543 0.015110 -0.006741 -0.007150 0.004451
# 4 -0.002403 0.004563 -0.006741 0.037413 0.017901 -0.007806
# 5 -0.004181 0.003896 -0.007150 0.017901 0.043299 -0.008367
# 6 0.005029 -0.002717 0.004451 -0.007806 -0.008367 0.032788
#
#
# Mechanical properties :
#
#
# Convention : Reuss Voigt Hill
#
# Bulk Modulus (GPa) = 58.64276 69.95815 64.30045
# Shear Modulus (GPa) = 28.55927 35.27196 31.91562
#
# Velocity S-wave (km/s) = 3.62850 4.03245 3.83579
# Velocity P-wave (km/s) = 6.67753 7.34384 7.01860
#
# Compressibility (1/GPa) = 0.01705240
#
# Stress axis : x y z
#
# Youngs Moduli (GPa) = 86.71473 101.73416 66.18246
#
# Poissons Ratio (x) = 0.37785 0.16234
# Poissons Ratio (y) = 0.32206 0.23445
# Poissons Ratio (z) = 0.21270 0.36039
#
# Static dielectric constant tensor:
#      x y z
#    x 1.249890 -1.639010 -1.500340 
#    y -1.639010 3.392960 -0.939860 
#    z -1.500340 -0.939860 3.146870 
# 
# 
# High freq. dielectric constant tensor:
#      x y z
#    x 1.862720 -0.009190 0.006150 
#    y -0.009190 1.864870 0.003440 
#    z 0.006150 0.003440 1.858850 
# 
# From -- ./inp_files/534364.got.cif
#   From: 2010.06.25/outbox.cif.g09.slc.cpg/sg2_268_cif.got.tgz:534364.got - 2010.06.27 13:26:56.
