data_PCOD8035749
_publ_section_title
;
Structure prediction by ZEFSAII (Michael W. Deem and Ramdas Pophale) SiO2 
 PCOD8035749
Probable space group: P -1
;
_chemical_formula_sum "Si O2"
_cell_formula_units_Z 10
_cell_length_a 15.048867
_cell_length_b 9.498701
_cell_length_c 15.018331
_cell_angle_alpha 36.593998
_cell_angle_beta 18.213895
_cell_angle_gamma 42.234558
_cell_volume 397.154780
_symmetry_space_group_name_H-M "P -1"
_symmetry_group_IT_number 2
_symmetry_cell_setting 'triclinic'
loop_
_space_group_symop_operation_xyz
x,y,z
-x,-y,-z
loop_
_atom_site_type_symbol
_atom_site_label
_atom_site_fract_x
_atom_site_fract_y
_atom_site_fract_z
Si Si1 0.973162 0.400422 0.676149
Si Si2 0.826534 0.246047 0.305124
Si Si3 0.364291 0.136620 0.932438
Si Si4 0.243133 0.204233 0.198095
Si Si5 0.448356 0.091748 0.404327
O O1 0.277255 0.321787 0.455083
O O2 0.000000 0.500000 0.500000
O O3 0.900031 0.598234 0.714156
O O4 0.733522 0.171509 0.033929
O O5 0.549548 0.288091 0.604984
O O6 0.735887 0.126351 0.358788
O O7 0.000000 0.500000 0.000000
O O8 0.032950 0.076949 0.245799
O O9 0.502118 0.889423 0.939106
O O10 0.384360 0.296575 0.922283
O O11 0.000000 0.000000 0.500000
O O12 0.500000 0.000000 0.500000
#
# Coordination Sequence:
#
# PCOD8035749 Si02
#       5
#     2   2   2   2   2
#     4  12  29  51  82 114 158 208 262 323 394 466
#     4  12  27  48  80 107 154 205 264 311 381 470
#     4  11  25  46  75 115 149 192 264 317 381 445
#     4  11  26  45  82 112 155 195 259 323 382 461
#     4  12  30  52  79 114 163 206 261 323 402 466
#
# _framework density 25.179102
#
# number of rings (size 3 to 8) (size 9 to 14) (size 15 to 20)
#    0.000    0.400    2.000    4.200   11.200    0.000 
#    0.000    0.000    0.000    0.000    0.000    0.000 
#    0.000    0.000    0.000    0.000    0.000    0.000 
#
# Total GULP energy -124010.216162 kJ/mol
# GULP energy per Si atom -12401.021616 kJ/mol
# Density = 2.512179 g / cm^3
# Si number density = 25.179102 Si / 1000 Ang^3
#
#
#
# Elastic Constant Matrix: (Units=GPa)
#
#
# Indices 1 2 3 4 5 6 
#
# 1 200.9907 68.6317 57.5767 3.7280 12.8914 1.7667
# 2 68.6317 123.4943 25.8349 11.3771 13.9446 19.5339
# 3 57.5767 25.8349 103.2222 12.3427 9.4491 10.7080
# 4 3.7280 11.3771 12.3427 49.3870 4.5554 -4.7580
# 5 12.8914 13.9446 9.4491 4.5554 45.0803 8.9893
# 6 1.7667 19.5339 10.7080 -4.7580 8.9893 51.6398
#
#
#
# Elastic Compliance Matrix: (Units=1/GPa)
#
#
# Indices 1 2 3 4 5 6 
#
# 1 0.007216 -0.003673 -0.003426 0.001434 -0.000777 0.002120
# 2 -0.003673 0.011157 0.000117 -0.002596 -0.001341 -0.004125
# 3 -0.003426 0.000117 0.012274 -0.003013 -0.000804 -0.002610
# 4 0.001434 -0.002596 -0.003013 0.022054 -0.001989 0.003936
# 5 -0.000777 -0.001341 -0.000804 -0.001989 0.023916 -0.003646
# 6 0.002120 -0.004125 -0.002610 0.003936 -0.003646 0.022391
#
#
# Mechanical properties :
#
#
# Convention : Reuss Voigt Hill
#
# Bulk Modulus (GPa) = 59.93763 81.31043 70.62403
# Shear Modulus (GPa) = 42.18262 47.59900 44.89081
#
# Velocity S-wave (km/s) = 4.09749 4.35261 4.22697
# Velocity P-wave (km/s) = 6.80015 7.59100 7.20643
#
# Compressibility (1/GPa) = 0.01668401
#
# Stress axis : x y z
#
# Youngs Moduli (GPa) = 138.58978 89.62718 81.47315
#
# Poissons Ratio (x) = 0.32921 0.27910
# Poissons Ratio (y) = 0.50905 -0.00956
# Poissons Ratio (z) = 0.47477 -0.01052
#
# Static dielectric constant tensor:
#      x y z
#    x 8.067230 0.750150 0.712740 
#    y 0.750150 4.972230 0.724700 
#    z 0.712740 0.724700 5.123580 
# 
# 
# High freq. dielectric constant tensor:
#      x y z
#    x 2.018600 0.001110 0.005590 
#    y 0.001110 2.004980 0.026820 
#    z 0.005590 0.026820 2.019490 
# 
# From -- ./inp_files/526094.got.cif
#   From: 2010.06.25/outbox.cif.g09.slc.cpg/sg2_264_cif.got.tgz:526094.got - 2010.06.27 13:26:56.
