data_PCOD8035564
_publ_section_title
;
Structure prediction by ZEFSAII (Michael W. Deem and Ramdas Pophale) SiO2 
 PCOD8035564
Probable space group: P -1
;
_chemical_formula_sum "Si O2"
_cell_formula_units_Z 16
_cell_length_a 15.031271
_cell_length_b 10.846414
_cell_length_c 9.033541
_cell_angle_alpha 114.318512
_cell_angle_beta 116.292726
_cell_angle_gamma 117.145979
_cell_volume 750.361400
_symmetry_space_group_name_H-M "P -1"
_symmetry_group_IT_number 2
_symmetry_cell_setting 'triclinic'
loop_
_space_group_symop_operation_xyz
x,y,z
-x,-y,-z
loop_
_atom_site_type_symbol
_atom_site_label
_atom_site_fract_x
_atom_site_fract_y
_atom_site_fract_z
Si Si1 0.343377 0.815726 0.198241
Si Si2 0.405177 0.784994 0.906797
Si Si3 0.120602 0.370951 0.325568
Si Si4 0.600212 0.746406 0.933120
Si Si5 0.123713 0.025520 0.536035
Si Si6 0.935844 0.584156 0.020746
Si Si7 0.285425 0.277167 0.489523
Si Si8 0.770382 0.018861 0.907857
O O1 0.500000 0.000000 0.500000
O O2 0.259394 0.866374 0.123404
O O3 0.388864 0.791164 0.069801
O O4 0.224329 0.593509 0.090237
O O5 0.233767 0.593848 0.608023
O O6 0.503160 0.752886 0.955690
O O7 0.500000 0.000000 0.000000
O O8 0.193092 0.298168 0.346907
O O9 0.107744 0.397543 0.158618
O O10 0.949111 0.199634 0.194921
O O11 0.765232 0.892266 0.204223
O O12 0.477094 0.489633 0.713022
O O13 0.638367 0.838469 0.841559
O O14 0.231837 0.219192 0.591862
O O15 0.000000 0.000000 0.500000
O O16 0.051355 0.809579 0.307733
O O17 0.000000 0.500000 0.000000
O O18 0.231900 0.080268 0.283340
#
# Coordination Sequence:
#
# PCOD8035564 Si02
#       8
#     2   2   2   2   2   2   2   2
#     4  12  28  44  71 105 145 184 238 290 357 426
#     4  11  25  46  68 102 139 188 231 289 354 422
#     4  11  25  45  74  98 142 181 238 290 354 428
#     4  11  27  43  73  99 144 180 237 291 354 424
#     4  12  28  47  73 108 143 187 240 297 359 423
#     4  12  27  47  72 107 142 191 235 297 357 418
#     4  11  25  48  71 102 139 187 235 291 362 423
#     4  12  24  46  71 105 135 191 233 294 355 425
#
# _framework density 21.323058
#
# number of rings (size 3 to 8) (size 9 to 14) (size 15 to 20)
#    0.000    0.500    3.750    2.625   14.000    1.500 
#    0.000    0.000    0.000    0.000    0.000    0.000 
#    0.000    0.000    0.000    0.000    0.000    0.000 
#
# Total GULP energy -198428.934101 kJ/mol
# GULP energy per Si atom -12401.808381 kJ/mol
# Density = 2.127453 g / cm^3
# Si number density = 21.323058 Si / 1000 Ang^3
#
#
#
# Elastic Constant Matrix: (Units=GPa)
#
#
# Indices 1 2 3 4 5 6 
#
# 1 96.1125 19.0320 42.4662 1.3559 -3.6760 13.2579
# 2 19.0320 108.5312 20.0140 6.5468 1.2610 29.6381
# 3 42.4662 20.0140 128.0503 9.2778 12.5699 9.8460
# 4 1.3559 6.5468 9.2778 41.9881 3.9299 4.8232
# 5 -3.6760 1.2610 12.5699 3.9299 34.3944 1.8289
# 6 13.2579 29.6381 9.8460 4.8232 1.8289 37.2922
#
#
#
# Elastic Compliance Matrix: (Units=1/GPa)
#
#
# Indices 1 2 3 4 5 6 
#
# 1 0.012991 -0.000697 -0.004310 0.000718 0.003076 -0.003171
# 2 -0.000697 0.011995 -0.000945 -0.000644 0.000382 -0.008971
# 3 -0.004310 -0.000945 0.009872 -0.001541 -0.003861 0.000065
# 4 0.000718 -0.000644 -0.001541 0.024703 -0.002030 -0.002432
# 5 0.003076 0.000382 -0.003861 -0.002030 0.031120 -0.001641
# 6 -0.003171 -0.008971 0.000065 -0.002432 -0.001641 0.035450
#
#
# Mechanical properties :
#
#
# Convention : Reuss Voigt Hill
#
# Bulk Modulus (GPa) = 43.56135 55.07981 49.32058
# Shear Modulus (GPa) = 34.32059 39.48038 36.90049
#
# Velocity S-wave (km/s) = 4.01628 4.30761 4.16449
# Velocity P-wave (km/s) = 6.47926 7.11533 6.80473
#
# Compressibility (1/GPa) = 0.02295613
#
# Stress axis : x y z
#
# Youngs Moduli (GPa) = 76.97341 83.37103 101.29643
#
# Poissons Ratio (x) = 0.05807 0.43656
# Poissons Ratio (y) = 0.05362 0.09570
# Poissons Ratio (z) = 0.33173 0.07876
#
# Static dielectric constant tensor:
#      x y z
#    x 3.955410 0.081230 0.074930 
#    y 0.081230 3.964600 0.047280 
#    z 0.074930 0.047280 3.889310 
# 
# 
# High freq. dielectric constant tensor:
#      x y z
#    x 1.844420 0.007840 0.002320 
#    y 0.007840 1.856820 0.007990 
#    z 0.002320 0.007990 1.848020 
# 
# From -- ./inp_files/177944.got.cif
#   From: 2010.06.25/outbox.cif.g09.slc.cpg/sg2_89_cif.got.tgz:177944.got - 2010.06.27 13:26:56.
