data_PCOD8035500
_publ_section_title
;
Structure prediction by ZEFSAII (Michael W. Deem and Ramdas Pophale) SiO2 
 PCOD8035500
Probable space group: P -1
;
_chemical_formula_sum "Si O2"
_cell_formula_units_Z 14
_cell_length_a 11.559415
_cell_length_b 6.587523
_cell_length_c 11.981402
_cell_angle_alpha 67.118519
_cell_angle_beta 130.719822
_cell_angle_gamma 99.772311
_cell_volume 632.454658
_symmetry_space_group_name_H-M "P -1"
_symmetry_group_IT_number 2
_symmetry_cell_setting 'triclinic'
loop_
_space_group_symop_operation_xyz
x,y,z
-x,-y,-z
loop_
_atom_site_type_symbol
_atom_site_label
_atom_site_fract_x
_atom_site_fract_y
_atom_site_fract_z
Si Si1 0.904888 0.078550 0.193982
Si Si2 0.113051 0.616460 0.466536
Si Si3 0.363681 0.146960 0.329073
Si Si4 0.454712 0.616406 0.774983
Si Si5 0.866005 0.581996 0.721365
Si Si6 0.407862 0.825995 0.923136
Si Si7 0.163525 0.883889 0.100130
O O1 0.776015 0.097824 0.204683
O O2 0.976296 0.311437 0.185083
O O3 0.807552 0.061308 0.022591
O O4 0.035045 0.868208 0.339640
O O5 0.279537 0.604004 0.630247
O O6 0.144794 0.479992 0.401513
O O7 0.000000 0.500000 0.500000
O O8 0.432512 0.341546 0.263959
O O9 0.265359 0.233219 0.356112
O O10 0.500000 0.000000 0.500000
O O11 0.283130 0.987121 0.231169
O O12 0.448099 0.811360 0.820756
O O13 0.538909 0.398723 0.930803
O O14 0.846768 0.374519 0.832071
O O15 0.500000 0.000000 0.000000
O O16 0.000000 0.000000 0.000000
#
# Coordination Sequence:
#
# PCOD8035500 Si02
#       7
#     2   2   2   2   2   2   2
#     4  12  25  43  72 104 134 180 232 285 342 412
#     4  12  27  46  69 101 141 180 233 284 345 413
#     4  12  27  45  69 103 143 180 228 284 349 416
#     4  11  26  46  67 101 139 179 227 287 342 410
#     4  12  25  44  71 100 137 181 227 284 347 407
#     4  11  25  45  71  97 133 181 231 280 346 405
#     4  12  24  43  70 102 137 175 231 283 339 411
#
# _framework density 22.135974000000001
#
# number of rings (size 3 to 8) (size 9 to 14) (size 15 to 20)
#    0.000    0.286    2.857    5.571    2.000   11.429 
#    0.000    0.000    0.000    0.000    0.000    0.000 
#    0.000    0.000    0.000    0.000    0.000    0.000 
#
# Total GULP energy -173550.080214 kJ/mol
# GULP energy per Si atom -12396.434301 kJ/mol
# Density = 2.208559 g / cm^3
# Si number density = 22.135974 Si / 1000 Ang^3
#
#
#
# Elastic Constant Matrix: (Units=GPa)
#
#
# Indices 1 2 3 4 5 6 
#
# 1 124.9386 32.9279 18.0783 13.2325 1.8058 -2.7998
# 2 32.9279 100.1742 23.6141 16.1710 5.9022 -1.7003
# 3 18.0783 23.6141 94.3870 16.8660 7.5002 -5.3016
# 4 13.2325 16.1710 16.8660 35.2032 2.8421 -2.0886
# 5 1.8058 5.9022 7.5002 2.8421 47.8045 3.7748
# 6 -2.7998 -1.7003 -5.3016 -2.0886 3.7748 44.3962
#
#
#
# Elastic Compliance Matrix: (Units=1/GPa)
#
#
# Indices 1 2 3 4 5 6 
#
# 1 0.008967 -0.002472 -0.000764 -0.001867 0.000175 0.000277
# 2 -0.002472 0.011846 -0.001780 -0.003589 -0.000876 -0.000009
# 3 -0.000764 -0.001780 0.012186 -0.004539 -0.001492 0.001252
# 4 -0.001867 -0.003589 -0.004539 0.033046 -0.000804 0.000826
# 5 0.000175 -0.000876 -0.001492 -0.000804 0.021465 -0.002064
# 6 0.000277 -0.000009 0.001252 0.000826 -0.002064 0.022905
#
#
# Mechanical properties :
#
#
# Convention : Reuss Voigt Hill
#
# Bulk Modulus (GPa) = 43.53812 52.08226 47.81019
# Shear Modulus (GPa) = 39.03141 41.80608 40.41875
#
# Velocity S-wave (km/s) = 4.20367 4.35052 4.27773
# Velocity P-wave (km/s) = 6.57817 6.98681 6.78556
#
# Compressibility (1/GPa) = 0.02296838
#
# Stress axis : x y z
#
# Youngs Moduli (GPa) = 111.51602 84.42017 82.05983
#
# Poissons Ratio (x) = 0.20867 0.06269
# Poissons Ratio (y) = 0.27564 0.14604
# Poissons Ratio (z) = 0.08519 0.15024
#
# Static dielectric constant tensor:
#      x y z
#    x 1.892430 0.973670 0.846520 
#    y 0.973670 3.738410 -0.385410 
#    z 0.846520 -0.385410 3.580920 
# 
# 
# High freq. dielectric constant tensor:
#      x y z
#    x 1.892800 -0.004820 -0.000880 
#    y -0.004820 1.884110 0.003400 
#    z -0.000880 0.003400 1.878570 
# 
# From -- ./inp_files/69288.got.cif
#   From: 2010.06.25/outbox.cif.g09.slc.cpg/sg2_35_cif.got.tgz:69288.got - 2010.06.27 13:26:56.
