data_PCOD8035071
_publ_section_title
;
Structure prediction by ZEFSAII (Michael W. Deem and Ramdas Pophale) SiO2 
 PCOD8035071
Probable space group: P -1
;
_chemical_formula_sum "Si O2"
_cell_formula_units_Z 14
_cell_length_a 11.373127
_cell_length_b 17.371195
_cell_length_c 5.444279
_cell_angle_alpha 80.232178
_cell_angle_beta 85.002890
_cell_angle_gamma 30.904637
_cell_volume 540.786310
_symmetry_space_group_name_H-M "P -1"
_symmetry_group_IT_number 2
_symmetry_cell_setting 'triclinic'
loop_
_space_group_symop_operation_xyz
x,y,z
-x,-y,-z
loop_
_atom_site_type_symbol
_atom_site_label
_atom_site_fract_x
_atom_site_fract_y
_atom_site_fract_z
Si Si1 0.053657 0.179592 0.068131
Si Si2 0.273176 0.176041 0.377851
Si Si3 0.366196 0.400893 0.958323
Si Si4 0.590732 0.113073 0.142674
Si Si5 0.010893 0.904558 0.494586
Si Si6 0.651368 0.369150 0.740508
Si Si7 0.914718 0.460732 0.563003
O O1 0.101895 0.226968 0.201153
O O2 0.925759 0.182525 0.234475
O O3 0.849302 0.316221 0.836657
O O4 0.293407 0.008637 0.016118
O O5 0.346164 0.214284 0.206560
O O6 0.136676 0.276164 0.599209
O O7 0.500000 0.000000 0.500000
O O8 0.491163 0.415207 0.945341
O O9 0.236635 0.472762 0.683848
O O10 0.548460 0.225812 0.005462
O O11 0.209083 0.481607 0.185556
O O12 0.761661 0.015185 0.395352
O O13 0.209807 0.781222 0.325733
O O14 0.000000 0.000000 0.500000
O O15 0.500000 0.500000 0.500000
O O16 0.000000 0.500000 0.500000
#
# Coordination Sequence:
#
# PCOD8035071 Si02
#       7
#     2   2   2   2   2   2   2
#     4  11  26  48  79 117 162 210 280 333 413 495
#     4  12  27  50  82 118 161 211 272 344 415 484
#     4  12  29  52  86 118 165 222 275 338 420 490
#     4  11  25  47  81 118 158 218 268 340 410 493
#     4  11  24  47  77 117 155 208 282 326 402 501
#     4  11  29  52  77 115 165 216 273 344 413 483
#     4  12  30  54  82 123 164 213 282 338 411 510
#
# _framework density 25.88823
#
# number of rings (size 3 to 8) (size 9 to 14) (size 15 to 20)
#    0.000    0.571    2.857    2.571   10.000    5.143 
#    0.000    0.714    0.000    0.000    0.000    0.000 
#    0.000    0.000    0.000    0.000    0.000    0.000 
#
# Total GULP energy -173591.481692 kJ/mol
# GULP energy per Si atom -12399.391549 kJ/mol
# Density = 2.582931 g / cm^3
# Si number density = 25.888230 Si / 1000 Ang^3
#
#
#
# Elastic Constant Matrix: (Units=GPa)
#
#
# Indices 1 2 3 4 5 6 
#
# 1 153.2135 48.9511 40.4997 7.2164 -4.9539 -6.3788
# 2 48.9511 142.0848 39.5782 1.9990 9.9350 -0.1272
# 3 40.4997 39.5782 113.2509 7.7815 -2.0310 -13.4275
# 4 7.2164 1.9990 7.7815 51.8938 -2.0438 -1.1987
# 5 -4.9539 9.9350 -2.0310 -2.0438 46.2304 4.2492
# 6 -6.3788 -0.1272 -13.4275 -1.1987 4.2492 36.2074
#
#
#
# Elastic Compliance Matrix: (Units=1/GPa)
#
#
# Indices 1 2 3 4 5 6 
#
# 1 0.007833 -0.002244 -0.001890 -0.000662 0.001162 0.000513
# 2 -0.002244 0.008616 -0.002380 0.000232 -0.002095 -0.000994
# 3 -0.001890 -0.002380 0.010852 -0.001174 0.000403 0.003597
# 4 -0.000662 0.000232 -0.001174 0.019557 0.000691 0.000015
# 5 0.001162 -0.002095 0.000403 0.000691 0.022462 -0.002266
# 6 0.000513 -0.000994 0.003597 0.000015 -0.002266 0.029306
#
#
# Mechanical properties :
#
#
# Convention : Reuss Voigt Hill
#
# Bulk Modulus (GPa) = 70.05805 74.06747 72.06276
# Shear Modulus (GPa) = 42.95063 45.50098 44.22580
#
# Velocity S-wave (km/s) = 4.07760 4.19691 4.13769
# Velocity P-wave (km/s) = 7.02065 7.22205 7.12206
#
# Compressibility (1/GPa) = 0.01427388
#
# Stress axis : x y z
#
# Youngs Moduli (GPa) = 127.65810 116.05735 92.14892
#
# Poissons Ratio (x) = 0.26041 0.17416
# Poissons Ratio (y) = 0.28644 0.21933
# Poissons Ratio (z) = 0.24128 0.27624
#
# Static dielectric constant tensor:
#      x y z
#    x 5.674080 0.316160 -0.151760 
#    y 0.316160 5.207180 0.055180 
#    z -0.151760 0.055180 4.719600 
# 
# 
# High freq. dielectric constant tensor:
#      x y z
#    x 2.051090 0.002500 -0.001790 
#    y 0.002500 2.056690 0.003350 
#    z -0.001790 0.003350 2.035580 
# 
# From -- ./inp_files/81338.got.cif
#   From: 2010.06.25/outbox.cif.g09.slc.cpg/sg2_41_cif.got.tgz:81338.got - 2010.06.27 13:26:56.
