data_PCOD8035144
_publ_section_title
;
Structure prediction by ZEFSAII (Michael W. Deem and Ramdas Pophale) SiO2 
 PCOD8035144
Probable space group: P -1
;
_chemical_formula_sum "Si O2"
_cell_formula_units_Z 16
_cell_length_a 9.324510
_cell_length_b 9.361689
_cell_length_c 14.075080
_cell_angle_alpha 81.947304
_cell_angle_beta 77.975094
_cell_angle_gamma 136.790104
_cell_volume 740.471208
_symmetry_space_group_name_H-M "P -1"
_symmetry_group_IT_number 2
_symmetry_cell_setting 'triclinic'
loop_
_space_group_symop_operation_xyz
x,y,z
-x,-y,-z
loop_
_atom_site_type_symbol
_atom_site_label
_atom_site_fract_x
_atom_site_fract_y
_atom_site_fract_z
Si Si1 0.505132 0.861585 0.697104
Si Si2 0.778555 0.199868 0.951957
Si Si3 0.156880 0.933447 0.221371
Si Si4 0.846374 0.455162 0.375224
Si Si5 0.147783 0.022444 0.710096
Si Si6 0.112254 0.724599 0.852709
Si Si7 0.614491 0.462954 0.552491
Si Si8 0.902292 0.177476 0.453820
O O1 0.296452 0.616277 0.694927
O O2 0.371138 0.898431 0.754946
O O3 0.594765 0.841833 0.779818
O O4 0.705695 0.046795 0.574002
O O5 0.834230 0.105399 0.886066
O O6 0.919782 0.453286 0.877288
O O7 0.864135 0.230931 0.042759
O O8 0.500000 0.000000 0.000000
O O9 0.073584 0.732562 0.315409
O O10 0.994488 0.943321 0.256471
O O11 0.679785 0.369160 0.493594
O O12 0.928585 0.353023 0.382171
O O13 0.419782 0.267333 0.676237
O O14 0.024486 0.806816 0.812007
O O15 0.162093 0.990794 0.599902
O O16 0.500000 0.500000 0.500000
O O17 0.853060 0.695840 0.549883
#
# Coordination Sequence:
#
# PCOD8035144 Si02
#       8
#     2   2   2   2   2   2   2   2
#     4  12  22  40  69  95 132 176 221 271 311 394
#     4  11  24  48  74  96 119 167 223 284 329 400
#     4  12  26  41  68  96 133 172 219 268 341 378
#     4  12  23  41  62  96 134 179 224 262 313 390
#     4  12  26  43  62 102 140 175 212 273 322 390
#     4  11  25  44  73  96 127 166 225 275 336 379
#     4  12  25  40  63  98 142 184 219 261 316 383
#     4  12  25  38  65  96 139 180 225 256 314 389
#
# _framework density 21.607861
#
# number of rings (size 3 to 8) (size 9 to 14) (size 15 to 20)
#    0.000    0.250    7.500    1.500    3.500    2.500 
#    0.000    0.625    0.000    0.000    0.000    0.000 
#    0.000    0.000    0.000    0.000    0.000    0.000 
#
# Total GULP energy -198266.282311 kJ/mol
# GULP energy per Si atom -12391.642644 kJ/mol
# Density = 2.155868 g / cm^3
# Si number density = 21.607861 Si / 1000 Ang^3
#
#
#
# Elastic Constant Matrix: (Units=GPa)
#
#
# Indices 1 2 3 4 5 6 
#
# 1 78.0235 37.8409 39.5986 -6.2523 -22.2815 8.7016
# 2 37.8409 75.3240 48.1723 4.2961 -4.3712 9.4125
# 3 39.5986 48.1723 107.0274 9.0429 -9.0536 -3.9051
# 4 -6.2523 4.2961 9.0429 38.4478 -1.7095 -1.0461
# 5 -22.2815 -4.3712 -9.0536 -1.7095 30.1170 7.7949
# 6 8.7016 9.4125 -3.9051 -1.0461 7.7949 37.6886
#
#
#
# Elastic Compliance Matrix: (Units=1/GPa)
#
#
# Indices 1 2 3 4 5 6 
#
# 1 0.026591 -0.008072 -0.005473 0.007147 0.019466 -0.008518
# 2 -0.008072 0.022415 -0.007386 -0.002364 -0.004112 -0.003715
# 3 -0.005473 -0.007386 0.014997 -0.003550 -0.002109 0.005000
# 4 0.007147 -0.002364 -0.003550 0.028486 0.005979 -0.001874
# 5 0.019466 -0.004112 -0.002109 0.005979 0.050319 -0.013927
# 6 -0.008518 -0.003715 0.005000 -0.001874 -0.013927 0.032774
#
#
# Mechanical properties :
#
#
# Convention : Reuss Voigt Hill
#
# Bulk Modulus (GPa) = 45.16558 56.84429 51.00494
# Shear Modulus (GPa) = 22.23954 30.23488 26.23721
#
# Velocity S-wave (km/s) = 3.21165 3.74472 3.48838
# Velocity P-wave (km/s) = 5.89073 6.71279 6.31515
#
# Compressibility (1/GPa) = 0.02214075
#
# Stress axis : x y z
#
# Youngs Moduli (GPa) = 37.60655 44.61257 66.68083
#
# Poissons Ratio (x) = 0.36011 0.36496
# Poissons Ratio (y) = 0.30356 0.49251
# Poissons Ratio (z) = 0.20583 0.32951
#
# Static dielectric constant tensor:
#      x y z
#    x 3.793640 0.270550 -0.065210 
#    y 0.270550 4.120680 0.162620 
#    z -0.065210 0.162620 4.101370 
# 
# 
# High freq. dielectric constant tensor:
#      x y z
#    x 1.840910 0.016500 -0.011860 
#    y 0.016500 1.856460 0.013340 
#    z -0.011860 0.013340 1.845850 
# 
# From -- ./inp_files/492971.got.cif
#   From: 2010.06.25/outbox.cif.g09.slc.cpg/sg2_247_cif.got.tgz:492971.got - 2010.06.27 13:26:56.
