data_PCOD8035566
_publ_section_title
;
Structure prediction by ZEFSAII (Michael W. Deem and Ramdas Pophale) SiO2 
 PCOD8035566
Probable space group: P -1
;
_chemical_formula_sum "Si O2"
_cell_formula_units_Z 16
_cell_length_a 15.511365
_cell_length_b 15.274733
_cell_length_c 11.334198
_cell_angle_alpha 119.737327
_cell_angle_beta 138.493141
_cell_angle_gamma 26.974738
_cell_volume 663.207971
_symmetry_space_group_name_H-M "P -1"
_symmetry_group_IT_number 2
_symmetry_cell_setting 'triclinic'
loop_
_space_group_symop_operation_xyz
x,y,z
-x,-y,-z
loop_
_atom_site_type_symbol
_atom_site_label
_atom_site_fract_x
_atom_site_fract_y
_atom_site_fract_z
Si Si1 0.488535 0.533240 0.148716
Si Si2 0.214959 0.939762 0.712971
Si Si3 0.668427 0.840945 0.301021
Si Si4 0.189337 0.574445 0.998973
Si Si5 0.996415 0.280106 0.833982
Si Si6 0.182134 0.337131 0.414108
Si Si7 0.470913 0.302724 0.548957
Si Si8 0.157699 0.057381 0.498330
O O1 0.215567 0.663895 0.019928
O O2 0.446007 0.678903 0.247037
O O3 0.826191 0.265019 0.352120
O O4 0.500000 0.500000 0.000000
O O5 0.513719 0.692340 0.920798
O O6 0.350204 0.905030 0.713038
O O7 0.000000 0.000000 0.500000
O O8 0.025983 0.142278 0.742212
O O9 0.651727 0.800155 0.384278
O O10 0.823634 0.842113 0.464502
O O11 0.883235 0.616572 0.296743
O O12 0.335557 0.087667 0.068462
O O13 0.196615 0.581650 0.151864
O O14 0.892236 0.720607 0.754564
O O15 0.821232 0.459421 0.668841
O O16 0.415166 0.231035 0.497506
O O17 0.756567 0.084601 0.609066
#
# Coordination Sequence:
#
# PCOD8035566 Si02
#       8
#     2   2   2   2   2   2   2   2
#     4  12  28  48  71 104 150 191 236 294 358 422
#     4  12  24  43  68 103 144 187 232 295 359 417
#     4  11  25  45  75 101 146 189 238 296 360 421
#     4  12  26  43  75 107 142 186 245 288 355 429
#     4  12  26  44  75 109 141 185 238 302 357 417
#     4  11  25  48  72 105 142 192 240 292 358 430
#     4  12  27  46  77 108 143 188 243 293 355 431
#     4  12  25  46  73 104 145 186 237 296 356 421
#
# _framework density 24.125164000000002
#
# number of rings (size 3 to 8) (size 9 to 14) (size 15 to 20)
#    0.000    0.250    6.250    1.500    5.250    6.500 
#    0.000    0.000    0.000    0.000    0.000    0.000 
#    0.000    0.000    0.000    0.000    0.000    0.000 
#
# Total GULP energy -198333.940206 kJ/mol
# GULP energy per Si atom -12395.871263 kJ/mol
# Density = 2.407025 g / cm^3
# Si number density = 24.125164 Si / 1000 Ang^3
#
#
#
# Elastic Constant Matrix: (Units=GPa)
#
#
# Indices 1 2 3 4 5 6 
#
# 1 111.2993 14.7778 29.1352 19.9333 7.1102 4.2753
# 2 14.7778 100.4968 24.8812 24.4727 9.9802 -7.6338
# 3 29.1352 24.8812 85.0901 37.5433 14.3082 5.5123
# 4 19.9333 24.4727 37.5433 32.1835 -3.1230 -4.0049
# 5 7.1102 9.9802 14.3082 -3.1230 35.3581 4.6457
# 6 4.2753 -7.6338 5.5123 -4.0049 4.6457 33.2310
#
#
#
# Elastic Compliance Matrix: (Units=1/GPa)
#
#
# Indices 1 2 3 4 5 6 
#
# 1 0.010467 0.000360 0.000155 -0.007423 -0.002687 -0.001809
# 2 0.000360 0.013527 0.003812 -0.015442 -0.007000 0.001546
# 3 0.000155 0.003812 0.034283 -0.045706 -0.017989 -0.007825
# 4 -0.007423 -0.015442 -0.045706 0.105474 0.031924 0.013238
# 5 -0.002687 -0.007000 -0.017989 0.031924 0.040917 -0.000151
# 6 -0.001809 0.001546 -0.007825 0.013238 -0.000151 0.033595
#
#
# Mechanical properties :
#
#
# Convention : Reuss Voigt Hill
#
# Bulk Modulus (GPa) = 14.94113 48.27497 31.60805
# Shear Modulus (GPa) = 19.84756 35.36066 27.60411
#
# Velocity S-wave (km/s) = 2.87137 3.83262 3.38628
# Velocity P-wave (km/s) = 4.14725 6.29595 5.33098
#
# Compressibility (1/GPa) = 0.06692932
#
# Stress axis : x y z
#
# Youngs Moduli (GPa) = 95.53828 73.92605 29.16930
#
# Poissons Ratio (x) = -0.02658 -0.00452
# Poissons Ratio (y) = -0.03435 -0.11118
# Poissons Ratio (z) = -0.01482 -0.28178
#
# Static dielectric constant tensor:
#      x y z
#    x 4.393250 -0.065110 -0.023220 
#    y -0.065110 4.558090 -0.043620 
#    z -0.023220 -0.043620 4.386870 
# 
# 
# High freq. dielectric constant tensor:
#      x y z
#    x 1.961620 -0.002050 -0.003910 
#    y -0.002050 1.971510 0.003290 
#    z -0.003910 0.003290 1.949480 
# 
# From -- ./inp_files/455836.got.cif
#   From: 2010.06.25/outbox.cif.g09.slc.cpg/sg2_228_cif.got.tgz:455836.got - 2010.06.27 13:26:56.
