data_PCOD8035392
_publ_section_title
;
Structure prediction by ZEFSAII (Michael W. Deem and Ramdas Pophale) SiO2 
 PCOD8035392
Probable space group: P -1
;
_chemical_formula_sum "Si O2"
_cell_formula_units_Z 12
_cell_length_a 17.611192
_cell_length_b 9.107214
_cell_length_c 5.884811
_cell_angle_alpha 80.503167
_cell_angle_beta 125.292315
_cell_angle_gamma 133.562616
_cell_volume 513.033683
_symmetry_space_group_name_H-M "P -1"
_symmetry_group_IT_number 2
_symmetry_cell_setting 'triclinic'
loop_
_space_group_symop_operation_xyz
x,y,z
-x,-y,-z
loop_
_atom_site_type_symbol
_atom_site_label
_atom_site_fract_x
_atom_site_fract_y
_atom_site_fract_z
Si Si1 0.399535 0.195690 0.225953
Si Si2 0.961741 0.885690 0.211927
Si Si3 0.659557 0.539701 0.907047
Si Si4 0.037826 0.653336 0.328653
Si Si5 0.779584 0.249669 0.732881
Si Si6 0.426498 0.780999 0.802191
O O1 0.520049 0.337026 0.584488
O O2 0.346948 0.298980 0.053200
O O3 0.458541 0.193530 0.101404
O O4 0.269370 0.942787 0.141889
O O5 0.043046 0.827019 0.382206
O O6 0.796163 0.678760 0.958203
O O7 0.000000 0.000000 0.500000
O O8 0.000000 0.000000 0.000000
O O9 0.672801 0.436996 0.159219
O O10 0.000000 0.500000 0.500000
O O11 0.186358 0.783882 0.445504
O O12 0.917346 0.497013 0.976890
O O13 0.665585 0.245103 0.538519
O O14 0.500000 0.000000 0.000000
#
# Coordination Sequence:
#
# PCOD8035392 Si02
#       6
#     2   2   2   2   2   2
#     4  11  25  45  70 100 143 183 238 298 360 438
#     4  12  30  50  76 108 150 196 246 304 369 440
#     4  11  26  46  71 102 141 189 238 295 366 429
#     4  11  27  46  75 101 143 193 247 306 364 436
#     4  11  25  44  72 104 142 183 248 296 367 432
#     4  12  25  42  71 106 140 186 229 298 367 433
#
# _framework density 23.390276
#
# number of rings (size 3 to 8) (size 9 to 14) (size 15 to 20)
#    0.000    0.667    1.667    4.000   16.333    0.000 
#    0.000    0.000    0.000    0.000    0.000    0.000 
#    0.000    0.000    0.000    0.000    0.000    0.000 
#
# Total GULP energy -148734.414220 kJ/mol
# GULP energy per Si atom -12394.534518 kJ/mol
# Density = 2.333704 g / cm^3
# Si number density = 23.390276 Si / 1000 Ang^3
#
#
#
# Elastic Constant Matrix: (Units=GPa)
#
#
# Indices 1 2 3 4 5 6 
#
# 1 146.7060 56.1505 3.1324 -14.8969 -10.9422 0.9638
# 2 56.1505 156.2313 11.7704 -26.8496 -8.1859 0.9687
# 3 3.1324 11.7704 49.8487 -8.7479 -8.2311 -5.4004
# 4 -14.8969 -26.8496 -8.7479 40.9061 0.5876 6.0115
# 5 -10.9422 -8.1859 -8.2311 0.5876 35.6905 -2.5971
# 6 0.9638 0.9687 -5.4004 6.0115 -2.5971 52.2962
#
#
#
# Elastic Compliance Matrix: (Units=1/GPa)
#
#
# Indices 1 2 3 4 5 6 
#
# 1 0.008093 -0.002621 0.000670 0.001354 0.002006 -0.000088
# 2 -0.002621 0.008198 -0.000966 0.004307 0.000735 -0.000662
# 3 0.000670 -0.000966 0.022013 0.003938 0.005147 0.002082
# 4 0.001354 0.004307 0.003938 0.029019 0.001619 -0.002954
# 5 0.002006 0.000735 0.005147 0.001619 0.030093 0.001789
# 6 -0.000088 -0.000662 0.002082 -0.002954 0.001789 0.019779
#
#
# Mechanical properties :
#
#
# Convention : Reuss Voigt Hill
#
# Bulk Modulus (GPa) = 30.79682 54.98807 42.89245
# Shear Modulus (GPa) = 37.35464 44.56074 40.95769
#
# Velocity S-wave (km/s) = 4.00060 4.36948 4.18910
# Velocity P-wave (km/s) = 5.87664 7.00117 6.46341
#
# Compressibility (1/GPa) = 0.03247088
#
# Stress axis : x y z
#
# Youngs Moduli (GPa) = 123.56676 121.97808 45.42744
#
# Poissons Ratio (x) = 0.31966 -0.03042
# Poissons Ratio (y) = 0.32383 0.04387
# Poissons Ratio (z) = -0.08275 0.11778
#
# Static dielectric constant tensor:
#      x y z
#    x 4.483200 -0.463940 -0.823910 
#    y -0.463940 4.070970 -0.601060 
#    z -0.823910 -0.601060 2.374290 
# 
# 
# High freq. dielectric constant tensor:
#      x y z
#    x 1.947370 -0.002390 0.005370 
#    y -0.002390 1.938000 0.002970 
#    z 0.005370 0.002970 1.919380 
# 
# From -- ./inp_files/17236.got.cif
#   From: 2010.06.25/outbox.cif.g09.slc.cpg/sg2_9_cif.got.tgz:17236.got - 2010.06.27 13:26:56.
