data_PCOD8035859
_publ_section_title
;
Structure prediction by ZEFSAII (Michael W. Deem and Ramdas Pophale) SiO2 
 PCOD8035859
Probable space group: P -1
;
_chemical_formula_sum "Si O2"
_cell_formula_units_Z 16
_cell_length_a 14.410071
_cell_length_b 9.276403
_cell_length_c 13.830469
_cell_angle_alpha 90.696370
_cell_angle_beta 149.895396
_cell_angle_gamma 69.676991
_cell_volume 687.067544
_symmetry_space_group_name_H-M "P -1"
_symmetry_group_IT_number 2
_symmetry_cell_setting 'triclinic'
loop_
_space_group_symop_operation_xyz
x,y,z
-x,-y,-z
loop_
_atom_site_type_symbol
_atom_site_label
_atom_site_fract_x
_atom_site_fract_y
_atom_site_fract_z
Si Si1 0.214108 0.489405 0.238938
Si Si2 0.704761 0.968775 0.249969
Si Si3 0.111127 0.339109 0.875334
Si Si4 0.475237 0.696873 0.771334
Si Si5 0.060416 0.083220 0.725457
Si Si6 0.739899 0.216488 0.789304
Si Si7 0.117800 0.399176 0.503426
Si Si8 0.396842 0.686674 0.113872
O O1 0.125606 0.560087 0.269765
O O2 0.504479 0.283177 0.510463
O O3 0.214845 0.637580 0.183017
O O4 0.000000 0.500000 0.000000
O O5 0.935229 0.885249 0.385156
O O6 0.790401 0.814707 0.411114
O O7 0.595897 0.173119 0.196901
O O8 0.500000 0.000000 0.000000
O O9 0.073453 0.475196 0.755558
O O10 0.193496 0.141592 0.905765
O O11 0.352464 0.290105 0.143308
O O12 0.622163 0.473055 0.924702
O O13 0.222074 0.784381 0.489132
O O14 0.198670 0.861100 0.864589
O O15 0.669871 0.229109 0.837245
O O16 0.000000 0.000000 0.000000
O O17 0.331858 0.401213 0.671741
O O18 0.000000 0.500000 0.500000
#
# Coordination Sequence:
#
# PCOD8035859 Si02
#       8
#     2   2   2   2   2   2   2   2
#     4  11  25  47  75 106 146 185 243 306 371 438
#     4  12  23  44  64 101 146 195 239 291 347 429
#     4  12  24  46  73  99 147 193 230 297 366 427
#     4  12  26  44  68 102 143 187 243 294 351 424
#     4  12  25  46  68 102 145 189 245 288 356 425
#     4  11  25  48  76 108 144 187 241 310 376 434
#     4  12  22  43  73 100 146 193 235 286 355 428
#     4  12  25  45  73 106 142 189 242 294 361 430
#
# _framework density 23.287375000000001
#
# number of rings (size 3 to 8) (size 9 to 14) (size 15 to 20)
#    0.000    0.250    6.250    1.875    1.750    4.000 
#    0.000    0.000    0.000    0.000    0.000    0.000 
#    0.000    0.000    0.000    0.000    0.000    0.000 
#
# Total GULP energy -198302.937387 kJ/mol
# GULP energy per Si atom -12393.933587 kJ/mol
# Density = 2.323437 g / cm^3
# Si number density = 23.287375 Si / 1000 Ang^3
#
#
#
# Elastic Constant Matrix: (Units=GPa)
#
#
# Indices 1 2 3 4 5 6 
#
# 1 107.5687 12.1514 19.1318 -1.2033 19.4667 -0.0908
# 2 12.1514 134.0588 45.2046 -6.1132 4.2461 11.6289
# 3 19.1318 45.2046 99.5242 1.4918 23.3108 12.3519
# 4 -1.2033 -6.1132 1.4918 37.7001 1.9013 10.8390
# 5 19.4667 4.2461 23.3108 1.9013 39.6545 3.5052
# 6 -0.0908 11.6289 12.3519 10.8390 3.5052 29.1024
#
#
#
# Elastic Compliance Matrix: (Units=1/GPa)
#
#
# Indices 1 2 3 4 5 6 
#
# 1 0.010350 -0.000624 -0.000749 0.000180 -0.004679 0.001096
# 2 -0.000624 0.009242 -0.004188 0.002425 0.001932 -0.003054
# 3 -0.000749 -0.004188 0.014227 0.000117 -0.007240 -0.003539
# 4 0.000180 0.002425 0.000117 0.030489 -0.000793 -0.012278
# 5 -0.004679 0.001932 -0.007240 -0.000793 0.031712 -0.001238
# 6 0.001096 -0.003054 -0.003539 -0.012278 -0.001238 0.041809
#
#
# Mechanical properties :
#
#
# Convention : Reuss Voigt Hill
#
# Bulk Modulus (GPa) = 44.05791 54.90303 49.48047
# Shear Modulus (GPa) = 31.94536 38.93565 35.44051
#
# Velocity S-wave (km/s) = 3.70779 4.09340 3.90536
# Velocity P-wave (km/s) = 6.10660 6.78002 6.45210
#
# Compressibility (1/GPa) = 0.02269740
#
# Stress axis : x y z
#
# Youngs Moduli (GPa) = 96.61986 108.19666 70.28793
#
# Poissons Ratio (x) = 0.06755 0.05263
# Poissons Ratio (y) = 0.06033 0.29436
# Poissons Ratio (z) = 0.07234 0.45312
#
# Static dielectric constant tensor:
#      x y z
#    x 4.994200 0.342050 -0.365960 
#    y 0.342050 4.178140 -0.245550 
#    z -0.365960 -0.245550 5.283600 
# 
# 
# High freq. dielectric constant tensor:
#      x y z
#    x 1.926650 0.011730 0.025560 
#    y 0.011730 1.920010 -0.000360 
#    z 0.025560 -0.000360 1.929800 
# 
# From -- ./inp_files/529571.got.cif
#   From: 2010.06.25/outbox.cif.g09.slc.cpg/sg2_265_cif.got.tgz:529571.got - 2010.06.27 13:26:56.
