data_PCOD8035843
_publ_section_title
;
Structure prediction by ZEFSAII (Michael W. Deem and Ramdas Pophale) SiO2 
 PCOD8035843
Probable space group: P -1
;
_chemical_formula_sum "Si O2"
_cell_formula_units_Z 16
_cell_length_a 8.409174
_cell_length_b 20.415909
_cell_length_c 8.912394
_cell_angle_alpha 56.287975
_cell_angle_beta 86.752004
_cell_angle_gamma 131.938367
_cell_volume 684.352776
_symmetry_space_group_name_H-M "P -1"
_symmetry_group_IT_number 2
_symmetry_cell_setting 'triclinic'
loop_
_space_group_symop_operation_xyz
x,y,z
-x,-y,-z
loop_
_atom_site_type_symbol
_atom_site_label
_atom_site_fract_x
_atom_site_fract_y
_atom_site_fract_z
Si Si1 0.179903 0.589763 0.528869
Si Si2 0.434075 0.445809 0.741840
Si Si3 0.857380 0.838591 0.856514
Si Si4 0.120378 0.135160 0.856689
Si Si5 0.364840 0.082581 0.294549
Si Si6 0.010810 0.342618 0.373793
Si Si7 0.715070 0.065871 0.772289
Si Si8 0.982997 0.369356 0.014904
O O1 0.524744 0.712311 0.339483
O O2 0.000000 0.500000 0.500000
O O3 0.149582 0.667252 0.485287
O O4 0.033010 0.476093 0.809589
O O5 0.500000 0.500000 0.500000
O O6 0.709440 0.581241 0.659187
O O7 0.381694 0.331038 0.919370
O O8 0.150524 0.374796 0.900826
O O9 0.693805 0.854483 0.843838
O O10 0.020803 0.898752 0.932163
O O11 0.087427 0.929628 0.591988
O O12 0.010995 0.148269 0.717370
O O13 0.000000 0.000000 0.000000
O O14 0.639398 0.202147 0.240135
O O15 0.438067 0.056504 0.183149
O O16 0.801760 0.183311 0.538527
O O17 0.093347 0.420271 0.115822
O O18 0.500000 0.000000 0.000000
#
# Coordination Sequence:
#
# PCOD8035843 Si02
#       8
#     2   2   2   2   2   2   2   2
#     4  12  27  48  79 110 149 199 252 311 376 449
#     4  12  26  47  74 107 143 197 249 311 379 444
#     4  11  25  47  74 104 148 186 247 305 375 448
#     4  12  25  46  75 108 145 192 249 305 368 442
#     4  11  27  47  72 109 145 201 239 309 380 444
#     4  12  27  46  71 108 148 195 247 310 376 448
#     4  12  28  46  72 109 151 191 254 308 373 448
#     4  12  27  46  73 105 153 193 251 303 378 453
#
# _framework density 23.379754999999999
#
# number of rings (size 3 to 8) (size 9 to 14) (size 15 to 20)
#    0.000    0.250    1.250    7.500    8.750    2.000 
#    0.000    0.000    0.000    0.000    0.000    0.000 
#    0.000    0.000    0.000    0.000    0.000    0.000 
#
# Total GULP energy -198452.002769 kJ/mol
# GULP energy per Si atom -12403.250173 kJ/mol
# Density = 2.332654 g / cm^3
# Si number density = 23.379755 Si / 1000 Ang^3
#
#
#
# Elastic Constant Matrix: (Units=GPa)
#
#
# Indices 1 2 3 4 5 6 
#
# 1 92.8256 33.1099 36.0305 -6.1862 9.5546 -9.1750
# 2 33.1099 117.2020 39.5103 6.7630 3.1864 3.6260
# 3 36.0305 39.5103 113.5437 1.6587 15.0262 -1.3349
# 4 -6.1862 6.7630 1.6587 43.6717 0.0184 2.2963
# 5 9.5546 3.1864 15.0262 0.0184 43.1948 1.6101
# 6 -9.1750 3.6260 -1.3349 2.2963 1.6101 53.7080
#
#
#
# Elastic Compliance Matrix: (Units=1/GPa)
#
#
# Indices 1 2 3 4 5 6 
#
# 1 0.013600 -0.002977 -0.003045 0.002378 -0.001820 0.002402
# 2 -0.002977 0.010436 -0.002794 -0.001868 0.000907 -0.001230
# 3 -0.003045 -0.002794 0.011150 -0.000424 -0.003001 0.000054
# 4 0.002378 -0.001868 -0.000424 0.023566 -0.000233 -0.000479
# 5 -0.001820 0.000907 -0.003001 -0.000233 0.024574 -0.001173
# 6 0.002402 -0.001230 0.000054 -0.000479 -0.001173 0.019169
#
#
# Mechanical properties :
#
#
# Convention : Reuss Voigt Hill
#
# Bulk Modulus (GPa) = 56.97125 60.09695 58.53410
# Shear Modulus (GPa) = 39.68881 42.44294 41.06588
#
# Velocity S-wave (km/s) = 4.12463 4.26534 4.19557
# Velocity P-wave (km/s) = 6.86324 7.07234 6.96858
#
# Compressibility (1/GPa) = 0.01755271
#
# Stress axis : x y z
#
# Youngs Moduli (GPa) = 73.52890 95.81762 89.68837
#
# Poissons Ratio (x) = 0.28530 0.27312
# Poissons Ratio (y) = 0.21893 0.25059
# Poissons Ratio (z) = 0.22391 0.26772
#
# Static dielectric constant tensor:
#      x y z
#    x 4.468920 0.032350 0.138080 
#    y 0.032350 4.244580 0.003410 
#    z 0.138080 0.003410 4.257380 
# 
# 
# High freq. dielectric constant tensor:
#      x y z
#    x 1.937850 -0.003720 0.010910 
#    y -0.003720 1.934080 0.003080 
#    z 0.010910 0.003080 1.932040 
# 
# From -- ./inp_files/223419.got.cif
#   From: 2010.06.25/outbox.cif.g09.slc.cpg/sg2_112_cif.got.tgz:223419.got - 2010.06.27 13:26:56.
