data_PCOD8035637
_publ_section_title
;
Structure prediction by ZEFSAII (Michael W. Deem and Ramdas Pophale) SiO2 
 PCOD8035637
Probable space group: P -1
;
_chemical_formula_sum "Si O2"
_cell_formula_units_Z 16
_cell_length_a 8.494731
_cell_length_b 8.946326
_cell_length_c 11.061908
_cell_angle_alpha 86.541335
_cell_angle_beta 95.663201
_cell_angle_gamma 55.256989
_cell_volume 680.398429
_symmetry_space_group_name_H-M "P -1"
_symmetry_group_IT_number 2
_symmetry_cell_setting 'triclinic'
loop_
_space_group_symop_operation_xyz
x,y,z
-x,-y,-z
loop_
_atom_site_type_symbol
_atom_site_label
_atom_site_fract_x
_atom_site_fract_y
_atom_site_fract_z
Si Si1 0.631860 0.883930 0.898206
Si Si2 0.235775 0.418205 0.635687
Si Si3 0.908162 0.372847 0.625320
Si Si4 0.721379 0.351072 0.198313
Si Si5 0.958931 0.006760 0.634628
Si Si6 0.573109 0.041383 0.627102
Si Si7 0.701751 0.531977 0.825047
Si Si8 0.966792 0.192511 0.003227
O O1 0.675322 0.682872 0.909481
O O2 0.835105 0.856228 0.923814
O O3 0.537266 0.970573 0.754626
O O4 0.500000 0.000000 0.000000
O O5 0.148252 0.575789 0.520709
O O6 0.228081 0.513961 0.753627
O O7 0.452750 0.260102 0.619148
O O8 0.122273 0.325749 0.654989
O O9 0.901095 0.201988 0.670590
O O10 0.755895 0.549765 0.690100
O O11 0.493835 0.454725 0.192714
O O12 0.778131 0.323894 0.064853
O O13 0.843488 0.150014 0.277336
O O14 0.797221 0.966920 0.641747
O O15 0.000000 0.000000 0.500000
O O16 0.500000 0.000000 0.500000
O O17 0.894929 0.324020 0.875276
O O18 0.000000 0.000000 0.000000
#
# Coordination Sequence:
#
# PCOD8035637 Si02
#       8
#     2   2   2   2   2   2   2   2
#     4  12  29  50  76 111 152 197 250 306 373 440
#     4  11  26  43  73 104 150 186 242 301 371 434
#     4  11  25  46  70 109 144 194 240 303 366 437
#     4  12  26  46  72 107 146 189 241 305 366 443
#     4  12  25  45  72 107 151 192 243 303 374 441
#     4  12  28  47  78 109 151 195 248 306 369 441
#     4  12  28  45  77 104 144 193 250 299 367 439
#     4  12  27  51  75 103 147 194 248 304 371 441
#
# _framework density 23.515635
#
# number of rings (size 3 to 8) (size 9 to 14) (size 15 to 20)
#    0.000    0.250    2.500    5.250   12.250    1.000 
#    0.000    0.000    0.000    0.000    0.000    0.000 
#    0.000    0.000    0.000    0.000    0.000    0.000 
#
# Total GULP energy -198362.716061 kJ/mol
# GULP energy per Si atom -12397.669754 kJ/mol
# Density = 2.346211 g / cm^3
# Si number density = 23.515635 Si / 1000 Ang^3
#
#
#
# Elastic Constant Matrix: (Units=GPa)
#
#
# Indices 1 2 3 4 5 6 
#
# 1 89.3989 29.4455 41.3923 -4.2645 7.8949 -0.7446
# 2 29.4455 123.5046 38.0861 12.4274 14.0532 9.7168
# 3 41.3923 38.0861 124.6876 20.3863 -0.3813 0.7363
# 4 -4.2645 12.4274 20.3863 43.8959 -7.6951 -0.2436
# 5 7.8949 14.0532 -0.3813 -7.6951 38.9463 6.8628
# 6 -0.7446 9.7168 0.7363 -0.2436 6.8628 42.3875
#
#
#
# Elastic Compliance Matrix: (Units=1/GPa)
#
#
# Indices 1 2 3 4 5 6 
#
# 1 0.014493 -0.002298 -0.004776 0.004009 -0.001565 0.001141
# 2 -0.002298 0.010022 -0.001838 -0.002815 -0.003413 -0.001770
# 3 -0.004776 -0.001838 0.010971 -0.004904 0.000771 -0.000006
# 4 0.004009 -0.002815 -0.004904 0.027213 0.005521 0.000063
# 5 -0.001565 -0.003413 0.000771 0.005521 0.029015 -0.003924
# 6 0.001141 -0.001770 -0.000006 0.000063 -0.003924 0.024653
#
#
# Mechanical properties :
#
#
# Convention : Reuss Voigt Hill
#
# Bulk Modulus (GPa) = 56.61834 61.71542 59.16688
# Shear Modulus (GPa) = 35.69388 40.29043 37.99216
#
# Velocity S-wave (km/s) = 3.90022 4.14375 4.02383
# Velocity P-wave (km/s) = 6.66419 7.01396 6.84131
#
# Compressibility (1/GPa) = 0.01766212
#
# Stress axis : x y z
#
# Youngs Moduli (GPa) = 68.99915 99.77676 91.14658
#
# Poissons Ratio (x) = 0.22924 0.43535
# Poissons Ratio (y) = 0.15853 0.16756
# Poissons Ratio (z) = 0.32956 0.18343
#
# Static dielectric constant tensor:
#      x y z
#    x 4.587030 0.261850 -0.159140 
#    y 0.261850 4.579240 -0.090820 
#    z -0.159140 -0.090820 4.613540 
# 
# 
# High freq. dielectric constant tensor:
#      x y z
#    x 1.930090 -0.003910 -0.001220 
#    y -0.003910 1.941520 0.009030 
#    z -0.001220 0.009030 1.951370 
# 
# From -- ./inp_files/382677.got.cif
#   From: 2010.06.25/outbox.cif.g09.slc.cpg/sg2_192_cif.got.tgz:382677.got - 2010.06.27 13:26:56.
