data_PCOD8035020
_publ_section_title
;
Structure prediction by ZEFSAII (Michael W. Deem and Ramdas Pophale) SiO2 
 PCOD8035020
Probable space group: P -1
;
_chemical_formula_sum "Si O2"
_cell_formula_units_Z 14
_cell_length_a 12.230556
_cell_length_b 8.666887
_cell_length_c 9.129489
_cell_angle_alpha 51.667715
_cell_angle_beta 59.062387
_cell_angle_gamma 64.576959
_cell_volume 642.283604
_symmetry_space_group_name_H-M "P -1"
_symmetry_group_IT_number 2
_symmetry_cell_setting 'triclinic'
loop_
_space_group_symop_operation_xyz
x,y,z
-x,-y,-z
loop_
_atom_site_type_symbol
_atom_site_label
_atom_site_fract_x
_atom_site_fract_y
_atom_site_fract_z
Si Si1 0.975896 0.063693 0.814170
Si Si2 0.256842 0.643652 0.106390
Si Si3 0.951564 0.312362 0.209803
Si Si4 0.372018 0.964928 0.299237
Si Si5 0.129121 0.254514 0.384866
Si Si6 0.524292 0.285276 0.894664
Si Si7 0.326938 0.662207 0.726088
O O1 0.835351 0.197920 0.825569
O O2 0.086063 0.190773 0.612317
O O3 0.978442 0.877052 0.816698
O O4 0.000000 0.000000 0.000000
O O5 0.198082 0.444580 0.240036
O O6 0.391646 0.594125 0.129774
O O7 0.278616 0.735885 0.877437
O O8 0.796402 0.345002 0.289672
O O9 0.998053 0.293781 0.356561
O O10 0.000000 0.500000 0.000000
O O11 0.386626 0.830904 0.222999
O O12 0.406181 0.821899 0.502650
O O13 0.224693 0.074811 0.348631
O O14 0.466547 0.128441 0.130020
O O15 0.411826 0.442787 0.804956
#
# Coordination Sequence:
#
# PCOD8035020 Si02
#       7
#     2   2   2   2   2   2   2
#     4  12  24  45  66 105 140 176 236 282 346 418
#     4  12  25  45  69 102 143 178 226 287 345 408
#     4  12  23  42  71  98 140 181 226 284 345 412
#     4  11  24  47  72  99 132 185 235 281 347 402
#     4  12  24  45  71 101 139 185 223 287 354 406
#     4  11  26  47  70  99 139 180 236 287 336 409
#     4  12  24  45  69 101 138 179 232 281 340 415
#
# _framework density 21.797225000000001
#
# number of rings (size 3 to 8) (size 9 to 14) (size 15 to 20)
#    0.000    0.286    5.714    2.571    2.000    1.714 
#    2.571    0.000    0.000    0.000    0.000    0.000 
#    0.000    0.000    0.000    0.000    0.000    0.000 
#
# Total GULP energy -173634.840204 kJ/mol
# GULP energy per Si atom -12402.488586 kJ/mol
# Density = 2.174761 g / cm^3
# Si number density = 21.797225 Si / 1000 Ang^3
#
#
#
# Elastic Constant Matrix: (Units=GPa)
#
#
# Indices 1 2 3 4 5 6 
#
# 1 139.2825 59.6489 55.0795 -0.4461 6.3862 4.0067
# 2 59.6489 116.8614 59.6512 -7.8977 -4.9888 -14.5616
# 3 55.0795 59.6512 191.7357 -4.5495 0.3269 0.0444
# 4 -0.4461 -7.8977 -4.5495 39.4647 -2.2482 -5.8595
# 5 6.3862 -4.9888 0.3269 -2.2482 17.2436 3.7204
# 6 4.0067 -14.5616 0.0444 -5.8595 3.7204 31.9411
#
#
#
# Elastic Compliance Matrix: (Units=1/GPa)
#
#
# Indices 1 2 3 4 5 6 
#
# 1 0.010320 -0.005362 -0.001333 -0.001909 -0.004837 -0.003524
# 2 -0.005362 0.014070 -0.002757 0.003794 0.005050 0.007199
# 3 -0.001333 -0.002757 0.006457 0.000007 -0.000194 -0.001075
# 4 -0.001909 0.003794 0.000007 0.027270 0.003955 0.006511
# 5 -0.004837 0.005050 -0.000194 0.003955 0.062552 -0.003651
# 6 -0.003524 0.007199 -0.001075 0.006511 -0.003651 0.036653
#
#
# Mechanical properties :
#
#
# Convention : Reuss Voigt Hill
#
# Bulk Modulus (GPa) = 83.72823 88.51543 86.12183
# Shear Modulus (GPa) = 27.74593 35.96323 31.85458
#
# Velocity S-wave (km/s) = 3.57166 4.06630 3.82698
# Velocity P-wave (km/s) = 7.45015 7.92106 7.68921
#
# Compressibility (1/GPa) = 0.01194340
#
# Stress axis : x y z
#
# Youngs Moduli (GPa) = 96.89969 71.07070 154.87145
#
# Poissons Ratio (x) = 0.38107 0.20639
# Poissons Ratio (y) = 0.51956 0.42705
# Poissons Ratio (z) = 0.12914 0.19597
#
# Static dielectric constant tensor:
#      x y z
#    x 4.131500 -0.015120 -0.012940 
#    y -0.015120 4.209340 -0.000570 
#    z -0.012940 -0.000570 4.246360 
# 
# 
# High freq. dielectric constant tensor:
#      x y z
#    x 1.842480 -0.010570 -0.002980 
#    y -0.010570 1.868140 -0.001470 
#    z -0.002980 -0.001470 1.877260 
# 
# From -- ./inp_files/186233.got.cif
#   From: 2010.06.25/outbox.cif.g09.slc.cpg/sg2_94_cif.got.tgz:186233.got - 2010.06.27 13:26:56.
