data_PCOD8035754
_publ_section_title
;
Structure prediction by ZEFSAII (Michael W. Deem and Ramdas Pophale) SiO2 
 PCOD8035754
Probable space group: P -1
;
_chemical_formula_sum "Si O2"
_cell_formula_units_Z 14
_cell_length_a 14.286542
_cell_length_b 9.712392
_cell_length_c 15.275534
_cell_angle_alpha 128.517940
_cell_angle_beta 28.005440
_cell_angle_gamma 108.825274
_cell_volume 612.019851
_symmetry_space_group_name_H-M "P -1"
_symmetry_group_IT_number 2
_symmetry_cell_setting 'triclinic'
loop_
_space_group_symop_operation_xyz
x,y,z
-x,-y,-z
loop_
_atom_site_type_symbol
_atom_site_label
_atom_site_fract_x
_atom_site_fract_y
_atom_site_fract_z
Si Si1 0.862559 0.026009 0.366452
Si Si2 0.028851 0.284630 0.419526
Si Si3 0.377433 0.100470 0.828576
Si Si4 0.913866 0.405608 0.750480
Si Si5 0.516999 0.876623 0.800801
Si Si6 0.356151 0.593937 0.861664
Si Si7 0.264699 0.901503 0.698433
O O1 0.615204 0.097562 0.650888
O O2 0.803226 0.019429 0.312780
O O3 0.911947 0.204960 0.417419
O O4 0.094380 0.773360 0.099588
O O5 0.000000 0.500000 0.500000
O O6 0.896356 0.321029 0.636985
O O7 0.334105 0.092525 0.099879
O O8 0.379269 0.958557 0.850592
O O9 0.388191 0.998545 0.685675
O O10 0.129808 0.361234 0.135361
O O11 0.195128 0.215023 0.479977
O O12 0.703691 0.440563 0.003841
O O13 0.521998 0.679665 0.760024
O O14 0.520759 0.365502 0.580524
O O15 0.000000 0.000000 0.000000
#
# Coordination Sequence:
#
# PCOD8035754 Si02
#       7
#     2   2   2   2   2   2   2
#     4  11  26  47  69 111 144 183 245 295 354 432
#     4  11  25  46  76 104 146 191 236 293 361 424
#     4  12  25  47  73 106 143 191 240 296 355 427
#     4  12  25  46  73 105 142 193 235 291 360 420
#     4  11  25  47  71 109 146 181 245 292 355 428
#     4  11  26  45  72 107 143 187 239 292 358 426
#     4  12  26  46  75 102 145 191 240 295 362 419
#
# _framework density 22.875074000000001
#
# number of rings (size 3 to 8) (size 9 to 14) (size 15 to 20)
#    0.000    0.571    4.286    3.429    2.000    6.857 
#    2.571    0.000    0.000    0.000    0.000    0.000 
#    0.000    0.000    0.000    0.000    0.000    0.000 
#
# Total GULP energy -173547.438295 kJ/mol
# GULP energy per Si atom -12396.245593 kJ/mol
# Density = 2.282301 g / cm^3
# Si number density = 22.875074 Si / 1000 Ang^3
#
#
#
# Elastic Constant Matrix: (Units=GPa)
#
#
# Indices 1 2 3 4 5 6 
#
# 1 99.1678 53.9731 38.1817 4.4624 13.9560 -4.2643
# 2 53.9731 104.1422 50.0084 -3.8888 7.4743 -8.3842
# 3 38.1817 50.0084 149.3512 11.3431 9.4881 7.5702
# 4 4.4624 -3.8888 11.3431 35.9797 -2.3769 -5.9748
# 5 13.9560 7.4743 9.4881 -2.3769 39.7401 -4.4779
# 6 -4.2643 -8.3842 7.5702 -5.9748 -4.4779 32.9819
#
#
#
# Elastic Compliance Matrix: (Units=1/GPa)
#
#
# Indices 1 2 3 4 5 6 
#
# 1 0.015012 -0.007209 -0.000931 -0.002725 -0.003936 -0.000706
# 2 -0.007209 0.015839 -0.004180 0.004869 0.001420 0.005129
# 3 -0.000931 -0.004180 0.008958 -0.003972 -0.001736 -0.004194
# 4 -0.002725 0.004869 -0.003972 0.031490 0.003776 0.008014
# 5 -0.003936 0.001420 -0.001736 0.003776 0.027444 0.004660
# 6 -0.000706 0.005129 -0.004194 0.008014 0.004660 0.034579
#
#
# Mechanical properties :
#
#
# Convention : Reuss Voigt Hill
#
# Bulk Modulus (GPa) = 65.93079 70.77641 68.35360
# Shear Modulus (GPa) = 30.67106 35.77354 33.22230
#
# Velocity S-wave (km/s) = 3.66568 3.95886 3.81509
# Velocity P-wave (km/s) = 6.84112 7.20447 7.02514
#
# Compressibility (1/GPa) = 0.01516742
#
# Stress axis : x y z
#
# Youngs Moduli (GPa) = 66.61154 63.13626 111.63309
#
# Poissons Ratio (x) = 0.45517 0.10395
# Poissons Ratio (y) = 0.48022 0.46666
# Poissons Ratio (z) = 0.06203 0.26393
#
# Static dielectric constant tensor:
#      x y z
#    x 4.044350 -0.242960 0.147220 
#    y -0.242960 4.290540 -0.366080 
#    z 0.147220 -0.366080 4.885240 
# 
# 
# High freq. dielectric constant tensor:
#      x y z
#    x 1.895010 -0.014700 -0.004120 
#    y -0.014700 1.904440 -0.003510 
#    z -0.004120 -0.003510 1.928780 
# 
# From -- ./inp_files/313077.got.cif
#   From: 2010.06.25/outbox.cif.g09.slc.cpg/sg2_157_cif.got.tgz:313077.got - 2010.06.27 13:26:56.
