data_PCOD8035914
_publ_section_title
;
Structure prediction by ZEFSAII (Michael W. Deem and Ramdas Pophale) SiO2 
 PCOD8035914
Probable space group: P -1
;
_chemical_formula_sum "Si O2"
_cell_formula_units_Z 16
_cell_length_a 8.205162
_cell_length_b 11.503654
_cell_length_c 10.010274
_cell_angle_alpha 103.518680
_cell_angle_beta 89.876807
_cell_angle_gamma 52.207507
_cell_volume 712.859283
_symmetry_space_group_name_H-M "P -1"
_symmetry_group_IT_number 2
_symmetry_cell_setting 'triclinic'
loop_
_space_group_symop_operation_xyz
x,y,z
-x,-y,-z
loop_
_atom_site_type_symbol
_atom_site_label
_atom_site_fract_x
_atom_site_fract_y
_atom_site_fract_z
Si Si1 0.220329 0.828943 0.944150
Si Si2 0.491600 0.742617 0.662729
Si Si3 0.794406 0.171858 0.560367
Si Si4 0.830964 0.664593 0.201024
Si Si5 0.809446 0.788733 0.721763
Si Si6 0.370885 0.876688 0.208597
Si Si7 0.098182 0.607951 0.433187
Si Si8 0.054902 0.648153 0.944263
O O1 0.317462 0.793170 0.787450
O O2 0.198086 0.699195 0.944045
O O3 0.380440 0.816724 0.043967
O O4 0.000000 0.000000 0.000000
O O5 0.380912 0.788656 0.533114
O O6 0.584525 0.831808 0.707376
O O7 0.683300 0.561794 0.617865
O O8 0.704311 0.193891 0.713778
O O9 0.851728 0.281656 0.575932
O O10 0.000000 0.000000 0.500000
O O11 0.595325 0.823534 0.240233
O O12 0.931327 0.629653 0.336998
O O13 0.811704 0.533826 0.127186
O O14 0.962565 0.684061 0.102800
O O15 0.866229 0.740097 0.862558
O O16 0.992746 0.648431 0.590525
O O17 0.792204 0.937682 0.733826
#
# Coordination Sequence:
#
# PCOD8035914 Si02
#       8
#     2   2   2   2   2   2   2   2
#     4  12  26  47  72 103 141 186 234 287 348 420
#     4  12  28  45  76 102 138 195 232 283 359 412
#     4  12  26  47  68 106 146 179 233 289 348 416
#     4  11  27  45  73 106 138 184 235 295 348 410
#     4  12  25  47  73 104 144 185 239 283 346 426
#     4  12  27  44  73 106 139 191 230 290 356 408
#     4  12  26  49  72 104 145 186 232 291 348 421
#     4  11  25  48  71 100 147 178 233 297 343 414
#
# _framework density 22.444823
#
# number of rings (size 3 to 8) (size 9 to 14) (size 15 to 20)
#    0.000    0.250    3.750    4.500    8.750    2.500 
#    0.000    0.000    0.000    0.000    0.000    0.000 
#    0.000    0.000    0.000    0.000    0.000    0.000 
#
# Total GULP energy -198502.802768 kJ/mol
# GULP energy per Si atom -12406.425173 kJ/mol
# Density = 2.239374 g / cm^3
# Si number density = 22.444823 Si / 1000 Ang^3
#
#
#
# Elastic Constant Matrix: (Units=GPa)
#
#
# Indices 1 2 3 4 5 6 
#
# 1 89.6697 34.1013 11.5404 7.8417 0.6576 12.8683
# 2 34.1013 89.4294 32.2641 -11.8741 11.5733 -7.4986
# 3 11.5404 32.2641 81.3660 -2.3831 3.1394 1.8205
# 4 7.8417 -11.8741 -2.3831 26.1917 2.7091 -0.8730
# 5 0.6576 11.5733 3.1394 2.7091 33.2350 -10.5033
# 6 12.8683 -7.4986 1.8205 -0.8730 -10.5033 46.6746
#
#
#
# Elastic Compliance Matrix: (Units=1/GPa)
#
#
# Indices 1 2 3 4 5 6 
#
# 1 0.015624 -0.008013 0.000780 -0.008564 0.001375 -0.005476
# 2 -0.008013 0.018929 -0.005936 0.011145 -0.005364 0.004483
# 3 0.000780 -0.005936 0.014511 -0.001690 0.000281 -0.001703
# 4 -0.008564 0.011145 -0.001690 0.046404 -0.006166 0.003698
# 5 0.001375 -0.005364 0.000281 -0.006166 0.034421 0.006379
# 6 -0.005476 0.004483 -0.001703 0.003698 0.006379 0.025226
#
#
# Mechanical properties :
#
#
# Convention : Reuss Voigt Hill
#
# Bulk Modulus (GPa) = 44.00419 46.25297 45.12858
# Shear Modulus (GPa) = 26.45083 33.39091 29.92087
#
# Velocity S-wave (km/s) = 3.43663 3.86124 3.65511
# Velocity P-wave (km/s) = 5.94939 6.36640 6.16143
#
# Compressibility (1/GPa) = 0.02272511
#
# Stress axis : x y z
#
# Youngs Moduli (GPa) = 64.00457 52.82811 68.91212
#
# Poissons Ratio (x) = 0.42334 -0.05377
# Poissons Ratio (y) = 0.51290 0.40909
# Poissons Ratio (z) = -0.04994 0.31361
#
# Static dielectric constant tensor:
#      x y z
#    x 5.779310 1.547080 -0.186570 
#    y 1.547080 5.351250 -0.226410 
#    z -0.186570 -0.226410 4.277700 
# 
# 
# High freq. dielectric constant tensor:
#      x y z
#    x 1.893680 0.006620 0.001460 
#    y 0.006620 1.894660 -0.007030 
#    z 0.001460 -0.007030 1.895400 
# 
# From -- ./inp_files/188552.got.cif
#   From: 2010.06.25/outbox.cif.g09.slc.cpg/sg2_95_cif.got.tgz:188552.got - 2010.06.27 13:26:56.
