data_PCOD8035183
_publ_section_title
;
Structure prediction by ZEFSAII (Michael W. Deem and Ramdas Pophale) SiO2 
 PCOD8035183
Probable space group: P -1
;
_chemical_formula_sum "Si O2"
_cell_formula_units_Z 16
_cell_length_a 9.511613
_cell_length_b 19.472654
_cell_length_c 9.256824
_cell_angle_alpha 150.938752
_cell_angle_beta 57.663361
_cell_angle_gamma 123.882530
_cell_volume 686.557881
_symmetry_space_group_name_H-M "P -1"
_symmetry_group_IT_number 2
_symmetry_cell_setting 'triclinic'
loop_
_space_group_symop_operation_xyz
x,y,z
-x,-y,-z
loop_
_atom_site_type_symbol
_atom_site_label
_atom_site_fract_x
_atom_site_fract_y
_atom_site_fract_z
Si Si1 0.917462 0.872151 0.704671
Si Si2 0.513967 0.710018 0.103201
Si Si3 0.098286 0.941295 0.215918
Si Si4 0.414840 0.215037 0.117266
Si Si5 0.540653 0.983193 0.779808
Si Si6 0.287403 0.536025 0.465124
Si Si7 0.125527 0.652561 0.228360
Si Si8 0.952855 0.357528 0.426616
O O1 0.759358 0.762809 0.670789
O O2 0.053800 0.776024 0.408975
O O3 0.858204 0.941531 0.721001
O O4 0.000000 0.000000 0.000000
O O5 0.314525 0.646724 0.061579
O O6 0.530200 0.819214 0.430646
O O7 0.601949 0.786228 0.048991
O O8 0.609279 0.583666 0.861564
O O9 0.269494 0.922784 0.166234
O O10 0.998701 0.782440 0.931262
O O11 0.000000 0.000000 0.500000
O O12 0.577619 0.335546 0.298470
O O13 0.424362 0.053942 0.867248
O O14 0.500000 0.000000 0.000000
O O15 0.197361 0.584703 0.464120
O O16 0.132352 0.475878 0.552764
O O17 0.128029 0.695333 0.473424
O O18 0.000000 0.500000 0.000000
#
# Coordination Sequence:
#
# PCOD8035183 Si02
#       8
#     2   2   2   2   2   2   2   2
#     4  12  26  45  74 101 145 191 232 294 361 412
#     4  12  27  44  72 108 142 188 240 292 352 430
#     4  12  26  44  75 106 141 185 239 292 349 428
#     4  12  25  47  72 104 146 186 235 296 359 424
#     4  12  25  47  69 102 143 187 235 291 358 414
#     4  11  25  46  77 101 141 192 236 290 363 421
#     4  12  26  44  71 106 148 186 241 289 357 422
#     4  11  24  49  72 104 146 187 234 301 349 425
#
# _framework density 23.304663999999999
#
# number of rings (size 3 to 8) (size 9 to 14) (size 15 to 20)
#    0.000    0.250    3.750    5.250    3.500    3.500 
#    0.000    0.000    0.000    0.000    0.000    0.000 
#    0.000    0.000    0.000    0.000    0.000    0.000 
#
# Total GULP energy -198406.991716 kJ/mol
# GULP energy per Si atom -12400.436982 kJ/mol
# Density = 2.325162 g / cm^3
# Si number density = 23.304664 Si / 1000 Ang^3
#
#
#
# Elastic Constant Matrix: (Units=GPa)
#
#
# Indices 1 2 3 4 5 6 
#
# 1 103.6037 37.0896 39.8027 -0.0575 -14.7432 5.5774
# 2 37.0896 103.9550 35.2221 -8.5950 -3.6343 5.5368
# 3 39.8027 35.2221 128.0325 2.5540 -10.4266 -11.2133
# 4 -0.0575 -8.5950 2.5540 40.7992 0.1413 -2.2142
# 5 -14.7432 -3.6343 -10.4266 0.1413 44.2575 6.2851
# 6 5.5774 5.5368 -11.2133 -2.2142 6.2851 47.0877
#
#
#
# Elastic Compliance Matrix: (Units=1/GPa)
#
#
# Indices 1 2 3 4 5 6 
#
# 1 0.012582 -0.003313 -0.002898 -0.000636 0.003565 -0.002297
# 2 -0.003313 0.011906 -0.002462 0.002583 -0.000515 -0.001404
# 3 -0.002898 -0.002462 0.009713 -0.000981 0.000726 0.002803
# 4 -0.000636 0.002583 -0.000981 0.025159 -0.000421 0.000777
# 5 0.003565 -0.000515 0.000726 -0.000421 0.024405 -0.003466
# 6 -0.002297 -0.001404 0.002803 0.000777 -0.003466 0.022841
#
#
# Mechanical properties :
#
#
# Convention : Reuss Voigt Hill
#
# Bulk Modulus (GPa) = 59.32905 62.20225 60.76565
# Shear Modulus (GPa) = 38.58928 41.32733 39.95831
#
# Velocity S-wave (km/s) = 4.07364 4.21568 4.14527
# Velocity P-wave (km/s) = 6.90213 7.10245 7.00301
#
# Compressibility (1/GPa) = 0.01685515
#
# Stress axis : x y z
#
# Youngs Moduli (GPa) = 79.47757 83.99157 102.95500
#
# Poissons Ratio (x) = 0.27824 0.29840
# Poissons Ratio (y) = 0.26329 0.25346
# Poissons Ratio (z) = 0.23036 0.20678
#
# Static dielectric constant tensor:
#      x y z
#    x 4.475900 -0.342940 -0.092120 
#    y -0.342940 4.935270 -0.149100 
#    z -0.092120 -0.149100 4.153040 
# 
# 
# High freq. dielectric constant tensor:
#      x y z
#    x 1.940830 0.007320 -0.009840 
#    y 0.007320 1.924140 0.002830 
#    z -0.009840 0.002830 1.922130 
# 
# From -- ./inp_files/224336.got.cif
#   From: 2010.06.25/outbox.cif.g09.slc.cpg/sg2_113_cif.got.tgz:224336.got - 2010.06.27 13:26:56.
