data_PCOD8036624
_publ_section_title
;
Structure prediction by ZEFSAII (Michael W. Deem and Ramdas Pophale) SiO2 
 PCOD8036624
Probable space group: P -1
;
_chemical_formula_sum "Si O2"
_cell_formula_units_Z 16
_cell_length_a 9.957897
_cell_length_b 8.941782
_cell_length_c 21.188194
_cell_angle_alpha 120.274509
_cell_angle_beta 152.537423
_cell_angle_gamma 60.425493
_cell_volume 746.318000
_symmetry_space_group_name_H-M "P -1"
_symmetry_group_IT_number 2
_symmetry_cell_setting 'triclinic'
loop_
_space_group_symop_operation_xyz
x,y,z
-x,-y,-z
loop_
_atom_site_type_symbol
_atom_site_label
_atom_site_fract_x
_atom_site_fract_y
_atom_site_fract_z
Si Si1 0.300705 0.883032 0.595598
Si Si2 0.207743 0.526006 0.423094
Si Si3 0.649529 0.414032 0.105324
Si Si4 0.609170 0.188154 0.242283
Si Si5 0.352404 0.843626 0.260887
Si Si6 0.670155 0.496703 0.882297
Si Si7 0.840440 0.662248 0.508537
Si Si8 0.289983 0.983853 0.966598
O O1 0.192043 0.716913 0.483742
O O2 0.462602 0.834448 0.718989
O O3 0.526692 0.976224 0.667748
O O4 0.000000 0.000000 0.500000
O O5 0.500000 0.500000 0.500000
O O6 0.203831 0.387876 0.448363
O O7 0.927601 0.512410 0.259302
O O8 0.412841 0.427437 0.066728
O O9 0.767924 0.215944 0.094569
O O10 0.500000 0.500000 0.000000
O O11 0.508964 0.384676 0.219353
O O12 0.961322 0.175706 0.376747
O O13 0.453055 0.042979 0.109498
O O14 0.398730 0.704231 0.192735
O O15 0.521310 0.743451 0.368369
O O16 0.009624 0.890028 0.143513
O O17 0.000000 0.500000 0.000000
O O18 0.000000 0.500000 0.500000
O O19 0.500000 0.000000 0.000000
#
# Coordination Sequence:
#
# PCOD8036624 Si02
#       8
#     2   2   2   2   2   2   2   2
#     4  12  25  43  71 109 137 179 244 303 352 416
#     4  12  26  48  69 104 145 186 237 296 361 427
#     4  12  28  47  71 100 149 191 232 297 367 426
#     4  12  24  44  77  98 145 187 239 293 358 423
#     4  12  25  42  77 110 139 185 246 299 355 430
#     4  12  23  46  73 105 135 192 242 285 361 435
#     4  12  21  46  76 103 139 193 240 293 360 436
#     4  12  26  49  67 107 147 186 241 298 357 428
#
# _framework density 21.438583999999999
#
# number of rings (size 3 to 8) (size 9 to 14) (size 15 to 20)
#    0.000    0.000    7.500    1.500    3.500    4.500 
#    0.000    1.875    0.000    0.000    0.000    0.000 
#    0.000    0.000    0.000    0.000    0.000    0.000 
#
# Total GULP energy -198377.844191 kJ/mol
# GULP energy per Si atom -12398.615262 kJ/mol
# Density = 2.138979 g / cm^3
# Si number density = 21.438584 Si / 1000 Ang^3
#
#
#
# Elastic Constant Matrix: (Units=GPa)
#
#
# Indices 1 2 3 4 5 6 
#
# 1 112.7907 38.1965 66.1200 -18.2329 -3.9004 5.8690
# 2 38.1965 116.0019 56.8243 1.6629 -20.9534 -6.1994
# 3 66.1200 56.8243 163.4818 3.6133 -15.0828 -11.1653
# 4 -18.2329 1.6629 3.6133 46.5627 1.5904 1.0400
# 5 -3.9004 -20.9534 -15.0828 1.5904 37.2789 -5.4130
# 6 5.8690 -6.1994 -11.1653 1.0400 -5.4130 36.7071
#
#
#
# Elastic Compliance Matrix: (Units=1/GPa)
#
#
# Indices 1 2 3 4 5 6 
#
# 1 0.014321 -0.002979 -0.005570 0.006380 -0.003454 -0.005177
# 2 -0.002979 0.011911 -0.002157 -0.001691 0.005983 0.002762
# 3 -0.005570 -0.002157 0.009722 -0.003045 0.002847 0.003990
# 4 0.006380 -0.001691 -0.003045 0.024451 -0.003048 -0.003374
# 5 -0.003454 0.005983 0.002847 -0.003048 0.032163 0.007258
# 6 -0.005177 0.002762 0.003990 -0.003374 0.007258 0.030916
#
#
# Mechanical properties :
#
#
# Convention : Reuss Voigt Hill
#
# Bulk Modulus (GPa) = 68.76794 79.39511 74.08153
# Shear Modulus (GPa) = 33.39035 39.51863 36.45449
#
# Velocity S-wave (km/s) = 3.95078 4.29807 4.12808
# Velocity P-wave (km/s) = 7.27722 7.85782 7.57309
#
# Compressibility (1/GPa) = 0.01454166
#
# Stress axis : x y z
#
# Youngs Moduli (GPa) = 69.82534 83.95721 102.86031
#
# Poissons Ratio (x) = 0.25012 0.57293
# Poissons Ratio (y) = 0.20802 0.22188
# Poissons Ratio (z) = 0.38893 0.18110
#
# Static dielectric constant tensor:
#      x y z
#    x 3.934340 0.038420 0.127980 
#    y 0.038420 4.450980 0.148690 
#    z 0.127980 0.148690 4.749230 
# 
# 
# High freq. dielectric constant tensor:
#      x y z
#    x 1.831260 0.003310 0.001850 
#    y 0.003310 1.850310 0.007210 
#    z 0.001850 0.007210 1.864940 
# 
# From -- ./inp_files/588089.got.cif
#   From: 2010.06.25/outbox.cif.g09.slc.cpg/sg2_295_cif.got.tgz:588089.got - 2010.06.27 13:26:56.
