data_PCOD8036647
_publ_section_title
;
Structure prediction by ZEFSAII (Michael W. Deem and Ramdas Pophale) SiO2 
 PCOD8036647
Probable space group: P -1
;
_chemical_formula_sum "Si O2"
_cell_formula_units_Z 16
_cell_length_a 24.116340
_cell_length_b 11.298346
_cell_length_c 24.120887
_cell_angle_alpha 32.577106
_cell_angle_beta 12.170649
_cell_angle_gamma 32.590049
_cell_volume 735.734531
_symmetry_space_group_name_H-M "P -1"
_symmetry_group_IT_number 2
_symmetry_cell_setting 'triclinic'
loop_
_space_group_symop_operation_xyz
x,y,z
-x,-y,-z
loop_
_atom_site_type_symbol
_atom_site_label
_atom_site_fract_x
_atom_site_fract_y
_atom_site_fract_z
Si Si1 0.360007 0.258952 0.816336
Si Si2 0.439166 0.205673 0.937740
Si Si3 0.352679 0.097825 0.768583
Si Si4 0.905059 0.804979 0.324183
Si Si5 0.829062 0.513148 0.287007
Si Si6 0.990087 0.407509 0.484883
Si Si7 0.552424 0.108435 0.044735
Si Si8 0.120073 0.505237 0.625592
O O1 0.307219 0.261693 0.801279
O O2 0.637651 0.338796 0.527284
O O3 0.384749 0.997861 0.913729
O O4 0.122934 0.420943 0.013961
O O5 0.668162 0.352643 0.660683
O O6 0.419026 0.114857 0.931524
O O7 0.166989 0.356437 0.162001
O O8 0.500000 0.000000 0.000000
O O9 0.274266 0.245557 0.732758
O O10 0.663272 0.994496 0.503390
O O11 0.177688 0.903158 0.019852
O O12 0.931969 0.604772 0.420363
O O13 0.850250 0.722657 0.348427
O O14 0.837685 0.552423 0.328656
O O15 0.000000 0.500000 0.500000
O O16 0.262939 0.250386 0.265604
O O17 0.758732 0.261946 0.763418
#
# Coordination Sequence:
#
# PCOD8036647 Si02
#       8
#     2   2   2   2   2   2   2   2
#     4  12  23  44  68 101 133 164 226 281 332 394
#     4  12  23  41  65  97 129 172 218 264 330 388
#     4  12  26  44  69  95 129 182 223 274 332 389
#     4  12  26  45  64  96 136 175 226 267 328 401
#     4  12  24  44  69  99 132 171 221 282 335 382
#     4  12  24  41  62  94 131 174 216 261 320 392
#     4  12  22  39  66  93 126 168 210 264 333 380
#     4  12  24  44  65  97 137 169 217 278 325 393
#
# _framework density 21.746974000000002
#
# number of rings (size 3 to 8) (size 9 to 14) (size 15 to 20)
#    0.000    0.000    2.500    9.000    0.000    1.000 
#    0.000    0.000    0.000    0.000    0.000    0.000 
#    0.000    0.000    0.000    0.000    0.000    0.000 
#
# Total GULP energy -198541.981717 kJ/mol
# GULP energy per Si atom -12408.873857 kJ/mol
# Density = 2.169748 g / cm^3
# Si number density = 21.746974 Si / 1000 Ang^3
#
#
#
# Elastic Constant Matrix: (Units=GPa)
#
#
# Indices 1 2 3 4 5 6 
#
# 1 124.4041 28.6890 15.7544 -5.1930 5.7565 1.1617
# 2 28.6890 88.6656 28.3236 7.8796 5.8407 -17.3192
# 3 15.7544 28.3236 126.5046 8.5721 -2.4040 -3.4502
# 4 -5.1930 7.8796 8.5721 37.9384 -0.0252 -5.1792
# 5 5.7565 5.8407 -2.4040 -0.0252 31.4582 -2.4854
# 6 1.1617 -17.3192 -3.4502 -5.1792 -2.4854 57.7264
#
#
#
# Elastic Compliance Matrix: (Units=1/GPa)
#
#
# Indices 1 2 3 4 5 6 
#
# 1 0.008945 -0.002974 -0.000623 0.001846 -0.001210 -0.000996
# 2 -0.002974 0.014148 -0.002578 -0.002237 -0.001976 0.003865
# 3 -0.000623 -0.002578 0.008679 -0.001555 0.001229 -0.000329
# 4 0.001846 -0.002237 -0.001555 0.027657 0.000114 0.001685
# 5 -0.001210 -0.001976 0.001229 0.000114 0.032543 0.000916
# 6 -0.000996 0.003865 -0.000329 0.001685 0.000916 0.018674
#
#
# Mechanical properties :
#
#
# Convention : Reuss Voigt Hill
#
# Bulk Modulus (GPa) = 51.48804 53.90093 52.69448
# Shear Modulus (GPa) = 38.61849 43.21174 40.91512
#
# Velocity S-wave (km/s) = 4.21861 4.46244 4.34224
# Velocity P-wave (km/s) = 6.88885 7.16871 7.03017
#
# Compressibility (1/GPa) = 0.01942199
#
# Stress axis : x y z
#
# Youngs Moduli (GPa) = 111.78806 70.68123 115.21533
#
# Poissons Ratio (x) = 0.21022 0.07182
# Poissons Ratio (y) = 0.33249 0.29701
# Poissons Ratio (z) = 0.06969 0.18220
#
# Static dielectric constant tensor:
#      x y z
#    x 4.300240 0.004270 0.054830 
#    y 0.004270 3.910340 0.017580 
#    z 0.054830 0.017580 4.051550 
# 
# 
# High freq. dielectric constant tensor:
#      x y z
#    x 1.870920 -0.004410 0.001270 
#    y -0.004410 1.858300 0.001730 
#    z 0.001270 0.001730 1.875560 
# 
# From -- ./inp_files/482650.got.cif
#   From: 2010.06.25/outbox.cif.g09.slc.cpg/sg2_242_cif.got.tgz:482650.got - 2010.06.27 13:26:56.
