data_PCOD8036984
_publ_section_title
;
Structure prediction by ZEFSAII (Michael W. Deem and Ramdas Pophale) SiO2 
 PCOD8036984
Probable space group: P -1
;
_chemical_formula_sum "Si O2"
_cell_formula_units_Z 14
_cell_length_a 7.036908
_cell_length_b 16.058452
_cell_length_c 19.124601
_cell_angle_alpha 158.221941
_cell_angle_beta 100.298175
_cell_angle_gamma 92.835039
_cell_volume 636.787400
_symmetry_space_group_name_H-M "P -1"
_symmetry_group_IT_number 2
_symmetry_cell_setting 'triclinic'
loop_
_space_group_symop_operation_xyz
x,y,z
-x,-y,-z
loop_
_atom_site_type_symbol
_atom_site_label
_atom_site_fract_x
_atom_site_fract_y
_atom_site_fract_z
Si Si1 0.146596 0.301460 0.275980
Si Si2 0.353914 0.266915 0.959363
Si Si3 0.871155 0.334498 0.542842
Si Si4 0.195454 0.693613 0.965112
Si Si5 0.677752 0.716986 0.591417
Si Si6 0.452707 0.296026 0.568804
Si Si7 0.016890 0.707712 0.107895
O O1 0.048408 0.461942 0.359819
O O2 0.420377 0.453582 0.392419
O O3 0.129546 0.277781 0.341701
O O4 0.000000 0.000000 0.000000
O O5 0.233202 0.323176 0.931103
O O6 0.169473 0.938146 0.705704
O O7 0.607066 0.333641 0.007833
O O8 0.386468 0.436761 0.163922
O O9 0.627756 0.258107 0.504654
O O10 0.073569 0.466640 0.718745
O O11 0.016618 0.619648 0.959382
O O12 0.294794 0.992860 0.171871
O O13 0.702535 0.671059 0.474411
O O14 0.258725 0.015608 0.380824
O O15 0.000000 0.500000 0.000000
#
# Coordination Sequence:
#
# PCOD8036984 Si02
#       7
#     2   2   2   2   2   2   2
#     4  10  17  31  62  96 128 175 214 264 318 361
#     4  12  23  42  70  92 128 177 213 260 330 385
#     4  11  21  40  67  94 131 178 216 259 323 383
#     4  11  21  42  65  94 131 170 214 260 323 389
#     4   9  19  34  60  92 130 172 213 263 315 368
#     4  10  22  43  65  93 131 171 216 263 324 382
#     4  11  25  45  70  98 127 164 215 272 327 390
#
# _framework density 21.985358999999999
#
# number of rings (size 3 to 8) (size 9 to 14) (size 15 to 20)
#    0.000    1.429    7.143    0.857    0.000    1.143 
#    0.000    2.143    0.000    7.714    0.000    0.000 
#    0.000    0.000    0.000    0.000    0.000    0.000 
#
# Total GULP energy -173440.858417 kJ/mol
# GULP energy per Si atom -12388.632744 kJ/mol
# Density = 2.193532 g / cm^3
# Si number density = 21.985359 Si / 1000 Ang^3
#
#
#
# Elastic Constant Matrix: (Units=GPa)
#
#
# Indices 1 2 3 4 5 6 
#
# 1 45.8286 31.2965 20.9770 5.3462 7.8922 -18.2898
# 2 31.2965 146.9499 95.0100 10.9342 2.7348 -29.8923
# 3 20.9770 95.0100 179.9517 -14.6519 -1.2003 -2.5076
# 4 5.3462 10.9342 -14.6519 38.9680 1.1096 -2.3121
# 5 7.8922 2.7348 -1.2003 1.1096 28.9718 -1.7980
# 6 -18.2898 -29.8923 -2.5076 -2.3121 -1.7980 35.1865
#
#
#
# Elastic Compliance Matrix: (Units=1/GPa)
#
#
# Indices 1 2 3 4 5 6 
#
# 1 0.031753 -0.001287 -0.003206 -0.004122 -0.007602 0.014524
# 2 -0.001287 0.015172 -0.008237 -0.006501 -0.000480 0.011181
# 3 -0.003206 -0.008237 0.010698 0.006294 0.001393 -0.007417
# 4 -0.004122 -0.006501 0.006294 0.030094 0.000521 -0.005213
# 5 -0.007602 -0.000480 0.001393 0.000521 0.036524 -0.002359
# 6 0.014524 0.011181 -0.007417 -0.005213 -0.002359 0.044477
#
#
# Mechanical properties :
#
#
# Convention : Reuss Voigt Hill
#
# Bulk Modulus (GPa) = 31.09153 74.14414 52.61784
# Shear Modulus (GPa) = 24.40225 35.65503 30.02864
#
# Velocity S-wave (km/s) = 3.33518 4.03148 3.69975
# Velocity P-wave (km/s) = 5.38552 7.44768 6.49892
#
# Compressibility (1/GPa) = 0.03216310
#
# Stress axis : x y z
#
# Youngs Moduli (GPa) = 31.49274 65.91127 93.47484
#
# Poissons Ratio (x) = 0.08485 0.29966
# Poissons Ratio (y) = 0.04054 0.76995
# Poissons Ratio (z) = 0.10096 0.54291
#
# Static dielectric constant tensor:
#      x y z
#    x 3.953980 -0.441630 0.205500 
#    y -0.441630 4.255850 -0.225000 
#    z 0.205500 -0.225000 4.119540 
# 
# 
# High freq. dielectric constant tensor:
#      x y z
#    x 1.846720 -0.026430 0.012150 
#    y -0.026430 1.860600 -0.017370 
#    z 0.012150 -0.017370 1.872460 
# 
# From -- ./inp_files/590550.got.cif
#   From: 2010.06.25/outbox.cif.g09.slc.cpg/sg2_296_cif.got.tgz:590550.got - 2010.06.27 13:26:56.
