data_PCOD8036073
_publ_section_title
;
Structure prediction by ZEFSAII (Michael W. Deem and Ramdas Pophale) SiO2 
 PCOD8036073
Probable space group: P -1
;
_chemical_formula_sum "Si O2"
_cell_formula_units_Z 12
_cell_length_a 9.040517
_cell_length_b 15.530491
_cell_length_c 12.946815
_cell_angle_alpha 17.876067
_cell_angle_beta 114.632892
_cell_angle_gamma 113.219634
_cell_volume 507.186828
_symmetry_space_group_name_H-M "P -1"
_symmetry_group_IT_number 2
_symmetry_cell_setting 'triclinic'
loop_
_space_group_symop_operation_xyz
x,y,z
-x,-y,-z
loop_
_atom_site_type_symbol
_atom_site_label
_atom_site_fract_x
_atom_site_fract_y
_atom_site_fract_z
Si Si1 0.389668 0.282149 0.660160
Si Si2 0.085228 0.886861 0.554675
Si Si3 0.112391 0.242347 0.792651
Si Si4 0.236802 0.384527 0.281045
Si Si5 0.478008 0.713555 0.658216
Si Si6 0.286960 0.228650 0.070088
O O1 0.500000 0.500000 0.500000
O O2 0.232008 0.268602 0.700996
O O3 0.325546 0.412554 0.384875
O O4 0.500000 0.000000 0.000000
O O5 0.941836 0.747397 0.603161
O O6 0.161255 0.145344 0.219053
O O7 0.220780 0.669522 0.883642
O O8 0.000000 0.000000 0.500000
O O9 0.000000 0.500000 0.500000
O O10 0.213212 0.165858 0.009459
O O11 0.000000 0.000000 0.000000
O O12 0.359571 0.204036 0.451150
O O13 0.431867 0.002997 0.369316
O O14 0.500000 0.500000 0.000000
O O15 0.346236 0.551187 0.731283
#
# Coordination Sequence:
#
# PCOD8036073 Si02
#       6
#     2   2   2   2   2   2
#     4  12  27  48  73 102 140 186 235 285 342 410
#     4  11  26  42  70 101 139 179 222 284 349 405
#     4  12  26  46  72 101 138 183 232 283 340 407
#     4  11  26  44  69 102 138 178 229 282 343 409
#     4  12  24  44  68 101 135 175 224 275 341 404
#     4  12  26  45  70 100 137 177 227 279 339 405
#
# _framework density 23.659922000000002
#
# number of rings (size 3 to 8) (size 9 to 14) (size 15 to 20)
#    0.000    0.333    1.667    6.500    9.333    0.000 
#    0.000    0.000    0.000    0.000    0.000    0.000 
#    0.000    0.000    0.000    0.000    0.000    0.000 
#
# Total GULP energy -148684.662332 kJ/mol
# GULP energy per Si atom -12390.388528 kJ/mol
# Density = 2.360607 g / cm^3
# Si number density = 23.659922 Si / 1000 Ang^3
#
#
#
# Elastic Constant Matrix: (Units=GPa)
#
#
# Indices 1 2 3 4 5 6 
#
# 1 149.7989 22.8358 22.3528 -4.1204 -9.3326 -20.2341
# 2 22.8358 131.0091 15.2762 7.7311 4.0243 11.0872
# 3 22.3528 15.2762 46.5495 -8.1504 -1.9034 8.0775
# 4 -4.1204 7.7311 -8.1504 56.2183 -7.2130 -0.3435
# 5 -9.3326 4.0243 -1.9034 -7.2130 33.5599 -0.6682
# 6 -20.2341 11.0872 8.0775 -0.3435 -0.6682 50.4593
#
#
#
# Elastic Compliance Matrix: (Units=1/GPa)
#
#
# Indices 1 2 3 4 5 6 
#
# 1 0.008246 -0.001439 -0.004037 0.000557 0.002442 0.004305
# 2 -0.001439 0.008483 -0.002126 -0.001847 -0.001977 -0.002139
# 3 -0.004037 -0.002126 0.025758 0.003868 0.001320 -0.005231
# 4 0.000557 -0.001847 0.003868 0.019252 0.004738 0.000204
# 5 0.002442 -0.001977 0.001320 0.004738 0.031840 0.001656
# 6 0.004305 -0.002139 -0.005231 0.000204 0.001656 0.022875
#
#
# Mechanical properties :
#
#
# Convention : Reuss Voigt Hill
#
# Bulk Modulus (GPa) = 36.65337 49.80968 43.23153
# Shear Modulus (GPa) = 35.52320 45.84034 40.68177
#
# Velocity S-wave (km/s) = 3.87900 4.40644 4.15111
# Velocity P-wave (km/s) = 5.96554 6.85471 6.42552
#
# Compressibility (1/GPa) = 0.02728262
#
# Stress axis : x y z
#
# Youngs Moduli (GPa) = 121.26451 117.88951 38.82289
#
# Poissons Ratio (x) = 0.16962 0.15675
# Poissons Ratio (y) = 0.17448 0.08253
# Poissons Ratio (z) = 0.48961 0.25061
#
# Static dielectric constant tensor:
#      x y z
#    x 4.289840 -0.510880 0.249280 
#    y -0.510880 2.363300 2.092100 
#    z 0.249280 2.092100 1.825640 
# 
# 
# High freq. dielectric constant tensor:
#      x y z
#    x 1.962210 -0.002490 0.002640 
#    y -0.002490 1.961880 0.001990 
#    z 0.002640 0.001990 1.927490 
# 
# From -- ./inp_files/36769.got.cif
#   From: 2010.06.25/outbox.cif.g09.slc.cpg/sg2_19_cif.got.tgz:36769.got - 2010.06.27 13:26:56.
