data_PCOD8036739
_publ_section_title
;
Structure prediction by ZEFSAII (Michael W. Deem and Ramdas Pophale) SiO2 
 PCOD8036739
Probable space group: P -1
;
_chemical_formula_sum "Si O2"
_cell_formula_units_Z 16
_cell_length_a 15.346277
_cell_length_b 12.484393
_cell_length_c 9.624916
_cell_angle_alpha 67.303830
_cell_angle_beta 122.483175
_cell_angle_gamma 62.219135
_cell_volume 719.626780
_symmetry_space_group_name_H-M "P -1"
_symmetry_group_IT_number 2
_symmetry_cell_setting 'triclinic'
loop_
_space_group_symop_operation_xyz
x,y,z
-x,-y,-z
loop_
_atom_site_type_symbol
_atom_site_label
_atom_site_fract_x
_atom_site_fract_y
_atom_site_fract_z
Si Si1 0.572866 0.684915 0.874137
Si Si2 0.044317 0.841715 0.531281
Si Si3 0.190729 0.323975 0.857174
Si Si4 0.614924 0.102842 0.689412
Si Si5 0.657075 0.610415 0.440112
Si Si6 0.091782 0.408902 0.273495
Si Si7 0.689695 0.029916 0.252980
Si Si8 0.013495 0.871276 0.163541
O O1 0.480105 0.821896 0.582265
O O2 0.393531 0.816286 0.761276
O O3 0.726824 0.428368 0.106173
O O4 0.678340 0.686873 0.053226
O O5 0.020353 0.891211 0.323053
O O6 0.000000 0.000000 0.500000
O O7 0.886793 0.897517 0.419381
O O8 0.000000 0.500000 0.500000
O O9 0.104022 0.428523 0.882681
O O10 0.333007 0.071016 0.105639
O O11 0.443431 0.330284 0.527673
O O12 0.817907 0.982016 0.907481
O O13 0.819199 0.554266 0.627509
O O14 0.774635 0.391489 0.575475
O O15 0.475146 0.828652 0.077794
O O16 0.262438 0.144734 0.563814
O O17 0.000000 0.500000 0.000000
O O18 0.000000 0.000000 0.000000
#
# Coordination Sequence:
#
# PCOD8036739 Si02
#       8
#     2   2   2   2   2   2   2   2
#     4  12  26  45  73 109 146 186 236 293 356 427
#     4  12  29  51  75 103 140 187 244 301 356 421
#     4  12  22  44  74 103 150 190 230 289 356 426
#     4  12  26  45  73 109 146 186 236 293 356 427
#     4  12  25  47  73 105 146 191 235 286 361 426
#     4  12  24  40  74 109 149 189 229 287 355 419
#     4  12  25  47  73 105 146 191 235 286 361 426
#     4  12  29  51  75 103 140 187 244 301 356 421
#
# _framework density 22.233747999999999
#
# number of rings (size 3 to 8) (size 9 to 14) (size 15 to 20)
#    0.000    0.000    5.000    5.250    3.500    2.000 
#    0.000    0.000    0.000    0.000    0.000    0.000 
#    0.000    0.000    0.000    0.000    0.000    0.000 
#
# Total GULP energy -198456.009660 kJ/mol
# GULP energy per Si atom -12403.500604 kJ/mol
# Density = 2.218314 g / cm^3
# Si number density = 22.233748 Si / 1000 Ang^3
#
#
#
# Elastic Constant Matrix: (Units=GPa)
#
#
# Indices 1 2 3 4 5 6 
#
# 1 77.9086 35.6196 25.8808 -7.5166 -16.5980 -15.5504
# 2 35.6196 140.8180 47.2866 -5.9373 -11.8240 -19.3720
# 3 25.8808 47.2866 106.0240 5.4632 -19.3768 -0.7995
# 4 -7.5166 -5.9373 5.4632 44.5032 -6.9914 -2.4210
# 5 -16.5980 -11.8240 -19.3768 -6.9914 33.5745 -3.6656
# 6 -15.5504 -19.3720 -0.7995 -2.4210 -3.6656 50.4055
#
#
#
# Elastic Compliance Matrix: (Units=1/GPa)
#
#
# Indices 1 2 3 4 5 6 
#
# 1 0.017838 -0.002173 -0.002040 0.004595 0.008430 0.005469
# 2 -0.002173 0.009406 -0.003571 0.001624 0.000846 0.003028
# 3 -0.002040 -0.003571 0.012396 -0.001744 0.004353 -0.001572
# 4 0.004595 0.001624 -0.001744 0.025054 0.007465 0.003760
# 5 0.008430 0.000846 0.004353 0.007465 0.038992 0.006189
# 6 0.005469 0.003028 -0.001572 0.003760 0.006189 0.023296
#
#
# Mechanical properties :
#
#
# Convention : Reuss Voigt Hill
#
# Bulk Modulus (GPa) = 41.54221 60.25830 50.90025
# Shear Modulus (GPa) = 33.20633 40.09423 36.65028
#
# Velocity S-wave (km/s) = 3.86879 4.25114 4.06446
# Velocity P-wave (km/s) = 6.21945 7.15942 6.70592
#
# Compressibility (1/GPa) = 0.02407190
#
# Stress axis : x y z
#
# Youngs Moduli (GPa) = 56.06140 106.31363 80.67107
#
# Poissons Ratio (x) = 0.23102 0.16457
# Poissons Ratio (y) = 0.12182 0.28807
# Poissons Ratio (z) = 0.11437 0.37963
#
# Static dielectric constant tensor:
#      x y z
#    x 4.030210 -0.324030 -0.015560 
#    y -0.324030 4.256480 -0.160730 
#    z -0.015560 -0.160730 4.094830 
# 
# 
# High freq. dielectric constant tensor:
#      x y z
#    x 1.878170 -0.024170 0.001510 
#    y -0.024170 1.889380 -0.003570 
#    z 0.001510 -0.003570 1.888700 
# 
# From -- ./inp_files/245875.got.cif
#   From: 2010.06.25/outbox.cif.g09.slc.cpg/sg2_123_cif.got.tgz:245875.got - 2010.06.27 13:26:56.
