data_PCOD8036305
_publ_section_title
;
Structure prediction by ZEFSAII (Michael W. Deem and Ramdas Pophale) SiO2 
 PCOD8036305
Probable space group: P -1
;
_chemical_formula_sum "Si O2"
_cell_formula_units_Z 14
_cell_length_a 11.112504
_cell_length_b 5.979920
_cell_length_c 11.115228
_cell_angle_alpha 95.059356
_cell_angle_beta 130.096703
_cell_angle_gamma 95.091822
_cell_volume 552.454733
_symmetry_space_group_name_H-M "P -1"
_symmetry_group_IT_number 2
_symmetry_cell_setting 'triclinic'
loop_
_space_group_symop_operation_xyz
x,y,z
-x,-y,-z
loop_
_atom_site_type_symbol
_atom_site_label
_atom_site_fract_x
_atom_site_fract_y
_atom_site_fract_z
Si Si1 0.883584 0.762112 0.883566
Si Si2 0.326175 0.845776 0.881218
Si Si3 0.671035 0.055462 0.671345
Si Si4 0.106978 0.581795 0.322874
Si Si5 0.881379 0.845372 0.326385
Si Si6 0.677159 0.418296 0.893310
Si Si7 0.669778 0.499511 0.330019
O O1 0.962570 0.612566 0.830590
O O2 0.831137 0.611607 0.962676
O O3 0.722228 0.815936 0.722656
O O4 0.000000 0.000000 0.000000
O O5 0.299560 0.725403 0.729044
O O6 0.188529 0.000405 0.811507
O O7 0.306594 0.649989 0.961124
O O8 0.500000 0.000000 0.000000
O O9 0.799387 0.191999 0.669450
O O10 0.668015 0.191732 0.798852
O O11 0.500000 0.000000 0.500000
O O12 0.230377 0.480212 0.481691
O O13 0.961632 0.649935 0.307117
O O14 0.729319 0.724780 0.299987
O O15 0.000000 0.000000 0.500000
O O16 0.518779 0.521260 0.770812
#
# Coordination Sequence:
#
# PCOD8036305 Si02
#       7
#     2   2   2   2   2   2   2
#     4  11  28  53  77 111 156 203 260 332 389 446
#     4  12  28  49  78 117 158 206 254 322 397 461
#     4  11  26  47  80 109 150 210 257 321 388 457
#     4  11  27  48  78 115 151 204 268 313 388 475
#     4  12  28  49  78 117 158 206 254 322 397 461
#     4  11  27  48  78 115 151 204 268 313 388 475
#     4  12  26  49  76 117 156 202 266 312 388 482
#
# _framework density 25.341445
#
# number of rings (size 3 to 8) (size 9 to 14) (size 15 to 20)
#    0.000    0.571    2.857    2.571    8.000    8.000 
#    0.000    2.143    0.000    0.000    0.000    0.000 
#    0.000    0.000    0.000    0.000    0.000    0.000 
#
# Total GULP energy -173681.221003 kJ/mol
# GULP energy per Si atom -12405.801500 kJ/mol
# Density = 2.528377 g / cm^3
# Si number density = 25.341445 Si / 1000 Ang^3
#
#
#
# Elastic Constant Matrix: (Units=GPa)
#
#
# Indices 1 2 3 4 5 6 
#
# 1 113.4343 50.1974 52.6994 7.6450 -11.2191 -13.9015
# 2 50.1974 130.4647 56.0166 -3.9813 -0.0734 -3.1303
# 3 52.6994 56.0166 114.8512 -5.8093 13.8611 13.3771
# 4 7.6450 -3.9813 -5.8093 62.6443 2.0021 13.3312
# 5 -11.2191 -0.0734 13.8611 2.0021 33.6942 -13.8876
# 6 -13.9015 -3.1303 13.3771 13.3312 -13.8876 38.9693
#
#
#
# Elastic Compliance Matrix: (Units=1/GPa)
#
#
# Indices 1 2 3 4 5 6 
#
# 1 0.025521 -0.001449 -0.018652 -0.012259 0.029266 0.030014
# 2 -0.001449 0.010566 -0.005296 -0.000476 0.003166 0.003441
# 3 -0.018652 -0.005296 0.028084 0.012439 -0.031835 -0.032320
# 4 -0.012259 -0.000476 0.012439 0.024443 -0.020721 -0.024428
# 5 0.029266 0.003166 -0.031835 -0.020721 0.076885 0.056111
# 6 0.030014 0.003441 -0.032320 -0.024428 0.056111 0.076092
#
#
# Mechanical properties :
#
#
# Convention : Reuss Voigt Hill
#
# Bulk Modulus (GPa) = 74.74426 75.17524 74.95975
# Shear Modulus (GPa) = 16.84400 40.38402 28.61401
#
# Velocity S-wave (km/s) = 2.58094 3.99632 3.36391
# Velocity P-wave (km/s) = 6.20005 7.14307 6.68820
#
# Compressibility (1/GPa) = 0.01337895
#
# Stress axis : x y z
#
# Youngs Moduli (GPa) = 39.18363 94.64556 35.60773
#
# Poissons Ratio (x) = 0.13710 0.66414
# Poissons Ratio (y) = 0.05676 0.18856
# Poissons Ratio (z) = 0.73084 0.50120
#
# Static dielectric constant tensor:
#      x y z
#    x 4.698410 -0.035240 0.057260 
#    y -0.035240 4.977790 -0.043070 
#    z 0.057260 -0.043070 4.788590 
# 
# 
# High freq. dielectric constant tensor:
#      x y z
#    x 2.017420 -0.003370 0.006470 
#    y -0.003370 2.025490 -0.005880 
#    z 0.006470 -0.005880 2.027570 
# 
# From -- ./inp_files/410939.got.cif
#   From: 2010.06.25/outbox.cif.g09.slc.cpg/sg2_206_cif.got.tgz:410939.got - 2010.06.27 13:26:56.
