data_PCOD8036698
_publ_section_title
;
Structure prediction by ZEFSAII (Michael W. Deem and Ramdas Pophale) SiO2 
 PCOD8036698
Probable space group: P -1
;
_chemical_formula_sum "Si O2"
_cell_formula_units_Z 16
_cell_length_a 25.327289
_cell_length_b 8.734543
_cell_length_c 25.304622
_cell_angle_alpha 136.097510
_cell_angle_beta 168.457564
_cell_angle_gamma 43.833622
_cell_volume 771.922308
_symmetry_space_group_name_H-M "P -1"
_symmetry_group_IT_number 2
_symmetry_cell_setting 'triclinic'
loop_
_space_group_symop_operation_xyz
x,y,z
-x,-y,-z
loop_
_atom_site_type_symbol
_atom_site_label
_atom_site_fract_x
_atom_site_fract_y
_atom_site_fract_z
Si Si1 0.135842 0.843344 0.769857
Si Si2 0.484341 0.142933 0.468279
Si Si3 0.345413 0.040769 0.748870
Si Si4 0.111298 0.078361 0.913458
Si Si5 0.755078 0.605481 0.175579
Si Si6 0.705023 0.415731 0.363682
Si Si7 0.957795 0.437168 0.002777
Si Si8 0.608406 0.903004 0.423790
O O1 0.216306 0.588752 0.801264
O O2 0.876107 0.850651 0.481120
O O3 0.366950 0.939445 0.987960
O O4 0.061232 0.991936 0.784687
O O5 0.219142 0.309232 0.251844
O O6 0.500000 0.000000 0.500000
O O7 0.484648 0.982057 0.378092
O O8 0.726532 0.284706 0.740613
O O9 0.319500 0.162757 0.810173
O O10 0.317304 0.782619 0.666513
O O11 0.391147 0.962845 0.180287
O O12 0.120690 0.341690 0.985173
O O13 0.870138 0.024171 0.700723
O O14 0.019473 0.619443 0.405459
O O15 0.525719 0.562419 0.899928
O O16 0.688532 0.639143 0.437794
O O17 0.000000 0.500000 0.000000
#
# Coordination Sequence:
#
# PCOD8036698 Si02
#       8
#     2   2   2   2   2   2   2   2
#     4  12  24  43  64  99 129 173 216 274 332 375
#     4  12  26  43  68 103 138 168 214 272 334 382
#     4  12  26  42  66  99 137 163 219 284 323 380
#     4  12  24  41  72  93 131 171 228 267 311 392
#     4  12  23  45  68  95 128 181 220 262 325 403
#     4  12  24  42  68  96 130 177 221 260 333 397
#     4  12  23  44  70  99 126 179 220 264 315 389
#     4  12  22  43  66  95 131 174 213 274 320 389
#
# _framework density 20.727474999999998
#
# number of rings (size 3 to 8) (size 9 to 14) (size 15 to 20)
#    0.000    0.000    5.000    6.000    0.000    2.000 
#    0.000    0.000    0.000    0.000    0.000    0.000 
#    0.000    0.000    0.000    0.000    0.000    0.000 
#
# Total GULP energy -198546.184383 kJ/mol
# GULP energy per Si atom -12409.136524 kJ/mol
# Density = 2.068030 g / cm^3
# Si number density = 20.727475 Si / 1000 Ang^3
#
#
#
# Elastic Constant Matrix: (Units=GPa)
#
#
# Indices 1 2 3 4 5 6 
#
# 1 74.2386 33.6773 23.4789 3.9606 9.8885 5.2798
# 2 33.6773 93.8533 -0.6360 4.3783 2.5731 3.1103
# 3 23.4789 -0.6360 128.0996 -1.1074 13.5029 28.4933
# 4 3.9606 4.3783 -1.1074 36.7349 1.4061 -3.7446
# 5 9.8885 2.5731 13.5029 1.4061 43.2659 5.7355
# 6 5.2798 3.1103 28.4933 -3.7446 5.7355 54.4112
#
#
#
# Elastic Compliance Matrix: (Units=1/GPa)
#
#
# Indices 1 2 3 4 5 6 
#
# 1 0.017675 -0.006253 -0.003099 -0.001101 -0.002728 0.000477
# 2 -0.006253 0.012973 0.001375 -0.000943 0.000386 -0.000961
# 3 -0.003099 0.001375 0.009593 0.000056 -0.001758 -0.004612
# 4 -0.001101 -0.000943 0.000056 0.027706 -0.000893 0.002132
# 5 -0.002728 0.000386 -0.001758 -0.000893 0.024487 -0.001479
# 6 0.000477 -0.000961 -0.004612 0.002132 -0.001479 0.021105
#
#
# Mechanical properties :
#
#
# Convention : Reuss Voigt Hill
#
# Bulk Modulus (GPa) = 41.17177 45.47019 43.32098
# Shear Modulus (GPa) = 36.34035 42.86049 39.60042
#
# Velocity S-wave (km/s) = 4.19172 4.55225 4.37570
# Velocity P-wave (km/s) = 6.58285 7.04382 6.81723
#
# Compressibility (1/GPa) = 0.02428849
#
# Stress axis : x y z
#
# Youngs Moduli (GPa) = 56.57787 77.08195 104.24410
#
# Poissons Ratio (x) = 0.48198 0.32301
# Poissons Ratio (y) = 0.35377 -0.14336
# Poissons Ratio (z) = 0.17531 -0.10601
#
# Static dielectric constant tensor:
#      x y z
#    x 4.127170 -0.834040 -0.015860 
#    y -0.834040 5.269300 0.031410 
#    z -0.015860 0.031410 3.884920 
# 
# 
# High freq. dielectric constant tensor:
#      x y z
#    x 1.809880 -0.006070 0.001130 
#    y -0.006070 1.828640 0.001760 
#    z 0.001130 0.001760 1.834440 
# 
# From -- ./inp_files/223341.got.cif
#   From: 2010.06.25/outbox.cif.g09.slc.cpg/sg2_112_cif.got.tgz:223341.got - 2010.06.27 13:26:56.
