data_PCOD8036045
_publ_section_title
;
Structure prediction by ZEFSAII (Michael W. Deem and Ramdas Pophale) SiO2 
 PCOD8036045
Probable space group: P -1
;
_chemical_formula_sum "Si O2"
_cell_formula_units_Z 14
_cell_length_a 21.813972
_cell_length_b 18.268677
_cell_length_c 9.185759
_cell_angle_alpha 44.379847
_cell_angle_beta 144.297324
_cell_angle_gamma 161.892153
_cell_volume 630.185335
_symmetry_space_group_name_H-M "P -1"
_symmetry_group_IT_number 2
_symmetry_cell_setting 'triclinic'
loop_
_space_group_symop_operation_xyz
x,y,z
-x,-y,-z
loop_
_atom_site_type_symbol
_atom_site_label
_atom_site_fract_x
_atom_site_fract_y
_atom_site_fract_z
Si Si1 0.064041 0.482327 0.777492
Si Si2 0.459491 0.038715 0.499090
Si Si3 0.241164 0.291321 0.878469
Si Si4 0.487915 0.217962 0.696853
Si Si5 0.223121 0.782569 0.904015
Si Si6 0.773984 0.492866 0.556375
Si Si7 0.715276 0.743258 0.669378
O O1 0.102385 0.582490 0.858041
O O2 0.000000 0.500000 0.500000
O O3 0.300545 0.621394 0.004976
O O4 0.830118 0.192800 0.739534
O O5 0.600259 0.275872 0.413173
O O6 0.500000 0.000000 0.500000
O O7 0.545586 0.058753 0.787088
O O8 0.158984 0.333592 0.620636
O O9 0.500000 0.500000 0.000000
O O10 0.288597 0.326976 0.090989
O O11 0.999679 0.999058 0.787065
O O12 0.627176 0.367749 0.601966
O O13 0.339526 0.185058 0.507024
O O14 0.309420 0.954866 0.718464
O O15 0.024849 0.649126 0.828414
O O16 0.500000 0.500000 0.500000
#
# Coordination Sequence:
#
# PCOD8036045 Si02
#       7
#     2   2   2   2   2   2   2
#     4  12  24  41  67 100 141 186 233 273 335 418
#     4  12  24  41  66 101 138 183 233 276 334 413
#     4  11  25  50  76 102 137 183 238 296 361 421
#     4  12  24  45  71 100 139 187 227 281 355 410
#     4  12  24  45  66  98 149 184 226 285 337 412
#     4  12  24  44  73  99 138 188 227 282 351 412
#     4  11  27  49  75 105 139 179 238 303 357 421
#
# _framework density 22.215686000000002
#
# number of rings (size 3 to 8) (size 9 to 14) (size 15 to 20)
#    0.000    0.286    7.143    2.571    0.000    4.000 
#    2.571    0.000    0.000    0.000    0.000    0.000 
#    0.000    0.000    0.000    0.000    0.000    0.000 
#
# Total GULP energy -173473.527240 kJ/mol
# GULP energy per Si atom -12390.966231 kJ/mol
# Density = 2.216512 g / cm^3
# Si number density = 22.215686 Si / 1000 Ang^3
#
#
#
# Elastic Constant Matrix: (Units=GPa)
#
#
# Indices 1 2 3 4 5 6 
#
# 1 70.9086 34.6160 29.1759 8.6446 -3.2528 7.2663
# 2 34.6160 149.8692 36.3798 18.3401 -10.8610 5.0373
# 3 29.1759 36.3798 92.4713 9.8250 -10.2062 -4.1026
# 4 8.6446 18.3401 9.8250 51.1397 3.6518 3.6972
# 5 -3.2528 -10.8610 -10.2062 3.6518 38.0070 8.0742
# 6 7.2663 5.0373 -4.1026 3.6972 8.0742 37.3825
#
#
#
# Elastic Compliance Matrix: (Units=1/GPa)
#
#
# Indices 1 2 3 4 5 6 
#
# 1 0.017817 -0.002749 -0.004561 -0.000917 0.000363 -0.003581
# 2 -0.002749 0.008230 -0.001961 -0.002181 0.002014 -0.001009
# 3 -0.004561 -0.001961 0.013539 -0.001458 0.002342 0.002275
# 4 -0.000917 -0.002181 -0.001458 0.021060 -0.002872 -0.001150
# 5 0.000363 0.002014 0.002342 -0.002872 0.029116 -0.006090
# 6 -0.003581 -0.001009 0.002275 -0.001150 -0.006090 0.029261
#
#
# Mechanical properties :
#
#
# Convention : Reuss Voigt Hill
#
# Bulk Modulus (GPa) = 47.52190 57.06582 52.29386
# Shear Modulus (GPa) = 34.58252 39.51099 37.04675
#
# Velocity S-wave (km/s) = 3.94975 4.22182 4.08805
# Velocity P-wave (km/s) = 6.49910 7.03619 6.77297
#
# Compressibility (1/GPa) = 0.02104293
#
# Stress axis : x y z
#
# Youngs Moduli (GPa) = 56.12644 121.50171 73.85909
#
# Poissons Ratio (x) = 0.33403 0.33689
# Poissons Ratio (y) = 0.15430 0.14486
# Poissons Ratio (z) = 0.25601 0.23830
#
# Static dielectric constant tensor:
#      x y z
#    x 3.880540 -0.261900 -0.183480 
#    y -0.261900 7.138170 2.400890 
#    z -0.183480 2.400890 6.290140 
# 
# 
# High freq. dielectric constant tensor:
#      x y z
#    x 1.851040 0.015740 0.006340 
#    y 0.015740 1.901540 0.008190 
#    z 0.006340 0.008190 1.881230 
# 
# From -- ./inp_files/348371.got.cif
#   From: 2010.06.25/outbox.cif.g09.slc.cpg/sg2_175_cif.got.tgz:348371.got - 2010.06.27 13:26:56.
