data_PCOD8036957
_publ_section_title
;
Structure prediction by ZEFSAII (Michael W. Deem and Ramdas Pophale) SiO2 
 PCOD8036957
Probable space group: P -1
;
_chemical_formula_sum "Si O2"
_cell_formula_units_Z 10
_cell_length_a 8.555096
_cell_length_b 6.789878
_cell_length_c 12.026142
_cell_angle_alpha 97.736256
_cell_angle_beta 127.606011
_cell_angle_gamma 57.707280
_cell_volume 448.316585
_symmetry_space_group_name_H-M "P -1"
_symmetry_group_IT_number 2
_symmetry_cell_setting 'triclinic'
loop_
_space_group_symop_operation_xyz
x,y,z
-x,-y,-z
loop_
_atom_site_type_symbol
_atom_site_label
_atom_site_fract_x
_atom_site_fract_y
_atom_site_fract_z
Si Si1 0.600254 0.431954 0.160178
Si Si2 0.183953 0.297073 0.648537
Si Si3 0.187087 0.525942 0.150347
Si Si4 0.456696 0.870823 0.569068
Si Si5 0.967991 0.124798 0.708794
O O1 0.639697 0.635035 0.227305
O O2 0.407358 0.448319 0.159892
O O3 0.500000 0.500000 0.000000
O O4 0.847350 0.163809 0.248144
O O5 0.000000 0.500000 0.500000
O O6 0.050805 0.273658 0.692020
O O7 0.335159 0.040644 0.635051
O O8 0.288245 0.358516 0.292549
O O9 0.056868 0.799061 0.165251
O O10 0.000000 0.500000 0.000000
O O11 0.290657 0.789087 0.445682
O O12 0.500000 0.000000 0.500000
#
# Coordination Sequence:
#
# PCOD8036957 Si02
#       5
#     2   2   2   2   2
#     4  12  28  47  74 107 144 191 237 296 363 421
#     4  12  23  45  76 104 140 186 241 295 355 421
#     4  12  28  47  73 108 147 188 240 296 358 427
#     4  12  25  46  75 107 145 190 239 296 357 426
#     4  12  26  49  75 104 146 187 243 297 353 429
#
# _framework density 22.305665999999999
#
# number of rings (size 3 to 8) (size 9 to 14) (size 15 to 20)
#    0.000    0.000    4.000    6.000    5.600    2.400 
#    0.000    0.000    0.000    0.000    0.000    0.000 
#    0.000    0.000    0.000    0.000    0.000    0.000 
#
# Total GULP energy -124046.721643 kJ/mol
# GULP energy per Si atom -12404.672164 kJ/mol
# Density = 2.225490 g / cm^3
# Si number density = 22.305666 Si / 1000 Ang^3
#
#
#
# Elastic Constant Matrix: (Units=GPa)
#
#
# Indices 1 2 3 4 5 6 
#
# 1 121.3326 36.1135 54.7874 6.6551 3.7528 2.5928
# 2 36.1135 87.4194 37.2705 29.6917 7.2872 -9.0705
# 3 54.7874 37.2705 154.4252 28.5396 14.3811 12.7430
# 4 6.6551 29.6917 28.5396 52.5975 9.0788 -6.2120
# 5 3.7528 7.2872 14.3811 9.0788 44.0677 7.2485
# 6 2.5928 -9.0705 12.7430 -6.2120 7.2485 46.6806
#
#
#
# Elastic Compliance Matrix: (Units=1/GPa)
#
#
# Indices 1 2 3 4 5 6 
#
# 1 0.010793 -0.003952 -0.003378 0.002626 0.000320 -0.000145
# 2 -0.003952 0.016627 -0.001358 -0.007651 -0.000877 0.002939
# 3 -0.003378 -0.001358 0.009063 -0.003861 -0.001176 -0.002881
# 4 0.002626 -0.007651 -0.003861 0.026134 -0.003653 0.003466
# 5 0.000320 -0.000877 -0.001176 -0.003653 0.024634 -0.004178
# 6 -0.000145 0.002939 -0.002881 0.003466 -0.004178 0.023898
#
#
# Mechanical properties :
#
#
# Convention : Reuss Voigt Hill
#
# Bulk Modulus (GPa) = 52.33809 68.83558 60.58683
# Shear Modulus (GPa) = 37.06639 44.33623 40.70131
#
# Velocity S-wave (km/s) = 4.08088 4.46316 4.27629
# Velocity P-wave (km/s) = 6.76164 7.58201 7.18354
#
# Compressibility (1/GPa) = 0.01910654
#
# Stress axis : x y z
#
# Youngs Moduli (GPa) = 92.65502 60.14250 110.34195
#
# Poissons Ratio (x) = 0.23767 0.37278
# Poissons Ratio (y) = 0.36616 0.14982
# Poissons Ratio (z) = 0.31303 0.08166
#
# Static dielectric constant tensor:
#      x y z
#    x 4.269500 -0.089420 0.025090 
#    y -0.089420 -41.476400 -14.924350 
#    z 0.025090 -14.924350 -0.776620 
# 
# 
# High freq. dielectric constant tensor:
#      x y z
#    x 1.894070 -0.007760 -0.002440 
#    y -0.007760 1.896340 0.011020 
#    z -0.002440 0.011020 1.887150 
# 
# From -- ./inp_files/15110.got.cif
#   From: 2010.06.25/outbox.cif.g09.slc.cpg/sg2_8_cif.got.tgz:15110.got - 2010.06.27 13:26:56.
