data_PCOD8036187
_publ_section_title
;
Structure prediction by ZEFSAII (Michael W. Deem and Ramdas Pophale) SiO2 
 PCOD8036187
Probable space group: P -1
;
_chemical_formula_sum "Si O2"
_cell_formula_units_Z 16
_cell_length_a 9.190263
_cell_length_b 21.250159
_cell_length_c 18.294288
_cell_angle_alpha 161.268102
_cell_angle_beta 137.614939
_cell_angle_gamma 39.543919
_cell_volume 729.882321
_symmetry_space_group_name_H-M "P -1"
_symmetry_group_IT_number 2
_symmetry_cell_setting 'triclinic'
loop_
_space_group_symop_operation_xyz
x,y,z
-x,-y,-z
loop_
_atom_site_type_symbol
_atom_site_label
_atom_site_fract_x
_atom_site_fract_y
_atom_site_fract_z
Si Si1 0.927703 0.210016 0.658179
Si Si2 0.718646 0.640177 0.127729
Si Si3 0.079731 0.011080 0.156789
Si Si4 0.390996 0.540048 0.424108
Si Si5 0.357351 0.885040 0.980589
Si Si6 0.798245 0.250419 0.957146
Si Si7 0.753312 0.067858 0.295483
Si Si8 0.107959 0.381853 0.669293
O O1 0.774675 0.192536 0.513080
O O2 0.158143 0.249802 0.761716
O O3 0.775762 0.399565 0.860775
O O4 0.000000 0.000000 0.500000
O O5 0.449835 0.769562 0.170396
O O6 0.799646 0.656427 0.257145
O O7 0.141073 0.162696 0.403059
O O8 0.228468 0.010587 0.140202
O O9 0.140918 0.791583 0.980420
O O10 0.813046 0.079955 0.113323
O O11 0.500000 0.500000 0.500000
O O12 0.348370 0.768600 0.627805
O O13 0.158282 0.486673 0.282289
O O14 0.558518 0.359727 0.236808
O O15 0.572560 0.951013 0.111447
O O16 0.770507 0.487286 0.188949
O O17 0.994967 0.089521 0.803834
#
# Coordination Sequence:
#
# PCOD8036187 Si02
#       8
#     2   2   2   2   2   2   2   2
#     4  11  26  46  71 103 141 188 230 288 352 410
#     4  11  27  46  69 103 144 177 240 290 340 415
#     4  11  27  46  69 107 139 180 232 286 356 406
#     4  12  24  45  73 102 140 185 231 290 344 415
#     4  11  27  46  70 104 144 177 229 294 342 423
#     4  12  26  43  73 103 139 185 235 286 339 418
#     4  12  26  45  74 105 137 188 235 278 360 413
#     4  12  24  46  68 102 138 184 232 283 349 413
#
# _framework density 21.921341999999999
#
# number of rings (size 3 to 8) (size 9 to 14) (size 15 to 20)
#    0.000    0.500    5.000    1.125    7.000    3.000 
#    0.000    2.500    0.000    0.000    0.000    0.000 
#    0.000    0.000    0.000    0.000    0.000    0.000 
#
# Total GULP energy -198400.639282 kJ/mol
# GULP energy per Si atom -12400.039955 kJ/mol
# Density = 2.187145 g / cm^3
# Si number density = 21.921342 Si / 1000 Ang^3
#
#
#
# Elastic Constant Matrix: (Units=GPa)
#
#
# Indices 1 2 3 4 5 6 
#
# 1 112.9794 66.9434 55.7564 0.8786 5.3265 -7.6928
# 2 66.9434 133.5692 44.6888 -4.6093 -1.3857 -8.5065
# 3 55.7564 44.6888 106.4139 2.7431 -4.6830 -1.9559
# 4 0.8786 -4.6093 2.7431 30.7003 4.4404 5.6819
# 5 5.3265 -1.3857 -4.6830 4.4404 33.9998 -0.6264
# 6 -7.6928 -8.5065 -1.9559 5.6819 -0.6264 47.0480
#
#
#
# Elastic Compliance Matrix: (Units=1/GPa)
#
#
# Indices 1 2 3 4 5 6 
#
# 1 0.015325 -0.005737 -0.005730 -0.000538 -0.003331 0.001251
# 2 -0.005737 0.011019 -0.001610 0.001682 0.000921 0.000796
# 3 -0.005730 -0.001610 0.013234 -0.001590 0.002854 -0.000448
# 4 -0.000538 0.001682 -0.001590 0.034406 -0.004635 -0.004067
# 5 -0.003331 0.000921 0.002854 -0.004635 0.030983 0.000713
# 6 0.001251 0.000796 -0.000448 -0.004067 0.000713 0.022085
#
#
# Mechanical properties :
#
#
# Convention : Reuss Voigt Hill
#
# Bulk Modulus (GPa) = 74.49164 76.41552 75.45358
# Shear Modulus (GPa) = 31.70991 34.72121 33.21556
#
# Velocity S-wave (km/s) = 3.80746 3.98414 3.89680
# Velocity P-wave (km/s) = 7.30644 7.48994 7.39876
#
# Compressibility (1/GPa) = 0.01342433
#
# Stress axis : x y z
#
# Youngs Moduli (GPa) = 65.25460 90.75318 75.56351
#
# Poissons Ratio (x) = 0.52064 0.43297
# Poissons Ratio (y) = 0.37436 0.12164
# Poissons Ratio (z) = 0.37391 0.14609
#
# Static dielectric constant tensor:
#      x y z
#    x 4.023430 -0.004690 0.035250 
#    y -0.004690 4.018890 0.008710 
#    z 0.035250 0.008710 4.011630 
# 
# 
# High freq. dielectric constant tensor:
#      x y z
#    x 1.868230 -0.001090 -0.000150 
#    y -0.001090 1.877890 0.000740 
#    z -0.000150 0.000740 1.865210 
# 
# From -- ./inp_files/562997.got.cif
#   From: 2010.06.25/outbox.cif.g09.slc.cpg/sg2_282_cif.got.tgz:562997.got - 2010.06.27 13:26:56.
