data_PCOD8036447
_publ_section_title
;
Structure prediction by ZEFSAII (Michael W. Deem and Ramdas Pophale) SiO2 
 PCOD8036447
Probable space group: P -1
;
_chemical_formula_sum "Si O2"
_cell_formula_units_Z 12
_cell_length_a 19.472756
_cell_length_b 4.946012
_cell_length_c 5.037346
_cell_angle_alpha 74.630767
_cell_angle_beta 108.435286
_cell_angle_gamma 84.608792
_cell_volume 435.340646
_symmetry_space_group_name_H-M "P -1"
_symmetry_group_IT_number 2
_symmetry_cell_setting 'triclinic'
loop_
_space_group_symop_operation_xyz
x,y,z
-x,-y,-z
loop_
_atom_site_type_symbol
_atom_site_label
_atom_site_fract_x
_atom_site_fract_y
_atom_site_fract_z
Si Si1 0.437177 0.926954 0.635630
Si Si2 0.589324 0.656837 0.030516
Si Si3 0.710908 0.002408 0.832812
Si Si4 0.850461 0.570836 0.106980
Si Si5 0.260643 0.671865 0.709399
Si Si6 0.051972 0.968298 0.821962
O O1 0.525865 0.809442 0.694674
O O2 0.377796 0.003925 0.299661
O O3 0.417617 0.673424 0.861173
O O4 0.428916 0.198043 0.746880
O O5 0.677423 0.623280 0.065279
O O6 0.721849 0.260400 0.586353
O O7 0.730509 0.078703 0.137131
O O8 0.772107 0.740104 0.852161
O O9 0.822625 0.390902 0.363389
O O10 0.894893 0.342727 0.015137
O O11 0.901176 0.784292 0.210862
O O12 0.000000 0.000000 0.500000
O O13 0.000000 0.000000 0.000000
#
# Coordination Sequence:
#
# PCOD8036447 Si02
#       6
#     2   2   2   2   2   2
#     4   9  20  40  66  99 145 197 250 303 357 421
#     4   9  20  40  66  99 145 197 250 303 357 421
#     4  11  27  46  75 111 151 198 248 306 367 427
#     4  12  28  52  81 114 152 190 244 300 371 440
#     4  11  27  46  75 111 151 198 248 306 367 427
#     4  12  30  54  82 112 149 192 237 296 370 454
#
# _framework density 27.564619
#
# number of rings (size 3 to 8) (size 9 to 14) (size 15 to 20)
#    0.000    1.333    1.667    1.000   11.667    3.333 
#    0.000    0.833    0.000    0.000    0.000    0.000 
#    0.000    0.000    0.000    0.000    0.000    0.000 
#
# Total GULP energy -148801.190013 kJ/mol
# GULP energy per Si atom -12400.099168 kJ/mol
# Density = 2.750188 g / cm^3
# Si number density = 27.564619 Si / 1000 Ang^3
#
#
#
# Elastic Constant Matrix: (Units=GPa)
#
#
# Indices 1 2 3 4 5 6 
#
# 1 242.9279 77.0336 58.8808 5.4367 39.9471 -1.4738
# 2 77.0336 156.2103 27.3453 -1.4057 17.3184 -11.4416
# 3 58.8808 27.3453 81.5073 1.8600 0.5445 -1.5145
# 4 5.4367 -1.4057 1.8600 41.2838 -5.3923 14.5592
# 5 39.9471 17.3184 0.5445 -5.3923 33.1640 3.6820
# 6 -1.4738 -11.4416 -1.5145 14.5592 3.6820 60.1686
#
#
#
# Elastic Compliance Matrix: (Units=1/GPa)
#
#
# Indices 1 2 3 4 5 6 
#
# 1 0.007132 -0.001824 -0.004426 -0.002096 -0.007985 0.000712
# 2 -0.001824 0.007875 -0.001274 -0.000282 -0.002121 0.001619
# 3 -0.004426 -0.001274 0.015827 0.000777 0.005918 -0.000502
# 4 -0.002096 -0.000282 0.000777 0.028108 0.008049 -0.007379
# 5 -0.007985 -0.002121 0.005918 0.008049 0.042647 -0.005007
# 6 0.000712 0.001619 -0.000502 -0.007379 -0.005007 0.019025
#
#
# Mechanical properties :
#
#
# Convention : Reuss Voigt Hill
#
# Bulk Modulus (GPa) = 63.34341 89.68500 76.51420
# Shear Modulus (GPa) = 35.48068 48.08232 41.78150
#
# Velocity S-wave (km/s) = 3.59162 4.18107 3.89751
# Velocity P-wave (km/s) = 6.34268 7.47766 6.93343
#
# Compressibility (1/GPa) = 0.01578696
#
# Stress axis : x y z
#
# Youngs Moduli (GPa) = 140.21720 126.98320 63.18377
#
# Poissons Ratio (x) = 0.23157 0.27964
# Poissons Ratio (y) = 0.25570 0.08050
# Poissons Ratio (z) = 0.62057 0.16178
#
# Static dielectric constant tensor:
#      x y z
#    x 6.148600 0.228990 0.196090 
#    y 0.228990 5.189270 -0.660510 
#    z 0.196090 -0.660510 4.973840 
# 
# 
# High freq. dielectric constant tensor:
#      x y z
#    x 2.168250 0.019630 0.003410 
#    y 0.019630 2.132990 -0.038170 
#    z 0.003410 -0.038170 2.107250 
# 
# From -- ./inp_files/114610.got.cif
#   From: 2010.06.25/outbox.cif.g09.slc.cpg/sg2_58_cif.got.tgz:114610.got - 2010.06.27 13:26:56.
