data_PCOD8036755
_publ_section_title
;
Structure prediction by ZEFSAII (Michael W. Deem and Ramdas Pophale) SiO2 
 PCOD8036755
Probable space group: P -1
;
_chemical_formula_sum "Si O2"
_cell_formula_units_Z 16
_cell_length_a 18.623586
_cell_length_b 9.593974
_cell_length_c 21.634868
_cell_angle_alpha 143.857272
_cell_angle_beta 19.609070
_cell_angle_gamma 145.400734
_cell_volume 726.091435
_symmetry_space_group_name_H-M "P -1"
_symmetry_group_IT_number 2
_symmetry_cell_setting 'triclinic'
loop_
_space_group_symop_operation_xyz
x,y,z
-x,-y,-z
loop_
_atom_site_type_symbol
_atom_site_label
_atom_site_fract_x
_atom_site_fract_y
_atom_site_fract_z
Si Si1 0.737153 0.495749 0.783445
Si Si2 0.277779 0.774095 0.087715
Si Si3 0.509633 0.370590 0.723031
Si Si4 0.402361 0.946169 0.348224
Si Si5 0.865165 0.993065 0.169386
Si Si6 0.038190 0.505421 0.657938
Si Si7 0.949139 0.007682 0.754685
Si Si8 0.883168 0.216406 0.009869
O O1 0.708438 0.225244 0.681986
O O2 0.836956 0.710204 0.727124
O O3 0.905032 0.565076 0.729736
O O4 0.500000 0.500000 0.000000
O O5 0.122454 0.731390 0.259703
O O6 0.128979 0.829458 0.173518
O O7 0.345949 0.529505 0.929686
O O8 0.500000 0.000000 0.000000
O O9 0.556759 0.234021 0.696838
O O10 0.393462 0.161232 0.691301
O O11 0.740501 0.546705 0.567876
O O12 0.221558 0.083614 0.563044
O O13 0.633495 0.161071 0.221243
O O14 0.953858 0.848881 0.097487
O O15 0.885141 0.266357 0.274684
O O16 0.000000 0.000000 0.000000
O O17 0.855568 0.051175 0.912315
O O18 0.000000 0.500000 0.000000
#
# Coordination Sequence:
#
# PCOD8036755 Si02
#       8
#     2   2   2   2   2   2   2   2
#     4  12  22  45  76 102 140 182 238 289 344 420
#     4  12  28  45  67 105 151 187 225 290 360 414
#     4  12  25  46  77 104 138 191 239 289 350 418
#     4  12  25  45  77 107 137 186 241 291 346 421
#     4  12  22  46  74 100 141 182 240 294 346 413
#     4  12  26  46  73 105 135 190 241 286 346 426
#     4  12  26  45  70 107 142 183 234 293 354 411
#     4  12  26  45  69 104 146 188 230 288 360 417
#
# _framework density 22.035793000000002
#
# number of rings (size 3 to 8) (size 9 to 14) (size 15 to 20)
#    0.000    0.000    6.250    3.750    1.750    3.000 
#    0.000    0.000    0.000    0.000    0.000    0.000 
#    0.000    0.000    0.000    0.000    0.000    0.000 
#
# Total GULP energy -198453.549131 kJ/mol
# GULP energy per Si atom -12403.346821 kJ/mol
# Density = 2.198564 g / cm^3
# Si number density = 22.035793 Si / 1000 Ang^3
#
#
#
# Elastic Constant Matrix: (Units=GPa)
#
#
# Indices 1 2 3 4 5 6 
#
# 1 102.1882 36.5290 35.5749 1.5181 -12.1665 -16.6638
# 2 36.5290 108.9023 34.9203 -26.4595 -1.5096 -11.6321
# 3 35.5749 34.9203 118.3979 -32.4158 -8.5894 -20.9442
# 4 1.5181 -26.4595 -32.4158 44.3222 -5.5657 -0.2174
# 5 -12.1665 -1.5096 -8.5894 -5.5657 32.8005 -0.6475
# 6 -16.6638 -11.6321 -20.9442 -0.2174 -0.6475 45.9937
#
#
#
# Elastic Compliance Matrix: (Units=1/GPa)
#
#
# Indices 1 2 3 4 5 6 
#
# 1 0.013371 -0.004353 -0.003596 -0.005305 0.002959 0.002123
# 2 -0.004353 0.012718 0.000016 0.007804 0.000332 0.001688
# 3 -0.003596 0.000016 0.013622 0.010639 0.004138 0.005013
# 4 -0.005305 0.007804 0.010639 0.036140 0.007412 0.005172
# 5 0.002959 0.000332 0.004138 0.007412 0.034012 0.003555
# 6 0.002123 0.001688 0.005013 0.005172 0.003555 0.025295
#
#
# Mechanical properties :
#
#
# Convention : Reuss Voigt Hill
#
# Bulk Modulus (GPa) = 41.93651 60.39299 51.16475
# Shear Modulus (GPa) = 31.45198 39.45423 35.45310
#
# Velocity S-wave (km/s) = 3.78208 4.23597 4.01545
# Velocity P-wave (km/s) = 6.17613 7.16874 6.69087
#
# Compressibility (1/GPa) = 0.02384557
#
# Stress axis : x y z
#
# Youngs Moduli (GPa) = 74.78830 78.62571 73.41229
#
# Poissons Ratio (x) = 0.34226 0.26398
# Poissons Ratio (y) = 0.32556 -0.00118
# Poissons Ratio (z) = 0.26892 -0.00126
#
# Static dielectric constant tensor:
#      x y z
#    x 4.006870 0.130460 0.103110 
#    y 0.130460 3.980880 -0.222680 
#    z 0.103110 -0.222680 4.169240 
# 
# 
# High freq. dielectric constant tensor:
#      x y z
#    x 1.877520 0.003770 -0.000070 
#    y 0.003770 1.865730 -0.018580 
#    z -0.000070 -0.018580 1.877690 
# 
# From -- ./inp_files/447129.got.cif
#   From: 2010.06.25/outbox.cif.g09.slc.cpg/sg2_224_cif.got.tgz:447129.got - 2010.06.27 13:26:56.
