data_PCOD8036492
_publ_section_title
;
Structure prediction by ZEFSAII (Michael W. Deem and Ramdas Pophale) SiO2 
 PCOD8036492
Probable space group: P -1
;
_chemical_formula_sum "Si O2"
_cell_formula_units_Z 16
_cell_length_a 11.807235
_cell_length_b 11.124974
_cell_length_c 6.771232
_cell_angle_alpha 78.229657
_cell_angle_beta 126.556455
_cell_angle_gamma 100.671805
_cell_volume 697.137743
_symmetry_space_group_name_H-M "P -1"
_symmetry_group_IT_number 2
_symmetry_cell_setting 'triclinic'
loop_
_space_group_symop_operation_xyz
x,y,z
-x,-y,-z
loop_
_atom_site_type_symbol
_atom_site_label
_atom_site_fract_x
_atom_site_fract_y
_atom_site_fract_z
Si Si1 0.552555 0.381349 0.697375
Si Si2 0.107077 0.770080 0.344417
Si Si3 0.738265 0.659883 0.450162
Si Si4 0.396545 0.829135 0.462671
Si Si5 0.922365 0.597055 0.000197
Si Si6 0.216783 0.541630 0.759006
Si Si7 0.581960 0.965107 0.900421
Si Si8 0.891923 0.894620 0.334959
O O1 0.500000 0.500000 0.500000
O O2 0.421857 0.303141 0.699392
O O3 0.613090 0.304947 0.604073
O O4 0.663974 0.415920 0.972577
O O5 0.245933 0.854597 0.395549
O O6 0.151640 0.664662 0.576127
O O7 0.983557 0.848738 0.267703
O O8 0.034981 0.714609 0.089282
O O9 0.781580 0.621984 0.728463
O O10 0.732162 0.541539 0.338896
O O11 0.844228 0.776339 0.460152
O O12 0.440153 0.924150 0.305875
O O13 0.510349 0.842176 0.757530
O O14 0.896905 0.548799 0.213047
O O15 0.000000 0.500000 0.000000
O O16 0.500000 0.000000 0.000000
O O17 0.748296 0.953246 0.104678
O O18 0.000000 0.000000 0.500000
#
# Coordination Sequence:
#
# PCOD8036492 Si02
#       8
#     2   2   2   2   2   2   2   2
#     4  12  26  45  77 113 152 194 249 304 379 455
#     4  12  26  46  75 110 148 195 245 303 374 448
#     4  12  26  46  72 109 151 198 249 312 371 446
#     4  11  28  49  77 107 147 200 247 310 372 434
#     4  12  23  44  70 104 153 193 238 297 377 448
#     4  12  25  47  72 109 156 198 240 303 383 451
#     4  11  27  55  78 104 147 197 256 311 371 429
#     4  12  29  47  77 108 145 196 255 308 365 441
#
# _framework density 22.950989
#
# number of rings (size 3 to 8) (size 9 to 14) (size 15 to 20)
#    0.000    0.250    3.750    4.500   10.500    1.500 
#    0.000    0.000    0.000    0.000    0.000    0.000 
#    0.000    0.000    0.000    0.000    0.000    0.000 
#
# Total GULP energy -198296.678720 kJ/mol
# GULP energy per Si atom -12393.542420 kJ/mol
# Density = 2.289875 g / cm^3
# Si number density = 22.950989 Si / 1000 Ang^3
#
#
#
# Elastic Constant Matrix: (Units=GPa)
#
#
# Indices 1 2 3 4 5 6 
#
# 1 153.2664 33.9158 45.0999 14.6117 9.3309 -2.4120
# 2 33.9158 88.8273 46.4581 25.5754 0.1579 -9.1411
# 3 45.0999 46.4581 153.4914 28.9969 10.2604 -8.5805
# 4 14.6117 25.5754 28.9969 38.5590 9.5657 5.4353
# 5 9.3309 0.1579 10.2604 9.5657 41.8417 -1.4599
# 6 -2.4120 -9.1411 -8.5805 5.4353 -1.4599 40.9576
#
#
#
# Elastic Compliance Matrix: (Units=1/GPa)
#
#
# Indices 1 2 3 4 5 6 
#
# 1 0.007509 -0.002148 -0.001510 0.000104 -0.001334 -0.000415
# 2 -0.002148 0.016697 -0.002543 -0.009836 0.003445 0.004495
# 3 -0.001510 -0.002543 0.008693 -0.004337 -0.000734 0.001714
# 4 0.000104 -0.009836 -0.004337 0.038899 -0.008114 -0.008549
# 5 -0.001334 0.003445 -0.000734 -0.008114 0.026308 0.002551
# 6 -0.000415 0.004495 0.001714 -0.008549 0.002551 0.026979
#
#
# Mechanical properties :
#
#
# Convention : Reuss Voigt Hill
#
# Bulk Modulus (GPa) = 48.78879 71.83697 60.31288
# Shear Modulus (GPa) = 34.64568 42.27909 38.46239
#
# Velocity S-wave (km/s) = 3.88951 4.29668 4.09815
# Velocity P-wave (km/s) = 6.44011 7.48220 6.98063
#
# Compressibility (1/GPa) = 0.02049651
#
# Stress axis : x y z
#
# Youngs Moduli (GPa) = 133.17479 59.89242 115.03772
#
# Poissons Ratio (x) = 0.12862 0.17370
# Poissons Ratio (y) = 0.28600 0.29259
# Poissons Ratio (z) = 0.20109 0.15233
#
# Static dielectric constant tensor:
#      x y z
#    x 4.467840 0.013720 0.163380 
#    y 0.013720 4.281470 0.144290 
#    z 0.163380 0.144290 4.205810 
# 
# 
# High freq. dielectric constant tensor:
#      x y z
#    x 1.925070 0.007360 0.004850 
#    y 0.007360 1.906470 0.014610 
#    z 0.004850 0.014610 1.920430 
# 
# From -- ./inp_files/70895.got.cif
#   From: 2010.06.25/outbox.cif.g09.slc.cpg/sg2_36_cif.got.tgz:70895.got - 2010.06.27 13:26:56.
