data_PCOD8036324
_publ_section_title
;
Structure prediction by ZEFSAII (Michael W. Deem and Ramdas Pophale) SiO2 
 PCOD8036324
Probable space group: P -1
;
_chemical_formula_sum "Si O2"
_cell_formula_units_Z 14
_cell_length_a 12.856999
_cell_length_b 9.027491
_cell_length_c 14.839054
_cell_angle_alpha 51.804280
_cell_angle_beta 151.297024
_cell_angle_gamma 120.657958
_cell_volume 647.671738
_symmetry_space_group_name_H-M "P -1"
_symmetry_group_IT_number 2
_symmetry_cell_setting 'triclinic'
loop_
_space_group_symop_operation_xyz
x,y,z
-x,-y,-z
loop_
_atom_site_type_symbol
_atom_site_label
_atom_site_fract_x
_atom_site_fract_y
_atom_site_fract_z
Si Si1 0.465437 0.581085 0.729130
Si Si2 0.411314 0.191997 0.090722
Si Si3 0.453456 0.224311 0.614289
Si Si4 0.739774 0.542726 0.781109
Si Si5 0.977935 0.793301 0.599239
Si Si6 0.421535 0.808912 0.975299
Si Si7 0.998995 0.437679 0.625596
O O1 0.519652 0.669465 0.831998
O O2 0.651478 0.609915 0.786812
O O3 0.225697 0.654742 0.484631
O O4 0.430238 0.360370 0.803299
O O5 0.574223 0.192419 0.129901
O O6 0.419568 0.982774 0.218891
O O7 0.174640 0.264054 0.847014
O O8 0.632618 0.358118 0.734174
O O9 0.339659 0.285992 0.410354
O O10 0.260377 0.227607 0.537863
O O11 0.000000 0.500000 0.000000
O O12 0.040169 0.623818 0.641935
O O13 0.172547 0.777327 0.827774
O O14 0.000000 0.000000 0.500000
O O15 0.500000 0.000000 0.000000
O O16 0.000000 0.500000 0.500000
#
# Coordination Sequence:
#
# PCOD8036324 Si02
#       7
#     2   2   2   2   2   2   2
#     4  12  24  44  69 101 144 190 235 293 363 419
#     4  12  26  42  68 108 147 178 234 297 362 430
#     4  11  26  48  72 106 140 186 247 298 348 427
#     4  11  26  50  78  98 137 193 252 295 347 426
#     4  12  23  42  70 104 143 183 233 292 353 427
#     4  12  23  39  67 104 146 187 234 285 352 428
#     4  12  25  42  68 105 149 190 223 285 369 428
#
# _framework density 21.61589
#
# number of rings (size 3 to 8) (size 9 to 14) (size 15 to 20)
#    0.000    0.286    5.714    3.857    0.000    1.714 
#    0.000    1.429    0.000    0.000    0.000    0.000 
#    0.000    0.000    0.000    0.000    0.000    0.000 
#
# Total GULP energy -173555.162655 kJ/mol
# GULP energy per Si atom -12396.797333 kJ/mol
# Density = 2.156669 g / cm^3
# Si number density = 21.615890 Si / 1000 Ang^3
#
#
#
# Elastic Constant Matrix: (Units=GPa)
#
#
# Indices 1 2 3 4 5 6 
#
# 1 114.7315 55.8449 49.9625 0.3498 2.7476 -4.2263
# 2 55.8449 101.0620 76.0668 -3.4508 1.7938 -0.8161
# 3 49.9625 76.0668 181.5771 2.3997 9.1563 5.9826
# 4 0.3498 -3.4508 2.3997 51.2102 9.7699 -0.2922
# 5 2.7476 1.7938 9.1563 9.7699 36.8206 3.3955
# 6 -4.2263 -0.8161 5.9826 -0.2922 3.3955 34.9376
#
#
#
# Elastic Compliance Matrix: (Units=1/GPa)
#
#
# Indices 1 2 3 4 5 6 
#
# 1 0.012086 -0.006063 -0.000808 -0.000359 -0.000449 0.001499
# 2 -0.006063 0.017648 -0.005795 0.001390 0.000607 0.000624
# 3 -0.000808 -0.005795 0.008287 -0.000506 -0.001444 -0.001516
# 4 -0.000359 0.001390 -0.000506 0.020697 -0.005479 0.000781
# 5 -0.000449 0.000607 -0.001444 -0.005479 0.029222 -0.002679
# 6 0.001499 0.000624 -0.001516 0.000781 -0.002679 0.029345
#
#
# Mechanical properties :
#
#
# Convention : Reuss Voigt Hill
#
# Bulk Modulus (GPa) = 78.79885 84.56878 81.68382
# Shear Modulus (GPa) = 34.04963 38.96011 36.50487
#
# Velocity S-wave (km/s) = 3.97320 4.25005 4.11396
# Velocity P-wave (km/s) = 7.58826 7.95565 7.77412
#
# Compressibility (1/GPa) = 0.01269054
#
# Stress axis : x y z
#
# Youngs Moduli (GPa) = 82.74210 56.66328 120.67820
#
# Poissons Ratio (x) = 0.34352 0.09748
# Poissons Ratio (y) = 0.50163 0.69928
# Poissons Ratio (z) = 0.06684 0.32834
#
# Static dielectric constant tensor:
#      x y z
#    x 4.110470 0.086170 0.304220 
#    y 0.086170 3.894810 0.116710 
#    z 0.304220 0.116710 4.577560 
# 
# 
# High freq. dielectric constant tensor:
#      x y z
#    x 1.838030 -0.007000 0.005760 
#    y -0.007000 1.849720 0.005850 
#    z 0.005760 0.005850 1.878750 
# 
# From -- ./inp_files/236716.got.cif
#   From: 2010.06.25/outbox.cif.g09.slc.cpg/sg2_119_cif.got.tgz:236716.got - 2010.06.27 13:26:56.
