data_PCOD8036706
_publ_section_title
;
Structure prediction by ZEFSAII (Michael W. Deem and Ramdas Pophale) SiO2 
 PCOD8036706
Probable space group: P -1
;
_chemical_formula_sum "Si O2"
_cell_formula_units_Z 14
_cell_length_a 9.462373
_cell_length_b 20.760797
_cell_length_c 21.191583
_cell_angle_alpha 20.274012
_cell_angle_beta 149.968635
_cell_angle_gamma 150.582903
_cell_volume 678.952341
_symmetry_space_group_name_H-M "P -1"
_symmetry_group_IT_number 2
_symmetry_cell_setting 'triclinic'
loop_
_space_group_symop_operation_xyz
x,y,z
-x,-y,-z
loop_
_atom_site_type_symbol
_atom_site_label
_atom_site_fract_x
_atom_site_fract_y
_atom_site_fract_z
Si Si1 0.158787 0.426499 0.571469
Si Si2 0.232562 0.390197 0.188735
Si Si3 0.211561 0.024126 0.001429
Si Si4 0.102775 0.913588 0.764840
Si Si5 0.148332 0.412862 0.940313
Si Si6 0.803512 0.670946 0.624832
Si Si7 0.108430 0.396156 0.795714
O O1 0.174408 0.207637 0.780884
O O2 0.493950 0.572092 0.560547
O O3 0.000000 0.500000 0.500000
O O4 0.993417 0.441447 0.429213
O O5 0.266484 0.310790 0.344879
O O6 0.540998 0.549263 0.135571
O O7 0.096566 0.207380 0.258208
O O8 0.000000 0.500000 0.000000
O O9 0.547351 0.067863 0.117603
O O10 0.000000 0.000000 0.000000
O O11 0.091955 0.826618 0.095383
O O12 0.053723 0.121505 0.546241
O O13 0.964603 0.812169 0.870805
O O14 0.043518 0.416729 0.824916
O O15 0.017892 0.542063 0.817141
O O16 0.500000 0.500000 0.000000
#
# Coordination Sequence:
#
# PCOD8036706 Si02
#       7
#     2   2   2   2   2   2   2
#     4  12  22  43  70 104 138 173 229 290 341 403
#     4  12  22  45  73 102 136 185 229 290 342 399
#     4  12  23  43  73 103 138 177 226 290 345 404
#     4  12  25  45  73 102 139 183 232 281 349 406
#     4  12  27  50  67  98 147 188 228 283 340 416
#     4  12  24  45  74 101 140 179 234 287 342 410
#     4  12  26  44  72 100 141 182 232 280 348 410
#
# _framework density 20.620004999999999
#
# number of rings (size 3 to 8) (size 9 to 14) (size 15 to 20)
#    0.000    0.000    8.571    1.286    0.000    2.857 
#    5.143    0.000    0.000    0.000    0.000    0.000 
#    0.000    0.000    0.000    0.000    0.000    0.000 
#
# Total GULP energy -173587.603885 kJ/mol
# GULP energy per Si atom -12399.114563 kJ/mol
# Density = 2.057307 g / cm^3
# Si number density = 20.620005 Si / 1000 Ang^3
#
#
#
# Elastic Constant Matrix: (Units=GPa)
#
#
# Indices 1 2 3 4 5 6 
#
# 1 102.8637 32.5403 18.7762 1.6382 -27.6487 -4.4217
# 2 32.5403 123.3208 23.8754 -0.0366 -6.6872 6.1537
# 3 18.7762 23.8754 101.5763 -17.7956 -23.7799 -5.6257
# 4 1.6382 -0.0366 -17.7956 38.9695 3.8739 -1.8884
# 5 -27.6487 -6.6872 -23.7799 3.8739 39.5803 5.1314
# 6 -4.4217 6.1537 -5.6257 -1.8884 5.1314 39.3855
#
#
#
# Elastic Compliance Matrix: (Units=1/GPa)
#
#
# Indices 1 2 3 4 5 6 
#
# 1 0.013055 -0.003040 0.000158 -0.001310 0.008730 0.000763
# 2 -0.003040 0.009362 -0.002259 -0.000835 -0.001563 -0.001963
# 3 0.000158 -0.002259 0.012953 0.005309 0.006785 0.001592
# 4 -0.001310 -0.000835 0.005309 0.028340 -0.000928 0.002221
# 5 0.008730 -0.001563 0.006785 -0.000928 0.035589 -0.002488
# 6 0.000763 -0.001963 0.001592 0.002221 -0.002488 0.026440
#
#
# Mechanical properties :
#
#
# Convention : Reuss Voigt Hill
#
# Bulk Modulus (GPa) = 39.86291 53.12717 46.49504
# Shear Modulus (GPa) = 34.62971 40.42497 37.52734
#
# Velocity S-wave (km/s) = 4.10252 4.43253 4.27071
# Velocity P-wave (km/s) = 6.46645 7.21229 6.84953
#
# Compressibility (1/GPa) = 0.02508598
#
# Stress axis : x y z
#
# Youngs Moduli (GPa) = 76.60041 106.81994 77.19973
#
# Poissons Ratio (x) = 0.32477 -0.01219
# Poissons Ratio (y) = 0.23289 0.17443
# Poissons Ratio (z) = -0.01210 0.24135
#
# Static dielectric constant tensor:
#      x y z
#    x 3.563510 0.123890 -0.370730 
#    y 0.123890 7.828580 0.458370 
#    z -0.370730 0.458370 3.847290 
# 
# 
# High freq. dielectric constant tensor:
#      x y z
#    x 1.798400 0.008820 -0.013550 
#    y 0.008820 1.824630 0.005650 
#    z -0.013550 0.005650 1.818420 
# 
# From -- ./inp_files/183731.got.cif
#   From: 2010.06.25/outbox.cif.g09.slc.cpg/sg2_92_cif.got.tgz:183731.got - 2010.06.27 13:26:56.
