data_PCOD8036686
_publ_section_title
;
Structure prediction by ZEFSAII (Michael W. Deem and Ramdas Pophale) SiO2 
 PCOD8036686
Probable space group: P -1
;
_chemical_formula_sum "Si O2"
_cell_formula_units_Z 14
_cell_length_a 11.886411
_cell_length_b 6.874718
_cell_length_c 12.542910
_cell_angle_alpha 57.883439
_cell_angle_beta 135.707555
_cell_angle_gamma 119.322327
_cell_volume 595.796212
_symmetry_space_group_name_H-M "P -1"
_symmetry_group_IT_number 2
_symmetry_cell_setting 'triclinic'
loop_
_space_group_symop_operation_xyz
x,y,z
-x,-y,-z
loop_
_atom_site_type_symbol
_atom_site_label
_atom_site_fract_x
_atom_site_fract_y
_atom_site_fract_z
Si Si1 0.512676 0.250371 0.881799
Si Si2 0.775321 0.515796 0.317123
Si Si3 0.445064 0.727956 0.344927
Si Si4 0.165383 0.601557 0.843178
Si Si5 0.884226 0.174768 0.828628
Si Si6 0.283083 0.937480 0.465842
Si Si7 0.008482 0.017232 0.624578
O O1 0.372283 0.346999 0.819908
O O2 0.490338 0.237444 0.742641
O O3 0.680412 0.431778 0.970525
O O4 0.500000 0.000000 0.000000
O O5 0.782118 0.378920 0.250871
O O6 0.745904 0.336118 0.446852
O O7 0.939746 0.711370 0.384907
O O8 0.500000 0.500000 0.500000
O O9 0.248902 0.738301 0.207677
O O10 0.530993 0.940672 0.417598
O O11 0.129178 0.847093 0.792517
O O12 0.008827 0.400583 0.808203
O O13 0.771742 0.039519 0.699040
O O14 0.000000 0.000000 0.000000
O O15 0.169687 0.074701 0.420472
O O16 0.000000 0.000000 0.500000
#
# Coordination Sequence:
#
# PCOD8036686 Si02
#       7
#     2   2   2   2   2   2   2
#     4  12  27  47  79 112 152 196 253 323 386 445
#     4  12  24  46  76 115 148 193 249 312 391 454
#     4  12  29  53  76 109 156 210 262 305 382 471
#     4  12  26  46  75 112 156 191 246 318 384 453
#     4  12  30  47  76 111 151 206 257 315 379 450
#     4  12  25  48  78 108 154 198 256 313 379 464
#     4  12  22  42  73 113 149 189 245 306 385 457
#
# _framework density 23.497969999999999
#
# number of rings (size 3 to 8) (size 9 to 14) (size 15 to 20)
#    0.000    0.000    4.286    5.571    8.000    0.571 
#    0.000    0.000    0.000    0.000    0.000    0.000 
#    0.000    0.000    0.000    0.000    0.000    0.000 
#
# Total GULP energy -173551.321946 kJ/mol
# GULP energy per Si atom -12396.522996 kJ/mol
# Density = 2.344449 g / cm^3
# Si number density = 23.497970 Si / 1000 Ang^3
#
#
#
# Elastic Constant Matrix: (Units=GPa)
#
#
# Indices 1 2 3 4 5 6 
#
# 1 97.7839 24.4820 27.0108 -12.7104 10.6581 -0.3319
# 2 24.4820 102.8427 42.5273 -6.0250 -0.6332 0.4651
# 3 27.0108 42.5273 115.5226 -4.7837 -2.4394 7.8392
# 4 -12.7104 -6.0250 -4.7837 56.2869 -2.6487 9.9681
# 5 10.6581 -0.6332 -2.4394 -2.6487 43.0947 1.7469
# 6 -0.3319 0.4651 7.8392 9.9681 1.7469 35.9425
#
#
#
# Elastic Compliance Matrix: (Units=1/GPa)
#
#
# Indices 1 2 3 4 5 6 
#
# 1 0.011866 -0.001861 -0.002072 0.002141 -0.002953 0.000135
# 2 -0.001861 0.011815 -0.003925 0.000434 0.000416 0.000545
# 3 -0.002072 -0.003925 0.010805 0.000535 0.001202 -0.002532
# 4 0.002141 0.000434 0.000535 0.019362 0.000921 -0.005517
# 5 -0.002953 0.000416 0.001202 0.000921 0.024136 -0.001723
# 6 0.000135 0.000545 -0.002532 -0.005517 -0.001723 0.029982
#
#
# Mechanical properties :
#
#
# Convention : Reuss Voigt Hill
#
# Bulk Modulus (GPa) = 53.27655 56.02104 54.64880
# Shear Modulus (GPa) = 38.47996 41.87343 40.17669
#
# Velocity S-wave (km/s) = 4.05110 4.22596 4.13945
# Velocity P-wave (km/s) = 6.67862 6.90682 6.79368
#
# Compressibility (1/GPa) = 0.01876998
#
# Stress axis : x y z
#
# Youngs Moduli (GPa) = 84.27693 84.63800 92.55084
#
# Poissons Ratio (x) = 0.15753 0.19177
# Poissons Ratio (y) = 0.15685 0.36322
# Poissons Ratio (z) = 0.17463 0.33216
#
# Static dielectric constant tensor:
#      x y z
#    x 4.648250 -0.368670 0.448580 
#    y -0.368670 4.948110 -0.303830 
#    z 0.448580 -0.303830 4.467430 
# 
# 
# High freq. dielectric constant tensor:
#      x y z
#    x 1.947950 -0.004950 0.019080 
#    y -0.004950 1.933320 -0.000790 
#    z 0.019080 -0.000790 1.936260 
# 
# From -- ./inp_files/185833.got.cif
#   From: 2010.06.25/outbox.cif.g09.slc.cpg/sg2_93_cif.got.tgz:185833.got - 2010.06.27 13:26:56.
