data_PCOD8036724
_publ_section_title
;
Structure prediction by ZEFSAII (Michael W. Deem and Ramdas Pophale) SiO2 
 PCOD8036724
Probable space group: P -1
;
_chemical_formula_sum "Si O2"
_cell_formula_units_Z 16
_cell_length_a 16.689262
_cell_length_b 20.265098
_cell_length_c 11.420950
_cell_angle_alpha 30.107127
_cell_angle_beta 146.523373
_cell_angle_gamma 159.491753
_cell_volume 672.538753
_symmetry_space_group_name_H-M "P -1"
_symmetry_group_IT_number 2
_symmetry_cell_setting 'triclinic'
loop_
_space_group_symop_operation_xyz
x,y,z
-x,-y,-z
loop_
_atom_site_type_symbol
_atom_site_label
_atom_site_fract_x
_atom_site_fract_y
_atom_site_fract_z
Si Si1 0.229799 0.304974 0.961131
Si Si2 0.873198 0.541718 0.242666
Si Si3 0.042395 0.109245 0.594002
Si Si4 0.842025 0.130213 0.113959
Si Si5 0.571222 0.904605 0.703664
Si Si6 0.032655 0.493052 0.917554
Si Si7 0.996918 0.232696 0.573027
Si Si8 0.437309 0.199509 0.905760
O O1 0.140868 0.383856 0.772434
O O2 0.165509 0.259550 0.814899
O O3 0.500000 0.500000 0.000000
O O4 0.119892 0.109734 0.201737
O O5 0.632936 0.335269 0.209760
O O6 0.000000 0.500000 0.500000
O O7 0.984368 0.714908 0.016200
O O8 0.059502 0.247038 0.491293
O O9 0.921234 0.066446 0.391078
O O10 0.298695 0.240660 0.664162
O O11 0.830304 0.254784 0.987313
O O12 0.607687 0.921549 0.080130
O O13 0.500000 0.000000 0.500000
O O14 0.738482 0.008099 0.637421
O O15 0.685817 0.941197 0.910059
O O16 0.996162 0.606844 0.634243
O O17 0.285811 0.602677 0.038985
O O18 0.000000 0.500000 0.000000
#
# Coordination Sequence:
#
# PCOD8036724 Si02
#       8
#     2   2   2   2   2   2   2   2
#     4  12  27  45  71 110 147 192 244 303 373 438
#     4  12  25  45  76 108 144 190 251 308 355 440
#     4  12  27  48  72 106 151 200 239 303 377 447
#     4  12  25  49  76 108 149 191 255 297 370 442
#     4  12  22  43  76 108 141 194 248 304 369 426
#     4  12  27  51  73 110 144 194 246 310 369 439
#     4  12  25  48  73 104 152 189 252 308 368 436
#     4  12  26  45  78 103 145 196 243 304 367 441
#
# _framework density 23.790451999999998
#
# number of rings (size 3 to 8) (size 9 to 14) (size 15 to 20)
#    0.000    0.000    6.250    3.750    1.750    2.000 
#    2.250    0.000    0.000    0.000    0.000    0.000 
#    0.000    0.000    0.000    0.000    0.000    0.000 
#
# Total GULP energy -198244.392023 kJ/mol
# GULP energy per Si atom -12390.274501 kJ/mol
# Density = 2.373630 g / cm^3
# Si number density = 23.790452 Si / 1000 Ang^3
#
#
#
# Elastic Constant Matrix: (Units=GPa)
#
#
# Indices 1 2 3 4 5 6 
#
# 1 107.2720 9.6443 13.4819 2.7999 0.6454 -15.5518
# 2 9.6443 62.6403 20.4276 9.6602 5.8054 -9.8076
# 3 13.4819 20.4276 121.4156 11.5878 -11.2898 2.0382
# 4 2.7999 9.6602 11.5878 16.7440 -7.0324 -2.6829
# 5 0.6454 5.8054 -11.2898 -7.0324 44.4102 2.6695
# 6 -15.5518 -9.8076 2.0382 -2.6829 2.6695 42.9425
#
#
#
# Elastic Compliance Matrix: (Units=1/GPa)
#
#
# Indices 1 2 3 4 5 6 
#
# 1 0.010041 -0.000515 -0.001119 -0.000295 -0.000626 0.003592
# 2 -0.000515 0.019770 -0.002783 -0.010947 -0.005264 0.004104
# 3 -0.001119 -0.002783 0.009462 -0.004114 0.002247 -0.001886
# 4 -0.000295 -0.010947 -0.004114 0.074235 0.012056 0.001477
# 5 -0.000626 -0.005264 0.002247 0.012056 0.025839 -0.002389
# 6 0.003592 0.004104 -0.001886 0.001477 -0.002389 0.025855
#
#
# Mechanical properties :
#
#
# Convention : Reuss Voigt Hill
#
# Bulk Modulus (GPa) = 32.85169 42.04839 37.45004
# Shear Modulus (GPa) = 27.14711 37.33761 32.24236
#
# Velocity S-wave (km/s) = 3.38167 3.96591 3.68539
# Velocity P-wave (km/s) = 5.39318 6.21965 5.82110
#
# Compressibility (1/GPa) = 0.03043983
#
# Stress axis : x y z
#
# Youngs Moduli (GPa) = 99.58893 50.58256 105.68801
#
# Poissons Ratio (x) = 0.02607 0.11822
# Poissons Ratio (y) = 0.05132 0.29408
# Poissons Ratio (z) = 0.11140 0.14075
#
# Static dielectric constant tensor:
#      x y z
#    x 4.528850 -0.200930 0.073070 
#    y -0.200930 4.302090 -0.099640 
#    z 0.073070 -0.099640 4.585010 
# 
# 
# High freq. dielectric constant tensor:
#      x y z
#    x 1.953870 -0.017020 -0.006600 
#    y -0.017020 1.935380 -0.000510 
#    z -0.006600 -0.000510 1.958060 
# 
# From -- ./inp_files/467073.got.cif
#   From: 2010.06.25/outbox.cif.g09.slc.cpg/sg2_234_cif.got.tgz:467073.got - 2010.06.27 13:26:56.
