data_PCOD8036538
_publ_section_title
;
Structure prediction by ZEFSAII (Michael W. Deem and Ramdas Pophale) SiO2 
 PCOD8036538
Probable space group: P -1
;
_chemical_formula_sum "Si O2"
_cell_formula_units_Z 16
_cell_length_a 11.595790
_cell_length_b 10.032804
_cell_length_c 9.936339
_cell_angle_alpha 136.367459
_cell_angle_beta 78.206332
_cell_angle_gamma 93.476945
_cell_volume 774.274150
_symmetry_space_group_name_H-M "P -1"
_symmetry_group_IT_number 2
_symmetry_cell_setting 'triclinic'
loop_
_space_group_symop_operation_xyz
x,y,z
-x,-y,-z
loop_
_atom_site_type_symbol
_atom_site_label
_atom_site_fract_x
_atom_site_fract_y
_atom_site_fract_z
Si Si1 0.014927 0.101744 0.930381
Si Si2 0.637707 0.008794 0.455634
Si Si3 0.361863 0.043099 0.091480
Si Si4 0.748868 0.359509 0.796373
Si Si5 0.252476 0.254387 0.529385
Si Si6 0.991405 0.162408 0.507686
Si Si7 0.263576 0.218101 0.975817
Si Si8 0.764236 0.313999 0.074800
O O1 0.122560 0.228749 0.002600
O O2 0.041684 0.928224 0.691035
O O3 0.902546 0.251585 0.023452
O O4 0.000000 0.000000 0.000000
O O5 0.717447 0.852971 0.415444
O O6 0.669857 0.958553 0.256777
O O7 0.500000 0.000000 0.500000
O O8 0.667926 0.223919 0.637056
O O9 0.336222 0.148081 0.317153
O O10 0.310270 0.838466 0.948391
O O11 0.500000 0.000000 0.000000
O O12 0.299796 0.186916 0.098953
O O13 0.885474 0.329292 0.693091
O O14 0.695850 0.580479 0.938375
O O15 0.739816 0.314342 0.922530
O O16 0.277295 0.476489 0.697077
O O17 0.114212 0.251009 0.527270
O O18 0.000000 0.000000 0.500000
#
# Coordination Sequence:
#
# PCOD8036538 Si02
#       8
#     2   2   2   2   2   2   2   2
#     4  12  22  42  68 101 139 176 216 277 346 399
#     4  12  25  43  68  99 136 177 228 283 330 392
#     4  12  27  49  69  95 141 184 225 279 336 401
#     4  12  25  43  73 106 134 175 227 281 340 402
#     4  12  24  45  70 100 133 183 226 272 342 407
#     4  12  20  40  71  97 138 177 215 275 345 406
#     4  12  26  43  71 105 133 174 229 285 332 397
#     4  12  25  44  74 100 138 181 219 278 349 403
#
# _framework density 20.664512999999999
#
# number of rings (size 3 to 8) (size 9 to 14) (size 15 to 20)
#    0.000    0.000    8.750    1.500    0.000    5.000 
#    0.000    2.500    0.000    0.000    0.000    0.000 
#    0.000    0.000    0.000    0.000    0.000    0.000 
#
# Total GULP energy -198521.931907 kJ/mol
# GULP energy per Si atom -12407.620744 kJ/mol
# Density = 2.061748 g / cm^3
# Si number density = 20.664513 Si / 1000 Ang^3
#
#
#
# Elastic Constant Matrix: (Units=GPa)
#
#
# Indices 1 2 3 4 5 6 
#
# 1 120.4009 17.2967 24.7205 12.9404 -7.0977 20.5142
# 2 17.2967 101.4630 30.1105 1.1144 12.0646 2.5856
# 3 24.7205 30.1105 107.1356 4.9001 5.1717 10.0374
# 4 12.9404 1.1144 4.9001 38.4097 6.2175 3.4473
# 5 -7.0977 12.0646 5.1717 6.2175 25.2344 -8.9029
# 6 20.5142 2.5856 10.0374 3.4473 -8.9029 25.2708
#
#
#
# Elastic Compliance Matrix: (Units=1/GPa)
#
#
# Indices 1 2 3 4 5 6 
#
# 1 0.010364 -0.001447 -0.001351 -0.003077 0.002356 -0.006479
# 2 -0.001447 0.011641 -0.002568 0.001639 -0.006366 -0.001462
# 3 -0.001351 -0.002568 0.010870 -0.000061 -0.002747 -0.003918
# 4 -0.003077 0.001639 -0.000061 0.029261 -0.010762 -0.005428
# 5 0.002356 -0.006366 -0.002747 -0.010762 0.053679 0.020209
# 6 -0.006479 -0.001462 -0.003918 -0.005428 0.020209 0.054396
#
#
# Mechanical properties :
#
#
# Convention : Reuss Voigt Hill
#
# Bulk Modulus (GPa) = 45.16210 52.58388 48.87299
# Shear Modulus (GPa) = 26.54973 34.90777 30.72875
#
# Velocity S-wave (km/s) = 3.58830 4.11452 3.86039
# Velocity P-wave (km/s) = 6.25061 6.93355 6.60092
#
# Compressibility (1/GPa) = 0.02214246
#
# Stress axis : x y z
#
# Youngs Moduli (GPa) = 96.48404 85.90341 91.99713
#
# Poissons Ratio (x) = 0.12433 0.12426
# Poissons Ratio (y) = 0.13964 0.23629
# Poissons Ratio (z) = 0.13032 0.22063
#
# Static dielectric constant tensor:
#      x y z
#    x 3.710130 0.041190 0.270710 
#    y 0.041190 3.956200 -0.025510 
#    z 0.270710 -0.025510 3.685470 
# 
# 
# High freq. dielectric constant tensor:
#      x y z
#    x 1.814850 0.003580 0.004560 
#    y 0.003580 1.809670 -0.005580 
#    z 0.004560 -0.005580 1.819660 
# 
# From -- ./inp_files/188227.got.cif
#   From: 2010.06.25/outbox.cif.g09.slc.cpg/sg2_95_cif.got.tgz:188227.got - 2010.06.27 13:26:56.
