data_PCOD8036857
_publ_section_title
;
Structure prediction by ZEFSAII (Michael W. Deem and Ramdas Pophale) SiO2 
 PCOD8036857
Probable space group: P -1
;
_chemical_formula_sum "Si O2"
_cell_formula_units_Z 14
_cell_length_a 18.940191
_cell_length_b 9.863145
_cell_length_c 8.402516
_cell_angle_alpha 148.421298
_cell_angle_beta 57.967446
_cell_angle_gamma 121.550783
_cell_volume 687.768774
_symmetry_space_group_name_H-M "P -1"
_symmetry_group_IT_number 2
_symmetry_cell_setting 'triclinic'
loop_
_space_group_symop_operation_xyz
x,y,z
-x,-y,-z
loop_
_atom_site_type_symbol
_atom_site_label
_atom_site_fract_x
_atom_site_fract_y
_atom_site_fract_z
Si Si1 0.671468 0.085719 0.714128
Si Si2 0.140364 0.320248 0.265285
Si Si3 0.326627 0.413387 0.272780
Si Si4 0.859521 0.179714 0.460750
Si Si5 0.999993 0.249994 0.634062
Si Si6 0.402509 0.951305 0.571107
Si Si7 0.602841 0.551416 0.430854
O O1 0.770331 0.135140 0.610494
O O2 0.622906 0.061428 0.588519
O O3 0.639969 0.819765 0.574137
O O4 0.639975 0.320236 0.074556
O O5 0.229766 0.365032 0.289776
O O6 0.127440 0.563893 0.411563
O O7 0.078810 0.289436 0.459298
O O8 0.127461 0.063661 0.911314
O O9 0.369480 0.685935 0.429797
O O10 0.347299 0.423675 0.441095
O O11 0.369465 0.183692 0.927505
O O12 0.921185 0.210547 0.568899
O O13 0.000000 0.000000 0.500000
O O14 0.000000 0.500000 0.000000
O O15 0.500000 0.000000 0.500000
O O16 0.500000 0.500000 0.500000
#
# Coordination Sequence:
#
# PCOD8036857 Si02
#       7
#     2   2   2   2   2   2   2
#     4  12  24  42  68  97 133 178 228 273 336 399
#     4  12  24  47  70 101 138 179 222 273 337 403
#     4  12  24  42  66  99 133 179 226 274 339 395
#     4  12  25  47  72 101 137 179 222 273 339 399
#     4  12  28  46  75 108 136 174 218 276 334 408
#     4  12  23  43  67  97 132 175 231 281 322 397
#     4  12  26  43  64  97 139 182 223 282 343 389
#
# _framework density 20.355678999999999
#
# number of rings (size 3 to 8) (size 9 to 14) (size 15 to 20)
#    0.000    0.000    2.857    7.714    4.000    0.000 
#    0.000    0.000    0.000    0.000    0.000    0.000 
#    0.000    0.000    0.000    0.000    0.000    0.000 
#
# Total GULP energy -173483.612902 kJ/mol
# GULP energy per Si atom -12391.686636 kJ/mol
# Density = 2.030935 g / cm^3
# Si number density = 20.355679 Si / 1000 Ang^3
#
#
#
# Elastic Constant Matrix: (Units=GPa)
#
#
# Indices 1 2 3 4 5 6 
#
# 1 220.6550 98.2428 82.3814 -8.6032 10.3630 -10.7870
# 2 98.2428 208.0652 111.4779 13.8389 -7.1770 -6.9387
# 3 82.3814 111.4779 237.3586 -0.2185 6.4549 -8.4251
# 4 -8.6032 13.8389 -0.2185 51.4809 -5.6243 -7.0915
# 5 10.3630 -7.1770 6.4549 -5.6243 39.0532 -9.2721
# 6 -10.7870 -6.9387 -8.4251 -7.0915 -9.2721 56.4757
#
#
#
# Elastic Compliance Matrix: (Units=1/GPa)
#
#
# Indices 1 2 3 4 5 6 
#
# 1 0.006181 -0.002602 -0.000855 0.001650 -0.001578 0.000682
# 2 -0.002602 0.007773 -0.002807 -0.002269 0.002287 0.000130
# 3 -0.000855 -0.002807 0.005868 0.000549 -0.001120 0.000252
# 4 0.001650 -0.002269 0.000549 0.021070 0.002856 0.003233
# 5 -0.001578 0.002287 -0.001120 0.002856 0.028181 0.004798
# 6 0.000682 0.000130 0.000252 0.003233 0.004798 0.019084
#
#
# Mechanical properties :
#
#
# Convention : Reuss Voigt Hill
#
# Bulk Modulus (GPa) = 137.09292 138.92031 138.00661
# Shear Modulus (GPa) = 48.48855 54.33373 51.41114
#
# Velocity S-wave (km/s) = 4.88593 5.17205 5.03103
# Velocity P-wave (km/s) = 9.96618 10.20105 10.08430
#
# Compressibility (1/GPa) = 0.00729432
#
# Stress axis : x y z
#
# Youngs Moduli (GPa) = 161.77507 128.64930 170.41584
#
# Poissons Ratio (x) = 0.33478 0.14564
# Poissons Ratio (y) = 0.42098 0.47839
# Poissons Ratio (z) = 0.13826 0.36114
#
# Static dielectric constant tensor:
#      x y z
#    x 3.852240 -0.184280 0.059920 
#    y -0.184280 4.202230 -0.022850 
#    z 0.059920 -0.022850 4.196690 
# 
# 
# High freq. dielectric constant tensor:
#      x y z
#    x 1.825680 -0.004870 0.002200 
#    y -0.004870 1.820690 0.002130 
#    z 0.002200 0.002130 1.825290 
# 
# From -- ./inp_files/218451.got.cif
#   From: 2010.06.25/outbox.cif.g09.slc.cpg/sg2_110_cif.got.tgz:218451.got - 2010.06.27 13:26:56.
