data_PCOD8036018
_publ_section_title
;
Structure prediction by ZEFSAII (Michael W. Deem and Ramdas Pophale) SiO2 
 PCOD8036018
Probable space group: P -1
;
_chemical_formula_sum "Si O2"
_cell_formula_units_Z 16
_cell_length_a 9.844514
_cell_length_b 6.880421
_cell_length_c 18.365656
_cell_angle_alpha 115.523103
_cell_angle_beta 52.205191
_cell_angle_gamma 131.239935
_cell_volume 738.423931
_symmetry_space_group_name_H-M "P -1"
_symmetry_group_IT_number 2
_symmetry_cell_setting 'triclinic'
loop_
_space_group_symop_operation_xyz
x,y,z
-x,-y,-z
loop_
_atom_site_type_symbol
_atom_site_label
_atom_site_fract_x
_atom_site_fract_y
_atom_site_fract_z
Si Si1 0.921378 0.503095 0.816363
Si Si2 0.377990 0.485835 0.832648
Si Si3 0.982431 0.008010 0.921698
Si Si4 0.224252 0.000680 0.617969
Si Si5 0.584070 0.035755 0.594602
Si Si6 0.661465 0.431392 0.303077
Si Si7 0.728288 0.215698 0.977866
Si Si8 0.777210 0.501351 0.716147
O O1 0.840817 0.310215 0.879085
O O2 0.804395 0.368637 0.757280
O O3 0.161949 0.620937 0.749980
O O4 0.876355 0.723309 0.878532
O O5 0.205506 0.178402 0.835653
O O6 0.408360 0.617758 0.765875
O O7 0.596773 0.549335 0.798223
O O8 0.271156 0.569326 0.939680
O O9 0.836111 0.107316 0.971308
O O10 0.000000 0.000000 0.000000
O O11 0.267818 0.940735 0.514029
O O12 0.987528 0.780079 0.678276
O O13 0.376285 0.998913 0.626118
O O14 0.261332 0.282224 0.649819
O O15 0.714534 0.305584 0.638519
O O16 0.530690 0.790412 0.622189
O O17 0.500000 0.000000 0.000000
#
# Coordination Sequence:
#
# PCOD8036018 Si02
#       8
#     2   2   2   2   2   2   2   2
#     4  12  26  44  70 100 147 184 237 292 347 413
#     4  12  25  44  70 101 141 185 242 286 346 416
#     4  12  24  46  67  95 137 192 239 289 349 400
#     4  11  25  50  75 107 147 180 232 299 359 432
#     4  11  25  49  76 108 143 186 229 293 371 424
#     4  12  24  46  75 107 140 189 234 293 354 423
#     4  12  28  43  64 100 141 190 237 291 340 411
#     4  12  26  46  75 109 143 188 236 294 355 425
#
# _framework density 21.667769
#
# number of rings (size 3 to 8) (size 9 to 14) (size 15 to 20)
#    0.000    0.250    5.000    4.125    5.250    1.000 
#    0.000    1.250    0.000    0.000    0.000    0.000 
#    0.000    0.000    0.000    0.000    0.000    0.000 
#
# Total GULP energy -198458.411096 kJ/mol
# GULP energy per Si atom -12403.650693 kJ/mol
# Density = 2.161845 g / cm^3
# Si number density = 21.667769 Si / 1000 Ang^3
#
#
#
# Elastic Constant Matrix: (Units=GPa)
#
#
# Indices 1 2 3 4 5 6 
#
# 1 137.2615 27.1309 39.2866 -18.1476 3.1295 -6.4515
# 2 27.1309 99.6090 18.4258 -4.1086 0.3810 -2.6109
# 3 39.2866 18.4258 85.3596 -1.7681 7.2960 -10.5594
# 4 -18.1476 -4.1086 -1.7681 31.5223 -2.9466 3.1939
# 5 3.1295 0.3810 7.2960 -2.9466 43.5183 -3.8116
# 6 -6.4515 -2.6109 -10.5594 3.1939 -3.8116 37.0148
#
#
#
# Elastic Compliance Matrix: (Units=1/GPa)
#
#
# Indices 1 2 3 4 5 6 
#
# 1 0.009373 -0.001629 -0.003885 0.004995 0.000331 0.000013
# 2 -0.001629 0.010794 -0.001597 0.000407 0.000320 0.000020
# 3 -0.003885 -0.001597 0.014380 -0.002157 -0.001975 0.003295
# 4 0.004995 0.000407 -0.002157 0.034987 0.002148 -0.002514
# 5 0.000331 0.000320 -0.001975 0.002148 0.023583 0.001760
# 6 0.000013 0.000020 0.003295 -0.002514 0.001760 0.028358
#
#
# Mechanical properties :
#
#
# Convention : Reuss Voigt Hill
#
# Bulk Modulus (GPa) = 49.20115 54.65740 51.92928
# Shear Modulus (GPa) = 35.09444 38.23686 36.66565
#
# Velocity S-wave (km/s) = 4.02887 4.20538 4.11807
# Velocity P-wave (km/s) = 6.66324 6.99001 6.82858
#
# Compressibility (1/GPa) = 0.02032473
#
# Stress axis : x y z
#
# Youngs Moduli (GPa) = 106.68966 92.64024 69.54187
#
# Poissons Ratio (x) = 0.15092 0.27020
# Poissons Ratio (y) = 0.17381 0.11104
# Poissons Ratio (z) = 0.41453 0.14792
#
# Static dielectric constant tensor:
#      x y z
#    x 4.007190 0.031460 0.191590 
#    y 0.031460 3.886620 -0.137550 
#    z 0.191590 -0.137550 3.781770 
# 
# 
# High freq. dielectric constant tensor:
#      x y z
#    x 1.860720 -0.002580 0.007630 
#    y -0.002580 1.856290 -0.004000 
#    z 0.007630 -0.004000 1.865810 
# 
# From -- ./inp_files/46981.got.cif
#   From: 2010.06.25/outbox.cif.g09.slc.cpg/sg2_24_cif.got.tgz:46981.got - 2010.06.27 13:26:56.
