data_PCOD8036182
_publ_section_title
;
Structure prediction by ZEFSAII (Michael W. Deem and Ramdas Pophale) SiO2 
 PCOD8036182
Probable space group: P -1
;
_chemical_formula_sum "Si O2"
_cell_formula_units_Z 16
_cell_length_a 9.095011
_cell_length_b 15.623620
_cell_length_c 9.803916
_cell_angle_alpha 105.246166
_cell_angle_beta 75.554067
_cell_angle_gamma 44.769432
_cell_volume 725.812914
_symmetry_space_group_name_H-M "P -1"
_symmetry_group_IT_number 2
_symmetry_cell_setting 'triclinic'
loop_
_space_group_symop_operation_xyz
x,y,z
-x,-y,-z
loop_
_atom_site_type_symbol
_atom_site_label
_atom_site_fract_x
_atom_site_fract_y
_atom_site_fract_z
Si Si1 0.297221 0.059757 0.181902
Si Si2 0.487618 0.142403 0.701133
Si Si3 0.039974 0.676901 0.194771
Si Si4 0.617817 0.613640 0.200138
Si Si5 0.970936 0.048300 0.178983
Si Si6 0.658216 0.630878 0.500783
Si Si7 0.937871 0.136271 0.697197
Si Si8 0.986941 0.368958 0.527795
O O1 0.134900 0.218306 0.353072
O O2 0.091621 0.088532 0.175703
O O3 0.484776 0.920953 0.190396
O O4 0.500000 0.000000 0.000000
O O5 0.336800 0.308913 0.833810
O O6 0.283640 0.185152 0.671581
O O7 0.775488 0.018029 0.508641
O O8 0.076507 0.761805 0.183117
O O9 0.148117 0.603219 0.291044
O O10 0.206036 0.540531 0.990235
O O11 0.721032 0.557142 0.308356
O O12 0.294905 0.751046 0.317767
O O13 0.657934 0.197944 0.350570
O O14 0.120669 0.910810 0.195526
O O15 0.000000 0.000000 0.000000
O O16 0.805912 0.652951 0.493974
O O17 0.743768 0.521595 0.553099
#
# Coordination Sequence:
#
# PCOD8036182 Si02
#       8
#     2   2   2   2   2   2   2   2
#     4  12  28  46  74 108 142 189 246 304 362 435
#     4  12  24  45  78 102 144 193 250 300 355 427
#     4  12  27  43  74 111 147 191 248 299 363 431
#     4  12  25  46  73 109 145 195 244 302 362 429
#     4  12  27  47  74 106 144 193 243 300 367 433
#     4  11  26  46  72 102 151 193 236 297 372 433
#     4  12  25  48  74 106 144 192 248 304 355 431
#     4  11  26  46  70 107 149 190 239 299 366 436
#
# _framework density 22.044249000000001
#
# number of rings (size 3 to 8) (size 9 to 14) (size 15 to 20)
#    0.000    0.250    5.000    3.000    7.000    1.500 
#    0.000    0.000    0.000    0.000    0.000    0.000 
#    0.000    0.000    0.000    0.000    0.000    0.000 
#
# Total GULP energy -198462.152998 kJ/mol
# GULP energy per Si atom -12403.884562 kJ/mol
# Density = 2.199408 g / cm^3
# Si number density = 22.044249 Si / 1000 Ang^3
#
#
#
# Elastic Constant Matrix: (Units=GPa)
#
#
# Indices 1 2 3 4 5 6 
#
# 1 104.7750 19.7813 44.4757 10.6669 13.0318 -0.8784
# 2 19.7813 63.2783 46.4109 1.5012 3.2299 -5.3771
# 3 44.4757 46.4109 126.2346 -11.0110 23.8528 14.6717
# 4 10.6669 1.5012 -11.0110 30.7123 7.2603 5.9996
# 5 13.0318 3.2299 23.8528 7.2603 39.7283 4.8034
# 6 -0.8784 -5.3771 14.6717 5.9996 4.8034 38.5121
#
#
#
# Elastic Compliance Matrix: (Units=1/GPa)
#
#
# Indices 1 2 3 4 5 6 
#
# 1 0.012629 0.000840 -0.005869 -0.007311 0.000195 0.003756
# 2 0.000840 0.025503 -0.012635 -0.009223 0.005822 0.009104
# 3 -0.005869 -0.012635 0.018800 0.013620 -0.009617 -0.009982
# 4 -0.007311 -0.009223 0.013620 0.045640 -0.011886 -0.012271
# 5 0.000195 0.005822 -0.009617 -0.011886 0.032302 0.002304
# 6 0.003756 0.009104 -0.009982 -0.012271 0.002304 0.032750
#
#
# Mechanical properties :
#
#
# Convention : Reuss Voigt Hill
#
# Bulk Modulus (GPa) = 46.28958 57.29153 51.79055
# Shear Modulus (GPa) = 23.79217 34.03187 28.91202
#
# Velocity S-wave (km/s) = 3.28882 3.93338 3.62545
# Velocity P-wave (km/s) = 5.95532 6.83187 6.40860
#
# Compressibility (1/GPa) = 0.02160313
#
# Stress axis : x y z
#
# Youngs Moduli (GPa) = 79.18460 39.21144 53.19061
#
# Poissons Ratio (x) = -0.03292 0.31219
# Poissons Ratio (y) = -0.06648 0.67204
# Poissons Ratio (z) = 0.46475 0.49542
#
# Static dielectric constant tensor:
#      x y z
#    x 4.429250 0.109040 0.074430 
#    y 0.109040 4.506450 -0.202300 
#    z 0.074430 -0.202300 3.687810 
# 
# 
# High freq. dielectric constant tensor:
#      x y z
#    x 1.888630 0.001890 0.009050 
#    y 0.001890 1.880640 -0.002360 
#    z 0.009050 -0.002360 1.863820 
# 
# From -- ./inp_files/207645.got.cif
#   From: 2010.06.25/outbox.cif.g09.slc.cpg/sg2_104_cif.got.tgz:207645.got - 2010.06.27 13:26:56.
