data_PCOD8036395
_publ_section_title
;
Structure prediction by ZEFSAII (Michael W. Deem and Ramdas Pophale) SiO2 
 PCOD8036395
Probable space group: P -1
;
_chemical_formula_sum "Si O2"
_cell_formula_units_Z 12
_cell_length_a 9.134984
_cell_length_b 17.900196
_cell_length_c 5.107362
_cell_angle_alpha 94.529140
_cell_angle_beta 108.318800
_cell_angle_gamma 39.497448
_cell_volume 485.415078
_symmetry_space_group_name_H-M "P -1"
_symmetry_group_IT_number 2
_symmetry_cell_setting 'triclinic'
loop_
_space_group_symop_operation_xyz
x,y,z
-x,-y,-z
loop_
_atom_site_type_symbol
_atom_site_label
_atom_site_fract_x
_atom_site_fract_y
_atom_site_fract_z
Si Si1 0.394344 0.121414 0.916750
Si Si2 0.052299 0.360689 0.085849
Si Si3 0.761955 0.280443 0.777683
Si Si4 0.217941 0.441933 0.412138
Si Si5 0.919418 0.985372 0.198356
Si Si6 0.932957 0.296306 0.388311
O O1 0.234551 0.175172 0.573763
O O2 0.200155 0.227981 0.053875
O O3 0.500000 0.000000 0.000000
O O4 0.620561 0.093213 0.024589
O O5 0.243040 0.357313 0.222965
O O6 0.896931 0.395408 0.274654
O O7 0.855696 0.457633 0.774857
O O8 0.483108 0.354897 0.672496
O O9 0.778159 0.340293 0.582853
O O10 0.955625 0.143888 0.748741
O O11 0.839876 0.274346 0.110321
O O12 0.000000 0.500000 0.500000
O O13 0.000000 0.000000 0.500000
O O14 0.000000 0.000000 0.000000
#
# Coordination Sequence:
#
# PCOD8036395 Si02
#       6
#     2   2   2   2   2   2
#     4  12  26  50  78 112 158 197 253 311 393 451
#     4  11  26  49  78 112 150 208 253 312 393 451
#     4  12  28  49  75 112 156 196 265 314 380 460
#     4  11  28  50  77 111 156 204 257 321 384 456
#     4  12  28  45  75 112 150 201 253 317 377 456
#     4  12  26  50  75 113 151 202 251 314 383 456
#
# _framework density 24.721112999999999
#
# number of rings (size 3 to 8) (size 9 to 14) (size 15 to 20)
#    0.000    0.333    3.333    3.000   11.667    2.667 
#    0.000    0.000    0.000    0.000    0.000    0.000 
#    0.000    0.000    0.000    0.000    0.000    0.000 
#
# Total GULP energy -148749.719973 kJ/mol
# GULP energy per Si atom -12395.809998 kJ/mol
# Density = 2.466485 g / cm^3
# Si number density = 24.721113 Si / 1000 Ang^3
#
#
#
# Elastic Constant Matrix: (Units=GPa)
#
#
# Indices 1 2 3 4 5 6 
#
# 1 120.8828 19.6952 65.7941 1.1247 7.2139 -7.1912
# 2 19.6952 72.0074 27.2324 -7.7559 2.8059 3.9444
# 3 65.7941 27.2324 197.4558 3.8599 23.6058 -18.7106
# 4 1.1247 -7.7559 3.8599 29.7825 -4.5423 -1.0538
# 5 7.2139 2.8059 23.6058 -4.5423 71.1750 -12.1280
# 6 -7.1912 3.9444 -18.7106 -1.0538 -12.1280 41.5500
#
#
#
# Elastic Compliance Matrix: (Units=1/GPa)
#
#
# Indices 1 2 3 4 5 6 
#
# 1 0.010293 -0.001700 -0.003152 -0.000382 0.000139 0.000554
# 2 -0.001700 0.015682 -0.001925 0.004314 0.000037 -0.002530
# 3 -0.003152 -0.001925 0.006806 -0.001427 -0.001577 0.002205
# 4 -0.000382 0.004314 -0.001427 0.035330 0.002693 0.000564
# 5 0.000139 0.000037 -0.001577 0.002693 0.015389 0.003871
# 6 0.000554 -0.002530 0.002205 0.000564 0.003871 0.026541
#
#
# Mechanical properties :
#
#
# Convention : Reuss Voigt Hill
#
# Bulk Modulus (GPa) = 52.00993 68.42104 60.21549
# Shear Modulus (GPa) = 38.46057 47.00981 42.73519
#
# Velocity S-wave (km/s) = 3.94861 4.36547 4.16226
# Velocity P-wave (km/s) = 6.47094 7.29020 6.89275
#
# Compressibility (1/GPa) = 0.01922710
#
# Stress axis : x y z
#
# Youngs Moduli (GPa) = 97.15080 63.76668 146.93943
#
# Poissons Ratio (x) = 0.10842 0.46315
# Poissons Ratio (y) = 0.16519 0.28281
# Poissons Ratio (z) = 0.30621 0.12273
#
# Static dielectric constant tensor:
#      x y z
#    x 5.358300 0.273930 0.302820 
#    y 0.273930 5.117260 -0.343380 
#    z 0.302820 -0.343380 5.173480 
# 
# 
# High freq. dielectric constant tensor:
#      x y z
#    x 2.006540 0.016330 0.010730 
#    y 0.016330 1.971820 0.009220 
#    z 0.010730 0.009220 2.006340 
# 
# From -- ./inp_files/44301.got.cif
#   From: 2010.06.25/outbox.cif.g09.slc.cpg/sg2_23_cif.got.tgz:44301.got - 2010.06.27 13:26:56.
