data_PCOD8036669
_publ_section_title
;
Structure prediction by ZEFSAII (Michael W. Deem and Ramdas Pophale) SiO2 
 PCOD8036669
Probable space group: P -1
;
_chemical_formula_sum "Si O2"
_cell_formula_units_Z 10
_cell_length_a 13.194276
_cell_length_b 10.910549
_cell_length_c 13.316871
_cell_angle_alpha 24.659546
_cell_angle_beta 33.375579
_cell_angle_gamma 34.612362
_cell_volume 422.513298
_symmetry_space_group_name_H-M "P -1"
_symmetry_group_IT_number 2
_symmetry_cell_setting 'triclinic'
loop_
_space_group_symop_operation_xyz
x,y,z
-x,-y,-z
loop_
_atom_site_type_symbol
_atom_site_label
_atom_site_fract_x
_atom_site_fract_y
_atom_site_fract_z
Si Si1 0.966416 0.301631 0.869375
Si Si2 0.331217 0.375806 0.272092
Si Si3 0.721701 0.405648 0.626188
Si Si4 0.688728 0.233285 0.319792
Si Si5 0.993112 0.150783 0.282667
O O1 0.848821 0.314439 0.058776
O O2 0.846412 0.569559 0.697668
O O3 0.164333 0.372732 0.685041
O O4 0.000000 0.000000 0.000000
O O5 0.259027 0.547074 0.306689
O O6 0.396685 0.006154 0.494608
O O7 0.500000 0.500000 0.000000
O O8 0.500326 0.484183 0.715635
O O9 0.000000 0.000000 0.500000
O O10 0.823095 0.054223 0.777313
O O11 0.791062 0.126373 0.421235
O O12 0.000000 0.500000 0.000000
#
# Coordination Sequence:
#
# PCOD8036669 Si02
#       5
#     2   2   2   2   2
#     4  12  22  41  71 109 164 198 237 303 387 476
#     4  12  23  41  73 118 156 188 243 308 399 482
#     4  12  25  48  77 113 153 206 246 322 394 461
#     4  12  26  48  75 112 155 197 254 317 393 468
#     4  12  30  54  78 109 150 210 279 325 373 447
#
# _framework density 23.667894
#
# number of rings (size 3 to 8) (size 9 to 14) (size 15 to 20)
#    0.000    0.000    6.000    4.800    0.000    3.200 
#    0.000    0.000    0.000    0.000    0.000    0.000 
#    0.000    0.000    0.000    0.000    0.000    0.000 
#
# Total GULP energy -123951.892309 kJ/mol
# GULP energy per Si atom -12395.189231 kJ/mol
# Density = 2.361402 g / cm^3
# Si number density = 23.667894 Si / 1000 Ang^3
#
#
#
# Elastic Constant Matrix: (Units=GPa)
#
#
# Indices 1 2 3 4 5 6 
#
# 1 148.8590 55.1079 28.6924 12.7504 -0.1823 2.3022
# 2 55.1079 166.9165 74.5177 -9.1767 -4.7063 -15.2740
# 3 28.6924 74.5177 150.9427 11.8870 3.0927 3.7356
# 4 12.7504 -9.1767 11.8870 51.1339 -4.0283 -5.3645
# 5 -0.1823 -4.7063 3.0927 -4.0283 32.5516 6.5686
# 6 2.3022 -15.2740 3.7356 -5.3645 6.5686 32.9702
#
#
#
# Elastic Compliance Matrix: (Units=1/GPa)
#
#
# Indices 1 2 3 4 5 6 
#
# 1 0.008150 -0.003260 0.000366 -0.002994 -0.000318 -0.002545
# 2 -0.003260 0.010067 -0.004875 0.004473 0.001259 0.005921
# 3 0.000366 -0.004875 0.009366 -0.003631 -0.001300 -0.003677
# 4 -0.002994 0.004473 -0.003631 0.022772 0.002607 0.005879
# 5 -0.000318 0.001259 -0.001300 0.002607 0.032412 -0.005281
# 6 -0.002545 0.005921 -0.003677 0.005879 -0.005281 0.035676
#
#
# Mechanical properties :
#
#
# Convention : Reuss Voigt Hill
#
# Bulk Modulus (GPa) = 83.03166 87.03937 85.03551
# Shear Modulus (GPa) = 36.23291 43.89114 40.06203
#
# Velocity S-wave (km/s) = 3.91690 4.31102 4.11868
# Velocity P-wave (km/s) = 7.45750 7.85079 7.65667
#
# Compressibility (1/GPa) = 0.01204360
#
# Stress axis : x y z
#
# Youngs Moduli (GPa) = 122.70383 99.33572 106.77295
#
# Poissons Ratio (x) = 0.32387 -0.03905
# Poissons Ratio (y) = 0.40006 0.52048
# Poissons Ratio (z) = -0.04487 0.48423
#
# Static dielectric constant tensor:
#      x y z
#    x 6.023410 -0.364460 2.375690 
#    y -0.364460 4.666400 -0.341360 
#    z 2.375690 -0.341360 7.841070 
# 
# 
# High freq. dielectric constant tensor:
#      x y z
#    x 1.942340 -0.009890 -0.000150 
#    y -0.009890 1.948420 0.000880 
#    z -0.000150 0.000880 1.936610 
# 
# From -- ./inp_files/528014.got.cif
#   From: 2010.06.25/outbox.cif.g09.slc.cpg/sg2_265_cif.got.tgz:528014.got - 2010.06.27 13:26:56.
