data_PCOD8036520
_publ_section_title
;
Structure prediction by ZEFSAII (Michael W. Deem and Ramdas Pophale) SiO2 
 PCOD8036520
Probable space group: P -1
;
_chemical_formula_sum "Si O2"
_cell_formula_units_Z 16
_cell_length_a 12.600897
_cell_length_b 9.119333
_cell_length_c 26.858136
_cell_angle_alpha 150.094658
_cell_angle_beta 150.691658
_cell_angle_gamma 42.645888
_cell_volume 750.608102
_symmetry_space_group_name_H-M "P -1"
_symmetry_group_IT_number 2
_symmetry_cell_setting 'triclinic'
loop_
_space_group_symop_operation_xyz
x,y,z
-x,-y,-z
loop_
_atom_site_type_symbol
_atom_site_label
_atom_site_fract_x
_atom_site_fract_y
_atom_site_fract_z
Si Si1 0.568647 0.133428 0.619317
Si Si2 0.007725 0.151440 0.276640
Si Si3 0.172858 0.763999 0.498205
Si Si4 0.879109 0.175390 0.340824
Si Si5 0.379298 0.190219 0.164079
Si Si6 0.668138 0.842330 0.755093
Si Si7 0.806661 0.228643 0.602186
Si Si8 0.031121 0.160573 0.929037
O O1 0.636005 0.467573 0.736856
O O2 0.500000 0.000000 0.500000
O O3 0.770410 0.993508 0.683480
O O4 0.370366 0.055626 0.553049
O O5 0.064033 0.498817 0.408003
O O6 0.887328 0.078365 0.257665
O O7 0.888313 0.026407 0.140697
O O8 0.414103 0.866550 0.645789
O O9 0.177553 0.644361 0.409098
O O10 0.000000 0.000000 0.500000
O O11 0.628467 0.139873 0.241654
O O12 0.000000 0.500000 0.500000
O O13 0.974303 0.903749 0.328852
O O14 0.299259 0.038715 0.139424
O O15 0.222009 0.094232 0.025998
O O16 0.732528 0.504229 0.684373
O O17 0.808457 0.037729 0.829539
O O18 0.000000 0.500000 0.000000
#
# Coordination Sequence:
#
# PCOD8036520 Si02
#       8
#     2   2   2   2   2   2   2   2
#     4  12  19  37  70 101 127 169 227 286 336 396
#     4  12  23  44  67 103 141 177 227 279 348 414
#     4  12  25  40  69 107 140 169 219 294 360 400
#     4  12  24  41  70 106 141 176 220 286 356 407
#     4  12  25  44  68 101 138 181 235 278 339 414
#     4  12  24  47  70  98 135 181 235 286 334 406
#     4  12  22  38  68 103 134 174 221 286 352 401
#     4  12  28  46  72  97 133 190 241 282 331 411
#
# _framework density 21.316051000000002
#
# number of rings (size 3 to 8) (size 9 to 14) (size 15 to 20)
#    0.000    0.000    7.500    3.750    0.000    0.500 
#    0.000    0.625    0.000    0.000    0.000    0.000 
#    0.000    0.000    0.000    0.000    0.000    0.000 
#
# Total GULP energy -198236.730225 kJ/mol
# GULP energy per Si atom -12389.795639 kJ/mol
# Density = 2.126754 g / cm^3
# Si number density = 21.316051 Si / 1000 Ang^3
#
#
#
# Elastic Constant Matrix: (Units=GPa)
#
#
# Indices 1 2 3 4 5 6 
#
# 1 214.2123 28.5095 34.0043 -11.5490 15.3794 -15.6875
# 2 28.5095 133.6386 33.4288 -17.7759 4.1554 -8.9330
# 3 34.0043 33.4288 83.4238 -11.3854 -10.6296 -0.9988
# 4 -11.5490 -17.7759 -11.3854 35.1326 12.3610 3.3393
# 5 15.3794 4.1554 -10.6296 12.3610 46.3129 -12.4984
# 6 -15.6875 -8.9330 -0.9988 3.3393 -12.4984 45.4508
#
#
#
# Elastic Compliance Matrix: (Units=1/GPa)
#
#
# Indices 1 2 3 4 5 6 
#
# 1 0.005384 -0.000236 -0.002167 0.001724 -0.002465 0.000960
# 2 -0.000236 0.009027 -0.003245 0.004233 -0.002433 0.000641
# 3 -0.002167 -0.003245 0.014835 0.000991 0.004154 0.000010
# 4 0.001724 0.004233 0.000991 0.035951 -0.011495 -0.004354
# 5 -0.002465 -0.002433 0.004154 -0.011495 0.028672 0.007491
# 6 0.000960 0.000641 0.000010 -0.004354 0.007491 0.024839
#
#
# Mechanical properties :
#
#
# Convention : Reuss Voigt Hill
#
# Bulk Modulus (GPa) = 55.71578 69.23999 62.47789
# Shear Modulus (GPa) = 36.76752 47.73475 42.25114
#
# Velocity S-wave (km/s) = 4.15767 4.73734 4.45694
# Velocity P-wave (km/s) = 7.01733 7.90420 7.47393
#
# Compressibility (1/GPa) = 0.01794824
#
# Stress axis : x y z
#
# Youngs Moduli (GPa) = 185.73671 110.78320 67.40616
#
# Poissons Ratio (x) = 0.02618 0.14608
# Poissons Ratio (y) = 0.04390 0.21876
# Poissons Ratio (z) = 0.40252 0.35953
#
# Static dielectric constant tensor:
#      x y z
#    x 4.442240 0.354240 -0.229140 
#    y 0.354240 4.059730 -0.044630 
#    z -0.229140 -0.044630 4.001430 
# 
# 
# High freq. dielectric constant tensor:
#      x y z
#    x 1.857970 0.012130 -0.006300 
#    y 0.012130 1.847100 -0.009150 
#    z -0.006300 -0.009150 1.815890 
# 
# From -- ./inp_files/223817.got.cif
#   From: 2010.06.25/outbox.cif.g09.slc.cpg/sg2_112_cif.got.tgz:223817.got - 2010.06.27 13:26:56.
