data_PCOD8036412
_publ_section_title
;
Structure prediction by ZEFSAII (Michael W. Deem and Ramdas Pophale) SiO2 
 PCOD8036412
Probable space group: P -1
;
_chemical_formula_sum "Si O2"
_cell_formula_units_Z 12
_cell_length_a 11.585617
_cell_length_b 9.460245
_cell_length_c 8.562926
_cell_angle_alpha 68.218190
_cell_angle_beta 35.507960
_cell_angle_gamma 86.437414
_cell_volume 453.346121
_symmetry_space_group_name_H-M "P -1"
_symmetry_group_IT_number 2
_symmetry_cell_setting 'triclinic'
loop_
_space_group_symop_operation_xyz
x,y,z
-x,-y,-z
loop_
_atom_site_type_symbol
_atom_site_label
_atom_site_fract_x
_atom_site_fract_y
_atom_site_fract_z
Si Si1 0.956192 0.087499 0.364049
Si Si2 0.816839 0.248228 0.703253
Si Si3 0.854025 0.589796 0.479679
Si Si4 0.389955 0.025694 0.428520
Si Si5 0.648908 0.734881 0.383730
Si Si6 0.186819 0.630237 0.853700
O O1 0.854039 0.208977 0.499580
O O2 0.172720 0.199384 0.976459
O O3 0.000000 0.000000 0.500000
O O4 0.772540 0.934693 0.524917
O O5 0.720482 0.389555 0.751505
O O6 0.052855 0.298745 0.512161
O O7 0.631958 0.084987 0.063508
O O8 0.717917 0.648337 0.485677
O O9 0.081712 0.599843 0.152797
O O10 0.394505 0.108439 0.560298
O O11 0.251377 0.822804 0.658993
O O12 0.411237 0.603163 0.625605
O O13 0.000000 0.500000 0.000000
#
# Coordination Sequence:
#
# PCOD8036412 Si02
#       6
#     2   2   2   2   2   2
#     4  12  26  44  77 120 156 194 275 324 385 465
#     4  11  26  50  76 119 161 207 251 341 387 458
#     4  11  26  51  79 111 165 201 269 315 401 463
#     4  12  25  51  81 111 157 210 262 319 399 467
#     4  12  27  49  85 112 151 218 262 317 392 481
#     4  12  27  50  79 115 155 203 264 327 387 466
#
# _framework density 26.469839
#
# number of rings (size 3 to 8) (size 9 to 14) (size 15 to 20)
#    0.000    0.333    3.333    4.500    2.333    2.667 
#    6.000    0.000    0.000    0.000    0.000    0.000 
#    0.000    0.000    0.000    0.000    0.000    0.000 
#
# Total GULP energy -148724.834284 kJ/mol
# GULP energy per Si atom -12393.736190 kJ/mol
# Density = 2.640959 g / cm^3
# Si number density = 26.469839 Si / 1000 Ang^3
#
#
#
# Elastic Constant Matrix: (Units=GPa)
#
#
# Indices 1 2 3 4 5 6 
#
# 1 162.4445 27.1097 54.6794 -12.9656 -18.3746 16.1914
# 2 27.1097 74.4539 47.3382 -1.0313 -4.1434 11.8165
# 3 54.6794 47.3382 133.9735 9.3439 -16.7057 24.2251
# 4 -12.9656 -1.0313 9.3439 46.4785 2.4576 6.8554
# 5 -18.3746 -4.1434 -16.7057 2.4576 48.1203 -1.3498
# 6 16.1914 11.8165 24.2251 6.8554 -1.3498 46.6109
#
#
#
# Elastic Compliance Matrix: (Units=1/GPa)
#
#
# Indices 1 2 3 4 5 6 
#
# 1 0.007731 -0.000805 -0.002568 0.002781 0.001807 -0.001504
# 2 -0.000805 0.017660 -0.005889 0.001608 -0.000953 -0.001401
# 3 -0.002568 -0.005889 0.011699 -0.002866 0.002631 -0.003198
# 4 0.002781 0.001608 -0.002866 0.023457 -0.001087 -0.003366
# 5 0.001807 -0.000953 0.002631 -0.001087 0.022332 -0.000947
# 6 -0.001504 -0.001401 -0.003198 -0.003366 -0.000947 0.024461
#
#
# Mechanical properties :
#
#
# Convention : Reuss Voigt Hill
#
# Bulk Modulus (GPa) = 53.85899 69.90294 61.88097
# Shear Modulus (GPa) = 37.86388 44.35823 41.11106
#
# Velocity S-wave (km/s) = 3.78624 4.09810 3.94525
# Velocity P-wave (km/s) = 6.28535 6.98988 6.64695
#
# Compressibility (1/GPa) = 0.01856700
#
# Stress axis : x y z
#
# Youngs Moduli (GPa) = 129.35324 56.62469 85.47597
#
# Poissons Ratio (x) = 0.04556 0.21947
# Poissons Ratio (y) = 0.10408 0.50339
# Poissons Ratio (z) = 0.33213 0.33348
#
# Static dielectric constant tensor:
#      x y z
#    x 5.471340 0.422060 0.021110 
#    y 0.422060 5.393670 0.047910 
#    z 0.021110 0.047910 4.769260 
# 
# 
# High freq. dielectric constant tensor:
#      x y z
#    x 2.095570 0.006060 0.007770 
#    y 0.006060 2.060440 -0.005730 
#    z 0.007770 -0.005730 2.058400 
# 
# From -- ./inp_files/242806.got.cif
#   From: 2010.06.25/outbox.cif.g09.slc.cpg/sg2_122_cif.got.tgz:242806.got - 2010.06.27 13:26:56.
