data_PCOD8036743
_publ_section_title
;
Structure prediction by ZEFSAII (Michael W. Deem and Ramdas Pophale) SiO2 
 PCOD8036743
Probable space group: P -1
;
_chemical_formula_sum "Si O2"
_cell_formula_units_Z 16
_cell_length_a 26.139359
_cell_length_b 25.532046
_cell_length_c 8.807626
_cell_angle_alpha 41.101497
_cell_angle_beta 42.187764
_cell_angle_gamma 10.806507
_cell_volume 724.506285
_symmetry_space_group_name_H-M "P -1"
_symmetry_group_IT_number 2
_symmetry_cell_setting 'triclinic'
loop_
_space_group_symop_operation_xyz
x,y,z
-x,-y,-z
loop_
_atom_site_type_symbol
_atom_site_label
_atom_site_fract_x
_atom_site_fract_y
_atom_site_fract_z
Si Si1 0.615644 0.795271 0.207532
Si Si2 0.735410 0.830808 0.338190
Si Si3 0.747807 0.625346 0.632518
Si Si4 0.792851 0.411475 0.118161
Si Si5 0.254362 0.770947 0.847978
Si Si6 0.250562 0.708071 0.667338
Si Si7 0.269733 0.925546 0.343037
Si Si8 0.146177 0.211239 0.143987
O O1 0.726700 0.667102 0.411149
O O2 0.858352 0.534006 0.127914
O O3 0.364055 0.992167 0.281000
O O4 0.500000 0.000000 0.000000
O O5 0.039902 0.521680 0.430697
O O6 0.500000 0.000000 0.500000
O O7 0.560057 0.074562 0.278443
O O8 0.769239 0.815250 0.121067
O O9 0.868496 0.416803 0.851194
O O10 0.715957 0.420378 0.148778
O O11 0.566401 0.650259 0.226336
O O12 0.072387 0.101147 0.255910
O O13 0.247697 0.725212 0.813048
O O14 0.281560 0.837859 0.617105
O O15 0.500000 0.500000 0.000000
O O16 0.000000 0.000000 0.000000
O O17 0.500000 0.500000 0.500000
O O18 0.000000 0.000000 0.500000
O O19 0.129516 0.138485 0.278500
#
# Coordination Sequence:
#
# PCOD8036743 Si02
#       8
#     2   2   2   2   2   2   2   2
#     4  12  28  48  71 104 151 186 229 300 371 435
#     4  12  25  45  73 106 137 180 245 297 345 432
#     4  12  25  46  70 106 140 185 241 299 356 421
#     4  12  22  44  75 103 141 187 247 305 346 419
#     4  12  26  44  69 109 151 186 240 294 355 425
#     4  12  23  43  71 104 139 198 239 284 357 426
#     4  12  24  45  75 102 147 187 236 309 355 420
#     4  12  25  47  74 104 139 194 238 283 381 429
#
# _framework density 22.084004
#
# number of rings (size 3 to 8) (size 9 to 14) (size 15 to 20)
#    0.000    0.000    5.000    5.250    0.000    4.000 
#    0.000    0.000    0.000    0.000    0.000    0.000 
#    0.000    0.000    0.000    0.000    0.000    0.000 
#
# Total GULP energy -198346.428719 kJ/mol
# GULP energy per Si atom -12396.651795 kJ/mol
# Density = 2.203374 g / cm^3
# Si number density = 22.084004 Si / 1000 Ang^3
#
#
#
# Elastic Constant Matrix: (Units=GPa)
#
#
# Indices 1 2 3 4 5 6 
#
# 1 130.9993 43.3588 45.7676 4.1226 12.9703 -9.1029
# 2 43.3588 157.7178 45.9196 -2.8229 9.3698 -6.4252
# 3 45.7676 45.9196 146.4295 -4.3379 7.4232 -8.7617
# 4 4.1226 -2.8229 -4.3379 30.9708 -12.4896 8.2002
# 5 12.9703 9.3698 7.4232 -12.4896 32.2536 1.9147
# 6 -9.1029 -6.4252 -8.7617 8.2002 1.9147 44.9404
#
#
#
# Elastic Compliance Matrix: (Units=1/GPa)
#
#
# Indices 1 2 3 4 5 6 
#
# 1 0.009750 -0.001729 -0.002259 -0.004260 -0.004683 0.002264
# 2 -0.001729 0.007389 -0.001697 0.000148 -0.001027 0.000392
# 3 -0.002259 -0.001697 0.008146 0.001060 -0.000105 0.000699
# 4 -0.004260 0.000148 0.001060 0.042981 0.018620 -0.009271
# 5 -0.004683 -0.001027 -0.000105 0.018620 0.040791 -0.006251
# 6 0.002264 0.000392 0.000699 -0.009271 -0.006251 0.024861
#
#
# Mechanical properties :
#
#
# Convention : Reuss Voigt Hill
#
# Bulk Modulus (GPa) = 71.85688 78.35986 75.10837
# Shear Modulus (GPa) = 33.34987 41.63966 37.49476
#
# Velocity S-wave (km/s) = 3.89026 4.34696 4.12494
# Velocity P-wave (km/s) = 7.26550 7.79451 7.53465
#
# Compressibility (1/GPa) = 0.01391655
#
# Stress axis : x y z
#
# Youngs Moduli (GPa) = 102.56525 135.32909 122.76098
#
# Poissons Ratio (x) = 0.23393 0.27727
# Poissons Ratio (y) = 0.17729 0.20834
# Poissons Ratio (z) = 0.23166 0.22967
#
# Static dielectric constant tensor:
#      x y z
#    x 60.307350 85.807870 -12.910490 
#    y 85.807870 135.921170 -19.858780 
#    z -12.910490 -19.858780 6.940390 
# 
# 
# High freq. dielectric constant tensor:
#      x y z
#    x 1.882510 -0.000630 -0.008130 
#    y -0.000630 1.899800 -0.004060 
#    z -0.008130 -0.004060 1.867120 
# 
# From -- ./inp_files/357972.got.cif
#   From: 2010.06.25/outbox.cif.g09.slc.cpg/sg2_179_cif.got.tgz:357972.got - 2010.06.27 13:26:56.
