data_PCOD8036418
_publ_section_title
;
Structure prediction by ZEFSAII (Michael W. Deem and Ramdas Pophale) SiO2 
 PCOD8036418
Probable space group: P -1
;
_chemical_formula_sum "Si O2"
_cell_formula_units_Z 14
_cell_length_a 10.950514
_cell_length_b 4.992514
_cell_length_c 13.554280
_cell_angle_alpha 123.418096
_cell_angle_beta 120.694153
_cell_angle_gamma 67.934195
_cell_volume 527.225788
_symmetry_space_group_name_H-M "P -1"
_symmetry_group_IT_number 2
_symmetry_cell_setting 'triclinic'
loop_
_space_group_symop_operation_xyz
x,y,z
-x,-y,-z
loop_
_atom_site_type_symbol
_atom_site_label
_atom_site_fract_x
_atom_site_fract_y
_atom_site_fract_z
Si Si1 0.140261 0.247023 0.978203
Si Si2 0.397375 0.252151 0.946003
Si Si3 0.697879 0.793009 0.766601
Si Si4 0.482430 0.751271 0.355695
Si Si5 0.856760 0.285590 0.602429
Si Si6 0.978843 0.229582 0.309342
Si Si7 0.277076 0.777500 0.660630
O O1 0.255419 0.390232 0.981101
O O2 0.222826 0.113806 0.083515
O O3 0.090594 0.927959 0.844898
O O4 0.000000 0.500000 0.000000
O O5 0.346127 0.080778 0.792514
O O6 0.500000 0.500000 0.000000
O O7 0.500000 0.000000 0.000000
O O8 0.599755 0.518262 0.685832
O O9 0.811826 0.644260 0.702709
O O10 0.602196 0.106867 0.747151
O O11 0.632850 0.565906 0.344191
O O12 0.500000 0.000000 0.500000
O O13 0.995436 0.397400 0.625752
O O14 0.739374 0.181673 0.456749
O O15 0.883762 0.016611 0.644480
O O16 0.876643 0.252031 0.365139
#
# Coordination Sequence:
#
# PCOD8036418 Si02
#       7
#     2   2   2   2   2   2   2
#     4  11  26  50  81 114 153 211 266 331 392 472
#     4  11  28  55  76 114 159 208 264 323 401 475
#     4  12  27  47  75 114 154 199 259 326 388 462
#     4  12  27  48  73 111 156 202 258 315 391 472
#     4  12  25  47  75 111 155 193 259 323 392 459
#     4  11  27  48  72 113 152 200 260 322 395 464
#     4  11  27  47  81 108 154 208 258 321 392 472
#
# _framework density 26.554088
#
# number of rings (size 3 to 8) (size 9 to 14) (size 15 to 20)
#    0.000    0.571    2.857    3.000    0.000   13.143 
#    0.000    2.143    0.000    0.000    0.000    0.000 
#    0.000    0.000    0.000    0.000    0.000    0.000 
#
# Total GULP energy -173576.743692 kJ/mol
# GULP energy per Si atom -12398.338835 kJ/mol
# Density = 2.649365 g / cm^3
# Si number density = 26.554088 Si / 1000 Ang^3
#
#
#
# Elastic Constant Matrix: (Units=GPa)
#
#
# Indices 1 2 3 4 5 6 
#
# 1 97.8079 50.6400 54.2397 2.4412 4.2874 1.8820
# 2 50.6400 135.5345 66.4529 -32.0205 14.5371 20.8812
# 3 54.2397 66.4529 223.6636 -44.5365 -2.1905 12.3900
# 4 2.4412 -32.0205 -44.5365 47.5269 -1.6283 -2.9449
# 5 4.2874 14.5371 -2.1905 -1.6283 45.4871 12.5773
# 6 1.8820 20.8812 12.3900 -2.9449 12.5773 53.4996
#
#
#
# Elastic Compliance Matrix: (Units=1/GPa)
#
#
# Indices 1 2 3 4 5 6 
#
# 1 0.015820 -0.006388 -0.003780 -0.008526 -0.000625 0.002490
# 2 -0.006388 0.012702 -0.000409 0.008200 -0.002167 -0.003677
# 3 -0.003780 -0.000409 0.006849 0.006305 0.001395 -0.001274
# 4 -0.008526 0.008200 0.006305 0.032762 0.000392 -0.002650
# 5 -0.000625 -0.002167 0.001395 0.000392 0.024236 -0.005131
# 6 0.002490 -0.003677 -0.001274 -0.002650 -0.005131 0.021395
#
#
# Mechanical properties :
#
#
# Convention : Reuss Voigt Hill
#
# Bulk Modulus (GPa) = 70.34560 88.85236 79.59898
# Shear Modulus (GPa) = 35.80151 48.34761 42.07456
#
# Velocity S-wave (km/s) = 3.67583 4.27162 3.98488
# Velocity P-wave (km/s) = 6.67567 7.60674 7.15637
#
# Compressibility (1/GPa) = 0.01421553
#
# Stress axis : x y z
#
# Youngs Moduli (GPa) = 63.20926 78.72681 146.00272
#
# Poissons Ratio (x) = 0.50295 0.55194
# Poissons Ratio (y) = 0.40381 0.05976
# Poissons Ratio (z) = 0.23895 0.03223
#
# Static dielectric constant tensor:
#      x y z
#    x 5.506260 -0.595540 -0.278050 
#    y -0.595540 4.714690 0.057110 
#    z -0.278050 0.057110 5.151830 
# 
# 
# High freq. dielectric constant tensor:
#      x y z
#    x 2.081550 -0.005500 -0.002320 
#    y -0.005500 2.061330 -0.003700 
#    z -0.002320 -0.003700 2.088140 
# 
# From -- ./inp_files/511331.got.cif
#   From: 2010.06.25/outbox.cif.g09.slc.cpg/sg2_256_cif.got.tgz:511331.got - 2010.06.27 13:26:56.
