data_PCOD8037915
_publ_section_title
;
Structure prediction by ZEFSAII (Michael W. Deem and Ramdas Pophale) SiO2 
 PCOD8037915
Probable space group: P -1
;
_chemical_formula_sum "Si O2"
_cell_formula_units_Z 16
_cell_length_a 13.418370
_cell_length_b 26.894308
_cell_length_c 8.448838
_cell_angle_alpha 52.264691
_cell_angle_beta 63.571357
_cell_angle_gamma 20.539815
_cell_volume 750.586023
_symmetry_space_group_name_H-M "P -1"
_symmetry_group_IT_number 2
_symmetry_cell_setting 'triclinic'
loop_
_space_group_symop_operation_xyz
x,y,z
-x,-y,-z
loop_
_atom_site_type_symbol
_atom_site_label
_atom_site_fract_x
_atom_site_fract_y
_atom_site_fract_z
Si Si1 0.930498 0.995562 0.377648
Si Si2 0.628350 0.124116 0.729020
Si Si3 0.555830 0.405561 0.735913
Si Si4 0.227464 0.379070 0.266451
Si Si5 0.645711 0.984224 0.502040
Si Si6 0.061812 0.073961 0.807726
Si Si7 0.001568 0.604928 0.800511
Si Si8 0.988440 0.845243 0.817600
O O1 0.994325 0.950926 0.231669
O O2 0.101013 0.845906 0.634259
O O3 0.100253 0.971349 0.345967
O O4 0.556122 0.197142 0.288583
O O5 0.290280 0.330903 0.502470
O O6 0.699236 0.019443 0.799265
O O7 0.639477 0.108680 0.939288
O O8 0.500000 0.500000 0.500000
O O9 0.216033 0.552417 0.719615
O O10 0.762663 0.245301 0.802290
O O11 0.721688 0.333723 0.928578
O O12 0.968179 0.465456 0.218124
O O13 0.100020 0.517941 0.064808
O O14 0.366029 0.180878 0.354560
O O15 0.500000 0.000000 0.500000
O O16 0.867092 0.897229 0.380696
O O17 0.852523 0.864490 0.751677
#
# Coordination Sequence:
#
# PCOD8037915 Si02
#       8
#     2   2   2   2   2   2   2   2
#     4  10  17  34  62  88 117 158 193 237 297 367
#     4  10  17  32  58  91 117 153 191 240 297 369
#     4  11  23  41  61  87 119 160 207 254 293 345
#     4  10  19  35  61  87 121 154 197 243 297 368
#     4  11  22  43  64  83 116 165 206 248 289 354
#     4  10  21  37  57  88 122 148 204 241 297 356
#     4  11  21  38  63  88 119 157 200 243 303 352
#     4   9  19  38  60  84 113 158 210 226 288 382
#
# _framework density 21.316676999999999
#
# number of rings (size 3 to 8) (size 9 to 14) (size 15 to 20)
#    0.000    1.750    3.750    4.875    0.000    0.000 
#    2.250    9.375    0.000    0.000    0.000    0.000 
#    0.000    0.000    0.000    0.000    0.000    0.000 
#
# Total GULP energy -198263.461289 kJ/mol
# GULP energy per Si atom -12391.466331 kJ/mol
# Density = 2.126816 g / cm^3
# Si number density = 21.316677 Si / 1000 Ang^3
#
#
#
# Elastic Constant Matrix: (Units=GPa)
#
#
# Indices 1 2 3 4 5 6 
#
# 1 109.6335 -0.7145 27.7294 2.2318 13.2424 -7.8276
# 2 -0.7145 29.0604 3.7661 0.2165 10.9556 0.6961
# 3 27.7294 3.7661 150.9351 0.4386 26.8146 0.2965
# 4 2.2318 0.2165 0.4386 20.2052 0.6079 2.1248
# 5 13.2424 10.9556 26.8146 0.6079 36.1305 3.2921
# 6 -7.8276 0.6961 0.2965 2.1248 3.2921 25.3995
#
#
#
# Elastic Compliance Matrix: (Units=1/GPa)
#
#
# Indices 1 2 3 4 5 6 
#
# 1 0.010183 0.001700 -0.001274 -0.001395 -0.003615 0.003692
# 2 0.001700 0.039366 0.001099 -0.000355 -0.013479 0.001209
# 3 -0.001274 0.001099 0.007846 0.000108 -0.005711 0.000217
# 4 -0.001395 -0.000355 0.000108 0.050131 0.000117 -0.004630
# 5 -0.003615 -0.013479 -0.005711 0.000117 0.037835 -0.005592
# 6 0.003692 0.001209 0.000217 -0.004630 -0.005592 0.041585
#
#
# Mechanical properties :
#
#
# Convention : Reuss Voigt Hill
#
# Bulk Modulus (GPa) = 16.54407 39.02123 27.78265
# Shear Modulus (GPa) = 24.50441 33.60358 29.05400
#
# Velocity S-wave (km/s) = 3.39417 3.97470 3.69585
# Velocity P-wave (km/s) = 4.81024 6.27770 5.59231
#
# Compressibility (1/GPa) = 0.06044461
#
# Stress axis : x y z
#
# Youngs Moduli (GPa) = 98.19980 25.40278 127.45633
#
# Poissons Ratio (x) = -0.04319 0.16241
# Poissons Ratio (y) = -0.16697 -0.14004
# Poissons Ratio (z) = 0.12513 -0.02791
#
# Static dielectric constant tensor:
#      x y z
#    x 3.842560 0.053760 0.262780 
#    y 0.053760 3.427690 -0.006760 
#    z 0.262780 -0.006760 4.195750 
# 
# 
# High freq. dielectric constant tensor:
#      x y z
#    x 1.835010 -0.001080 0.016750 
#    y -0.001080 1.793690 0.002910 
#    z 0.016750 0.002910 1.850610 
# 
# From -- ./inp_files/320951.got.cif
#   From: 2010.06.25/outbox.cif.g09.slc.cpg/sg2_161_cif.got.tgz:320951.got - 2010.06.27 13:26:56.
