data_PCOD8037362
_publ_section_title
;
Structure prediction by ZEFSAII (Michael W. Deem and Ramdas Pophale) SiO2 
 PCOD8037362
Probable space group: P -1
;
_chemical_formula_sum "Si O2"
_cell_formula_units_Z 10
_cell_length_a 11.555763
_cell_length_b 8.669160
_cell_length_c 22.773934
_cell_angle_alpha 147.469635
_cell_angle_beta 156.364490
_cell_angle_gamma 46.156702
_cell_volume 457.026223
_symmetry_space_group_name_H-M "P -1"
_symmetry_group_IT_number 2
_symmetry_cell_setting 'triclinic'
loop_
_space_group_symop_operation_xyz
x,y,z
-x,-y,-z
loop_
_atom_site_type_symbol
_atom_site_label
_atom_site_fract_x
_atom_site_fract_y
_atom_site_fract_z
Si Si1 0.436908 0.672066 0.694627
Si Si2 0.389469 0.609876 0.425766
Si Si3 0.739177 0.365941 0.092802
Si Si4 0.850054 0.683013 0.363847
Si Si5 0.367957 0.686735 0.233056
O O1 0.588254 0.611604 0.686393
O O2 0.449957 0.428644 0.670708
O O3 0.084002 0.644849 0.509673
O O4 0.646960 0.007117 0.923006
O O5 0.500000 0.500000 0.500000
O O6 0.036649 0.568488 0.258623
O O7 0.591655 0.965359 0.620217
O O8 0.778953 0.408466 0.195322
O O9 0.500000 0.500000 0.000000
O O10 0.529360 0.670446 0.240548
O O11 0.000000 0.000000 0.500000
O O12 0.000000 0.500000 0.000000
#
# Coordination Sequence:
#
# PCOD8037362 Si02
#       5
#     2   2   2   2   2
#     4  12  26  46  72 108 146 186 233 302 360 412
#     4  12  24  48  74 103 145 189 241 291 349 434
#     4  12  25  43  78 106 137 191 243 290 349 425
#     4  12  24  50  74 103 144 189 246 288 346 436
#     4  12  28  47  72 109 147 187 234 301 364 412
#
# _framework density 21.880583000000001
#
# number of rings (size 3 to 8) (size 9 to 14) (size 15 to 20)
#    0.000    0.000    6.000    3.000    2.800    0.800 
#    3.600    0.000    0.000    0.000    0.000    0.000 
#    0.000    0.000    0.000    0.000    0.000    0.000 
#
# Total GULP energy -124048.047785 kJ/mol
# GULP energy per Si atom -12404.804778 kJ/mol
# Density = 2.183078 g / cm^3
# Si number density = 21.880583 Si / 1000 Ang^3
#
#
#
# Elastic Constant Matrix: (Units=GPa)
#
#
# Indices 1 2 3 4 5 6 
#
# 1 145.9026 44.9759 60.6222 8.0851 -3.2841 -18.7670
# 2 44.9759 148.7311 67.1480 7.0609 -4.0322 14.2511
# 3 60.6222 67.1480 150.1624 4.6518 0.0312 -8.0751
# 4 8.0851 7.0609 4.6518 50.7759 -15.4928 -2.8570
# 5 -3.2841 -4.0322 0.0312 -15.4928 47.9460 -2.8918
# 6 -18.7670 14.2511 -8.0751 -2.8570 -2.8918 49.1933
#
#
#
# Elastic Compliance Matrix: (Units=1/GPa)
#
#
# Indices 1 2 3 4 5 6 
#
# 1 0.009002 -0.001846 -0.002600 -0.000591 0.000485 0.003536
# 2 -0.001846 0.009352 -0.003628 -0.000859 0.000140 -0.004051
# 3 -0.002600 -0.003628 0.009416 0.000028 -0.000385 0.001584
# 4 -0.000591 -0.000859 0.000028 0.022188 0.007162 0.001737
# 5 0.000485 0.000140 -0.000385 0.007162 0.023329 0.001869
# 6 0.003536 -0.004051 0.001584 0.001737 0.001869 0.023321
#
#
# Mechanical properties :
#
#
# Convention : Reuss Voigt Hill
#
# Bulk Modulus (GPa) = 86.04611 87.80980 86.92795
# Shear Modulus (GPa) = 42.86998 47.71971 45.29484
#
# Velocity S-wave (km/s) = 4.43117 4.67509 4.55476
# Velocity P-wave (km/s) = 8.09883 8.32830 8.21436
#
# Compressibility (1/GPa) = 0.01162168
#
# Stress axis : x y z
#
# Youngs Moduli (GPa) = 111.08819 106.92358 106.20117
#
# Poissons Ratio (x) = 0.19735 0.27617
# Poissons Ratio (y) = 0.20504 0.38532
# Poissons Ratio (z) = 0.28888 0.38794
#
# Static dielectric constant tensor:
#      x y z
#    x 3.626050 -0.045590 0.027440 
#    y -0.045590 4.019420 -0.248420 
#    z 0.027440 -0.248420 3.640570 
# 
# 
# High freq. dielectric constant tensor:
#      x y z
#    x 1.870450 -0.010160 -0.005380 
#    y -0.010160 1.878760 -0.004630 
#    z -0.005380 -0.004630 1.867370 
# 
# From -- ./inp_files/15224.got.cif
#   From: 2010.06.25/outbox.cif.g09.slc.cpg/sg2_8_cif.got.tgz:15224.got - 2010.06.27 13:26:56.
