data_PCOD8037020
_publ_section_title
;
Structure prediction by ZEFSAII (Michael W. Deem and Ramdas Pophale) SiO2 
 PCOD8037020
Probable space group: P -1
;
_chemical_formula_sum "Si O2"
_cell_formula_units_Z 14
_cell_length_a 22.835149
_cell_length_b 16.957319
_cell_length_c 8.401290
_cell_angle_alpha 137.067388
_cell_angle_beta 148.085566
_cell_angle_gamma 23.019178
_cell_volume 653.268367
_symmetry_space_group_name_H-M "P -1"
_symmetry_group_IT_number 2
_symmetry_cell_setting 'triclinic'
loop_
_space_group_symop_operation_xyz
x,y,z
-x,-y,-z
loop_
_atom_site_type_symbol
_atom_site_label
_atom_site_fract_x
_atom_site_fract_y
_atom_site_fract_z
Si Si1 0.411055 0.614206 0.633087
Si Si2 0.404103 0.915441 0.724540
Si Si3 0.754120 0.465925 0.338946
Si Si4 0.381992 0.180683 0.615153
Si Si5 0.749071 0.477433 0.718492
Si Si6 0.106930 0.014833 0.348982
Si Si7 0.113570 0.293351 0.390007
O O1 0.500000 0.500000 0.500000
O O2 0.321650 0.585899 0.482276
O O3 0.234221 0.859652 0.563604
O O4 0.579712 0.525592 0.997250
O O5 0.591800 0.709931 0.753174
O O6 0.254643 0.939144 0.446323
O O7 0.291996 0.108812 0.648537
O O8 0.472645 0.909006 0.039736
O O9 0.707572 0.628329 0.391316
O O10 0.778390 0.459793 0.572648
O O11 0.955701 0.243626 0.397527
O O12 0.203220 0.254531 0.370879
O O13 0.500000 0.000000 0.500000
O O14 0.962418 0.317635 0.055213
O O15 0.000000 0.000000 0.000000
O O16 0.000000 0.500000 0.500000
#
# Coordination Sequence:
#
# PCOD8037020 Si02
#       7
#     2   2   2   2   2   2   2
#     4  12  23  47  74 104 146 185 236 292 361 423
#     4  12  25  47  71 101 142 188 237 289 358 417
#     4  12  27  46  72 110 142 185 241 292 359 424
#     4  12  27  48  74 104 146 190 235 295 358 420
#     4  12  27  46  73 107 144 187 236 296 353 424
#     4  12  24  41  76 104 139 186 232 292 353 422
#     4  12  27  45  72 103 142 189 245 289 348 425
#
# _framework density 21.430702
#
# number of rings (size 3 to 8) (size 9 to 14) (size 15 to 20)
#    0.000    0.000    5.714    3.429    4.000    2.286 
#    0.000    0.000    0.000    0.000    0.000    0.000 
#    0.000    0.000    0.000    0.000    0.000    0.000 
#
# Total GULP energy -173687.965096 kJ/mol
# GULP energy per Si atom -12406.283221 kJ/mol
# Density = 2.138193 g / cm^3
# Si number density = 21.430702 Si / 1000 Ang^3
#
#
#
# Elastic Constant Matrix: (Units=GPa)
#
#
# Indices 1 2 3 4 5 6 
#
# 1 125.5671 55.9429 22.6421 -3.9095 3.1375 5.9870
# 2 55.9429 163.6503 30.5125 -5.9204 -9.8734 2.2141
# 3 22.6421 30.5125 82.4673 -8.4075 1.5680 -5.8615
# 4 -3.9095 -5.9204 -8.4075 32.9739 -1.5102 -3.9228
# 5 3.1375 -9.8734 1.5680 -1.5102 45.7391 1.0301
# 6 5.9870 2.2141 -5.8615 -3.9228 1.0301 48.3550
#
#
#
# Elastic Compliance Matrix: (Units=1/GPa)
#
#
# Indices 1 2 3 4 5 6 
#
# 1 0.009714 -0.003083 -0.001591 -0.000011 -0.001250 -0.001229
# 2 -0.003083 0.007677 -0.001988 0.000571 0.001960 -0.000206
# 3 -0.001591 -0.001988 0.013798 0.003205 -0.000737 0.002236
# 4 -0.000011 0.000571 0.003205 0.031637 0.000993 0.002909
# 5 -0.001250 0.001960 -0.000737 0.000993 0.022440 -0.000422
# 6 -0.001229 -0.000206 0.002236 0.002909 -0.000422 0.021358
#
#
# Mechanical properties :
#
#
# Convention : Reuss Voigt Hill
#
# Bulk Modulus (GPa) = 55.97457 65.54220 60.75839
# Shear Modulus (GPa) = 39.71351 42.91940 41.31646
#
# Velocity S-wave (km/s) = 4.30945 4.48002 4.39556
# Velocity P-wave (km/s) = 7.13704 7.57697 7.36029
#
# Compressibility (1/GPa) = 0.01786526
#
# Stress axis : x y z
#
# Youngs Moduli (GPa) = 102.94579 130.26141 72.47473
#
# Poissons Ratio (x) = 0.40162 0.11530
# Poissons Ratio (y) = 0.31740 0.14405
# Poissons Ratio (z) = 0.16378 0.25890
#
# Static dielectric constant tensor:
#      x y z
#    x 4.208490 0.008790 0.323750 
#    y 0.008790 4.127910 -0.213890 
#    z 0.323750 -0.213890 4.393020 
# 
# 
# High freq. dielectric constant tensor:
#      x y z
#    x 1.853450 0.006240 0.011560 
#    y 0.006240 1.854060 -0.007960 
#    z 0.011560 -0.007960 1.855350 
# 
# From -- ./inp_files/236889.got.cif
#   From: 2010.06.25/outbox.cif.g09.slc.cpg/sg2_119_cif.got.tgz:236889.got - 2010.06.27 13:26:56.
