data_PCOD8037090
_publ_section_title
;
Structure prediction by ZEFSAII (Michael W. Deem and Ramdas Pophale) SiO2 
 PCOD8037090
Probable space group: P -1
;
_chemical_formula_sum "Si O2"
_cell_formula_units_Z 14
_cell_length_a 14.733380
_cell_length_b 11.815098
_cell_length_c 9.466306
_cell_angle_alpha 153.538691
_cell_angle_beta 62.012246
_cell_angle_gamma 125.043038
_cell_volume 596.626009
_symmetry_space_group_name_H-M "P -1"
_symmetry_group_IT_number 2
_symmetry_cell_setting 'triclinic'
loop_
_space_group_symop_operation_xyz
x,y,z
-x,-y,-z
loop_
_atom_site_type_symbol
_atom_site_label
_atom_site_fract_x
_atom_site_fract_y
_atom_site_fract_z
Si Si1 0.656660 0.986435 0.659584
Si Si2 0.984378 0.767323 0.370034
Si Si3 0.227144 0.600703 0.737975
Si Si4 0.469615 0.033927 0.717013
Si Si5 0.186855 0.028715 0.716107
Si Si6 0.553506 0.491763 0.599592
Si Si7 0.763898 0.367592 0.537871
O O1 0.592236 0.175355 0.861213
O O2 0.719883 0.899565 0.393295
O O3 0.543174 0.733634 0.494328
O O4 0.740501 0.125466 0.881970
O O5 0.859372 0.660285 0.405343
O O6 0.000000 0.000000 0.500000
O O7 0.066737 0.886463 0.573154
O O8 0.000000 0.500000 0.000000
O O9 0.337103 0.555445 0.570710
O O10 0.180305 0.651277 0.676575
O O11 0.500000 0.000000 0.500000
O O12 0.371631 0.737612 0.499841
O O13 0.407688 0.236332 0.026438
O O14 0.202233 0.815155 0.578179
O O15 0.190989 0.311524 0.095442
O O16 0.500000 0.500000 0.500000
#
# Coordination Sequence:
#
# PCOD8037090 Si02
#       7
#     2   2   2   2   2   2   2
#     4  12  25  44  74 110 151 203 253 309 375 468
#     4  12  29  53  83 113 147 203 265 317 380 453
#     4  12  27  49  75 114 153 202 256 326 384 451
#     4  12  24  42  69 109 157 201 246 302 383 457
#     4  12  28  50  79 111 155 201 263 311 375 460
#     4  12  25  41  71 110 155 197 250 315 384 450
#     4  12  27  47  74 115 156 199 251 319 388 445
#
# _framework density 23.465287
#
# number of rings (size 3 to 8) (size 9 to 14) (size 15 to 20)
#    0.000    0.000    5.714    3.857    2.000    4.571 
#    0.000    0.000    0.000    0.000    0.000    0.000 
#    0.000    0.000    0.000    0.000    0.000    0.000 
#
# Total GULP energy -173439.135448 kJ/mol
# GULP energy per Si atom -12388.509675 kJ/mol
# Density = 2.341188 g / cm^3
# Si number density = 23.465287 Si / 1000 Ang^3
#
#
#
# Elastic Constant Matrix: (Units=GPa)
#
#
# Indices 1 2 3 4 5 6 
#
# 1 135.6687 95.1480 60.5039 -4.5287 12.2936 34.6480
# 2 95.1480 224.3911 78.1176 -21.1911 2.7939 54.9224
# 3 60.5039 78.1176 153.8027 2.1340 17.1564 -6.6701
# 4 -4.5287 -21.1911 2.1340 38.2561 -0.6839 4.1624
# 5 12.2936 2.7939 17.1564 -0.6839 38.8574 0.5282
# 6 34.6480 54.9224 -6.6701 4.1624 0.5282 96.0915
#
#
#
# Elastic Compliance Matrix: (Units=1/GPa)
#
#
# Indices 1 2 3 4 5 6 
#
# 1 0.011850 -0.003434 -0.002773 -0.000114 -0.002246 -0.002485
# 2 -0.003434 0.008599 -0.003508 0.005043 0.002162 -0.004150
# 3 -0.002773 -0.003508 0.009965 -0.003307 -0.003381 0.003858
# 4 -0.000114 0.005043 -0.003307 0.029609 0.001714 -0.004363
# 5 -0.002246 0.002162 -0.003381 0.001714 0.027825 -0.000888
# 6 -0.002485 -0.004150 0.003858 -0.004363 -0.000888 0.014137
#
#
# Mechanical properties :
#
#
# Convention : Reuss Voigt Hill
#
# Bulk Modulus (GPa) = 91.04036 109.04460 100.04248
# Shear Modulus (GPa) = 39.97547 53.31387 46.64467
#
# Velocity S-wave (km/s) = 4.13195 4.77175 4.46333
# Velocity P-wave (km/s) = 7.85150 8.77103 8.32397
#
# Compressibility (1/GPa) = 0.01098414
#
# Stress axis : x y z
#
# Youngs Moduli (GPa) = 84.38464 116.29409 100.35351
#
# Poissons Ratio (x) = 0.39934 0.27832
# Poissons Ratio (y) = 0.28977 0.35201
# Poissons Ratio (z) = 0.23403 0.40793
#
# Static dielectric constant tensor:
#      x y z
#    x 4.738270 -0.332060 0.437790 
#    y -0.332060 4.718170 -0.289110 
#    z 0.437790 -0.289110 4.255760 
# 
# 
# High freq. dielectric constant tensor:
#      x y z
#    x 1.934750 -0.004490 0.016650 
#    y -0.004490 1.946160 -0.008380 
#    z 0.016650 -0.008380 1.936650 
# 
# From -- ./inp_files/95040.got.cif
#   From: 2010.06.25/outbox.cif.g09.slc.cpg/sg2_48_cif.got.tgz:95040.got - 2010.06.27 13:26:56.
