data_PCOD8037637
_publ_section_title
;
Structure prediction by ZEFSAII (Michael W. Deem and Ramdas Pophale) SiO2 
 PCOD8037637
Probable space group: P -1
;
_chemical_formula_sum "Si O2"
_cell_formula_units_Z 16
_cell_length_a 9.330748
_cell_length_b 25.206066
_cell_length_c 9.358886
_cell_angle_alpha 44.410045
_cell_angle_beta 76.115905
_cell_angle_gamma 39.479925
_cell_volume 699.485266
_symmetry_space_group_name_H-M "P -1"
_symmetry_group_IT_number 2
_symmetry_cell_setting 'triclinic'
loop_
_space_group_symop_operation_xyz
x,y,z
-x,-y,-z
loop_
_atom_site_type_symbol
_atom_site_label
_atom_site_fract_x
_atom_site_fract_y
_atom_site_fract_z
Si Si1 0.653721 0.845286 0.752663
Si Si2 0.176263 0.678922 0.794204
Si Si3 0.699403 0.686068 0.261008
Si Si4 0.620341 0.290566 0.093443
Si Si5 0.415196 0.853057 0.546092
Si Si6 0.906011 0.635852 0.610867
Si Si7 0.134850 0.174338 0.706056
Si Si8 0.830935 0.191142 0.927331
O O1 0.456513 0.890826 0.594437
O O2 0.018499 0.688909 0.918043
O O3 0.500000 0.000000 0.500000
O O4 0.666899 0.784280 0.005810
O O5 0.245033 0.722911 0.782141
O O6 0.914715 0.815119 0.472413
O O7 0.500000 0.500000 0.000000
O O8 0.704968 0.697909 0.405661
O O9 0.000000 0.500000 0.500000
O O10 0.399638 0.770019 0.142639
O O11 0.755052 0.144847 0.358408
O O12 0.727738 0.273184 0.947263
O O13 0.248608 0.443659 0.894833
O O14 0.736209 0.691195 0.693206
O O15 0.181357 0.998628 0.211956
O O16 0.971523 0.694965 0.472229
O O17 0.866743 0.243666 0.708087
O O18 0.500000 0.000000 0.000000
#
# Coordination Sequence:
#
# PCOD8037637 Si02
#       8
#     2   2   2   2   2   2   2   2
#     4  12  27  48  77 107 149 195 248 314 371 446
#     4  12  27  46  75 110 145 197 254 307 368 451
#     4  12  29  48  73 112 152 196 246 307 382 442
#     4  12  26  46  75 109 144 195 248 307 370 440
#     4  12  25  49  72 105 149 190 247 305 375 446
#     4  12  26  47  74 104 149 197 240 310 369 441
#     4  12  27  50  73 109 154 189 246 308 380 440
#     4  12  27  47  75 104 150 191 246 308 370 452
#
# _framework density 22.873964000000001
#
# number of rings (size 3 to 8) (size 9 to 14) (size 15 to 20)
#    0.000    0.000    6.250    1.500   10.500    1.000 
#    0.000    0.000    0.000    0.000    0.000    0.000 
#    0.000    0.000    0.000    0.000    0.000    0.000 
#
# Total GULP energy -198356.583355 kJ/mol
# GULP energy per Si atom -12397.286460 kJ/mol
# Density = 2.282190 g / cm^3
# Si number density = 22.873964 Si / 1000 Ang^3
#
#
#
# Elastic Constant Matrix: (Units=GPa)
#
#
# Indices 1 2 3 4 5 6 
#
# 1 161.1866 43.8590 35.4478 18.0459 2.8150 14.3126
# 2 43.8590 85.2337 15.9700 11.0713 7.7455 11.7049
# 3 35.4478 15.9700 77.9789 11.0544 10.3300 5.1132
# 4 18.0459 11.0713 11.0544 36.1679 1.6309 9.7115
# 5 2.8150 7.7455 10.3300 1.6309 48.0793 4.4327
# 6 14.3126 11.7049 5.1132 9.7115 4.4327 45.1728
#
#
#
# Elastic Compliance Matrix: (Units=1/GPa)
#
#
# Indices 1 2 3 4 5 6 
#
# 1 0.007989 -0.003283 -0.002728 -0.001904 0.000808 -0.001042
# 2 -0.003283 0.014241 -0.000807 -0.001864 -0.001682 -0.001993
# 3 -0.002728 -0.000807 0.015004 -0.002925 -0.002861 0.000285
# 4 -0.001904 -0.001864 -0.002925 0.031492 0.000470 -0.005399
# 5 0.000808 -0.001682 -0.002861 0.000470 0.021781 -0.001735
# 6 -0.001042 -0.001993 0.000285 -0.005399 -0.001735 0.024282
#
#
# Mechanical properties :
#
#
# Convention : Reuss Voigt Hill
#
# Bulk Modulus (GPa) = 42.37339 57.21699 49.79519
# Shear Modulus (GPa) = 36.68608 41.15883 38.92246
#
# Velocity S-wave (km/s) = 4.00914 4.24651 4.12953
# Velocity P-wave (km/s) = 6.32423 7.00800 6.67488
#
# Compressibility (1/GPa) = 0.02359972
#
# Stress axis : x y z
#
# Youngs Moduli (GPa) = 125.17666 70.21777 66.64739
#
# Poissons Ratio (x) = 0.23050 0.18182
# Poissons Ratio (y) = 0.41091 0.05376
# Poissons Ratio (z) = 0.34149 0.05664
#
# Static dielectric constant tensor:
#      x y z
#    x 4.022980 0.701140 0.030320 
#    y 0.701140 2.536860 0.120970 
#    z 0.030320 0.120970 4.383700 
# 
# 
# High freq. dielectric constant tensor:
#      x y z
#    x 1.923260 -0.004860 0.004660 
#    y -0.004860 1.913490 -0.000850 
#    z 0.004660 -0.000850 1.905860 
# 
# From -- ./inp_files/226120.got.cif
#   From: 2010.06.25/outbox.cif.g09.slc.cpg/sg2_114_cif.got.tgz:226120.got - 2010.06.27 13:26:56.
