data_PCOD8037316
_publ_section_title
;
Structure prediction by ZEFSAII (Michael W. Deem and Ramdas Pophale) SiO2 
 PCOD8037316
Probable space group: P -1
;
_chemical_formula_sum "Si O2"
_cell_formula_units_Z 12
_cell_length_a 19.200941
_cell_length_b 10.761352
_cell_length_c 15.973061
_cell_angle_alpha 154.046657
_cell_angle_beta 21.982503
_cell_angle_gamma 141.688608
_cell_volume 515.794747
_symmetry_space_group_name_H-M "P -1"
_symmetry_group_IT_number 2
_symmetry_cell_setting 'triclinic'
loop_
_space_group_symop_operation_xyz
x,y,z
-x,-y,-z
loop_
_atom_site_type_symbol
_atom_site_label
_atom_site_fract_x
_atom_site_fract_y
_atom_site_fract_z
Si Si1 0.271080 0.795910 0.277446
Si Si2 0.302908 0.427649 0.675162
Si Si3 0.126223 0.926931 0.044803
Si Si4 0.530522 0.857567 0.287593
Si Si5 0.849844 0.292000 0.811079
Si Si6 0.904641 0.852759 0.084669
O O1 0.298205 0.777207 0.133765
O O2 0.329712 0.082788 0.416348
O O3 0.406768 0.500197 0.991468
O O4 0.044462 0.818504 0.563567
O O5 0.500000 0.500000 0.500000
O O6 0.170266 0.641854 0.883851
O O7 0.239364 0.499215 0.884642
O O8 0.024837 0.823693 0.017674
O O9 0.310029 0.036743 0.880135
O O10 0.500000 0.000000 0.500000
O O11 0.323862 0.962842 0.534250
O O12 0.943119 0.522829 0.801328
O O13 0.000000 0.000000 0.500000
O O14 0.000000 0.000000 0.000000
#
# Coordination Sequence:
#
# PCOD8037316 Si02
#       6
#     2   2   2   2   2   2
#     4  12  26  49  79 108 155 203 246 318 383 443
#     4  12  28  49  76 114 153 197 257 316 372 460
#     4  12  25  50  76 108 157 197 252 316 378 446
#     4  12  26  48  76 115 151 198 264 307 375 463
#     4  12  24  47  75 108 147 196 256 302 382 445
#     4  12  25  46  77 109 151 199 246 317 373 440
#
# _framework density 23.265069
#
# number of rings (size 3 to 8) (size 9 to 14) (size 15 to 20)
#    0.000    0.000    6.667    3.000    0.000    2.667 
#    3.000    0.000    0.000    0.000    0.000    0.000 
#    0.000    0.000    0.000    0.000    0.000    0.000 
#
# Total GULP energy -148682.209888 kJ/mol
# GULP energy per Si atom -12390.184157 kJ/mol
# Density = 2.321212 g / cm^3
# Si number density = 23.265069 Si / 1000 Ang^3
#
#
#
# Elastic Constant Matrix: (Units=GPa)
#
#
# Indices 1 2 3 4 5 6 
#
# 1 116.7064 40.4765 40.1554 4.5319 19.4437 7.5396
# 2 40.4765 162.9275 85.4608 10.1918 5.2883 1.5394
# 3 40.1554 85.4608 138.9387 29.9071 -12.9019 2.7010
# 4 4.5319 10.1918 29.9071 49.6945 6.8819 -7.1529
# 5 19.4437 5.2883 -12.9019 6.8819 44.2612 5.1207
# 6 7.5396 1.5394 2.7010 -7.1529 5.1207 36.4399
#
#
#
# Elastic Compliance Matrix: (Units=1/GPa)
#
#
# Indices 1 2 3 4 5 6 
#
# 1 0.011108 -0.000688 -0.003816 0.002179 -0.006168 -0.000692
# 2 -0.000688 0.009776 -0.006753 0.002774 -0.003411 0.001254
# 3 -0.003816 -0.006753 0.015284 -0.009114 0.008711 -0.003071
# 4 0.002179 0.002774 -0.009114 0.027035 -0.008920 0.006668
# 5 -0.006168 -0.003411 0.008711 -0.008920 0.030241 -0.005226
# 6 -0.000692 0.001254 -0.003071 0.006668 -0.005226 0.029803
#
#
# Mechanical properties :
#
#
# Convention : Reuss Voigt Hill
#
# Bulk Modulus (GPa) = 73.23024 83.41755 78.32389
# Shear Modulus (GPa) = 33.26434 42.91112 38.08773
#
# Velocity S-wave (km/s) = 3.78537 4.29936 4.05052
# Velocity P-wave (km/s) = 7.11689 7.78326 7.45752
#
# Compressibility (1/GPa) = 0.01365556
#
# Stress axis : x y z
#
# Youngs Moduli (GPa) = 90.02832 102.29324 65.42736
#
# Poissons Ratio (x) = 0.07033 0.24966
# Poissons Ratio (y) = 0.06190 0.44181
# Poissons Ratio (z) = 0.34353 0.69075
#
# Static dielectric constant tensor:
#      x y z
#    x 4.563660 0.077940 -0.193150 
#    y 0.077940 4.280830 -0.109580 
#    z -0.193150 -0.109580 4.636300 
# 
# 
# High freq. dielectric constant tensor:
#      x y z
#    x 1.950500 -0.011080 -0.004150 
#    y -0.011080 1.930180 0.015150 
#    z -0.004150 0.015150 1.921160 
# 
# From -- ./inp_files/152010.got.cif
#   From: 2010.06.25/outbox.cif.g09.slc.cpg/sg2_77_cif.got.tgz:152010.got - 2010.06.27 13:26:56.
