data_PCOD8037563
_publ_section_title
;
Structure prediction by ZEFSAII (Michael W. Deem and Ramdas Pophale) SiO2 
 PCOD8037563
Probable space group: P -1
;
_chemical_formula_sum "Si O2"
_cell_formula_units_Z 14
_cell_length_a 11.350082
_cell_length_b 9.067040
_cell_length_c 9.343778
_cell_angle_alpha 45.133370
_cell_angle_beta 104.468967
_cell_angle_gamma 102.702390
_cell_volume 658.572766
_symmetry_space_group_name_H-M "P -1"
_symmetry_group_IT_number 2
_symmetry_cell_setting 'triclinic'
loop_
_space_group_symop_operation_xyz
x,y,z
-x,-y,-z
loop_
_atom_site_type_symbol
_atom_site_label
_atom_site_fract_x
_atom_site_fract_y
_atom_site_fract_z
Si Si1 0.821767 0.933902 0.848487
Si Si2 0.528003 0.447470 0.881490
Si Si3 0.711187 0.090433 0.192418
Si Si4 0.884850 0.407684 0.613869
Si Si5 0.956687 0.310705 0.016592
Si Si6 0.711647 0.727302 0.227803
Si Si7 0.377222 0.110530 0.415145
O O1 0.697700 0.886997 0.756188
O O2 0.934006 0.838503 0.869016
O O3 0.847685 0.179141 0.701637
O O4 0.806923 0.828836 0.071612
O O5 0.404886 0.381159 0.808859
O O6 0.589717 0.653807 0.684279
O O7 0.500000 0.500000 0.000000
O O8 0.620952 0.269972 0.016607
O O9 0.849702 0.172961 0.155244
O O10 0.670325 0.906632 0.197142
O O11 0.703462 0.010320 0.407130
O O12 0.773499 0.552062 0.457519
O O13 0.000000 0.500000 0.500000
O O14 0.911833 0.406252 0.790585
O O15 0.000000 0.500000 0.000000
O O16 0.500000 0.000000 0.500000
#
# Coordination Sequence:
#
# PCOD8037563 Si02
#       7
#     2   2   2   2   2   2   2
#     4  12  25  48  74 103 148 190 232 291 360 425
#     4  12  25  47  75 102 143 186 239 295 352 422
#     4  12  28  47  70 107 148 184 239 297 357 420
#     4  12  26  46  74 103 141 192 239 283 357 427
#     4  12  28  47  72 107 148 185 238 299 354 423
#     4  12  26  47  75 105 144 187 236 296 356 421
#     4  12  26  45  75 107 139 189 241 291 357 420
#
# _framework density 21.258089999999999
#
# number of rings (size 3 to 8) (size 9 to 14) (size 15 to 20)
#    0.000    0.000    5.714    3.429    6.000    1.143 
#    0.000    0.000    0.000    0.000    0.000    0.000 
#    0.000    0.000    0.000    0.000    0.000    0.000 
#
# Total GULP energy -173723.151132 kJ/mol
# GULP energy per Si atom -12408.796509 kJ/mol
# Density = 2.120971 g / cm^3
# Si number density = 21.258090 Si / 1000 Ang^3
#
#
#
# Elastic Constant Matrix: (Units=GPa)
#
#
# Indices 1 2 3 4 5 6 
#
# 1 122.3893 60.4136 61.4889 -5.5228 17.0592 -8.1059
# 2 60.4136 165.7885 59.7730 -19.9515 15.2694 -1.7190
# 3 61.4889 59.7730 138.0373 -15.9853 4.2077 -8.3218
# 4 -5.5228 -19.9515 -15.9853 44.2223 -5.3477 -0.4481
# 5 17.0592 15.2694 4.2077 -5.3477 52.4833 -6.0146
# 6 -8.1059 -1.7190 -8.3218 -0.4481 -6.0146 41.7436
#
#
#
# Elastic Compliance Matrix: (Units=1/GPa)
#
#
# Indices 1 2 3 4 5 6 
#
# 1 0.012044 -0.002801 -0.004195 -0.001606 -0.002817 0.000964
# 2 -0.002801 0.008173 -0.002017 0.002463 -0.001141 -0.000747
# 3 -0.004195 -0.002017 0.010313 0.002495 0.001539 0.001407
# 4 -0.001606 0.002463 0.002495 0.024703 0.002223 0.000872
# 5 -0.002817 -0.001141 0.001539 0.002223 0.020716 0.002722
# 6 0.000964 -0.000747 0.001407 0.000872 0.002722 0.024794
#
#
# Mechanical properties :
#
#
# Convention : Reuss Voigt Hill
#
# Bulk Modulus (GPa) = 79.95555 87.72957 83.84256
# Shear Modulus (GPa) = 40.67146 43.99249 42.33197
#
# Velocity S-wave (km/s) = 4.37879 4.55405 4.46728
# Velocity P-wave (km/s) = 7.95352 8.30728 8.13232
#
# Compressibility (1/GPa) = 0.01250695
#
# Stress axis : x y z
#
# Youngs Moduli (GPa) = 83.02583 122.35222 96.96583
#
# Poissons Ratio (x) = 0.34266 0.40673
# Poissons Ratio (y) = 0.23252 0.19554
# Poissons Ratio (z) = 0.34825 0.24674
#
# Static dielectric constant tensor:
#      x y z
#    x 4.042010 -0.070660 -0.029570 
#    y -0.070660 4.129030 -0.152440 
#    z -0.029570 -0.152440 4.156860 
# 
# 
# High freq. dielectric constant tensor:
#      x y z
#    x 1.848590 0.001910 0.000230 
#    y 0.001910 1.849880 -0.008390 
#    z 0.000230 -0.008390 1.851460 
# 
# From -- ./inp_files/61205.got.cif
#   From: 2010.06.25/outbox.cif.g09.slc.cpg/sg2_31_cif.got.tgz:61205.got - 2010.06.27 13:26:56.
