data_PCOD8037033
_publ_section_title
;
Structure prediction by ZEFSAII (Michael W. Deem and Ramdas Pophale) SiO2 
 PCOD8037033
Probable space group: P -1
;
_chemical_formula_sum "Si O2"
_cell_formula_units_Z 14
_cell_length_a 14.730665
_cell_length_b 20.762154
_cell_length_c 9.495429
_cell_angle_alpha 28.071208
_cell_angle_beta 49.097797
_cell_angle_gamma 30.201894
_cell_volume 612.002124
_symmetry_space_group_name_H-M "P -1"
_symmetry_group_IT_number 2
_symmetry_cell_setting 'triclinic'
loop_
_space_group_symop_operation_xyz
x,y,z
-x,-y,-z
loop_
_atom_site_type_symbol
_atom_site_label
_atom_site_fract_x
_atom_site_fract_y
_atom_site_fract_z
Si Si1 0.690684 0.780267 0.640664
Si Si2 0.098585 0.141954 0.682781
Si Si3 0.992592 0.671783 0.161838
Si Si4 0.279276 0.503674 0.430598
Si Si5 0.421496 0.998424 0.946833
Si Si6 0.609883 0.345759 0.547212
Si Si7 0.901692 0.319072 0.266471
O O1 0.867089 0.727585 0.590518
O O2 0.500000 0.000000 0.500000
O O3 0.637444 0.828622 0.435835
O O4 0.766971 0.557523 0.024875
O O5 0.882418 0.310883 0.644969
O O6 0.081805 0.114341 0.588093
O O7 0.275946 0.898096 0.052065
O O8 0.171549 0.588007 0.224668
O O9 0.000000 0.500000 0.500000
O O10 0.000130 0.712158 0.914802
O O11 0.775484 0.914259 0.981648
O O12 0.450910 0.463565 0.353506
O O13 0.398400 0.253270 0.821306
O O14 0.500000 0.000000 0.000000
O O15 0.500000 0.500000 0.500000
O O16 0.766694 0.310198 0.391405
#
# Coordination Sequence:
#
# PCOD8037033 Si02
#       7
#     2   2   2   2   2   2   2
#     4  12  24  42  70 111 138 183 248 298 361 421
#     4  12  25  48  76 103 146 188 242 309 361 419
#     4  12  24  47  69 106 151 187 237 298 366 426
#     4  12  23  47  77  98 148 196 239 293 362 430
#     4  12  24  43  72 103 146 188 229 301 361 421
#     4  12  26  49  74 108 147 192 243 298 362 431
#     4  12  26  44  73 109 143 190 243 296 364 432
#
# _framework density 22.875737999999998
#
# number of rings (size 3 to 8) (size 9 to 14) (size 15 to 20)
#    0.000    0.000    7.143    2.571    2.000    0.571 
#    2.571    2.857    0.000    0.000    0.000    0.000 
#    0.000    0.000    0.000    0.000    0.000    0.000 
#
# Total GULP energy -173571.532735 kJ/mol
# GULP energy per Si atom -12397.966624 kJ/mol
# Density = 2.282367 g / cm^3
# Si number density = 22.875738 Si / 1000 Ang^3
#
#
#
# Elastic Constant Matrix: (Units=GPa)
#
#
# Indices 1 2 3 4 5 6 
#
# 1 165.6439 20.4190 38.4604 10.0420 28.3314 -18.4247
# 2 20.4190 87.5067 39.3264 1.5328 19.3262 5.5720
# 3 38.4604 39.3264 64.0373 1.8657 10.4524 -4.3720
# 4 10.0420 1.5328 1.8657 41.4027 3.0525 2.4209
# 5 28.3314 19.3262 10.4524 3.0525 41.2850 0.2257
# 6 -18.4247 5.5720 -4.3720 2.4209 0.2257 35.9731
#
#
#
# Elastic Compliance Matrix: (Units=1/GPa)
#
#
# Indices 1 2 3 4 5 6 
#
# 1 0.008315 0.000947 -0.004470 -0.001705 -0.004912 0.003714
# 2 0.000947 0.017546 -0.010581 0.000258 -0.006185 -0.003497
# 3 -0.004470 -0.010581 0.024668 0.000099 0.001755 0.002330
# 4 -0.001705 0.000258 0.000099 0.024761 -0.000792 -0.002563
# 5 -0.004912 -0.006185 0.001755 -0.000792 0.030110 -0.001480
# 6 0.003714 -0.003497 0.002330 -0.002563 -0.001480 0.030707
#
#
# Mechanical properties :
#
#
# Convention : Reuss Voigt Hill
#
# Bulk Modulus (GPa) = 44.80168 57.06661 50.93414
# Shear Modulus (GPa) = 29.11105 38.33098 33.72102
#
# Velocity S-wave (km/s) = 3.57118 4.09787 3.84356
# Velocity P-wave (km/s) = 6.05242 6.88408 6.48160
#
# Compressibility (1/GPa) = 0.02232059
#
# Stress axis : x y z
#
# Youngs Moduli (GPa) = 120.26581 56.99339 40.53778
#
# Poissons Ratio (x) = -0.05397 0.18122
# Poissons Ratio (y) = -0.11389 0.42892
# Poissons Ratio (z) = 0.53764 0.60304
#
# Static dielectric constant tensor:
#      x y z
#    x 1.196430 1.669290 4.077590 
#    y 1.669290 3.370860 -2.328750 
#    z 4.077590 -2.328750 -0.676830 
# 
# 
# High freq. dielectric constant tensor:
#      x y z
#    x 1.922050 0.000510 0.016440 
#    y 0.000510 1.903800 -0.014710 
#    z 0.016440 -0.014710 1.887450 
# 
# From -- ./inp_files/72128.got.cif
#   From: 2010.06.25/outbox.cif.g09.slc.cpg/sg2_37_cif.got.tgz:72128.got - 2010.06.27 13:26:56.
