data_PCOD8037706
_publ_section_title
;
Structure prediction by ZEFSAII (Michael W. Deem and Ramdas Pophale) SiO2 
 PCOD8037706
Probable space group: P -1
;
_chemical_formula_sum "Si O2"
_cell_formula_units_Z 16
_cell_length_a 9.010202
_cell_length_b 8.749951
_cell_length_c 13.827679
_cell_angle_alpha 129.730454
_cell_angle_beta 109.819849
_cell_angle_gamma 96.425508
_cell_volume 702.672141
_symmetry_space_group_name_H-M "P -1"
_symmetry_group_IT_number 2
_symmetry_cell_setting 'triclinic'
loop_
_space_group_symop_operation_xyz
x,y,z
-x,-y,-z
loop_
_atom_site_type_symbol
_atom_site_label
_atom_site_fract_x
_atom_site_fract_y
_atom_site_fract_z
Si Si1 0.416053 0.230626 0.865636
Si Si2 0.967140 0.212106 0.068887
Si Si3 0.686584 0.091760 0.123670
Si Si4 0.402551 0.310768 0.481080
Si Si5 0.867487 0.548774 0.429956
Si Si6 0.720384 0.160914 0.825134
Si Si7 0.143432 0.922845 0.524145
Si Si8 0.716102 0.323015 0.678986
O O1 0.577882 0.171408 0.870746
O O2 0.304822 0.101258 0.884352
O O3 0.285198 0.119053 0.701715
O O4 0.500000 0.500000 0.000000
O O5 0.830472 0.177384 0.108056
O O6 0.143133 0.432488 0.222638
O O7 0.901128 0.246001 0.961536
O O8 0.000000 0.000000 0.000000
O O9 0.707115 0.311185 0.272786
O O10 0.500000 0.000000 0.000000
O O11 0.500000 0.500000 0.500000
O O12 0.227498 0.315066 0.488023
O O13 0.528543 0.304595 0.593569
O O14 0.335463 0.089739 0.315492
O O15 0.000000 0.500000 0.500000
O O16 0.011741 0.681542 0.435537
O O17 0.729145 0.305472 0.790608
O O18 0.250531 0.875962 0.441938
O O19 0.000000 0.000000 0.500000
#
# Coordination Sequence:
#
# PCOD8037706 Si02
#       8
#     2   2   2   2   2   2   2   2
#     4  12  29  48  76 111 154 196 245 312 384 452
#     4  12  29  48  77 108 148 201 252 311 381 447
#     4  12  27  49  75 107 149 194 252 306 375 453
#     4  12  26  46  79 108 149 198 252 312 379 449
#     4  12  26  48  77 108 146 194 254 318 368 442
#     4  12  27  50  71 110 152 196 252 306 380 455
#     4  12  27  47  76 111 146 198 254 306 377 445
#     4  12  27  50  76 109 154 199 252 315 376 452
#
# _framework density 22.770222
#
# number of rings (size 3 to 8) (size 9 to 14) (size 15 to 20)
#    0.000    0.000    5.000    3.750   10.500    1.000 
#    0.000    0.000    0.000    0.000    0.000    0.000 
#    0.000    0.000    0.000    0.000    0.000    0.000 
#
# Total GULP energy -198234.793066 kJ/mol
# GULP energy per Si atom -12389.674567 kJ/mol
# Density = 2.271840 g / cm^3
# Si number density = 22.770222 Si / 1000 Ang^3
#
#
#
# Elastic Constant Matrix: (Units=GPa)
#
#
# Indices 1 2 3 4 5 6 
#
# 1 122.8208 24.3154 34.2735 -4.9795 0.0567 -22.7460
# 2 24.3154 107.3897 27.8011 -4.6883 -7.2167 -5.4475
# 3 34.2735 27.8011 149.5084 15.4560 4.2082 -13.9502
# 4 -4.9795 -4.6883 15.4560 51.2956 -5.8327 5.9220
# 5 0.0567 -7.2167 4.2082 -5.8327 35.4172 -0.9707
# 6 -22.7460 -5.4475 -13.9502 5.9220 -0.9707 49.2034
#
#
#
# Elastic Compliance Matrix: (Units=1/GPa)
#
#
# Indices 1 2 3 4 5 6 
#
# 1 0.009631 -0.001512 -0.001676 0.000888 0.000124 0.003705
# 2 -0.001512 0.010370 -0.001850 0.001681 0.002606 -0.000226
# 3 -0.001676 -0.001850 0.007939 -0.003113 -0.001786 0.001611
# 4 0.000888 0.001681 -0.003113 0.021469 0.004170 -0.002788
# 5 0.000124 0.002606 -0.001786 0.004170 0.029663 -0.000077
# 6 0.003705 -0.000226 0.001611 -0.002788 -0.000077 0.022802
#
#
# Mechanical properties :
#
#
# Convention : Reuss Voigt Hill
#
# Bulk Modulus (GPa) = 55.97702 61.38878 58.68290
# Shear Modulus (GPa) = 42.40705 46.73849 44.57277
#
# Velocity S-wave (km/s) = 4.32022 4.53549 4.42917
# Velocity P-wave (km/s) = 7.03723 7.37877 7.21002
#
# Compressibility (1/GPa) = 0.01786447
#
# Stress axis : x y z
#
# Youngs Moduli (GPa) = 103.82975 96.43087 125.95629
#
# Poissons Ratio (x) = 0.14578 0.21114
# Poissons Ratio (y) = 0.15696 0.23302
# Poissons Ratio (z) = 0.17405 0.17840
#
# Static dielectric constant tensor:
#      x y z
#    x 4.106640 0.047600 0.046740 
#    y 0.047600 4.250950 0.032580 
#    z 0.046740 0.032580 4.096830 
# 
# 
# High freq. dielectric constant tensor:
#      x y z
#    x 1.906590 0.000300 0.007040 
#    y 0.000300 1.919360 0.006080 
#    z 0.007040 0.006080 1.913290 
# 
# From -- ./inp_files/495771.got.cif
#   From: 2010.06.25/outbox.cif.g09.slc.cpg/sg2_248_cif.got.tgz:495771.got - 2010.06.27 13:26:56.
