data_PCOD8037435
_publ_section_title
;
Structure prediction by ZEFSAII (Michael W. Deem and Ramdas Pophale) SiO2 
 PCOD8037435
Probable space group: P -1
;
_chemical_formula_sum "Si O2"
_cell_formula_units_Z 16
_cell_length_a 9.258684
_cell_length_b 26.729690
_cell_length_c 26.404961
_cell_angle_alpha 169.192467
_cell_angle_beta 38.299314
_cell_angle_gamma 143.242656
_cell_volume 733.134142
_symmetry_space_group_name_H-M "P -1"
_symmetry_group_IT_number 2
_symmetry_cell_setting 'triclinic'
loop_
_space_group_symop_operation_xyz
x,y,z
-x,-y,-z
loop_
_atom_site_type_symbol
_atom_site_label
_atom_site_fract_x
_atom_site_fract_y
_atom_site_fract_z
Si Si1 0.435697 0.250114 0.575040
Si Si2 0.736679 0.085520 0.985989
Si Si3 0.893520 0.214296 0.271652
Si Si4 0.174356 0.347106 0.641886
Si Si5 0.355109 0.711726 0.233106
Si Si6 0.650482 0.073095 0.881448
Si Si7 0.269977 0.683286 0.111123
Si Si8 0.024092 0.675763 0.526433
O O1 0.315282 0.276216 0.580731
O O2 0.706458 0.228831 0.473765
O O3 0.281911 0.972892 0.368647
O O4 0.443439 0.520730 0.875117
O O5 0.919557 0.349388 0.223181
O O6 0.669716 0.149455 0.011116
O O7 0.500000 0.000000 0.000000
O O8 0.860794 0.834389 0.698343
O O9 0.984579 0.238785 0.328191
O O10 0.000000 0.500000 0.500000
O O11 0.606011 0.129964 0.264118
O O12 0.000000 0.000000 0.000000
O O13 0.910928 0.371692 0.753277
O O14 0.157507 0.097705 0.358282
O O15 0.318225 0.642111 0.873896
O O16 0.350981 0.735403 0.197868
O O17 0.500000 0.000000 0.500000
O O18 0.500000 0.500000 0.000000
O O19 0.000000 0.500000 0.000000
#
# Coordination Sequence:
#
# PCOD8037435 Si02
#       8
#     2   2   2   2   2   2   2   2
#     4  12  26  45  75 107 141 181 243 297 344 410
#     4  12  27  48  70 103 147 186 230 292 355 422
#     4  12  25  43  70 104 137 179 236 286 340 420
#     4  12  26  46  74 103 146 182 233 301 349 413
#     4  12  28  46  71 106 146 184 236 287 351 420
#     4  12  26  45  74 102 140 192 232 281 371 415
#     4  12  26  45  76 102 142 194 235 283 355 420
#     4  12  26  45  72 102 140 182 235 290 346 414
#
# _framework density 21.824112
#
# number of rings (size 3 to 8) (size 9 to 14) (size 15 to 20)
#    0.000    0.000    2.500    7.500    3.500    6.000 
#    0.000    0.000    0.000    0.000    0.000    0.000 
#    0.000    0.000    0.000    0.000    0.000    0.000 
#
# Total GULP energy -198528.615695 kJ/mol
# GULP energy per Si atom -12408.038481 kJ/mol
# Density = 2.177444 g / cm^3
# Si number density = 21.824112 Si / 1000 Ang^3
#
#
#
# Elastic Constant Matrix: (Units=GPa)
#
#
# Indices 1 2 3 4 5 6 
#
# 1 135.7885 64.0900 45.0226 4.4713 2.1238 -15.6511
# 2 64.0900 122.6159 42.6428 -0.9031 -7.9021 -6.2662
# 3 45.0226 42.6428 136.7814 -4.4055 -2.7109 -12.8909
# 4 4.4713 -0.9031 -4.4055 45.0681 -0.6635 -0.9484
# 5 2.1238 -7.9021 -2.7109 -0.6635 48.4722 -7.1324
# 6 -15.6511 -6.2662 -12.8909 -0.9484 -7.1324 44.5952
#
#
#
# Elastic Compliance Matrix: (Units=1/GPa)
#
#
# Indices 1 2 3 4 5 6 
#
# 1 0.010585 -0.004860 -0.001813 -0.001291 -0.001034 0.002315
# 2 -0.004860 0.011488 -0.001958 0.000542 0.001934 -0.000336
# 3 -0.001813 -0.001958 0.008723 0.001037 0.000515 0.001715
# 4 -0.001291 0.000542 0.001037 0.022448 0.000583 0.000493
# 5 -0.001034 0.001934 0.000515 0.000583 0.021545 0.003516
# 6 0.002315 -0.000336 0.001715 0.000493 0.003516 0.024258
#
#
# Mechanical properties :
#
#
# Convention : Reuss Voigt Hill
#
# Bulk Modulus (GPa) = 73.88247 77.63295 75.75771
# Shear Modulus (GPa) = 41.38403 43.85579 42.61991
#
# Velocity S-wave (km/s) = 4.35932 4.48762 4.42394
# Velocity P-wave (km/s) = 7.69840 7.90576 7.80277
#
# Compressibility (1/GPa) = 0.01353501
#
# Stress axis : x y z
#
# Youngs Moduli (GPa) = 94.47485 87.04649 114.63708
#
# Poissons Ratio (x) = 0.42304 0.20782
# Poissons Ratio (y) = 0.45915 0.22443
# Poissons Ratio (z) = 0.17127 0.17041
#
# Static dielectric constant tensor:
#      x y z
#    x 4.020700 -0.030600 0.026000 
#    y -0.030600 4.565790 -0.201880 
#    z 0.026000 -0.201880 4.169370 
# 
# 
# High freq. dielectric constant tensor:
#      x y z
#    x 1.866620 -0.005630 0.001300 
#    y -0.005630 1.877120 -0.003710 
#    z 0.001300 -0.003710 1.882330 
# 
# From -- ./inp_files/223350.got.cif
#   From: 2010.06.25/outbox.cif.g09.slc.cpg/sg2_112_cif.got.tgz:223350.got - 2010.06.27 13:26:56.
