data_PCOD8037778
_publ_section_title
;
Structure prediction by ZEFSAII (Michael W. Deem and Ramdas Pophale) SiO2 
 PCOD8037778
Probable space group: P -1
;
_chemical_formula_sum "Si O2"
_cell_formula_units_Z 16
_cell_length_a 26.365962
_cell_length_b 26.791241
_cell_length_c 8.485254
_cell_angle_alpha 41.320259
_cell_angle_beta 139.799788
_cell_angle_gamma 169.287987
_cell_volume 719.087788
_symmetry_space_group_name_H-M "P -1"
_symmetry_group_IT_number 2
_symmetry_cell_setting 'triclinic'
loop_
_space_group_symop_operation_xyz
x,y,z
-x,-y,-z
loop_
_atom_site_type_symbol
_atom_site_label
_atom_site_fract_x
_atom_site_fract_y
_atom_site_fract_z
Si Si1 0.054774 0.767643 0.408452
Si Si2 0.528473 0.732590 0.916416
Si Si3 0.135265 0.104989 0.737433
Si Si4 0.874201 0.170628 0.201336
Si Si5 0.934964 0.397487 0.249081
Si Si6 0.576641 0.607112 0.763186
Si Si7 0.371416 0.894246 0.276023
Si Si8 0.538389 0.331036 0.722572
O O1 0.133750 0.848495 0.585880
O O2 0.031943 0.660769 0.552991
O O3 0.758145 0.533350 0.230748
O O4 0.299785 0.031853 0.261180
O O5 0.714508 0.836464 0.046422
O O6 0.456831 0.655235 0.111611
O O7 0.358685 0.376632 0.661480
O O8 0.000000 0.000000 0.500000
O O9 0.893135 0.876607 0.834697
O O10 0.166923 0.421343 0.228471
O O11 0.663581 0.921256 0.208577
O O12 0.803475 0.190758 0.942161
O O13 0.157255 0.628583 0.360442
O O14 0.619296 0.127224 0.185177
O O15 0.000000 0.500000 0.000000
O O16 0.557998 0.680028 0.558942
O O17 0.500000 0.500000 0.000000
O O18 0.500000 0.000000 0.500000
#
# Coordination Sequence:
#
# PCOD8037778 Si02
#       8
#     2   2   2   2   2   2   2   2
#     4  12  28  47  75 107 142 191 240 295 358 424
#     4  12  28  47  75 107 142 191 240 295 358 424
#     4  12  26  50  74 103 145 188 245 296 350 423
#     4  12  28  48  73 105 150 188 235 295 363 426
#     4  12  26  50  74 103 145 188 245 296 350 423
#     4  12  28  48  74 108 144 192 239 293 359 424
#     4  12  28  48  74 108 144 192 239 293 359 424
#     4  12  28  48  73 105 150 188 235 295 363 426
#
# _framework density 22.250412000000001
#
# number of rings (size 3 to 8) (size 9 to 14) (size 15 to 20)
#    0.000    0.000    2.500    6.000   14.000    0.000 
#    0.000    0.000    0.000    0.000    0.000    0.000 
#    0.000    0.000    0.000    0.000    0.000    0.000 
#
# Total GULP energy -198552.312993 kJ/mol
# GULP energy per Si atom -12409.519562 kJ/mol
# Density = 2.219977 g / cm^3
# Si number density = 22.250412 Si / 1000 Ang^3
#
#
#
# Elastic Constant Matrix: (Units=GPa)
#
#
# Indices 1 2 3 4 5 6 
#
# 1 118.2144 58.3654 40.0354 15.6726 10.8542 39.4987
# 2 58.3654 178.4045 31.4457 16.6381 11.6119 36.5702
# 3 40.0354 31.4457 112.6112 18.0597 -5.1400 38.3904
# 4 15.6726 16.6381 18.0597 43.9626 2.2043 -1.6360
# 5 10.8542 11.6119 -5.1400 2.2043 23.3858 6.4279
# 6 39.4987 36.5702 38.3904 -1.6360 6.4279 53.8749
#
#
#
# Elastic Compliance Matrix: (Units=1/GPa)
#
#
# Indices 1 2 3 4 5 6 
#
# 1 0.012962 -0.002080 -0.001248 -0.003427 -0.003025 -0.006944
# 2 -0.002080 0.007247 0.000140 -0.002111 -0.001473 -0.003382
# 3 -0.001248 0.000140 0.014072 -0.006120 0.006991 -0.010227
# 4 -0.003427 -0.002111 -0.006120 0.027839 -0.003976 0.009626
# 5 -0.003025 -0.001473 0.006991 -0.003976 0.048931 -0.007722
# 6 -0.006944 -0.003382 -0.010227 0.009626 -0.007722 0.034450
#
#
# Mechanical properties :
#
#
# Convention : Reuss Voigt Hill
#
# Bulk Modulus (GPa) = 35.83713 74.32477 55.08095
# Shear Modulus (GPa) = 31.02156 42.87023 36.94590
#
# Velocity S-wave (km/s) = 3.73795 4.39420 4.07929
# Velocity P-wave (km/s) = 5.89669 7.69556 6.85538
#
# Compressibility (1/GPa) = 0.02790402
#
# Stress axis : x y z
#
# Youngs Moduli (GPa) = 77.15132 137.98431 71.06391
#
# Poissons Ratio (x) = 0.28705 0.08870
# Poissons Ratio (y) = 0.16050 -0.00996
# Poissons Ratio (z) = 0.09630 -0.01935
#
# Static dielectric constant tensor:
#      x y z
#    x 4.077480 0.077210 -0.156230 
#    y 0.077210 4.593850 0.397830 
#    z -0.156230 0.397830 4.058810 
# 
# 
# High freq. dielectric constant tensor:
#      x y z
#    x 1.894340 0.001270 0.002300 
#    y 0.001270 1.902650 -0.000360 
#    z 0.002300 -0.000360 1.887690 
# 
# From -- ./inp_files/357992.got.cif
#   From: 2010.06.25/outbox.cif.g09.slc.cpg/sg2_179_cif.got.tgz:357992.got - 2010.06.27 13:26:56.
