data_PCOD8037440
_publ_section_title
;
Structure prediction by ZEFSAII (Michael W. Deem and Ramdas Pophale) SiO2 
 PCOD8037440
Probable space group: P -1
;
_chemical_formula_sum "Si O2"
_cell_formula_units_Z 12
_cell_length_a 9.432957
_cell_length_b 14.629093
_cell_length_c 12.426992
_cell_angle_alpha 19.270113
_cell_angle_beta 110.651190
_cell_angle_gamma 109.111453
_cell_volume 529.495730
_symmetry_space_group_name_H-M "P -1"
_symmetry_group_IT_number 2
_symmetry_cell_setting 'triclinic'
loop_
_space_group_symop_operation_xyz
x,y,z
-x,-y,-z
loop_
_atom_site_type_symbol
_atom_site_label
_atom_site_fract_x
_atom_site_fract_y
_atom_site_fract_z
Si Si1 0.603635 0.253187 0.265843
Si Si2 0.282904 0.464592 0.221766
Si Si3 0.147266 0.575738 0.522830
Si Si4 0.854614 0.017803 0.739402
Si Si5 0.539280 0.301409 0.634521
Si Si6 0.908604 0.045209 0.315118
O O1 0.717599 0.194449 0.458066
O O2 0.500000 0.000000 0.500000
O O3 0.500000 0.500000 0.000000
O O4 0.692034 0.322267 0.104887
O O5 0.437622 0.391640 0.405553
O O6 0.222060 0.180082 0.474013
O O7 0.160541 0.641485 0.063087
O O8 0.096969 0.818678 0.321995
O O9 0.283532 0.686656 0.361959
O O10 0.000000 0.500000 0.500000
O O11 0.203232 0.291617 0.909946
O O12 0.991837 0.002709 0.710145
O O13 0.500000 0.500000 0.500000
O O14 0.500000 0.000000 0.000000
O O15 0.000000 0.000000 0.500000
#
# Coordination Sequence:
#
# PCOD8037440 Si02
#       6
#     2   2   2   2   2   2
#     4  12  25  43  73 104 143 189 236 302 377 438
#     4  12  26  45  73 107 149 186 247 302 365 444
#     4  12  29  51  77 109 146 196 253 304 370 437
#     4  12  26  47  76 106 151 187 244 304 367 442
#     4  12  28  50  77 107 146 195 252 308 367 433
#     4  12  26  45  74 113 147 194 239 292 376 444
#
# _framework density 22.663073000000001
#
# number of rings (size 3 to 8) (size 9 to 14) (size 15 to 20)
#    0.000    0.000    1.667    8.000    9.333    0.000 
#    0.000    0.000    0.000    0.000    0.000    0.000 
#    0.000    0.000    0.000    0.000    0.000    0.000 
#
# Total GULP energy -148864.616423 kJ/mol
# GULP energy per Si atom -12405.384702 kJ/mol
# Density = 2.261149 g / cm^3
# Si number density = 22.663073 Si / 1000 Ang^3
#
#
#
# Elastic Constant Matrix: (Units=GPa)
#
#
# Indices 1 2 3 4 5 6 
#
# 1 142.2130 61.4361 39.1572 0.8660 -3.4037 -3.1663
# 2 61.4361 143.0212 31.9461 -16.7544 -6.2649 -1.2318
# 3 39.1572 31.9461 127.1431 -12.7325 -5.6547 1.3157
# 4 0.8660 -16.7544 -12.7325 46.3562 0.2609 7.4161
# 5 -3.4037 -6.2649 -5.6547 0.2609 50.0098 -1.3921
# 6 -3.1663 -1.2318 1.3157 7.4161 -1.3921 50.8894
#
#
#
# Elastic Compliance Matrix: (Units=1/GPa)
#
#
# Indices 1 2 3 4 5 6 
#
# 1 0.009283 -0.003767 -0.002150 -0.002265 -0.000047 0.000871
# 2 -0.003767 0.009196 -0.000786 0.003245 0.000777 -0.000443
# 3 -0.002150 -0.000786 0.008999 0.002336 0.000741 -0.000706
# 4 -0.002265 0.003245 0.002336 0.024005 0.000291 -0.003613
# 5 -0.000047 0.000777 0.000741 0.000291 0.020187 0.000507
# 6 0.000871 -0.000443 -0.000706 -0.003613 0.000507 0.020253
#
#
# Mechanical properties :
#
#
# Convention : Reuss Voigt Hill
#
# Bulk Modulus (GPa) = 71.06920 75.27292 73.17106
# Shear Modulus (GPa) = 45.44570 48.10695 46.77632
#
# Velocity S-wave (km/s) = 4.48289 4.61228 4.54804
# Velocity P-wave (km/s) = 7.63034 7.85176 7.74184
#
# Compressibility (1/GPa) = 0.01407079
#
# Stress axis : x y z
#
# Youngs Moduli (GPa) = 107.72015 108.74032 111.12059
#
# Poissons Ratio (x) = 0.40966 0.23895
# Poissons Ratio (y) = 0.40581 0.08738
# Poissons Ratio (z) = 0.23164 0.08550
#
# Static dielectric constant tensor:
#      x y z
#    x 4.197910 -0.180960 0.045050 
#    y -0.180960 4.618580 -0.040970 
#    z 0.045050 -0.040970 4.405510 
# 
# 
# High freq. dielectric constant tensor:
#      x y z
#    x 1.907060 -0.003290 0.004410 
#    y -0.003290 1.911920 -0.007550 
#    z 0.004410 -0.007550 1.913510 
# 
# From -- ./inp_files/60562.got.cif
#   From: 2010.06.25/outbox.cif.g09.slc.cpg/sg2_31_cif.got.tgz:60562.got - 2010.06.27 13:26:56.
