data_PCOD8037752
_publ_section_title
;
Structure prediction by ZEFSAII (Michael W. Deem and Ramdas Pophale) SiO2 
 PCOD8037752
Probable space group: P -1
;
_chemical_formula_sum "Si O2"
_cell_formula_units_Z 12
_cell_length_a 21.062508
_cell_length_b 7.553817
_cell_length_c 13.927125
_cell_angle_alpha 145.094488
_cell_angle_beta 22.072133
_cell_angle_gamma 146.345011
_cell_volume 448.647433
_symmetry_space_group_name_H-M "P -1"
_symmetry_group_IT_number 2
_symmetry_cell_setting 'triclinic'
loop_
_space_group_symop_operation_xyz
x,y,z
-x,-y,-z
loop_
_atom_site_type_symbol
_atom_site_label
_atom_site_fract_x
_atom_site_fract_y
_atom_site_fract_z
Si Si1 0.219410 0.925651 0.696148
Si Si2 0.333566 0.421618 0.906386
Si Si3 0.868639 0.159833 0.570065
Si Si4 0.912104 0.290029 0.874207
Si Si5 0.566059 0.754174 0.106632
Si Si6 0.284072 0.333760 0.597484
O O1 0.392334 0.818002 0.418539
O O2 0.043633 0.610008 0.776710
O O3 0.189450 0.096080 0.914564
O O4 0.249034 0.190294 0.689146
O O5 0.352095 0.379180 0.976007
O O6 0.509341 0.455767 0.613254
O O7 0.270316 0.740535 0.122059
O O8 0.000000 0.500000 0.500000
O O9 0.756679 0.953637 0.548789
O O10 0.974514 0.951205 0.379774
O O11 0.837688 0.427811 0.135562
O O12 0.725860 0.077956 0.986854
O O13 0.500000 0.500000 0.000000
#
# Coordination Sequence:
#
# PCOD8037752 Si02
#       6
#     2   2   2   2   2   2
#     4  12  28  52  82 117 160 208 269 323 392 473
#     4  12  26  52  83 115 161 208 260 334 394 467
#     4  12  26  48  78 117 157 204 269 323 395 467
#     4  12  28  51  85 111 160 211 263 326 397 463
#     4  12  28  52  80 118 158 205 270 326 397 471
#     4  12  27  53  78 117 160 213 263 323 394 475
#
# _framework density 26.747060999999999
#
# number of rings (size 3 to 8) (size 9 to 14) (size 15 to 20)
#    0.000    0.000    3.333    5.500    2.333    2.000 
#    3.000    0.000    0.000    0.000    0.000    0.000 
#    0.000    0.000    0.000    0.000    0.000    0.000 
#
# Total GULP energy -148712.811765 kJ/mol
# GULP energy per Si atom -12392.734314 kJ/mol
# Density = 2.668618 g / cm^3
# Si number density = 26.747061 Si / 1000 Ang^3
#
#
#
# Elastic Constant Matrix: (Units=GPa)
#
#
# Indices 1 2 3 4 5 6 
#
# 1 65.2071 49.6204 38.4724 0.4556 16.5869 13.9556
# 2 49.6204 179.2720 40.8040 -3.6877 16.0451 33.1282
# 3 38.4724 40.8040 161.1427 20.1546 -13.8473 10.7401
# 4 0.4556 -3.6877 20.1546 60.1750 7.6950 5.6502
# 5 16.5869 16.0451 -13.8473 7.6950 31.8543 3.8187
# 6 13.9556 33.1282 10.7401 5.6502 3.8187 42.1177
#
#
#
# Elastic Compliance Matrix: (Units=1/GPa)
#
#
# Indices 1 2 3 4 5 6 
#
# 1 0.027261 -0.003735 -0.007272 0.004379 -0.016130 -0.003366
# 2 -0.003735 0.008036 -0.001253 0.001706 -0.002488 -0.004767
# 3 -0.007272 -0.001253 0.009606 -0.004532 0.009606 0.000682
# 4 0.004379 0.001706 -0.004532 0.019740 -0.009467 -0.003427
# 5 -0.016130 -0.002488 0.009606 -0.009467 0.047288 0.001835
# 6 -0.003366 -0.004767 0.000682 -0.003427 0.001835 0.028727
#
#
# Mechanical properties :
#
#
# Convention : Reuss Voigt Hill
#
# Bulk Modulus (GPa) = 49.05907 73.71284 61.38595
# Shear Modulus (GPa) = 29.07471 45.27775 37.17623
#
# Velocity S-wave (km/s) = 3.30058 4.11884 3.73221
# Velocity P-wave (km/s) = 5.73644 7.08794 6.44770
#
# Compressibility (1/GPa) = 0.02038359
#
# Stress axis : x y z
#
# Youngs Moduli (GPa) = 36.68244 124.44655 104.10304
#
# Poissons Ratio (x) = 0.46476 0.75706
# Poissons Ratio (y) = 0.13699 0.13040
# Poissons Ratio (z) = 0.26676 0.15588
#
# Static dielectric constant tensor:
#      x y z
#    x 4.501780 0.104590 -0.535940 
#    y 0.104590 5.413570 0.508540 
#    z -0.535940 0.508540 6.241290 
# 
# 
# High freq. dielectric constant tensor:
#      x y z
#    x 2.050620 0.015450 -0.013890 
#    y 0.015450 2.097950 0.006850 
#    z -0.013890 0.006850 2.103540 
# 
# From -- ./inp_files/542468.got.cif
#   From: 2010.06.25/outbox.cif.g09.slc.cpg/sg2_272_cif.got.tgz:542468.got - 2010.06.27 13:26:56.
