data_PCOD8037086
_publ_section_title
;
Structure prediction by ZEFSAII (Michael W. Deem and Ramdas Pophale) SiO2 
 PCOD8037086
Probable space group: P -1
;
_chemical_formula_sum "Si O2"
_cell_formula_units_Z 14
_cell_length_a 8.418572
_cell_length_b 18.005111
_cell_length_c 7.972353
_cell_angle_alpha 59.485018
_cell_angle_beta 146.184572
_cell_angle_gamma 120.661020
_cell_volume 569.504641
_symmetry_space_group_name_H-M "P -1"
_symmetry_group_IT_number 2
_symmetry_cell_setting 'triclinic'
loop_
_space_group_symop_operation_xyz
x,y,z
-x,-y,-z
loop_
_atom_site_type_symbol
_atom_site_label
_atom_site_fract_x
_atom_site_fract_y
_atom_site_fract_z
Si Si1 0.858768 0.637110 0.459031
Si Si2 0.405735 0.083194 0.233548
Si Si3 0.930435 0.659792 0.885135
Si Si4 0.523213 0.230529 0.609770
Si Si5 0.677907 0.476208 0.025510
Si Si6 0.927594 0.185967 0.725457
Si Si7 0.266608 0.055866 0.766039
O O1 0.904806 0.665675 0.657298
O O2 0.540602 0.578311 0.236254
O O3 0.877033 0.722170 0.260096
O O4 0.093413 0.583739 0.649932
O O5 0.715618 0.150453 0.421746
O O6 0.500000 0.000000 0.500000
O O7 0.244746 0.061366 0.940728
O O8 0.150723 0.123764 0.058249
O O9 0.718576 0.715584 0.731845
O O10 0.860429 0.560390 0.998923
O O11 0.261110 0.700277 0.169212
O O12 0.696518 0.191025 0.663127
O O13 0.347994 0.153879 0.657253
O O14 0.500000 0.500000 0.000000
O O15 0.000000 0.000000 0.500000
O O16 0.500000 0.000000 0.000000
#
# Coordination Sequence:
#
# PCOD8037086 Si02
#       7
#     2   2   2   2   2   2   2
#     4  12  24  43  68  98 136 181 228 283 343 412
#     4  12  26  46  71 102 139 182 231 289 350 417
#     4  12  24  43  67  99 135 180 230 283 343 411
#     4  12  25  44  69  99 135 179 228 285 344 412
#     4  12  24  42  66  99 137 179 227 284 343 409
#     4  12  25  45  69 102 138 182 232 288 349 415
#     4  12  26  47  71 101 137 181 229 284 347 416
#
# _framework density 24.582764000000001
#
# number of rings (size 3 to 8) (size 9 to 14) (size 15 to 20)
#    0.000    0.000    0.000   11.143    0.000    2.286 
#    0.000    0.000    0.000    0.000    0.000    0.000 
#    0.000    0.000    0.000    0.000    0.000    0.000 
#
# Total GULP energy -173603.666559 kJ/mol
# GULP energy per Si atom -12400.261897 kJ/mol
# Density = 2.452681 g / cm^3
# Si number density = 24.582764 Si / 1000 Ang^3
#
#
#
# Elastic Constant Matrix: (Units=GPa)
#
#
# Indices 1 2 3 4 5 6 
#
# 1 90.0829 41.1060 18.7597 -17.9123 -2.5548 8.8005
# 2 41.1060 152.7578 66.9510 8.2375 5.0809 18.2598
# 3 18.7597 66.9510 134.2179 1.9697 12.8244 11.7964
# 4 -17.9123 8.2375 1.9697 59.1518 -5.5244 15.6551
# 5 -2.5548 5.0809 12.8244 -5.5244 42.7663 -4.9306
# 6 8.8005 18.2598 11.7964 15.6551 -4.9306 34.2303
#
#
#
# Elastic Compliance Matrix: (Units=1/GPa)
#
#
# Indices 1 2 3 4 5 6 
#
# 1 0.014534 -0.003777 -0.000013 0.006226 0.001626 -0.004330
# 2 -0.003777 0.009702 -0.004043 -0.001880 -0.000644 -0.002044
# 3 -0.000013 -0.004043 0.009875 0.000471 -0.002633 -0.001838
# 4 0.006226 -0.001880 0.000471 0.022019 0.002084 -0.010530
# 5 0.001626 -0.000644 -0.002633 0.002084 0.025017 0.003483
# 6 -0.004330 -0.002044 -0.001838 -0.010530 0.003483 0.037369
#
#
# Mechanical properties :
#
#
# Convention : Reuss Voigt Hill
#
# Bulk Modulus (GPa) = 54.21685 70.07688 62.14686
# Shear Modulus (GPa) = 35.63014 43.91246 39.77130
#
# Velocity S-wave (km/s) = 3.81122 4.23106 4.02662
# Velocity P-wave (km/s) = 6.43971 7.24138 6.85228
#
# Compressibility (1/GPa) = 0.01844445
#
# Stress axis : x y z
#
# Youngs Moduli (GPa) = 68.80206 103.07406 101.26392
#
# Poissons Ratio (x) = 0.38936 0.00135
# Poissons Ratio (y) = 0.25990 0.40938
# Poissons Ratio (z) = 0.00092 0.41669
#
# Static dielectric constant tensor:
#      x y z
#    x 4.331610 -0.156930 0.246040 
#    y -0.156930 4.908050 0.156770 
#    z 0.246040 0.156770 4.891110 
# 
# 
# High freq. dielectric constant tensor:
#      x y z
#    x 1.972450 -0.010090 0.013040 
#    y -0.010090 2.003500 0.006080 
#    z 0.013040 0.006080 1.999110 
# 
# From -- ./inp_files/217218.got.cif
#   From: 2010.06.25/outbox.cif.g09.slc.cpg/sg2_109_cif.got.tgz:217218.got - 2010.06.27 13:26:56.
