data_PCOD8037676
_publ_section_title
;
Structure prediction by ZEFSAII (Michael W. Deem and Ramdas Pophale) SiO2 
 PCOD8037676
Probable space group: P -1
;
_chemical_formula_sum "Si O2"
_cell_formula_units_Z 14
_cell_length_a 8.574011
_cell_length_b 9.294998
_cell_length_c 12.697917
_cell_angle_alpha 124.704443
_cell_angle_beta 110.478176
_cell_angle_gamma 107.612626
_cell_volume 591.250801
_symmetry_space_group_name_H-M "P -1"
_symmetry_group_IT_number 2
_symmetry_cell_setting 'triclinic'
loop_
_space_group_symop_operation_xyz
x,y,z
-x,-y,-z
loop_
_atom_site_type_symbol
_atom_site_label
_atom_site_fract_x
_atom_site_fract_y
_atom_site_fract_z
Si Si1 0.472321 0.509630 0.617824
Si Si2 0.952096 0.619055 0.458356
Si Si3 0.430014 0.149807 0.576082
Si Si4 0.645119 0.863823 0.216594
Si Si5 0.005427 0.175893 0.776255
Si Si6 0.794231 0.377276 0.095974
Si Si7 0.843016 0.019536 0.909745
O O1 0.500000 0.500000 0.500000
O O2 0.217601 0.359556 0.523391
O O3 0.562363 0.392631 0.645377
O O4 0.604301 0.779236 0.783704
O O5 0.853052 0.490375 0.271080
O O6 0.000000 0.500000 0.500000
O O7 0.187141 0.867519 0.605390
O O8 0.482201 0.240560 0.746124
O O9 0.500000 0.000000 0.500000
O O10 0.171836 0.993235 0.425252
O O11 0.769901 0.775863 0.171395
O O12 0.468195 0.791240 0.055160
O O13 0.074346 0.425846 0.881347
O O14 0.896093 0.060828 0.815077
O O15 0.869364 0.229454 0.049792
O O16 0.000000 0.000000 0.000000
#
# Coordination Sequence:
#
# PCOD8037676 Si02
#       7
#     2   2   2   2   2   2   2
#     4  12  27  49  74 110 149 195 250 306 376 442
#     4  12  28  48  80 110 152 196 250 314 376 443
#     4  12  26  45  80 109 148 199 253 304 374 447
#     4  12  26  50  78 112 148 197 256 310 371 443
#     4  12  25  52  77 109 152 201 252 309 373 448
#     4  12  29  49  78 112 151 198 255 306 377 449
#     4  12  30  47  72 112 156 197 245 312 379 441
#
# _framework density 23.678615000000001
#
# number of rings (size 3 to 8) (size 9 to 14) (size 15 to 20)
#    0.000    0.000    4.286    3.857   12.000    1.143 
#    0.000    0.000    0.000    0.000    0.000    0.000 
#    0.000    0.000    0.000    0.000    0.000    0.000 
#
# Total GULP energy -173586.724839 kJ/mol
# GULP energy per Si atom -12399.051774 kJ/mol
# Density = 2.362472 g / cm^3
# Si number density = 23.678615 Si / 1000 Ang^3
#
#
#
# Elastic Constant Matrix: (Units=GPa)
#
#
# Indices 1 2 3 4 5 6 
#
# 1 103.7350 59.1379 33.0716 0.8352 -3.8098 -15.4607
# 2 59.1379 177.8540 58.2329 3.7233 -8.8456 -18.6253
# 3 33.0716 58.2329 143.4500 -5.7319 8.9935 -3.6557
# 4 0.8352 3.7233 -5.7319 40.2724 -6.8921 -5.4915
# 5 -3.8098 -8.8456 8.9935 -6.8921 39.7585 0.9147
# 6 -15.4607 -18.6253 -3.6557 -5.4915 0.9147 44.5715
#
#
#
# Elastic Compliance Matrix: (Units=1/GPa)
#
#
# Indices 1 2 3 4 5 6 
#
# 1 0.012459 -0.003328 -0.001484 0.000360 0.000786 0.002837
# 2 -0.003328 0.007843 -0.002505 -0.000443 0.001874 0.001824
# 3 -0.001484 -0.002505 0.008504 0.000960 -0.002441 -0.000696
# 4 0.000360 -0.000443 0.000960 0.026146 0.004179 0.003154
# 5 0.000786 0.001874 -0.002441 0.004179 0.026902 0.000818
# 6 0.002837 0.001824 -0.000696 0.003154 0.000818 0.024497
#
#
# Mechanical properties :
#
#
# Convention : Reuss Voigt Hill
#
# Bulk Modulus (GPa) = 70.56495 80.65818 75.61157
# Shear Modulus (GPa) = 39.77409 43.22693 41.50051
#
# Velocity S-wave (km/s) = 4.10292 4.27730 4.19102
# Velocity P-wave (km/s) = 7.23264 7.65058 7.44455
#
# Compressibility (1/GPa) = 0.01417134
#
# Stress axis : x y z
#
# Youngs Moduli (GPa) = 80.26133 127.50138 117.59406
#
# Poissons Ratio (x) = 0.42435 0.17450
# Poissons Ratio (y) = 0.26713 0.29460
# Poissons Ratio (z) = 0.11910 0.31942
#
# Static dielectric constant tensor:
#      x y z
#    x 3.746820 -0.862340 -0.425170 
#    y -0.862340 3.138530 -0.978880 
#    z -0.425170 -0.978880 3.623850 
# 
# 
# High freq. dielectric constant tensor:
#      x y z
#    x 1.933540 -0.008040 0.001970 
#    y -0.008040 1.963490 0.006570 
#    z 0.001970 0.006570 1.949900 
# 
# From -- ./inp_files/278628.got.cif
#   From: 2010.06.25/outbox.cif.g09.slc.cpg/sg2_140_cif.got.tgz:278628.got - 2010.06.27 13:26:56.
