data_PCOD8037130
_publ_section_title
;
Structure prediction by ZEFSAII (Michael W. Deem and Ramdas Pophale) SiO2 
 PCOD8037130
Probable space group: P -1
;
_chemical_formula_sum "Si O2"
_cell_formula_units_Z 12
_cell_length_a 6.897897
_cell_length_b 9.151322
_cell_length_c 11.147847
_cell_angle_alpha 73.817612
_cell_angle_beta 112.899221
_cell_angle_gamma 126.400243
_cell_volume 520.684182
_symmetry_space_group_name_H-M "P -1"
_symmetry_group_IT_number 2
_symmetry_cell_setting 'triclinic'
loop_
_space_group_symop_operation_xyz
x,y,z
-x,-y,-z
loop_
_atom_site_type_symbol
_atom_site_label
_atom_site_fract_x
_atom_site_fract_y
_atom_site_fract_z
Si Si1 0.980748 0.592319 0.592992
Si Si2 0.682815 0.304119 0.787203
Si Si3 0.545727 0.563577 0.132519
Si Si4 0.261578 0.187123 0.531432
Si Si5 0.525652 0.778947 0.677657
Si Si6 0.927631 0.096574 0.863458
O O1 0.265677 0.765012 0.648422
O O2 0.000000 0.500000 0.500000
O O3 0.892873 0.459422 0.715843
O O4 0.786031 0.651242 0.513430
O O5 0.654432 0.386774 0.885586
O O6 0.408802 0.194829 0.683827
O O7 0.769534 0.168164 0.873255
O O8 0.498226 0.401826 0.241666
O O9 0.826106 0.738227 0.177990
O O10 0.500000 0.500000 0.000000
O O11 0.440475 0.213580 0.458283
O O12 0.000000 0.000000 0.500000
O O13 0.761231 0.957377 0.750955
O O14 0.000000 0.000000 0.000000
#
# Coordination Sequence:
#
# PCOD8037130 Si02
#       6
#     2   2   2   2   2   2
#     4  12  24  43  74 108 150 191 235 298 376 447
#     4  12  26  46  76 107 147 196 246 303 379 440
#     4  12  26  51  74 103 150 200 250 307 362 435
#     4  12  26  44  73 113 149 188 243 304 377 446
#     4  12  25  47  76 110 151 194 242 305 374 442
#     4  12  28  49  73 108 147 196 256 305 358 439
#
# _framework density 23.046600999999999
#
# number of rings (size 3 to 8) (size 9 to 14) (size 15 to 20)
#    0.000    0.000    6.667    3.500    2.333    2.667 
#    3.000    0.000    0.000    0.000    0.000    0.000 
#    0.000    0.000    0.000    0.000    0.000    0.000 
#
# Total GULP energy -148863.681408 kJ/mol
# GULP energy per Si atom -12405.306784 kJ/mol
# Density = 2.299415 g / cm^3
# Si number density = 23.046601 Si / 1000 Ang^3
#
#
#
# Elastic Constant Matrix: (Units=GPa)
#
#
# Indices 1 2 3 4 5 6 
#
# 1 168.8972 54.8864 52.7485 4.7656 -0.2039 -14.5067
# 2 54.8864 118.2095 27.8732 8.4294 -0.8760 9.5146
# 3 52.7485 27.8732 95.6203 5.6834 -4.2157 -13.7866
# 4 4.7656 8.4294 5.6834 37.8239 -7.8288 10.6977
# 5 -0.2039 -0.8760 -4.2157 -7.8288 46.3607 0.3914
# 6 -14.5067 9.5146 -13.7866 10.6977 0.3914 50.5135
#
#
#
# Elastic Compliance Matrix: (Units=1/GPa)
#
#
# Indices 1 2 3 4 5 6 
#
# 1 0.008167 -0.003164 -0.003257 -0.000537 -0.000429 0.002169
# 2 -0.003164 0.010667 -0.001786 -0.000814 -0.000085 -0.003232
# 3 -0.003257 -0.001786 0.013435 -0.002032 0.000801 0.003492
# 4 -0.000537 -0.000814 -0.002032 0.029974 0.004918 -0.006942
# 5 -0.000429 -0.000085 0.000801 0.004918 0.022479 -0.001104
# 6 0.002169 -0.003232 0.003492 -0.006942 -0.001104 0.023460
#
#
# Mechanical properties :
#
#
# Convention : Reuss Voigt Hill
#
# Bulk Modulus (GPa) = 63.06769 72.63813 67.85291
# Shear Modulus (GPa) = 38.49687 43.42087 40.95887
#
# Velocity S-wave (km/s) = 4.09148 4.34527 4.22028
# Velocity P-wave (km/s) = 7.05301 7.53402 7.29748
#
# Compressibility (1/GPa) = 0.01585598
#
# Stress axis : x y z
#
# Youngs Moduli (GPa) = 122.44265 93.74683 74.43226
#
# Poissons Ratio (x) = 0.29657 0.24246
# Poissons Ratio (y) = 0.38735 0.13291
# Poissons Ratio (z) = 0.39885 0.16740
#
# Static dielectric constant tensor:
#      x y z
#    x 4.724520 0.117460 0.156820 
#    y 0.117460 4.499120 0.064760 
#    z 0.156820 0.064760 3.957640 
# 
# 
# High freq. dielectric constant tensor:
#      x y z
#    x 1.932330 0.005090 0.003740 
#    y 0.005090 1.924110 0.004070 
#    z 0.003740 0.004070 1.900440 
# 
# From -- ./inp_files/21551.got.cif
#   From: 2010.06.25/outbox.cif.g09.slc.cpg/sg2_11_cif.got.tgz:21551.got - 2010.06.27 13:26:56.
