data_PCOD8037544
_publ_section_title
;
Structure prediction by ZEFSAII (Michael W. Deem and Ramdas Pophale) SiO2 
 PCOD8037544
Probable space group: P -1
;
_chemical_formula_sum "Si O2"
_cell_formula_units_Z 12
_cell_length_a 11.407559
_cell_length_b 15.118460
_cell_length_c 9.092946
_cell_angle_alpha 148.453466
_cell_angle_beta 50.220161
_cell_angle_gamma 142.505568
_cell_volume 496.151474
_symmetry_space_group_name_H-M "P -1"
_symmetry_group_IT_number 2
_symmetry_cell_setting 'triclinic'
loop_
_space_group_symop_operation_xyz
x,y,z
-x,-y,-z
loop_
_atom_site_type_symbol
_atom_site_label
_atom_site_fract_x
_atom_site_fract_y
_atom_site_fract_z
Si Si1 0.173434 0.709770 0.573561
Si Si2 0.049998 0.213815 0.334546
Si Si3 0.086615 0.932963 0.458740
Si Si4 0.322069 0.997424 0.122975
Si Si5 0.517067 0.692153 0.187287
Si Si6 0.524142 0.482597 0.624257
O O1 0.356308 0.713144 0.403793
O O2 0.000000 0.500000 0.500000
O O3 0.106756 0.749409 0.530752
O O4 0.231795 0.910455 0.912071
O O5 0.251452 0.415678 0.388739
O O6 0.071616 0.223896 0.512276
O O7 0.000000 0.000000 0.000000
O O8 0.168891 0.842314 0.156406
O O9 0.264215 0.104737 0.666995
O O10 0.000000 0.000000 0.500000
O O11 0.386993 0.235721 0.439188
O O12 0.500000 0.000000 0.000000
O O13 0.500000 0.500000 0.000000
O O14 0.481099 0.628659 0.953107
O O15 0.500000 0.500000 0.500000
#
# Coordination Sequence:
#
# PCOD8037544 Si02
#       6
#     2   2   2   2   2   2
#     4  12  28  49  79 111 154 199 256 315 380 452
#     4  12  26  47  74 114 150 199 254 310 375 450
#     4  12  26  45  76 108 151 198 252 303 378 443
#     4  12  25  47  72 106 147 197 249 309 372 444
#     4  12  25  48  75 108 151 204 247 307 388 446
#     4  12  26  47  73 108 148 196 248 311 373 446
#
# _framework density 24.186161999999999
#
# number of rings (size 3 to 8) (size 9 to 14) (size 15 to 20)
#    0.000    0.000    5.000    5.000    2.333    2.000 
#    0.000    2.500    0.000    0.000    0.000    0.000 
#    0.000    0.000    0.000    0.000    0.000    0.000 
#
# Total GULP energy -148670.291604 kJ/mol
# GULP energy per Si atom -12389.190967 kJ/mol
# Density = 2.413111 g / cm^3
# Si number density = 24.186162 Si / 1000 Ang^3
#
#
#
# Elastic Constant Matrix: (Units=GPa)
#
#
# Indices 1 2 3 4 5 6 
#
# 1 117.1591 29.0659 43.0038 -12.0235 2.7515 -10.3299
# 2 29.0659 112.1364 43.5355 -26.7856 1.5042 -0.3766
# 3 43.0038 43.5355 132.8713 -30.3749 13.2652 1.8020
# 4 -12.0235 -26.7856 -30.3749 49.9844 -3.0602 8.5430
# 5 2.7515 1.5042 13.2652 -3.0602 40.6597 -7.9286
# 6 -10.3299 -0.3766 1.8020 8.5430 -7.9286 46.5917
#
#
#
# Elastic Compliance Matrix: (Units=1/GPa)
#
#
# Indices 1 2 3 4 5 6 
#
# 1 0.010198 -0.001624 -0.003037 -0.000662 0.000823 0.002627
# 2 -0.001624 0.011249 -0.002173 0.004507 0.000564 -0.000916
# 3 -0.003037 -0.002173 0.010695 0.004837 -0.003338 -0.002560
# 4 -0.000662 0.004507 0.004837 0.026045 -0.000754 -0.005201
# 5 0.000823 0.000564 -0.003338 -0.000754 0.026519 0.004967
# 6 0.002627 -0.000916 -0.002560 -0.005201 0.004967 0.023936
#
#
# Mechanical properties :
#
#
# Convention : Reuss Voigt Hill
#
# Bulk Modulus (GPa) = 54.13840 65.93080 60.03460
# Shear Modulus (GPa) = 38.92034 43.88461 41.40247
#
# Velocity S-wave (km/s) = 4.01583 4.26426 4.14191
# Velocity P-wave (km/s) = 6.62836 7.18081 6.91011
#
# Compressibility (1/GPa) = 0.01847118
#
# Stress axis : x y z
#
# Youngs Moduli (GPa) = 98.06243 88.90043 93.50194
#
# Poissons Ratio (x) = 0.14440 0.28400
# Poissons Ratio (y) = 0.15928 0.20321
# Poissons Ratio (z) = 0.29785 0.19321
#
# Static dielectric constant tensor:
#      x y z
#    x 4.351420 0.419460 0.158980 
#    y 0.419460 4.692620 -0.466770 
#    z 0.158980 -0.466770 8.682390 
# 
# 
# High freq. dielectric constant tensor:
#      x y z
#    x 1.975690 0.013820 0.019660 
#    y 0.013820 1.972370 -0.025050 
#    z 0.019660 -0.025050 1.955180 
# 
# From -- ./inp_files/152306.got.cif
#   From: 2010.06.25/outbox.cif.g09.slc.cpg/sg2_77_cif.got.tgz:152306.got - 2010.06.27 13:26:56.
