data_PCOD8037533
_publ_section_title
;
Structure prediction by ZEFSAII (Michael W. Deem and Ramdas Pophale) SiO2 
 PCOD8037533
Probable space group: P -1
;
_chemical_formula_sum "Si O2"
_cell_formula_units_Z 14
_cell_length_a 8.803416
_cell_length_b 9.557992
_cell_length_c 8.663261
_cell_angle_alpha 111.387209
_cell_angle_beta 109.340014
_cell_angle_gamma 69.222594
_cell_volume 617.326023
_symmetry_space_group_name_H-M "P -1"
_symmetry_group_IT_number 2
_symmetry_cell_setting 'triclinic'
loop_
_space_group_symop_operation_xyz
x,y,z
-x,-y,-z
loop_
_atom_site_type_symbol
_atom_site_label
_atom_site_fract_x
_atom_site_fract_y
_atom_site_fract_z
Si Si1 0.167410 0.041436 0.022181
Si Si2 0.325237 0.814666 0.726716
Si Si3 0.039875 0.661767 0.036262
Si Si4 0.839774 0.636921 0.446620
Si Si5 0.952817 0.184940 0.584364
Si Si6 0.404741 0.095312 0.358444
Si Si7 0.657500 0.435074 0.129094
O O1 0.311768 0.990644 0.181472
O O2 0.125855 0.227610 0.053029
O O3 0.225126 0.968268 0.845401
O O4 0.000000 0.000000 0.000000
O O5 0.205010 0.744568 0.550012
O O6 0.464628 0.854189 0.685025
O O7 0.399204 0.684650 0.826062
O O8 0.095716 0.753794 0.234808
O O9 0.184446 0.646025 0.953599
O O10 0.000000 0.500000 0.000000
O O11 0.743182 0.750356 0.592722
O O12 0.698762 0.571619 0.295293
O O13 0.000000 0.500000 0.500000
O O14 0.894552 0.747670 0.386075
O O15 0.000000 0.000000 0.500000
O O16 0.500000 0.000000 0.500000
O O17 0.500000 0.500000 0.000000
#
# Coordination Sequence:
#
# PCOD8037533 Si02
#       7
#     2   2   2   2   2   2   2
#     4  12  26  50  80 110 152 204 262 311 388 475
#     4  12  27  47  76 112 156 199 255 323 390 462
#     4  12  27  47  80 112 152 205 261 320 386 464
#     4  12  26  50  75 108 152 204 264 314 384 467
#     4  12  25  46  78 114 149 203 264 316 386 470
#     4  12  31  47  77 114 158 200 258 330 396 458
#     4  12  29  47  75 111 157 200 255 324 393 455
#
# _framework density 22.678456000000001
#
# number of rings (size 3 to 8) (size 9 to 14) (size 15 to 20)
#    0.000    0.000    5.714    3.000    8.000    0.571 
#    0.000    0.000    0.000    0.000    0.000    0.000 
#    0.000    0.000    0.000    0.000    0.000    0.000 
#
# Total GULP energy -173591.094927 kJ/mol
# GULP energy per Si atom -12399.363923 kJ/mol
# Density = 2.262684 g / cm^3
# Si number density = 22.678456 Si / 1000 Ang^3
#
#
#
# Elastic Constant Matrix: (Units=GPa)
#
#
# Indices 1 2 3 4 5 6 
#
# 1 120.8500 34.4456 28.4143 -14.6279 -12.2969 21.8210
# 2 34.4456 134.1136 27.4583 -15.9170 3.6221 15.6730
# 3 28.4143 27.4583 132.3629 -11.3497 5.0338 1.9760
# 4 -14.6279 -15.9170 -11.3497 43.7491 -5.8487 -1.3551
# 5 -12.2969 3.6221 5.0338 -5.8487 52.0669 -3.5492
# 6 21.8210 15.6730 1.9760 -1.3551 -3.5492 44.1514
#
#
#
# Elastic Compliance Matrix: (Units=1/GPa)
#
#
# Indices 1 2 3 4 5 6 
#
# 1 0.010518 -0.001602 -0.001734 0.002724 0.002780 -0.004245
# 2 -0.001602 0.008647 -0.001205 0.002125 -0.000776 -0.002221
# 3 -0.001734 -0.001205 0.008289 0.001032 -0.000952 0.000869
# 4 0.002724 0.002125 0.001032 0.025196 0.003150 -0.001120
# 5 0.002780 -0.000776 -0.000952 0.003150 0.020409 0.000681
# 6 -0.004245 -0.002221 0.000869 -0.001120 0.000681 0.025517
#
#
# Mechanical properties :
#
#
# Convention : Reuss Voigt Hill
#
# Bulk Modulus (GPa) = 54.43185 63.10700 58.76943
# Shear Modulus (GPa) = 43.94320 47.79403 45.86862
#
# Velocity S-wave (km/s) = 4.40666 4.59569 4.50217
# Velocity P-wave (km/s) = 7.06720 7.48651 7.27987
#
# Compressibility (1/GPa) = 0.01837160
#
# Stress axis : x y z
#
# Youngs Moduli (GPa) = 95.07287 115.64281 120.64209
#
# Poissons Ratio (x) = 0.18527 0.20924
# Poissons Ratio (y) = 0.15231 0.14538
# Poissons Ratio (z) = 0.16489 0.13935
#
# Static dielectric constant tensor:
#      x y z
#    x 3.904900 -0.198220 -0.101240 
#    y -0.198220 4.351580 0.120500 
#    z -0.101240 0.120500 4.581290 
# 
# 
# High freq. dielectric constant tensor:
#      x y z
#    x 1.897040 0.005200 -0.004310 
#    y 0.005200 1.903990 -0.000850 
#    z -0.004310 -0.000850 1.918170 
# 
# From -- ./inp_files/159911.got.cif
#   From: 2010.06.25/outbox.cif.g09.slc.cpg/sg2_80_cif.got.tgz:159911.got - 2010.06.27 13:26:56.
