data_PCOD8037337
_publ_section_title
;
Structure prediction by ZEFSAII (Michael W. Deem and Ramdas Pophale) SiO2 
 PCOD8037337
Probable space group: P -1
;
_chemical_formula_sum "Si O2"
_cell_formula_units_Z 16
_cell_length_a 9.548509
_cell_length_b 11.168741
_cell_length_c 9.755675
_cell_angle_alpha 94.714751
_cell_angle_beta 137.233812
_cell_angle_gamma 80.382732
_cell_volume 695.233687
_symmetry_space_group_name_H-M "P -1"
_symmetry_group_IT_number 2
_symmetry_cell_setting 'triclinic'
loop_
_space_group_symop_operation_xyz
x,y,z
-x,-y,-z
loop_
_atom_site_type_symbol
_atom_site_label
_atom_site_fract_x
_atom_site_fract_y
_atom_site_fract_z
Si Si1 0.700775 0.088438 0.055606
Si Si2 0.266704 0.896949 0.599982
Si Si3 0.653158 0.727439 0.318479
Si Si4 0.475306 0.513341 0.823176
Si Si5 0.938153 0.331847 0.565408
Si Si6 0.136217 0.118430 0.330783
Si Si7 0.888778 0.601527 0.030524
Si Si8 0.721010 0.865250 0.855486
O O1 0.683615 0.071277 0.204440
O O2 0.886840 0.163875 0.156141
O O3 0.485834 0.162538 0.851574
O O4 0.751635 0.955911 0.009656
O O5 0.100053 0.806222 0.456608
O O6 0.482718 0.841809 0.676467
O O7 0.166744 0.017340 0.461133
O O8 0.521990 0.620532 0.252558
O O9 0.738848 0.773565 0.526443
O O10 0.846567 0.668527 0.359320
O O11 0.255873 0.598239 0.649911
O O12 0.658636 0.575389 0.897200
O O13 0.500000 0.500000 0.000000
O O14 0.961715 0.400594 0.730958
O O15 0.219326 0.071914 0.237024
O O16 0.869904 0.736147 0.965023
O O17 0.000000 0.500000 0.000000
#
# Coordination Sequence:
#
# PCOD8037337 Si02
#       8
#     2   2   2   2   2   2   2   2
#     4  12  26  46  78 111 149 196 244 307 372 451
#     4  12  24  47  79 110 147 195 252 298 381 444
#     4  12  27  43  79 110 147 190 252 306 373 435
#     4  12  27  48  78 107 147 194 255 309 366 435
#     4  12  26  49  78 110 147 198 247 315 366 440
#     4  12  28  45  74 109 153 195 241 306 374 447
#     4  12  30  49  76 108 151 201 250 308 372 441
#     4  12  27  50  73 108 159 192 246 306 379 442
#
# _framework density 23.013843999999999
#
# number of rings (size 3 to 8) (size 9 to 14) (size 15 to 20)
#    0.000    0.000    5.000    4.125    5.250    1.500 
#    0.000    0.000    0.000    0.000    0.000    0.000 
#    0.000    0.000    0.000    0.000    0.000    0.000 
#
# Total GULP energy -198485.175675 kJ/mol
# GULP energy per Si atom -12405.323480 kJ/mol
# Density = 2.296146 g / cm^3
# Si number density = 23.013844 Si / 1000 Ang^3
#
#
#
# Elastic Constant Matrix: (Units=GPa)
#
#
# Indices 1 2 3 4 5 6 
#
# 1 106.1267 21.4298 57.5486 -6.8488 -8.2724 -12.2562
# 2 21.4298 125.1300 46.0139 10.2367 -1.2430 -6.2359
# 3 57.5486 46.0139 132.9317 7.5737 7.9301 -11.2404
# 4 -6.8488 10.2367 7.5737 35.0781 -6.4933 5.4674
# 5 -8.2724 -1.2430 7.9301 -6.4933 34.0214 2.1978
# 6 -12.2562 -6.2359 -11.2404 5.4674 2.1978 42.0547
#
#
#
# Elastic Compliance Matrix: (Units=1/GPa)
#
#
# Indices 1 2 3 4 5 6 
#
# 1 0.013897 -0.000306 -0.006428 0.005046 0.005744 0.001330
# 2 -0.000306 0.009348 -0.002943 -0.002182 0.000487 0.000769
# 3 -0.006428 -0.002943 0.012037 -0.004267 -0.005404 0.001745
# 4 0.005046 -0.002182 -0.004267 0.033435 0.008834 -0.004802
# 5 0.005744 0.000487 -0.005404 0.008834 0.033922 -0.002619
# 6 0.001330 0.000769 0.001745 -0.004802 -0.002619 0.025508
#
#
# Mechanical properties :
#
#
# Convention : Reuss Voigt Hill
#
# Bulk Modulus (GPa) = 62.78107 68.24143 65.51125
# Shear Modulus (GPa) = 32.72020 38.17727 35.44873
#
# Velocity S-wave (km/s) = 3.77472 4.07736 3.92895
# Velocity P-wave (km/s) = 6.80712 7.20300 7.00785
#
# Compressibility (1/GPa) = 0.01592837
#
# Stress axis : x y z
#
# Youngs Moduli (GPa) = 71.95701 106.97506 83.07496
#
# Poissons Ratio (x) = 0.03270 0.53402
# Poissons Ratio (y) = 0.02200 0.24451
# Poissons Ratio (z) = 0.46255 0.31485
#
# Static dielectric constant tensor:
#      x y z
#    x 0.591070 0.075350 -3.124750 
#    y 0.075350 4.281810 0.197730 
#    z -3.124750 0.197730 1.308450 
# 
# 
# High freq. dielectric constant tensor:
#      x y z
#    x 1.910170 0.004930 0.012360 
#    y 0.004930 1.914590 0.008700 
#    z 0.012360 0.008700 1.926110 
# 
# From -- ./inp_files/187950.got.cif
#   From: 2010.06.25/outbox.cif.g09.slc.cpg/sg2_94_cif.got.tgz:187950.got - 2010.06.27 13:26:56.
