data_PCOD8037935
_publ_section_title
;
Structure prediction by ZEFSAII (Michael W. Deem and Ramdas Pophale) SiO2 
 PCOD8037935
Probable space group: P -1
;
_chemical_formula_sum "Si O2"
_cell_formula_units_Z 16
_cell_length_a 13.410259
_cell_length_b 11.953082
_cell_length_c 11.470311
_cell_angle_alpha 83.717145
_cell_angle_beta 41.615602
_cell_angle_gamma 116.103870
_cell_volume 743.433681
_symmetry_space_group_name_H-M "P -1"
_symmetry_group_IT_number 2
_symmetry_cell_setting 'triclinic'
loop_
_space_group_symop_operation_xyz
x,y,z
-x,-y,-z
loop_
_atom_site_type_symbol
_atom_site_label
_atom_site_fract_x
_atom_site_fract_y
_atom_site_fract_z
Si Si1 0.750887 0.770057 0.111360
Si Si2 0.698202 0.359386 0.503950
Si Si3 0.871943 0.221103 0.958766
Si Si4 0.380641 0.540575 0.831471
Si Si5 0.907897 0.534863 0.698964
Si Si6 0.261160 0.801557 0.176909
Si Si7 0.278795 0.694600 0.751890
Si Si8 0.847658 0.827187 0.277988
O O1 0.544321 0.720116 0.226278
O O2 0.767851 0.650203 0.072662
O O3 0.690075 0.743298 0.305763
O O4 0.021997 0.978540 0.824597
O O5 0.609358 0.230233 0.485270
O O6 0.873842 0.561591 0.282336
O O7 0.847221 0.371033 0.463662
O O8 0.756903 0.154149 0.938605
O O9 0.929808 0.126895 0.948357
O O10 0.689689 0.169384 0.219637
O O11 0.387738 0.659424 0.738378
O O12 0.672075 0.682421 0.555087
O O13 0.264921 0.492490 0.064758
O O14 0.733407 0.331926 0.824959
O O15 0.017959 0.679687 0.483738
O O16 0.500000 0.000000 0.000000
O O17 0.000000 0.500000 0.000000
#
# Coordination Sequence:
#
# PCOD8037935 Si02
#       8
#     2   2   2   2   2   2   2   2
#     4  11  23  36  56  91 129 169 194 230 301 376
#     4  10  18  36  61  92 124 154 197 241 299 363
#     4  10  20  39  62  88 119 158 205 247 300 355
#     4  12  20  38  61  84 127 159 191 249 294 357
#     4  10  23  39  66  93 113 155 207 251 300 353
#     4  10  22  42  65  89 114 153 204 263 302 339
#     4  10  17  32  63  93 119 157 196 243 305 350
#     4  11  24  36  56  90 130 166 199 231 299 372
#
# _framework density 21.521757000000001
#
# number of rings (size 3 to 8) (size 9 to 14) (size 15 to 20)
#    0.000    1.500    6.250    1.875    1.750    1.000 
#    0.000    1.250    0.000    1.500    0.000    0.000 
#    0.000    0.000    0.000    0.000    0.000    0.000 
#
# Total GULP energy -198218.089099 kJ/mol
# GULP energy per Si atom -12388.630569 kJ/mol
# Density = 2.147277 g / cm^3
# Si number density = 21.521757 Si / 1000 Ang^3
#
#
#
# Elastic Constant Matrix: (Units=GPa)
#
#
# Indices 1 2 3 4 5 6 
#
# 1 55.7453 28.0094 5.5917 8.2212 -5.3889 8.9724
# 2 28.0094 142.1394 65.2671 1.8075 -7.7573 9.7837
# 3 5.5917 65.2671 78.4468 11.4609 1.9244 13.4145
# 4 8.2212 1.8075 11.4609 35.6704 1.3553 -0.1746
# 5 -5.3889 -7.7573 1.9244 1.3553 20.9391 5.6022
# 6 8.9724 9.7837 13.4145 -0.1746 5.6022 30.3276
#
#
#
# Elastic Compliance Matrix: (Units=1/GPa)
#
#
# Indices 1 2 3 4 5 6 
#
# 1 0.023627 -0.006432 0.006091 -0.007346 0.005955 -0.008751
# 2 -0.006432 0.013933 -0.012266 0.004585 0.003757 0.002166
# 3 0.006091 -0.012266 0.025357 -0.008880 -0.002414 -0.008666
# 4 -0.007346 0.004585 -0.008880 0.032485 -0.002909 0.005346
# 5 0.005955 0.003757 -0.002414 -0.002909 0.054290 -0.011951
# 6 -0.008751 0.002166 -0.008666 0.005346 -0.011951 0.040935
#
#
# Mechanical properties :
#
#
# Convention : Reuss Voigt Hill
#
# Bulk Modulus (GPa) = 26.52337 52.67422 39.59880
# Shear Modulus (GPa) = 21.89068 29.21831 25.55449
#
# Velocity S-wave (km/s) = 3.19273 3.68858 3.44958
# Velocity P-wave (km/s) = 5.09334 6.53214 5.85709
#
# Compressibility (1/GPa) = 0.03770260
#
# Stress axis : x y z
#
# Youngs Moduli (GPa) = 42.32451 71.77407 39.43699
#
# Poissons Ratio (x) = 0.46163 -0.24019
# Poissons Ratio (y) = 0.27222 0.48373
# Poissons Ratio (z) = -0.25778 0.88037
#
# Static dielectric constant tensor:
#      x y z
#    x 3.617500 0.073080 0.077000 
#    y 0.073080 4.186110 0.331080 
#    z 0.077000 0.331080 3.853960 
# 
# 
# High freq. dielectric constant tensor:
#      x y z
#    x 1.814860 -0.000220 -0.004390 
#    y -0.000220 1.849460 0.001430 
#    z -0.004390 0.001430 1.837670 
# 
# From -- ./inp_files/452346.got.cif
#   From: 2010.06.25/outbox.cif.g09.slc.cpg/sg2_227_cif.got.tgz:452346.got - 2010.06.27 13:26:56.
