data_PCOD8037111
_publ_section_title
;
Structure prediction by ZEFSAII (Michael W. Deem and Ramdas Pophale) SiO2 
 PCOD8037111
Probable space group: P -1
;
_chemical_formula_sum "Si O2"
_cell_formula_units_Z 16
_cell_length_a 6.637625
_cell_length_b 16.860655
_cell_length_c 9.311992
_cell_angle_alpha 115.155046
_cell_angle_beta 53.140182
_cell_angle_gamma 126.021347
_cell_volume 670.176911
_symmetry_space_group_name_H-M "P -1"
_symmetry_group_IT_number 2
_symmetry_cell_setting 'triclinic'
loop_
_space_group_symop_operation_xyz
x,y,z
-x,-y,-z
loop_
_atom_site_type_symbol
_atom_site_label
_atom_site_fract_x
_atom_site_fract_y
_atom_site_fract_z
Si Si1 0.663121 0.132063 0.744925
Si Si2 0.820948 0.586007 0.923006
Si Si3 0.712219 0.949982 0.669194
Si Si4 0.757800 0.700086 0.286369
Si Si5 0.586561 0.203647 0.549132
Si Si6 0.152022 0.288330 0.262165
Si Si7 0.825605 0.904386 0.903933
Si Si8 0.598463 0.415155 0.386343
O O1 0.562087 0.122769 0.615684
O O2 0.988403 0.212433 0.670543
O O3 0.580605 0.025168 0.765483
O O4 0.478759 0.166805 0.949516
O O5 0.833484 0.665604 0.863797
O O6 0.061617 0.550207 0.755457
O O7 0.500000 0.500000 0.000000
O O8 0.873253 0.635950 0.097169
O O9 0.506879 0.845482 0.606176
O O10 0.780029 0.937652 0.793150
O O11 0.000000 0.000000 0.500000
O O12 0.618061 0.749538 0.277548
O O13 0.507587 0.639207 0.458893
O O14 0.904067 0.294051 0.467522
O O15 0.034863 0.169261 0.215385
O O16 0.448925 0.344662 0.261005
O O17 0.000000 0.000000 0.000000
O O18 0.500000 0.500000 0.500000
#
# Coordination Sequence:
#
# PCOD8037111 Si02
#       8
#     2   2   2   2   2   2   2   2
#     4  12  25  44  71 103 149 200 255 319 380 448
#     4  12  30  49  79 117 152 202 261 320 394 477
#     4  12  24  43  69 104 152 197 260 311 378 454
#     4  12  26  47  77 108 150 197 256 316 390 464
#     4  12  24  45  74 105 146 204 254 312 385 450
#     4  12  26  48  77 107 155 201 257 315 389 464
#     4  12  27  45  72 113 155 205 257 318 382 457
#     4  12  28  52  80 112 156 198 255 330 400 471
#
# _framework density 23.874293999999999
#
# number of rings (size 3 to 8) (size 9 to 14) (size 15 to 20)
#    0.000    0.000    3.750    6.000    5.250    4.000 
#    0.000    0.000    0.000    0.000    0.000    0.000 
#    0.000    0.000    0.000    0.000    0.000    0.000 
#
# Total GULP energy -198332.377074 kJ/mol
# GULP energy per Si atom -12395.773567 kJ/mol
# Density = 2.381996 g / cm^3
# Si number density = 23.874294 Si / 1000 Ang^3
#
#
#
# Elastic Constant Matrix: (Units=GPa)
#
#
# Indices 1 2 3 4 5 6 
#
# 1 139.3965 53.0428 63.6592 -5.5809 -2.4717 -10.1428
# 2 53.0428 108.5707 39.6099 3.2860 -5.7005 -9.0232
# 3 63.6592 39.6099 133.5670 -11.2268 -4.3847 -1.5110
# 4 -5.5809 3.2860 -11.2268 45.1742 0.6285 -4.0385
# 5 -2.4717 -5.7005 -4.3847 0.6285 47.1066 -7.9772
# 6 -10.1428 -9.0232 -1.5110 -4.0385 -7.9772 37.6296
#
#
#
# Elastic Compliance Matrix: (Units=1/GPa)
#
#
# Indices 1 2 3 4 5 6 
#
# 1 0.010454 -0.003569 -0.003836 0.000767 0.000072 0.001906
# 2 -0.003569 0.011937 -0.001907 -0.001628 0.001432 0.001953
# 3 -0.003836 -0.001907 0.010058 0.002089 0.000343 -0.000790
# 4 0.000767 -0.001628 0.002089 0.023082 0.000137 0.002407
# 5 0.000072 0.001432 0.000343 0.000137 0.022302 0.005119
# 6 0.001906 0.001953 -0.000790 0.002407 0.005119 0.028868
#
#
# Mechanical properties :
#
#
# Convention : Reuss Voigt Hill
#
# Bulk Modulus (GPa) = 72.32569 77.12868 74.72718
# Shear Modulus (GPa) = 38.48109 40.99691 39.73900
#
# Velocity S-wave (km/s) = 4.01910 4.14841 4.08427
# Velocity P-wave (km/s) = 7.20401 7.43787 7.32188
#
# Compressibility (1/GPa) = 0.01382635
#
# Stress axis : x y z
#
# Youngs Moduli (GPa) = 95.65493 83.77573 99.42029
#
# Poissons Ratio (x) = 0.29901 0.38135
# Poissons Ratio (y) = 0.34141 0.18955
# Poissons Ratio (z) = 0.36691 0.15972
#
# Static dielectric constant tensor:
#      x y z
#    x 4.376580 0.133550 -0.212580 
#    y 0.133550 4.124140 0.067160 
#    z -0.212580 0.067160 4.630710 
# 
# 
# High freq. dielectric constant tensor:
#      x y z
#    x 1.963320 -0.004020 -0.010870 
#    y -0.004020 1.940720 -0.009690 
#    z -0.010870 -0.009690 1.958520 
# 
# From -- ./inp_files/139210.got.cif
#   From: 2010.06.25/outbox.cif.g09.slc.cpg/sg2_70_cif.got.tgz:139210.got - 2010.06.27 13:26:56.
