data_PCOD8038966
_publ_section_title
;
Structure prediction by ZEFSAII (Michael W. Deem and Ramdas Pophale) SiO2 
 PCOD8038966
Probable space group: P -1
;
_chemical_formula_sum "Si O2"
_cell_formula_units_Z 14
_cell_length_a 18.435791
_cell_length_b 10.121417
_cell_length_c 8.979633
_cell_angle_alpha 45.186947
_cell_angle_beta 54.546813
_cell_angle_gamma 34.621211
_cell_volume 675.337575
_symmetry_space_group_name_H-M "P -1"
_symmetry_group_IT_number 2
_symmetry_cell_setting 'triclinic'
loop_
_space_group_symop_operation_xyz
x,y,z
-x,-y,-z
loop_
_atom_site_type_symbol
_atom_site_label
_atom_site_fract_x
_atom_site_fract_y
_atom_site_fract_z
Si Si1 0.993820 0.509222 0.250053
Si Si2 0.648186 0.249282 0.362882
Si Si3 0.367470 0.320488 0.067248
Si Si4 0.173002 0.122003 0.095856
Si Si5 0.648466 0.806002 0.136761
Si Si6 0.367153 0.577355 0.433053
Si Si7 0.826514 0.642271 0.595140
O O1 0.907094 0.500399 0.460249
O O2 0.079598 0.250226 0.247618
O O3 0.079876 0.509977 0.253213
O O4 0.907857 0.777650 0.039038
O O5 0.514105 0.363878 0.375463
O O6 0.646153 0.272844 0.524723
O O7 0.760571 0.943301 0.427203
O O8 0.675198 0.405110 0.128311
O O9 0.277065 0.367919 0.264169
O O10 0.514522 0.093269 0.124411
O O11 0.353854 0.211030 0.025078
O O12 0.276505 0.801323 0.236383
O O13 0.239012 0.225215 0.927794
O O14 0.675504 0.569140 0.371285
#
# Coordination Sequence:
#
# PCOD8038966 Si02
#       7
#     2   2   2   2   2   2   2
#     4  10  24  38  62  74 120 160 188 218 286 330
#     4  10  18  31  59  91 112 140 187 239 283 327
#     4  10  18  31  59  91 112 140 187 239 283 327
#     4  11  20  42  56  86 112 153 187 236 271 347
#     4  10  18  31  59  91 112 140 187 239 283 327
#     4  10  18  31  59  91 112 140 187 239 283 327
#     4  11  20  42  56  86 112 153 187 236 271 347
#
# _framework density 20.730374999999999
#
# number of rings (size 3 to 8) (size 9 to 14) (size 15 to 20)
#    0.000    1.714    5.714    0.000    0.000    0.000 
#    0.000   11.429    0.000    0.000    0.000    0.000 
#    0.000    0.000    0.000    0.000    0.000    0.000 
#
# Total GULP energy -173642.314508 kJ/mol
# GULP energy per Si atom -12403.022465 kJ/mol
# Density = 2.068319 g / cm^3
# Si number density = 20.730375 Si / 1000 Ang^3
#
#
#
# Elastic Constant Matrix: (Units=GPa)
#
#
# Indices 1 2 3 4 5 6 
#
# 1 43.5109 47.4167 41.2245 -3.7189 -2.1658 -10.3828
# 2 47.4167 89.4313 54.1929 3.5522 -0.7972 -29.9452
# 3 41.2245 54.1929 108.3076 -3.9532 -3.1720 -11.9621
# 4 -3.7189 3.5522 -3.9532 48.1998 -8.3169 -0.3839
# 5 -2.1658 -0.7972 -3.1720 -8.3169 39.5278 -2.5308
# 6 -10.3828 -29.9452 -11.9621 -0.3839 -2.5308 20.9666
#
#
#
# Elastic Compliance Matrix: (Units=1/GPa)
#
#
# Indices 1 2 3 4 5 6 
#
# 1 0.072485 -0.044059 -0.008669 0.008239 0.002099 -0.031573
# 2 -0.044059 0.057485 -0.005994 -0.007625 0.000294 0.056760
# 3 -0.008669 -0.005994 0.015132 0.001081 0.000581 -0.004131
# 4 0.008239 -0.007625 0.001081 0.022830 0.004856 -0.005189
# 5 0.002099 0.000294 0.000581 0.004856 0.026816 0.005117
# 6 -0.031573 0.056760 -0.004131 -0.005189 0.005117 0.111292
#
#
# Mechanical properties :
#
#
# Convention : Reuss Voigt Hill
#
# Bulk Modulus (GPa) = 36.15619 58.54646 47.35132
# Shear Modulus (GPa) = 11.55524 28.29988 19.92756
#
# Velocity S-wave (km/s) = 2.36351 3.69879 3.10380
# Velocity P-wave (km/s) = 4.99272 6.82236 5.97795
#
# Compressibility (1/GPa) = 0.02765778
#
# Stress axis : x y z
#
# Youngs Moduli (GPa) = 13.79600 17.39570 66.08432
#
# Poissons Ratio (x) = 0.76644 0.57288
# Poissons Ratio (y) = 0.60784 0.39613
# Poissons Ratio (z) = 0.11960 0.10428
#
# Static dielectric constant tensor:
#      x y z
#    x 3.384900 -0.341830 0.038770 
#    y -0.341830 3.771340 0.013330 
#    z 0.038770 0.013330 3.701300 
# 
# 
# High freq. dielectric constant tensor:
#      x y z
#    x 1.775520 -0.031080 -0.004210 
#    y -0.031080 1.809960 -0.003080 
#    z -0.004210 -0.003080 1.812280 
# 
# From -- ./inp_files/214153.got.cif
#   From: 2010.06.25/outbox.cif.g09.slc.cpg/sg2_108_cif.got.tgz:214153.got - 2010.06.27 13:26:56.
