data_PCOD8038423
_publ_section_title
;
Structure prediction by ZEFSAII (Michael W. Deem and Ramdas Pophale) SiO2 
 PCOD8038423
Probable space group: P -1
;
_chemical_formula_sum "Si O2"
_cell_formula_units_Z 16
_cell_length_a 18.203006
_cell_length_b 10.208266
_cell_length_c 15.869828
_cell_angle_alpha 35.219482
_cell_angle_beta 152.190445
_cell_angle_gamma 141.167728
_cell_volume 775.807022
_symmetry_space_group_name_H-M "P -1"
_symmetry_group_IT_number 2
_symmetry_cell_setting 'triclinic'
loop_
_space_group_symop_operation_xyz
x,y,z
-x,-y,-z
loop_
_atom_site_type_symbol
_atom_site_label
_atom_site_fract_x
_atom_site_fract_y
_atom_site_fract_z
Si Si1 0.762478 0.815757 0.404059
Si Si2 0.861403 0.617935 0.763522
Si Si3 0.273621 0.180035 0.817658
Si Si4 0.577003 0.494096 0.763289
Si Si5 0.367159 0.785108 0.194311
Si Si6 0.354125 0.732030 0.889612
Si Si7 0.691935 0.910431 0.550698
Si Si8 0.813910 0.416598 0.374861
O O1 0.893354 0.739019 0.640277
O O2 0.831822 0.853562 0.358547
O O3 0.611720 0.597272 0.362565
O O4 0.719330 0.047735 0.275675
O O5 0.700762 0.411606 0.701966
O O6 0.830125 0.806428 0.700159
O O7 0.000000 0.500000 0.000000
O O8 0.249998 0.402614 0.726600
O O9 0.455905 0.181851 0.974041
O O10 0.240489 0.957863 0.963875
O O11 0.630898 0.342419 0.824729
O O12 0.624311 0.767383 0.641468
O O13 0.677504 0.459005 0.967442
O O14 0.545623 0.914672 0.334790
O O15 0.275764 0.606081 0.793019
O O16 0.774159 0.177018 0.513837
O O17 0.000000 0.500000 0.500000
#
# Coordination Sequence:
#
# PCOD8038423 Si02
#       8
#     2   2   2   2   2   2   2   2
#     4  11  18  39  66 101 126 148 203 271 305 354
#     4  11  22  35  61  96 128 158 201 253 313 367
#     4  11  22  38  67  95 121 157 217 249 305 371
#     4  10  17  35  65  99 115 153 201 263 306 353
#     4  11  18  36  66  96 123 155 201 259 308 360
#     4  11  20  39  69  93 122 159 208 257 310 362
#     4  11  21  40  62  87 128 167 203 246 315 365
#     4  12  27  44  58  84 133 175 201 252 312 372
#
# _framework density 20.623685999999999
#
# number of rings (size 3 to 8) (size 9 to 14) (size 15 to 20)
#    0.000    1.000    7.500    1.875    1.750    0.000 
#    4.500    5.625    0.000    0.000    0.000    0.000 
#    0.000    0.000    0.000    0.000    0.000    0.000 
#
# Total GULP energy -198319.570638 kJ/mol
# GULP energy per Si atom -12394.973165 kJ/mol
# Density = 2.057675 g / cm^3
# Si number density = 20.623686 Si / 1000 Ang^3
#
#
#
# Elastic Constant Matrix: (Units=GPa)
#
#
# Indices 1 2 3 4 5 6 
#
# 1 60.7371 23.2720 33.5423 -16.3678 -21.1918 -16.3445
# 2 23.2720 62.9060 14.0997 -33.1091 -1.4629 -13.6220
# 3 33.5423 14.0997 115.4928 -23.5616 -21.9086 -14.6797
# 4 -16.3678 -33.1091 -23.5616 36.2839 2.5396 -3.7544
# 5 -21.1918 -1.4629 -21.9086 2.5396 37.3673 -3.1060
# 6 -16.3445 -13.6220 -14.6797 -3.7544 -3.1060 31.1243
#
#
#
# Elastic Compliance Matrix: (Units=1/GPa)
#
#
# Indices 1 2 3 4 5 6 
#
# 1 0.033588 0.003622 0.000797 0.020042 0.020294 0.024043
# 2 0.003622 0.052033 0.011593 0.059912 0.010006 0.038368
# 3 0.000797 0.011593 0.015447 0.021979 0.009833 0.016410
# 4 0.020042 0.059912 0.021979 0.110345 0.024323 0.062850
# 5 0.020294 0.010006 0.009833 0.024323 0.045027 0.027101
# 6 0.024043 0.038368 0.016410 0.062850 0.027101 0.079573
#
#
# Mechanical properties :
#
#
# Convention : Reuss Voigt Hill
#
# Bulk Modulus (GPa) = 7.51355 42.32931 24.92143
# Shear Modulus (GPa) = 14.35339 32.16990 23.26164
#
# Velocity S-wave (km/s) = 2.64098 3.95378 3.36208
# Velocity P-wave (km/s) = 3.59872 6.43524 5.21359
#
# Compressibility (1/GPa) = 0.13309290
#
# Stress axis : x y z
#
# Youngs Moduli (GPa) = 29.77266 19.21875 64.73907
#
# Poissons Ratio (x) = -0.06962 -0.05162
# Poissons Ratio (y) = -0.10785 -0.75053
# Poissons Ratio (z) = -0.02374 -0.22281
#
# Static dielectric constant tensor:
#      x y z
#    x 3.904790 0.425090 -0.477720 
#    y 0.425090 3.590220 -0.220840 
#    z -0.477720 -0.220840 3.999620 
# 
# 
# High freq. dielectric constant tensor:
#      x y z
#    x 1.794890 0.017980 -0.020730 
#    y 0.017980 1.788770 -0.016900 
#    z -0.020730 -0.016900 1.817290 
# 
# From -- ./inp_files/274680.got.cif
#   From: 2010.06.25/outbox.cif.g09.slc.cpg/sg2_138_cif.got.tgz:274680.got - 2010.06.27 13:26:56.
