data_PCOD8038585
_publ_section_title
;
Structure prediction by ZEFSAII (Michael W. Deem and Ramdas Pophale) SiO2 
 PCOD8038585
Probable space group: P -1
;
_chemical_formula_sum "Si O2"
_cell_formula_units_Z 16
_cell_length_a 9.866839
_cell_length_b 9.268628
_cell_length_c 22.541130
_cell_angle_alpha 140.104417
_cell_angle_beta 142.304036
_cell_angle_gamma 53.321776
_cell_volume 808.227274
_symmetry_space_group_name_H-M "P -1"
_symmetry_group_IT_number 2
_symmetry_cell_setting 'triclinic'
loop_
_space_group_symop_operation_xyz
x,y,z
-x,-y,-z
loop_
_atom_site_type_symbol
_atom_site_label
_atom_site_fract_x
_atom_site_fract_y
_atom_site_fract_z
Si Si1 0.906371 0.173925 0.976589
Si Si2 0.438453 0.121185 0.751622
Si Si3 0.312781 0.664552 0.506802
Si Si4 0.884951 0.740181 0.040549
Si Si5 0.946231 0.588506 0.444834
Si Si6 0.491005 0.530040 0.218354
Si Si7 0.904543 0.334021 0.797149
Si Si8 0.046620 0.882528 0.377556
O O1 0.640342 0.153652 0.877715
O O2 0.003856 0.105602 0.923691
O O3 0.977363 0.425630 0.100055
O O4 0.000000 0.000000 0.000000
O O5 0.470933 0.281550 0.757886
O O6 0.213481 0.178779 0.726060
O O7 0.432474 0.866082 0.647051
O O8 0.500000 0.500000 0.500000
O O9 0.144519 0.531920 0.450864
O O10 0.179335 0.751626 0.431841
O O11 0.944584 0.816334 0.152425
O O12 0.623258 0.694061 0.922270
O O13 0.000000 0.500000 0.000000
O O14 0.723532 0.458987 0.304478
O O15 0.000000 0.500000 0.500000
O O16 0.903824 0.854159 0.513612
O O17 0.338385 0.627928 0.248358
O O18 0.870475 0.191493 0.681241
#
# Coordination Sequence:
#
# PCOD8038585 Si02
#       8
#     2   2   2   2   2   2   2   2
#     4  10  20  35  60  92 118 155 203 247 297 354
#     4  11  19  41  65  80 122 166 196 244 308 353
#     4  11  25  40  60  90 123 157 203 253 299 364
#     4   8  16  34  56  82 111 148 195 236 286 350
#     4  11  24  42  61  89 120 160 205 246 309 358
#     4  10  17  38  65  79 114 165 195 239 298 356
#     4  10  21  35  59  92 114 152 205 241 293 362
#     4  11  24  39  60  92 124 155 202 256 300 357
#
# _framework density 19.796412
#
# number of rings (size 3 to 8) (size 9 to 14) (size 15 to 20)
#    0.000    2.000    6.250    0.750    3.500    5.000 
#    0.000    0.000    0.000    1.500    0.000    0.000 
#    0.000    0.000    0.000    0.000    0.000    0.000 
#
# Total GULP energy -198364.331566 kJ/mol
# GULP energy per Si atom -12397.770723 kJ/mol
# Density = 1.975135 g / cm^3
# Si number density = 19.796412 Si / 1000 Ang^3
#
#
#
# Elastic Constant Matrix: (Units=GPa)
#
#
# Indices 1 2 3 4 5 6 
#
# 1 107.3572 38.6768 25.1254 -13.5316 -1.7622 10.1994
# 2 38.6768 90.6575 22.1796 -33.5564 1.7180 16.4325
# 3 25.1254 22.1796 71.6744 -29.0755 13.7471 6.1131
# 4 -13.5316 -33.5564 -29.0755 31.7199 -2.1263 -6.1352
# 5 -1.7622 1.7180 13.7471 -2.1263 36.9299 -2.2829
# 6 10.1994 16.4325 6.1131 -6.1352 -2.2829 30.3586
#
#
#
# Elastic Compliance Matrix: (Units=1/GPa)
#
#
# Indices 1 2 3 4 5 6 
#
# 1 0.012038 -0.005952 -0.005151 -0.005877 0.002381 -0.000794
# 2 -0.005952 0.023001 0.006869 0.026614 -0.002791 -0.006665
# 3 -0.005151 0.006869 0.027422 0.029137 -0.009238 -0.002315
# 4 -0.005877 0.026614 0.029137 0.082955 -0.007719 -0.002114
# 5 0.002381 -0.002791 -0.009238 -0.007719 0.030521 0.003306
# 6 -0.000794 -0.006665 -0.002315 -0.002114 0.003306 0.037102
#
#
# Mechanical properties :
#
#
# Convention : Reuss Voigt Hill
#
# Bulk Modulus (GPa) = 18.52138 49.07253 33.79696
# Shear Modulus (GPa) = 20.87632 32.04882 26.46257
#
# Velocity S-wave (km/s) = 3.25091 4.02795 3.66011
# Velocity P-wave (km/s) = 4.84432 6.81725 5.91364
#
# Compressibility (1/GPa) = 0.05399166
#
# Stress axis : x y z
#
# Youngs Moduli (GPa) = 83.06762 43.47570 36.46769
#
# Poissons Ratio (x) = 0.25877 0.18786
# Poissons Ratio (y) = 0.49443 -0.25048
# Poissons Ratio (z) = 0.42790 -0.29862
#
# Static dielectric constant tensor:
#      x y z
#    x 3.909240 0.327240 0.285450 
#    y 0.327240 3.323220 -0.203240 
#    z 0.285450 -0.203240 4.345750 
# 
# 
# High freq. dielectric constant tensor:
#      x y z
#    x 1.772430 0.022120 0.012740 
#    y 0.022120 1.748960 -0.019420 
#    z 0.012740 -0.019420 1.782640 
# 
# From -- ./inp_files/225480.got.cif
#   From: 2010.06.25/outbox.cif.g09.slc.cpg/sg2_113_cif.got.tgz:225480.got - 2010.06.27 13:26:56.
