data_PCOD8038929
_publ_section_title
;
Structure prediction by ZEFSAII (Michael W. Deem and Ramdas Pophale) SiO2 
 PCOD8038929
Probable space group: P -1
;
_chemical_formula_sum "Si O2"
_cell_formula_units_Z 16
_cell_length_a 13.274337
_cell_length_b 10.599042
_cell_length_c 9.203122
_cell_angle_alpha 63.598358
_cell_angle_beta 115.336055
_cell_angle_gamma 139.535860
_cell_volume 743.666682
_symmetry_space_group_name_H-M "P -1"
_symmetry_group_IT_number 2
_symmetry_cell_setting 'triclinic'
loop_
_space_group_symop_operation_xyz
x,y,z
-x,-y,-z
loop_
_atom_site_type_symbol
_atom_site_label
_atom_site_fract_x
_atom_site_fract_y
_atom_site_fract_z
Si Si1 0.887141 0.092242 0.482369
Si Si2 0.920645 0.608813 0.311050
Si Si3 0.235240 0.144736 0.965272
Si Si4 0.711230 0.174381 0.404265
Si Si5 0.814835 0.704442 0.618144
Si Si6 0.892008 0.752041 0.945797
Si Si7 0.361310 0.478738 0.674541
Si Si8 0.428082 0.110290 0.274879
O O1 0.743087 0.071554 0.363875
O O2 0.924501 0.193476 0.614004
O O3 0.032768 0.231783 0.392194
O O4 0.831018 0.884200 0.567341
O O5 0.878268 0.406317 0.404453
O O6 0.783039 0.571543 0.319200
O O7 0.930151 0.653864 0.122632
O O8 0.215704 0.229356 0.048805
O O9 0.314912 0.068289 0.100494
O O10 0.350680 0.313895 0.826226
O O11 0.059630 0.965547 0.884306
O O12 0.576260 0.159798 0.267856
O O13 0.661968 0.080748 0.582796
O O14 0.796355 0.618168 0.810520
O O15 0.662662 0.548233 0.501702
O O16 0.518238 0.705147 0.691203
#
# Coordination Sequence:
#
# PCOD8038929 Si02
#       8
#     2   2   2   2   2   2   2   2
#     4  10  18  32  54  80 107 137 173 220 271 313
#     4   9  18  32  54  81 106 135 176 225 264 301
#     4  10  18  32  55  83 108 131 173 227 268 305
#     4  10  20  34  52  76 106 142 183 220 255 303
#     4  10  19  33  56  82 109 137 168 216 275 324
#     4  10  18  31  55  84 107 132 172 222 272 312
#     4   9  19  34  54  81 109 138 172 215 267 316
#     4  10  20  34  55  79 105 142 184 218 253 308
#
# _framework density 21.515014999999998
#
# number of rings (size 3 to 8) (size 9 to 14) (size 15 to 20)
#    0.000    2.250    0.000    6.000    0.000    0.000 
#    0.000    3.125    0.000   12.750    0.000    0.000 
#    0.000    0.000    0.000    0.000    0.000    0.000 
#
# Total GULP energy -198237.383533 kJ/mol
# GULP energy per Si atom -12389.836471 kJ/mol
# Density = 2.146605 g / cm^3
# Si number density = 21.515015 Si / 1000 Ang^3
#
#
#
# Elastic Constant Matrix: (Units=GPa)
#
#
# Indices 1 2 3 4 5 6 
#
# 1 97.6983 11.0112 20.4715 7.4941 19.5268 -8.3144
# 2 11.0112 59.9597 31.8928 -7.8763 1.5136 -6.9244
# 3 20.4715 31.8928 117.6453 9.4862 -6.7657 -12.2151
# 4 7.4941 -7.8763 9.4862 30.2901 -2.9881 4.0894
# 5 19.5268 1.5136 -6.7657 -2.9881 28.7702 0.1044
# 6 -8.3144 -6.9244 -12.2151 4.0894 0.1044 18.0554
#
#
#
# Elastic Compliance Matrix: (Units=1/GPa)
#
#
# Indices 1 2 3 4 5 6 
#
# 1 0.013621 -0.001403 -0.001552 -0.005037 -0.010081 0.005883
# 2 -0.001403 0.021334 -0.006001 0.007452 -0.000814 0.001793
# 3 -0.001552 -0.006001 0.011655 -0.005294 0.003538 0.006048
# 4 -0.005037 0.007452 -0.005294 0.040088 0.005990 -0.012158
# 5 -0.010081 -0.000814 0.003538 0.005990 0.043112 -0.004166
# 6 0.005883 0.001793 0.006048 -0.012158 -0.004166 0.065651
#
#
# Mechanical properties :
#
#
# Convention : Reuss Voigt Hill
#
# Bulk Modulus (GPa) = 34.84715 44.67269 39.75992
# Shear Modulus (GPa) = 22.42757 29.55167 25.98962
#
# Velocity S-wave (km/s) = 3.23215 3.71015 3.47937
# Velocity P-wave (km/s) = 5.49189 6.25797 5.88740
#
# Compressibility (1/GPa) = 0.02869675
#
# Stress axis : x y z
#
# Youngs Moduli (GPa) = 73.41655 46.87393 85.79791
#
# Poissons Ratio (x) = 0.06579 0.13319
# Poissons Ratio (y) = 0.10304 0.51485
# Poissons Ratio (z) = 0.11397 0.28128
#
# Static dielectric constant tensor:
#      x y z
#    x 3.916600 0.009270 0.174560 
#    y 0.009270 4.133300 -0.141350 
#    z 0.174560 -0.141350 4.035950 
# 
# 
# High freq. dielectric constant tensor:
#      x y z
#    x 1.836290 0.011130 0.021700 
#    y 0.011130 1.823130 -0.009420 
#    z 0.021700 -0.009420 1.830430 
# 
# From -- ./inp_files/306794.got.cif
#   From: 2010.06.25/outbox.cif.g09.slc.cpg/sg2_154_cif.got.tgz:306794.got - 2010.06.27 13:26:56.
