data_PCOD8038759
_publ_section_title
;
Structure prediction by ZEFSAII (Michael W. Deem and Ramdas Pophale) SiO2 
 PCOD8038759
Probable space group: P -1
;
_chemical_formula_sum "Si O2"
_cell_formula_units_Z 10
_cell_length_a 15.351425
_cell_length_b 10.143851
_cell_length_c 9.787603
_cell_angle_alpha 29.391889
_cell_angle_beta 139.119047
_cell_angle_gamma 127.121859
_cell_volume 482.279488
_symmetry_space_group_name_H-M "P -1"
_symmetry_group_IT_number 2
_symmetry_cell_setting 'triclinic'
loop_
_space_group_symop_operation_xyz
x,y,z
-x,-y,-z
loop_
_atom_site_type_symbol
_atom_site_label
_atom_site_fract_x
_atom_site_fract_y
_atom_site_fract_z
Si Si1 0.146223 0.471697 0.388760
Si Si2 0.561531 0.601494 0.116337
Si Si3 0.276386 0.119065 0.621705
Si Si4 0.488977 0.827520 0.338178
Si Si5 0.015341 0.970944 0.384099
O O1 0.276668 0.438032 0.672104
O O2 0.190325 0.366042 0.383436
O O3 0.035445 0.305784 0.471877
O O4 0.080478 0.785835 0.025846
O O5 0.523714 0.439284 0.350384
O O6 0.500000 0.500000 0.000000
O O7 0.500172 0.918676 0.778888
O O8 0.376817 0.245105 0.528148
O O9 0.173886 0.973913 0.539033
O O10 0.357946 0.899831 0.020718
O O11 0.000000 0.000000 0.500000
#
# Coordination Sequence:
#
# PCOD8038759 Si02
#       5
#     2   2   2   2   2
#     4  10  20  32  52  79 103 136 171 207 254 308
#     4  11  22  38  55  73 102 141 183 215 247 299
#     4   9  19  34  54  83 112 129 164 213 271 316
#     4  10  22  34  55  81 105 136 169 216 263 306
#     4  10  18  30  51  78 109 135 160 204 261 316
#
# _framework density 20.734866
#
# number of rings (size 3 to 8) (size 9 to 14) (size 15 to 20)
#    0.000    2.000    0.000    6.600    0.000   13.600 
#    0.000    0.000    0.000    7.200    0.000    0.000 
#    0.000    0.000    0.000    0.000    0.000    0.000 
#
# Total GULP energy -123995.148889 kJ/mol
# GULP energy per Si atom -12399.514889 kJ/mol
# Density = 2.068767 g / cm^3
# Si number density = 20.734866 Si / 1000 Ang^3
#
#
#
# Elastic Constant Matrix: (Units=GPa)
#
#
# Indices 1 2 3 4 5 6 
#
# 1 59.1296 20.5805 9.6603 10.6985 3.0843 22.5160
# 2 20.5805 109.7887 13.4768 13.4574 4.2456 22.4134
# 3 9.6603 13.4768 53.3875 -7.0939 -3.2223 9.2783
# 4 10.6985 13.4574 -7.0939 31.9017 5.5548 0.8157
# 5 3.0843 4.2456 -3.2223 5.5548 24.2645 -3.5746
# 6 22.5160 22.4134 9.2783 0.8157 -3.5746 28.2417
#
#
#
# Elastic Compliance Matrix: (Units=1/GPa)
#
#
# Indices 1 2 3 4 5 6 
#
# 1 0.027260 0.001004 -0.002836 -0.008717 -0.005265 -0.022013
# 2 0.001004 0.011929 -0.002362 -0.005163 -0.002775 -0.009694
# 3 -0.002836 -0.002362 0.021293 0.006458 0.001706 -0.002830
# 4 -0.008717 -0.005163 0.006458 0.038552 -0.004897 0.007192
# 5 -0.005265 -0.002775 0.001706 -0.004897 0.045443 0.011732
# 6 -0.022013 -0.009694 -0.002830 0.007192 0.011732 0.062859
#
#
# Mechanical properties :
#
#
# Convention : Reuss Voigt Hill
#
# Bulk Modulus (GPa) = 19.19591 34.41569 26.80580
# Shear Modulus (GPa) = 21.45091 28.78747 25.11919
#
# Velocity S-wave (km/s) = 3.21991 3.73011 3.48436
# Velocity P-wave (km/s) = 4.80641 5.93175 5.39849
#
# Compressibility (1/GPa) = 0.05209443
#
# Stress axis : x y z
#
# Youngs Moduli (GPa) = 36.68386 83.82700 46.96291
#
# Poissons Ratio (x) = -0.08417 0.13321
# Poissons Ratio (y) = -0.03683 0.11092
# Poissons Ratio (z) = 0.10405 0.19799
#
# Static dielectric constant tensor:
#      x y z
#    x 3.917900 0.847490 0.127080 
#    y 0.847490 4.174840 0.046300 
#    z 0.127080 0.046300 3.728030 
# 
# 
# High freq. dielectric constant tensor:
#      x y z
#    x 1.783540 0.050640 0.003670 
#    y 0.050640 1.800490 -0.007050 
#    z 0.003670 -0.007050 1.812530 
# 
# From -- ./inp_files/17989.got.cif
#   From: 2010.06.25/outbox.cif.g09.slc.cpg/sg2_9_cif.got.tgz:17989.got - 2010.06.27 13:26:56.
