data_PCOD8038978
_publ_section_title
;
Structure prediction by ZEFSAII (Michael W. Deem and Ramdas Pophale) SiO2 
 PCOD8038978
Probable space group: P -1
;
_chemical_formula_sum "Si O2"
_cell_formula_units_Z 12
_cell_length_a 10.509021
_cell_length_b 9.675806
_cell_length_c 14.543178
_cell_angle_alpha 65.437225
_cell_angle_beta 28.113327
_cell_angle_gamma 65.450490
_cell_volume 629.647854
_symmetry_space_group_name_H-M "P -1"
_symmetry_group_IT_number 2
_symmetry_cell_setting 'triclinic'
loop_
_space_group_symop_operation_xyz
x,y,z
-x,-y,-z
loop_
_atom_site_type_symbol
_atom_site_label
_atom_site_fract_x
_atom_site_fract_y
_atom_site_fract_z
Si Si1 0.950724 0.039782 0.914283
Si Si2 0.296880 0.305010 0.605956
Si Si3 0.112809 0.549770 0.044438
Si Si4 0.080069 0.519220 0.338755
Si Si5 0.440067 0.690212 0.951377
Si Si6 0.893717 0.277033 0.182289
O O1 0.174691 0.145615 0.707738
O O2 0.961369 0.891323 0.884707
O O3 0.649185 0.133296 0.067563
O O4 0.000000 0.000000 0.000000
O O5 0.619091 0.268823 0.417073
O O6 0.188533 0.372855 0.754556
O O7 0.194455 0.429287 0.557734
O O8 0.101254 0.369377 0.082079
O O9 0.322939 0.575306 0.983360
O O10 0.200162 0.633552 0.875040
O O11 0.233719 0.355070 0.248154
O O12 0.000000 0.500000 0.500000
O O13 0.294919 0.645928 0.151506
#
# Coordination Sequence:
#
# PCOD8038978 Si02
#       6
#     2   2   2   2   2   2
#     4  10  18  32  49  72 107 128 154 203 246 289
#     4  10  20  32  51  76  98 127 167 203 239 285
#     4   9  19  31  48  73 102 132 158 195 244 293
#     4   9  17  30  52  70  91 127 168 205 232 274
#     4   9  18  33  48  73  98 123 165 203 236 281
#     4  11  18  31  50  74 104 131 155 193 254 297
#
# _framework density 19.058273
#
# number of rings (size 3 to 8) (size 9 to 14) (size 15 to 20)
#    0.000    2.667    3.333    2.000    0.000    0.000 
#    0.000    0.000    0.000   16.000    0.000   24.500 
#    0.000    0.000    0.000    0.000    0.000    0.000 
#
# Total GULP energy -148662.176242 kJ/mol
# GULP energy per Si atom -12388.514687 kJ/mol
# Density = 1.901490 g / cm^3
# Si number density = 19.058273 Si / 1000 Ang^3
#
#
#
# Elastic Constant Matrix: (Units=GPa)
#
#
# Indices 1 2 3 4 5 6 
#
# 1 35.5297 25.8156 14.2627 -3.9100 2.9542 2.7531
# 2 25.8156 148.0399 19.5598 7.7099 -11.5721 4.6215
# 3 14.2627 19.5598 67.0421 5.8885 13.9948 -4.3995
# 4 -3.9100 7.7099 5.8885 26.0993 -3.8628 -1.9473
# 5 2.9542 -11.5721 13.9948 -3.8628 23.7016 2.7511
# 6 2.7531 4.6215 -4.3995 -1.9473 2.7511 37.1718
#
#
#
# Elastic Compliance Matrix: (Units=1/GPa)
#
#
# Indices 1 2 3 4 5 6 
#
# 1 0.036322 -0.006015 -0.006389 0.008190 -0.002111 -0.002113
# 2 -0.006015 0.008794 -0.002533 -0.002098 0.006374 -0.001529
# 3 -0.006389 -0.002533 0.020853 -0.006736 -0.014311 0.003962
# 4 0.008190 -0.002098 -0.006736 0.043032 0.008893 0.000453
# 5 -0.002111 0.006374 -0.014311 0.008893 0.056164 -0.006021
# 6 -0.002113 -0.001529 0.003962 0.000453 -0.006021 0.028187
#
#
# Mechanical properties :
#
#
# Convention : Reuss Voigt Hill
#
# Bulk Modulus (GPa) = 27.70535 41.09866 34.40200
# Shear Modulus (GPa) = 21.25329 30.12612 25.68970
#
# Velocity S-wave (km/s) = 3.34304 3.98016 3.67543
# Velocity P-wave (km/s) = 5.42863 6.53711 6.00849
#
# Compressibility (1/GPa) = 0.03609411
#
# Stress axis : x y z
#
# Youngs Moduli (GPa) = 27.53182 113.71671 47.95424
#
# Poissons Ratio (x) = 0.68403 0.30640
# Poissons Ratio (y) = 0.16561 0.12145
# Poissons Ratio (z) = 0.17591 0.28800
#
# Static dielectric constant tensor:
#      x y z
#    x 3.188110 -0.128460 0.168710 
#    y -0.128460 3.680090 0.157470 
#    z 0.168710 0.157470 3.554310 
# 
# 
# High freq. dielectric constant tensor:
#      x y z
#    x 1.706860 -0.018530 0.018920 
#    y -0.018530 1.735330 0.012360 
#    z 0.018920 0.012360 1.739970 
# 
# From -- ./inp_files/236886.got.cif
#   From: 2010.06.25/outbox.cif.g09.slc.cpg/sg2_119_cif.got.tgz:236886.got - 2010.06.27 13:26:56.
