data_PCOD8038597
_publ_section_title
;
Structure prediction by ZEFSAII (Michael W. Deem and Ramdas Pophale) SiO2 
 PCOD8038597
Probable space group: P -1
;
_chemical_formula_sum "Si O2"
_cell_formula_units_Z 14
_cell_length_a 11.721615
_cell_length_b 13.762344
_cell_length_c 10.542959
_cell_angle_alpha 59.568361
_cell_angle_beta 128.840467
_cell_angle_gamma 152.000676
_cell_volume 616.689570
_symmetry_space_group_name_H-M "P -1"
_symmetry_group_IT_number 2
_symmetry_cell_setting 'triclinic'
loop_
_space_group_symop_operation_xyz
x,y,z
-x,-y,-z
loop_
_atom_site_type_symbol
_atom_site_label
_atom_site_fract_x
_atom_site_fract_y
_atom_site_fract_z
Si Si1 0.962240 0.708434 0.139414
Si Si2 0.216760 0.824095 0.487229
Si Si3 0.156058 0.025372 0.420064
Si Si4 0.806742 0.453429 0.976014
Si Si5 0.588428 0.672363 0.381883
Si Si6 0.730729 0.785449 0.887303
Si Si7 0.465480 0.803988 0.822474
O O1 0.966817 0.664800 0.317469
O O2 0.248030 0.956394 0.162819
O O3 0.962794 0.610547 0.100288
O O4 0.719235 0.641835 0.989249
O O5 0.210549 0.709427 0.649061
O O6 0.500000 0.000000 0.500000
O O7 0.225655 0.940986 0.501915
O O8 0.328211 0.178172 0.558821
O O9 0.247856 0.164994 0.276858
O O10 0.833584 0.819305 0.356111
O O11 0.679699 0.463401 0.789055
O O12 0.573539 0.228223 0.031197
O O13 0.000000 0.500000 0.000000
O O14 0.500000 0.500000 0.500000
O O15 0.472533 0.680273 0.846670
O O16 0.000000 0.000000 0.000000
#
# Coordination Sequence:
#
# PCOD8038597 Si02
#       7
#     2   2   2   2   2   2   2
#     4  10  22  42  68  97 130 165 215 272 330 383
#     4  10  20  40  71 100 124 169 215 268 336 376
#     4  11  22  44  73  93 134 169 223 271 314 391
#     4  12  29  44  61  99 137 173 220 264 325 397
#     4  11  27  46  66  95 131 183 222 256 322 393
#     4  10  17  38  70  96 122 159 211 271 326 373
#     4  10  23  42  66  97 129 170 214 266 334 378
#
# _framework density 22.701858000000001
#
# number of rings (size 3 to 8) (size 9 to 14) (size 15 to 20)
#    0.000    1.429    4.286    2.571    6.000    2.857 
#    2.571    0.000    0.000    0.000    0.000    0.000 
#    0.000    0.000    0.000    0.000    0.000    0.000 
#
# Total GULP energy -173542.099729 kJ/mol
# GULP energy per Si atom -12395.864266 kJ/mol
# Density = 2.265019 g / cm^3
# Si number density = 22.701858 Si / 1000 Ang^3
#
#
#
# Elastic Constant Matrix: (Units=GPa)
#
#
# Indices 1 2 3 4 5 6 
#
# 1 194.1845 35.7383 69.9756 -4.6018 7.6146 -5.5396
# 2 35.7383 31.9034 24.2476 2.6621 5.1572 -4.6323
# 3 69.9756 24.2476 153.6889 -19.0705 19.6052 -1.4161
# 4 -4.6018 2.6621 -19.0705 29.0220 -5.8874 -8.1240
# 5 7.6146 5.1572 19.6052 -5.8874 39.9923 -7.1615
# 6 -5.5396 -4.6323 -1.4161 -8.1240 -7.1615 42.2595
#
#
#
# Elastic Compliance Matrix: (Units=1/GPa)
#
#
# Indices 1 2 3 4 5 6 
#
# 1 0.007134 -0.006364 -0.002273 0.000470 0.000713 0.000373
# 2 -0.006364 0.043341 -0.004544 -0.008115 -0.003042 0.001689
# 3 -0.002273 -0.004544 0.009305 0.005669 -0.002681 0.000151
# 4 0.000470 -0.008115 0.005669 0.042614 0.005985 0.008569
# 5 0.000713 -0.003042 -0.002681 0.005985 0.028468 0.005645
# 6 0.000373 0.001689 0.000151 0.008569 0.005645 0.026506
#
#
# Mechanical properties :
#
#
# Convention : Reuss Voigt Hill
#
# Bulk Modulus (GPa) = 29.92347 71.07774 50.50061
# Shear Modulus (GPa) = 25.65815 38.90912 32.28364
#
# Velocity S-wave (km/s) = 3.36553 4.14444 3.77513
# Velocity P-wave (km/s) = 5.32091 7.36743 6.42616
#
# Compressibility (1/GPa) = 0.03341859
#
# Stress axis : x y z
#
# Youngs Moduli (GPa) = 140.17348 23.07277 107.46397
#
# Poissons Ratio (x) = 0.14684 0.24429
# Poissons Ratio (y) = 0.89208 0.48827
# Poissons Ratio (z) = 0.31865 0.10483
#
# Static dielectric constant tensor:
#      x y z
#    x 4.489360 -0.175220 0.581060 
#    y -0.175220 3.994000 -0.218570 
#    z 0.581060 -0.218570 5.045640 
# 
# 
# High freq. dielectric constant tensor:
#      x y z
#    x 1.904490 -0.000850 0.006040 
#    y -0.000850 1.892130 -0.009240 
#    z 0.006040 -0.009240 1.909390 
# 
# From -- ./inp_files/272238.got.cif
#   From: 2010.06.25/outbox.cif.g09.slc.cpg/sg2_137_cif.got.tgz:272238.got - 2010.06.27 13:26:56.
