data_PCOD8038713
_publ_section_title
;
Structure prediction by ZEFSAII (Michael W. Deem and Ramdas Pophale) SiO2 
 PCOD8038713
Probable space group: P -1
;
_chemical_formula_sum "Si O2"
_cell_formula_units_Z 12
_cell_length_a 9.716742
_cell_length_b 10.018123
_cell_length_c 16.187073
_cell_angle_alpha 118.457018
_cell_angle_beta 35.670171
_cell_angle_gamma 137.228871
_cell_volume 594.680598
_symmetry_space_group_name_H-M "P -1"
_symmetry_group_IT_number 2
_symmetry_cell_setting 'triclinic'
loop_
_space_group_symop_operation_xyz
x,y,z
-x,-y,-z
loop_
_atom_site_type_symbol
_atom_site_label
_atom_site_fract_x
_atom_site_fract_y
_atom_site_fract_z
Si Si1 0.247782 0.461387 0.549199
Si Si2 0.842107 0.849713 0.608706
Si Si3 0.354427 0.095649 0.574940
Si Si4 0.198835 0.705467 0.139665
Si Si5 0.902659 0.088532 0.888772
Si Si6 0.146677 0.664035 0.906858
O O1 0.500000 0.500000 0.500000
O O2 0.234919 0.356955 0.440821
O O3 0.357645 0.677894 0.535085
O O4 0.904353 0.309051 0.719194
O O5 0.527325 0.809870 0.770381
O O6 0.000000 0.000000 0.500000
O O7 0.069974 0.948244 0.605172
O O8 0.199939 0.104331 0.735142
O O9 0.500000 0.000000 0.500000
O O10 0.093678 0.799400 0.160048
O O11 0.011669 0.465932 0.138687
O O12 0.578166 0.848729 0.985779
O O13 0.941456 0.199792 0.988353
O O14 0.000000 0.500000 0.000000
#
# Coordination Sequence:
#
# PCOD8038713 Si02
#       6
#     2   2   2   2   2   2
#     4  12  20  38  63  90 119 154 201 246 290 351
#     4  12  21  36  65  93 114 153 203 247 293 349
#     4  12  26  41  57  88 128 160 195 246 301 355
#     4  10  18  33  59  91 113 144 200 253 287 339
#     4  10  19  34  55  84 119 154 191 245 296 347
#     4  10  18  29  55  88 114 143 192 246 291 337
#
# _framework density 20.178899000000001
#
# number of rings (size 3 to 8) (size 9 to 14) (size 15 to 20)
#    0.000    1.000    5.000    5.000    0.000    0.667 
#    0.000    0.833    0.000    7.000    0.000    0.000 
#    0.000    0.000    0.000    0.000    0.000    0.000 
#
# Total GULP energy -148764.285262 kJ/mol
# GULP energy per Si atom -12397.023772 kJ/mol
# Density = 2.013297 g / cm^3
# Si number density = 20.178899 Si / 1000 Ang^3
#
#
#
# Elastic Constant Matrix: (Units=GPa)
#
#
# Indices 1 2 3 4 5 6 
#
# 1 35.8638 41.9219 30.3815 8.0771 -5.3052 -1.4980
# 2 41.9219 127.7733 53.7159 8.7698 -8.8533 1.4417
# 3 30.3815 53.7159 159.7956 4.4576 -8.6463 -9.9870
# 4 8.0771 8.7698 4.4576 44.0942 2.8879 4.9299
# 5 -5.3052 -8.8533 -8.6463 2.8879 20.0660 4.9801
# 6 -1.4980 1.4417 -9.9870 4.9299 4.9801 32.3463
#
#
#
# Elastic Compliance Matrix: (Units=1/GPa)
#
#
# Indices 1 2 3 4 5 6 
#
# 1 0.050024 -0.013782 -0.004273 -0.006563 0.005823 0.001716
# 2 -0.013782 0.013282 -0.001880 0.000186 0.001909 -0.002133
# 3 -0.004273 -0.001880 0.007885 0.000058 0.000890 0.002174
# 4 -0.006563 0.000186 0.000058 0.024497 -0.004319 -0.003363
# 5 0.005823 0.001909 0.000890 -0.004319 0.055049 -0.007358
# 6 0.001716 -0.002133 0.002174 -0.003363 -0.007358 0.033407
#
#
# Mechanical properties :
#
#
# Convention : Reuss Voigt Hill
#
# Bulk Modulus (GPa) = 31.92639 63.94126 47.93382
# Shear Modulus (GPa) = 21.32636 32.46220 26.89428
#
# Velocity S-wave (km/s) = 3.25447 4.01524 3.65470
# Velocity P-wave (km/s) = 5.47523 7.29741 6.45098
#
# Compressibility (1/GPa) = 0.03132205
#
# Stress axis : x y z
#
# Youngs Moduli (GPa) = 19.99044 75.29052 126.82843
#
# Poissons Ratio (x) = 1.03764 0.54190
# Poissons Ratio (y) = 0.27550 0.23840
# Poissons Ratio (z) = 0.08541 0.14152
#
# Static dielectric constant tensor:
#      x y z
#    x 3.236650 0.618850 0.404900 
#    y 0.618850 4.675000 0.500750 
#    z 0.404900 0.500750 4.281780 
# 
# 
# High freq. dielectric constant tensor:
#      x y z
#    x 1.710390 0.029470 0.012120 
#    y 0.029470 1.806040 -0.001910 
#    z 0.012120 -0.001910 1.816180 
# 
# From -- ./inp_files/188802.got.cif
#   From: 2010.06.25/outbox.cif.g09.slc.cpg/sg2_95_cif.got.tgz:188802.got - 2010.06.27 13:26:56.
