data_PCOD8038015
_publ_section_title
;
Structure prediction by ZEFSAII (Michael W. Deem and Ramdas Pophale) SiO2 
 PCOD8038015
Probable space group: P -1
;
_chemical_formula_sum "Si O2"
_cell_formula_units_Z 16
_cell_length_a 12.000000
_cell_length_b 9.000000
_cell_length_c 15.000000
_cell_angle_alpha 110.000000
_cell_angle_beta 70.000000
_cell_angle_gamma 50.000000
_cell_volume 728.972637
_symmetry_space_group_name_H-M "P -1"
_symmetry_group_IT_number 2
_symmetry_cell_setting 'triclinic'
loop_
_space_group_symop_operation_xyz
x,y,z
-x,-y,-z
loop_
_atom_site_type_symbol
_atom_site_label
_atom_site_fract_x
_atom_site_fract_y
_atom_site_fract_z
Si Si1 0.140924 0.794469 0.073280
Si Si2 0.871617 0.551003 0.968919
Si Si3 0.415783 0.768579 0.278562
Si Si4 0.346344 0.175298 0.292929
Si Si5 0.360491 0.553380 0.671235
Si Si6 0.358026 0.484749 0.459228
Si Si7 0.757005 0.654386 0.833365
Si Si8 0.138060 0.826342 0.276806
O O1 0.060138 0.708058 0.092253
O O2 0.217995 0.780555 0.144723
O O3 0.354821 0.559685 0.900336
O O4 0.914729 0.144371 0.167687
O O5 0.921581 0.533108 0.845272
O O6 0.000000 0.500000 0.000000
O O7 0.603521 0.889268 0.127205
O O8 0.483327 0.712851 0.351792
O O9 0.225578 0.851850 0.331183
O O10 0.309000 0.056988 0.333711
O O11 0.306872 0.373018 0.406613
O O12 0.179155 0.359540 0.287731
O O13 0.408412 0.407669 0.535198
O O14 0.426939 0.664702 0.672474
O O15 0.140513 0.850926 0.578786
O O16 0.766514 0.454334 0.782083
O O17 0.500000 0.000000 0.000000
#
# Coordination Sequence:
#
# PCOD8038015 Si02
#       8
#     2   2   2   2   2   2   2   2
#     4   9  19  36  57  84 112 142 186 236 289 336
#     4   9  17  32  55  83 111 142 186 237 278 323
#     4  11  22  36  58  86 116 149 188 239 290 334
#     4  10  21  36  53  81 117 150 187 230 281 338
#     4  10  21  38  60  82 110 152 194 236 283 337
#     4  10  22  40  59  81 113 155 197 231 274 339
#     4   9  19  36  57  82 112 147 188 233 280 330
#     4  10  21  38  60  83 113 150 189 232 278 340
#
# _framework density 21.948698
#
# number of rings (size 3 to 8) (size 9 to 14) (size 15 to 20)
#    0.000    2.250    0.000    3.000    0.000    5.000 
#    0.000    5.000    0.000    0.000    0.000    0.000 
#    0.000    0.000    0.000    0.000    0.000    0.000 
#
# Total GULP energy -198248.794756 kJ/mol
# GULP energy per Si atom -12390.549672 kJ/mol
# Density = 2.189874 g / cm^3
# Si number density = 21.948698 Si / 1000 Ang^3
#
#
#
# Elastic Constant Matrix: (Units=GPa)
#
#
# Indices 1 2 3 4 5 6 
#
# 1 89.7416 56.0903 16.3377 -0.6160 28.5429 -20.8174
# 2 56.0903 152.6642 27.5465 -12.4854 19.8605 -25.1634
# 3 16.3377 27.5465 45.5669 -0.2364 12.9361 4.2505
# 4 -0.6160 -12.4854 -0.2364 26.9832 -2.8947 15.3423
# 5 28.5429 19.8605 12.9361 -2.8947 36.1581 -2.7383
# 6 -20.8174 -25.1634 4.2505 15.3423 -2.7383 40.0553
#
#
#
# Elastic Compliance Matrix: (Units=1/GPa)
#
#
# Indices 1 2 3 4 5 6 
#
# 1 0.021113 -0.004607 -0.002078 -0.009329 -0.013309 0.010962
# 2 -0.004607 0.009788 -0.004669 0.002547 0.000385 0.003301
# 3 -0.002078 -0.004669 0.028077 0.002024 -0.006299 -0.008198
# 4 -0.009329 0.002547 0.002024 0.051823 0.007664 -0.022788
# 5 -0.013309 0.000385 -0.006299 0.007664 0.040350 -0.006184
# 6 0.010962 0.003301 -0.008198 -0.022788 -0.006184 0.041912
#
#
# Mechanical properties :
#
#
# Convention : Reuss Voigt Hill
#
# Bulk Modulus (GPa) = 27.57076 54.21351 40.89214
# Shear Modulus (GPa) = 21.94343 33.17254 27.55799
#
# Velocity S-wave (km/s) = 3.16533 3.89185 3.54724
# Velocity P-wave (km/s) = 5.09390 6.70440 5.95386
#
# Compressibility (1/GPa) = 0.03627030
#
# Stress axis : x y z
#
# Youngs Moduli (GPa) = 47.36513 102.16933 35.61673
#
# Poissons Ratio (x) = 0.47066 0.07399
# Poissons Ratio (y) = 0.21820 0.16630
# Poissons Ratio (z) = 0.09840 0.47704
#
# Static dielectric constant tensor:
#      x y z
#    x 3.622700 -0.324100 0.158680 
#    y -0.324100 4.257830 0.028120 
#    z 0.158680 0.028120 3.774110 
# 
# 
# High freq. dielectric constant tensor:
#      x y z
#    x 1.848260 -0.028980 0.026640 
#    y -0.028980 1.872890 0.005050 
#    z 0.026640 0.005050 1.858540 
# 
# From -- ./inp_files/257121.got.cif
#   From: 2010.06.25/outbox.ucp.g09.slc.cvg/sg2_129_cif.got.tgz:257121.got - 2010.06.28 11:54:26.
