data_PCOD8038669
_publ_section_title
;
Structure prediction by ZEFSAII (Michael W. Deem and Ramdas Pophale) SiO2 
 PCOD8038669
Probable space group: P -1
;
_chemical_formula_sum "Si O2"
_cell_formula_units_Z 16
_cell_length_a 11.402272
_cell_length_b 13.963904
_cell_length_c 11.943329
_cell_angle_alpha 65.142059
_cell_angle_beta 74.686503
_cell_angle_gamma 128.695635
_cell_volume 899.751027
_symmetry_space_group_name_H-M "P -1"
_symmetry_group_IT_number 2
_symmetry_cell_setting 'triclinic'
loop_
_space_group_symop_operation_xyz
x,y,z
-x,-y,-z
loop_
_atom_site_type_symbol
_atom_site_label
_atom_site_fract_x
_atom_site_fract_y
_atom_site_fract_z
Si Si1 0.926136 0.550824 0.662931
Si Si2 0.747036 0.126503 0.744649
Si Si3 0.260541 0.874081 0.598866
Si Si4 0.790502 0.983154 0.627743
Si Si5 0.267301 0.378510 0.258666
Si Si6 0.592137 0.452352 0.096515
Si Si7 0.012258 0.389021 0.006649
Si Si8 0.246341 0.794672 0.061490
O O1 0.754683 0.525725 0.719266
O O2 0.776325 0.337667 0.812340
O O3 0.073344 0.660985 0.458491
O O4 0.099262 0.681262 0.659737
O O5 0.792970 0.150471 0.854798
O O6 0.768452 0.029021 0.728202
O O7 0.496365 0.988856 0.853544
O O8 0.142829 0.800093 0.785654
O O9 0.500000 0.000000 0.500000
O O10 0.295389 0.009269 0.459218
O O11 0.636939 0.768586 0.783295
O O12 0.052963 0.148688 0.458300
O O13 0.497888 0.483096 0.178620
O O14 0.261315 0.398493 0.117246
O O15 0.734266 0.472073 0.122562
O O16 0.000000 0.500000 0.000000
O O17 0.935527 0.321505 0.931654
#
# Coordination Sequence:
#
# PCOD8038669 Si02
#       8
#     2   2   2   2   2   2   2   2
#     4  10  18  34  51  71 102 132 166 208 246 294
#     4   9  20  33  49  73  99 135 173 203 238 302
#     4  10  18  29  45  73 104 133 155 195 254 313
#     4  10  19  33  51  71 103 134 164 210 248 293
#     4   9  19  33  49  75 102 130 172 203 246 305
#     4  11  19  32  52  77 103 130 165 207 257 299
#     4  12  19  31  49  76 106 130 157 206 263 305
#     4  11  20  32  51  75 103 133 166 204 252 300
#
# _framework density 17.782698
#
# number of rings (size 3 to 8) (size 9 to 14) (size 15 to 20)
#    0.000    2.000    3.750    4.500    0.000    0.000 
#    0.000    0.000    0.000    3.000    0.000   14.000 
#    0.000    0.000    0.000    0.000    0.000    0.000 
#
# Total GULP energy -198278.928227 kJ/mol
# GULP energy per Si atom -12392.433014 kJ/mol
# Density = 1.774222 g / cm^3
# Si number density = 17.782698 Si / 1000 Ang^3
#
#
#
# Elastic Constant Matrix: (Units=GPa)
#
#
# Indices 1 2 3 4 5 6 
#
# 1 92.8572 27.9209 32.0627 4.2782 -22.9738 5.0028
# 2 27.9209 67.6426 31.8449 10.6065 -1.8485 4.4250
# 3 32.0627 31.8449 107.8632 11.8108 -14.4263 -5.1611
# 4 4.2782 10.6065 11.8108 21.1280 -1.4938 3.9635
# 5 -22.9738 -1.8485 -14.4263 -1.4938 26.2480 -3.4712
# 6 5.0028 4.4250 -5.1611 3.9635 -3.4712 20.1214
#
#
#
# Elastic Compliance Matrix: (Units=1/GPa)
#
#
# Indices 1 2 3 4 5 6 
#
# 1 0.016234 -0.005745 -0.001663 0.001680 0.012812 -0.001320
# 2 -0.005745 0.020478 -0.004836 -0.006104 -0.007167 -0.004349
# 3 -0.001663 -0.004836 0.012890 -0.005309 0.005891 0.006845
# 4 0.001680 -0.006104 -0.005309 0.055132 -0.000239 -0.011338
# 5 0.012812 -0.007167 0.005891 -0.000239 0.053239 0.009133
# 6 -0.001320 -0.004349 0.006845 -0.011338 0.009133 0.056548
#
#
# Mechanical properties :
#
#
# Convention : Reuss Voigt Hill
#
# Bulk Modulus (GPa) = 39.82007 50.22443 45.02225
# Shear Modulus (GPa) = 20.21172 25.26845 22.74008
#
# Velocity S-wave (km/s) = 3.37500 3.77365 3.57988
# Velocity P-wave (km/s) = 6.13422 6.87692 6.51616
#
# Compressibility (1/GPa) = 0.02511296
#
# Stress axis : x y z
#
# Youngs Moduli (GPa) = 61.59746 48.83394 77.57962
#
# Poissons Ratio (x) = 0.28055 0.12903
# Poissons Ratio (y) = 0.35388 0.37519
# Poissons Ratio (z) = 0.10245 0.23617
#
# Static dielectric constant tensor:
#      x y z
#    x 3.189300 -0.026550 -0.072540 
#    y -0.026550 3.032370 -0.004670 
#    z -0.072540 -0.004670 3.625530 
# 
# 
# High freq. dielectric constant tensor:
#      x y z
#    x 1.664860 -0.006840 -0.006080 
#    y -0.006840 1.652750 -0.005750 
#    z -0.006080 -0.005750 1.715720 
# 
# From -- ./inp_files/248223.got.cif
#   From: 2010.06.25/outbox.cif.g09.slc.cpg/sg2_125_cif.got.tgz:248223.got - 2010.06.27 13:26:56.
