data_PCOD8038447
_publ_section_title
;
Structure prediction by ZEFSAII (Michael W. Deem and Ramdas Pophale) SiO2 
 PCOD8038447
Probable space group: P -1
;
_chemical_formula_sum "Si O2"
_cell_formula_units_Z 16
_cell_length_a 11.628640
_cell_length_b 17.756249
_cell_length_c 8.913143
_cell_angle_alpha 102.589830
_cell_angle_beta 106.494156
_cell_angle_gamma 27.960631
_cell_volume 825.181229
_symmetry_space_group_name_H-M "P -1"
_symmetry_group_IT_number 2
_symmetry_cell_setting 'triclinic'
loop_
_space_group_symop_operation_xyz
x,y,z
-x,-y,-z
loop_
_atom_site_type_symbol
_atom_site_label
_atom_site_fract_x
_atom_site_fract_y
_atom_site_fract_z
Si Si1 0.218381 0.043972 0.151882
Si Si2 0.532056 0.815714 0.634515
Si Si3 0.752423 0.234765 0.554224
Si Si4 0.164870 0.223353 0.394422
Si Si5 0.860614 0.898829 0.187806
Si Si6 0.253613 0.189158 0.740858
Si Si7 0.144921 0.978004 0.347907
Si Si8 0.220840 0.487799 0.426058
O O1 0.518825 0.881498 0.166555
O O2 0.106349 0.176595 0.268889
O O3 0.138712 0.007728 0.184327
O O4 0.083410 0.120974 0.974584
O O5 0.686233 0.807623 0.681547
O O6 0.707374 0.641888 0.621684
O O7 0.348249 0.920468 0.756942
O O8 0.358095 0.913171 0.466019
O O9 0.462323 0.408209 0.475893
O O10 0.881595 0.236514 0.678971
O O11 0.882320 0.139060 0.404244
O O12 0.776041 0.155118 0.656268
O O13 0.307066 0.126105 0.564186
O O14 0.913083 0.414542 0.423459
O O15 0.751261 0.875868 0.167532
O O16 0.979872 0.384486 0.727093
#
# Coordination Sequence:
#
# PCOD8038447 Si02
#       8
#     2   2   2   2   2   2   2   2
#     4  12  21  36  56  89 111 146 187 224 280 330
#     4  10  17  36  58  86 108 139 190 235 275 320
#     4   9  19  38  56  84 107 147 186 229 272 324
#     4  10  19  32  60  82 109 141 184 236 271 318
#     4  11  23  35  60  79 119 150 180 225 272 337
#     4  10  21  36  58  86 107 146 184 236 272 318
#     4   9  18  34  63  79 107 144 195 233 258 319
#     4   9  21  34  61  82 109 141 190 231 279 312
#
# _framework density 19.389679000000001
#
# number of rings (size 3 to 8) (size 9 to 14) (size 15 to 20)
#    0.750    1.250    2.500    3.375    0.000    1.000 
#    0.000    1.250    5.500    0.000    0.000    0.000 
#    0.000    0.000    0.000    0.000    0.000    0.000 
#
# Total GULP energy -198254.005442 kJ/mol
# GULP energy per Si atom -12390.875340 kJ/mol
# Density = 1.934555 g / cm^3
# Si number density = 19.389679 Si / 1000 Ang^3
#
#
#
# Elastic Constant Matrix: (Units=GPa)
#
#
# Indices 1 2 3 4 5 6 
#
# 1 79.8372 12.0187 8.0773 -3.9445 -18.3400 -4.4764
# 2 12.0187 70.8888 8.6054 -6.8616 -4.1947 -3.3766
# 3 8.0773 8.6054 62.1218 -4.8097 -17.8699 3.9738
# 4 -3.9445 -6.8616 -4.8097 13.9001 -0.0293 4.8673
# 5 -18.3400 -4.1947 -17.8699 -0.0293 27.8330 -5.3581
# 6 -4.4764 -3.3766 3.9738 4.8673 -5.3581 24.5659
#
#
#
# Elastic Compliance Matrix: (Units=1/GPa)
#
#
# Indices 1 2 3 4 5 6 
#
# 1 0.015758 -0.001682 0.001551 0.002633 0.011991 0.004483
# 2 -0.001682 0.015231 -0.001311 0.006285 0.000519 0.000867
# 3 0.001551 -0.001311 0.020755 0.007616 0.013821 -0.001749
# 4 0.002633 0.006285 0.007616 0.083859 0.004680 -0.015483
# 5 0.011991 0.000519 0.013821 0.004680 0.054918 0.011072
# 6 0.004483 0.000867 -0.001749 -0.015483 0.011072 0.047408
#
#
# Mechanical properties :
#
#
# Convention : Reuss Voigt Hill
#
# Bulk Modulus (GPa) = 20.46672 30.02786 25.24729
# Shear Modulus (GPa) = 19.44773 25.53623 22.49198
#
# Velocity S-wave (km/s) = 3.17044 3.63299 3.40957
# Velocity P-wave (km/s) = 4.89701 5.75485 5.34317
#
# Compressibility (1/GPa) = 0.04885981
#
# Stress axis : x y z
#
# Youngs Moduli (GPa) = 63.46034 65.65441 48.18217
#
# Poissons Ratio (x) = 0.11042 -0.07471
# Poissons Ratio (y) = 0.10673 0.06315
# Poissons Ratio (z) = -0.09840 0.08605
#
# Static dielectric constant tensor:
#      x y z
#    x 3.499840 -0.145290 -0.036850 
#    y -0.145290 3.446400 0.035630 
#    z -0.036850 0.035630 3.177960 
# 
# 
# High freq. dielectric constant tensor:
#      x y z
#    x 1.761000 -0.007550 -0.007990 
#    y -0.007550 1.741990 0.003590 
#    z -0.007990 0.003590 1.716100 
# 
# From -- ./inp_files/277995.got.cif
#   From: 2010.06.25/outbox.cif.g09.slc.cpg/sg2_139_cif.got.tgz:277995.got - 2010.06.27 13:26:56.
