data_PCOD8038953
_publ_section_title
;
Structure prediction by ZEFSAII (Michael W. Deem and Ramdas Pophale) SiO2 
 PCOD8038953
Probable space group: P -1
;
_chemical_formula_sum "Si O2"
_cell_formula_units_Z 16
_cell_length_a 7.498240
_cell_length_b 14.853920
_cell_length_c 9.472314
_cell_angle_alpha 78.865665
_cell_angle_beta 111.697078
_cell_angle_gamma 66.596287
_cell_volume 825.029727
_symmetry_space_group_name_H-M "P -1"
_symmetry_group_IT_number 2
_symmetry_cell_setting 'triclinic'
loop_
_space_group_symop_operation_xyz
x,y,z
-x,-y,-z
loop_
_atom_site_type_symbol
_atom_site_label
_atom_site_fract_x
_atom_site_fract_y
_atom_site_fract_z
Si Si1 0.710970 0.843369 0.221595
Si Si2 0.178666 0.794603 0.801242
Si Si3 0.055686 0.352833 0.852511
Si Si4 0.680234 0.053436 0.130781
Si Si5 0.816232 0.476737 0.204824
Si Si6 0.574308 0.779706 0.781826
Si Si7 0.674761 0.410788 0.913277
Si Si8 0.817037 0.762604 0.581924
O O1 0.878210 0.737612 0.217320
O O2 0.692346 0.813764 0.384957
O O3 0.804264 0.925287 0.216733
O O4 0.460805 0.903550 0.068020
O O5 0.144125 0.904557 0.827123
O O6 0.379261 0.750755 0.755981
O O7 0.946682 0.821800 0.654590
O O8 0.255367 0.705718 0.971355
O O9 0.086287 0.446041 0.769532
O O10 0.797954 0.399049 0.804652
O O11 0.198198 0.309352 0.050887
O O12 0.509188 0.106488 0.198575
O O13 0.589751 0.521459 0.216808
O O14 0.002276 0.361660 0.351355
O O15 0.749149 0.472424 0.024731
O O16 0.624863 0.782511 0.631431
#
# Coordination Sequence:
#
# PCOD8038953 Si02
#       8
#     2   2   2   2   2   2   2   2
#     4  10  21  38  58  85 115 149 181 232 290 332
#     4   9  18  36  58  84 110 143 189 241 258 328
#     4  11  19  35  58  79 113 156 187 218 271 345
#     4   8  19  40  64  75 113 151 185 231 277 338
#     4  10  20  31  53  85 112 144 192 232 262 322
#     4   9  18  35  60  82 111 145 191 229 271 327
#     4  10  18  31  57  85 107 145 196 226 265 325
#     4  11  22  34  59  87 116 142 187 239 281 319
#
# _framework density 19.393241
#
# number of rings (size 3 to 8) (size 9 to 14) (size 15 to 20)
#    0.750    1.500    3.750    0.375    0.000    1.500 
#    0.000    3.750    2.750    0.000    0.000    0.000 
#    0.000    0.000    0.000    0.000    0.000    0.000 
#
# Total GULP energy -198319.403288 kJ/mol
# GULP energy per Si atom -12394.962706 kJ/mol
# Density = 1.934910 g / cm^3
# Si number density = 19.393241 Si / 1000 Ang^3
#
#
#
# Elastic Constant Matrix: (Units=GPa)
#
#
# Indices 1 2 3 4 5 6 
#
# 1 95.0491 30.7026 19.2156 -3.6677 -19.7403 9.0722
# 2 30.7026 99.7251 27.8067 -14.0779 -9.3332 32.1096
# 3 19.2156 27.8067 80.6954 -2.7260 -2.6802 -1.8020
# 4 -3.6677 -14.0779 -2.7260 14.3663 -0.2192 -5.2713
# 5 -19.7403 -9.3332 -2.6802 -0.2192 9.7554 -4.1790
# 6 9.0722 32.1096 -1.8020 -5.2713 -4.1790 17.7725
#
#
#
# Elastic Compliance Matrix: (Units=1/GPa)
#
#
# Indices 1 2 3 4 5 6 
#
# 1 0.019574 -0.003072 -0.002047 0.004283 0.038649 0.005709
# 2 -0.003072 0.035261 -0.012551 0.008889 -0.001962 -0.061235
# 3 -0.002047 -0.012551 0.017753 -0.000145 -0.000402 0.025383
# 4 0.004283 0.008889 -0.000145 0.084336 0.024374 0.012485
# 5 0.038649 -0.001962 -0.000402 0.024374 0.195070 0.036873
# 6 0.005709 -0.061235 0.025383 0.012485 0.036873 0.178932
#
#
# Mechanical properties :
#
#
# Convention : Reuss Voigt Hill
#
# Bulk Modulus (GPa) = 26.84695 47.87992 37.36344
# Shear Modulus (GPa) = 8.64031 21.56184 15.10107
#
# Velocity S-wave (km/s) = 2.11305 3.33802 2.79351
# Velocity P-wave (km/s) = 4.45273 6.29278 5.45096
#
# Compressibility (1/GPa) = 0.03724817
#
# Stress axis : x y z
#
# Youngs Moduli (GPa) = 51.08751 28.36014 56.32790
#
# Poissons Ratio (x) = 0.08713 0.11528
# Poissons Ratio (y) = 0.15695 0.70698
# Poissons Ratio (z) = 0.10456 0.35595
#
# Static dielectric constant tensor:
#      x y z
#    x 3.448610 0.103150 -0.072000 
#    y 0.103150 3.592790 -0.036900 
#    z -0.072000 -0.036900 3.136780 
# 
# 
# High freq. dielectric constant tensor:
#      x y z
#    x 1.742900 0.008320 -0.009910 
#    y 0.008320 1.757470 -0.007400 
#    z -0.009910 -0.007400 1.719650 
# 
# From -- ./inp_files/200839.got.cif
#   From: 2010.06.25/outbox.cif.g09.slc.cpg/sg2_101_cif.got.tgz:200839.got - 2010.06.27 13:26:56.
