data_PCOD8038757
_publ_section_title
;
Structure prediction by ZEFSAII (Michael W. Deem and Ramdas Pophale) SiO2 
 PCOD8038757
Probable space group: P -1
;
_chemical_formula_sum "Si O2"
_cell_formula_units_Z 12
_cell_length_a 11.291878
_cell_length_b 9.032741
_cell_length_c 12.677020
_cell_angle_alpha 69.453757
_cell_angle_beta 123.112791
_cell_angle_gamma 65.354192
_cell_volume 639.478705
_symmetry_space_group_name_H-M "P -1"
_symmetry_group_IT_number 2
_symmetry_cell_setting 'triclinic'
loop_
_space_group_symop_operation_xyz
x,y,z
-x,-y,-z
loop_
_atom_site_type_symbol
_atom_site_label
_atom_site_fract_x
_atom_site_fract_y
_atom_site_fract_z
Si Si1 0.305326 0.031324 0.003895
Si Si2 0.884794 0.579382 0.035278
Si Si3 0.198659 0.392471 0.696530
Si Si4 0.544795 0.262242 0.202571
Si Si5 0.728519 0.208024 0.097167
Si Si6 0.028933 0.203324 0.353139
O O1 0.177487 0.190633 0.009662
O O2 0.573399 0.770967 0.217828
O O3 0.261393 0.215404 0.860661
O O4 0.190900 0.971965 0.915511
O O5 0.655105 0.683568 0.887918
O O6 0.000000 0.500000 0.000000
O O7 0.050607 0.336035 0.253251
O O8 0.000000 0.500000 0.500000
O O9 0.116798 0.624101 0.657469
O O10 0.634225 0.166710 0.149676
O O11 0.726945 0.064341 0.427961
O O12 0.468712 0.510050 0.114712
O O13 0.924101 0.144536 0.256806
#
# Coordination Sequence:
#
# PCOD8038757 Si02
#       6
#     2   2   2   2   2   2
#     4  10  19  32  50  75 104 131 170 216 254 302
#     4  10  22  38  54  72 100 143 184 214 247 293
#     4  10  18  30  51  78 104 132 167 210 260 306
#     4  10  19  34  54  79 110 136 165 207 258 315
#     4  10  19  32  54  82 109 133 160 209 273 316
#     4  10  20  34  55  80 107 137 167 208 263 313
#
# _framework density 18.765286
#
# number of rings (size 3 to 8) (size 9 to 14) (size 15 to 20)
#    0.000    2.000    0.000    7.500    0.000    2.000 
#    0.000    3.333    0.000    2.000    0.000    0.000 
#    0.000    0.000    0.000    0.000    0.000    0.000 
#
# Total GULP energy -148738.064289 kJ/mol
# GULP energy per Si atom -12394.838691 kJ/mol
# Density = 1.872258 g / cm^3
# Si number density = 18.765286 Si / 1000 Ang^3
#
#
#
# Elastic Constant Matrix: (Units=GPa)
#
#
# Indices 1 2 3 4 5 6 
#
# 1 65.8981 53.3352 31.8275 8.9469 -5.3665 -6.8286
# 2 53.3352 153.1496 39.6140 15.8561 6.2176 -1.1632
# 3 31.8275 39.6140 143.0891 2.2152 6.6708 1.5195
# 4 8.9469 15.8561 2.2152 16.3340 6.7755 2.2901
# 5 -5.3665 6.2176 6.6708 6.7755 13.8885 8.2900
# 6 -6.8286 -1.1632 1.5195 2.2901 8.2900 28.5997
#
#
#
# Elastic Compliance Matrix: (Units=1/GPa)
#
#
# Indices 1 2 3 4 5 6 
#
# 1 0.028494 -0.007763 -0.005093 -0.017937 0.025140 0.000907
# 2 -0.007763 0.009967 -0.000712 -0.002899 -0.006049 0.000575
# 3 -0.005093 -0.000712 0.008639 0.005966 -0.008957 0.000415
# 4 -0.017937 -0.002899 0.005966 0.096603 -0.058276 0.004439
# 5 0.025140 -0.006049 -0.008957 -0.058276 0.133800 -0.027885
# 6 0.000907 0.000575 0.000415 0.004439 -0.027885 0.042911
#
#
# Mechanical properties :
#
#
# Convention : Reuss Voigt Hill
#
# Bulk Modulus (GPa) = 50.08595 67.96557 59.02576
# Shear Modulus (GPa) = 14.11613 27.58844 20.85228
#
# Velocity S-wave (km/s) = 2.74569 3.83846 3.33711
# Velocity P-wave (km/s) = 6.06634 7.47947 6.80966
#
# Compressibility (1/GPa) = 0.01996568
#
# Stress axis : x y z
#
# Youngs Moduli (GPa) = 35.09499 100.32985 115.74894
#
# Poissons Ratio (x) = 0.77882 0.58950
# Poissons Ratio (y) = 0.27243 0.08241
# Poissons Ratio (z) = 0.17874 0.07143
#
# Static dielectric constant tensor:
#      x y z
#    x 3.030370 0.092330 0.002160 
#    y 0.092330 3.821970 -0.133870 
#    z 0.002160 -0.133870 3.643090 
# 
# 
# High freq. dielectric constant tensor:
#      x y z
#    x 1.679500 0.025080 0.007210 
#    y 0.025080 1.736880 -0.006050 
#    z 0.007210 -0.006050 1.737560 
# 
# From -- ./inp_files/25635.got.cif
#   From: 2010.06.25/outbox.cif.g09.slc.cpg/sg2_13_cif.got.tgz:25635.got - 2010.06.27 13:26:56.
