data_PCOD8038689
_publ_section_title
;
Structure prediction by ZEFSAII (Michael W. Deem and Ramdas Pophale) SiO2 
 PCOD8038689
Probable space group: P -1
;
_chemical_formula_sum "Si O2"
_cell_formula_units_Z 14
_cell_length_a 11.081697
_cell_length_b 9.508139
_cell_length_c 8.272542
_cell_angle_alpha 87.787067
_cell_angle_beta 76.792638
_cell_angle_gamma 68.316348
_cell_volume 787.532398
_symmetry_space_group_name_H-M "P -1"
_symmetry_group_IT_number 2
_symmetry_cell_setting 'triclinic'
loop_
_space_group_symop_operation_xyz
x,y,z
-x,-y,-z
loop_
_atom_site_type_symbol
_atom_site_label
_atom_site_fract_x
_atom_site_fract_y
_atom_site_fract_z
Si Si1 0.690015 0.850522 0.445789
Si Si2 0.614101 0.263884 0.955256
Si Si3 0.679164 0.533769 0.032479
Si Si4 0.527022 0.087547 0.250906
Si Si5 0.715166 0.971523 0.753603
Si Si6 0.138982 0.426068 0.775871
Si Si7 0.125014 0.328151 0.121983
O O1 0.560714 0.828243 0.568586
O O2 0.745773 0.943884 0.552886
O O3 0.803296 0.686693 0.386647
O O4 0.648943 0.939313 0.284686
O O5 0.696160 0.369499 0.966670
O O6 0.588279 0.193283 0.134128
O O7 0.475401 0.360310 0.906999
O O8 0.706457 0.135634 0.809532
O O9 0.746694 0.517407 0.190328
O O10 0.755478 0.609014 0.882901
O O11 0.430504 0.037156 0.164192
O O12 0.830574 0.843505 0.823612
O O13 0.010285 0.567826 0.748445
O O14 0.093638 0.337957 0.938242
#
# Coordination Sequence:
#
# PCOD8038689 Si02
#       7
#     2   2   2   2   2   2   2
#     4   9  18  28  51  72 100 117 169 194 245 260
#     4  11  18  30  53  72 104 118 159 195 253 275
#     4   9  19  31  50  76  95 127 153 204 237 287
#     4   9  17  29  47  77  93 127 153 202 231 288
#     4  10  18  29  50  77  90 127 161 201 225 292
#     4   9  17  34  50  70  95 130 161 200 222 293
#     4   9  18  32  55  68  93 127 174 188 232 269
#
# _framework density 17.777045000000001
#
# number of rings (size 3 to 8) (size 9 to 14) (size 15 to 20)
#    1.714    0.857    1.429    2.143    0.000    0.571 
#    0.000    1.429    3.143    0.857    0.000    0.000 
#    0.000    0.000    0.000    0.000    0.000    0.000 
#
# Total GULP energy -173444.863545 kJ/mol
# GULP energy per Si atom -12388.918825 kJ/mol
# Density = 1.773658 g / cm^3
# Si number density = 17.777045 Si / 1000 Ang^3
#
#
#
# Elastic Constant Matrix: (Units=GPa)
#
#
# Indices 1 2 3 4 5 6 
#
# 1 37.0642 29.8640 14.2603 15.1251 6.2413 2.1093
# 2 29.8640 119.1810 37.0377 30.2699 14.8459 -7.8821
# 3 14.2603 37.0377 55.9562 25.4961 9.9360 -2.8477
# 4 15.1251 30.2699 25.4961 37.4518 -0.4738 3.1775
# 5 6.2413 14.8459 9.9360 -0.4738 15.0052 2.2651
# 6 2.1093 -7.8821 -2.8477 3.1775 2.2651 23.8375
#
#
#
# Elastic Compliance Matrix: (Units=1/GPa)
#
#
# Indices 1 2 3 4 5 6 
#
# 1 0.037750 -0.005796 0.001078 -0.011207 -0.010639 -0.002623
# 2 -0.005796 0.014776 -0.001280 -0.009549 -0.012830 0.007738
# 3 0.001078 -0.001280 0.033775 -0.023446 -0.023628 0.008887
# 4 -0.011207 -0.009549 -0.023446 0.056668 0.033798 -0.015732
# 5 -0.010639 -0.012830 -0.023628 0.033798 0.103566 -0.020470
# 6 -0.002623 0.007738 0.008887 -0.015732 -0.020470 0.049845
#
#
# Mechanical properties :
#
#
# Convention : Reuss Voigt Hill
#
# Bulk Modulus (GPa) = 13.45836 41.61391 27.53614
# Shear Modulus (GPa) = 15.00850 23.99486 19.50168
#
# Velocity S-wave (km/s) = 2.90877 3.67790 3.31571
# Velocity P-wave (km/s) = 4.34377 6.44171 5.49381
#
# Compressibility (1/GPa) = 0.07430325
#
# Stress axis : x y z
#
# Youngs Moduli (GPa) = 26.49036 67.67717 29.60781
#
# Poissons Ratio (x) = 0.39227 -0.03191
# Poissons Ratio (y) = 0.15354 0.03791
# Poissons Ratio (z) = -0.02855 0.08665
#
# Static dielectric constant tensor:
#      x y z
#    x 2.923620 -0.152520 0.089480 
#    y -0.152520 3.227450 0.078290 
#    z 0.089480 0.078290 2.999210 
# 
# 
# High freq. dielectric constant tensor:
#      x y z
#    x 1.640960 -0.022340 0.011960 
#    y -0.022340 1.690500 0.009610 
#    z 0.011960 0.009610 1.667560 
# 
# From -- ./inp_files/254158.got.cif
#   From: 2010.06.25/outbox.cif.g09.slc.cpg/sg2_128_cif.got.tgz:254158.got - 2010.06.27 13:26:56.
