data_PCOD8038146
_publ_section_title
;
Structure prediction by ZEFSAII (Michael W. Deem and Ramdas Pophale) SiO2 
 PCOD8038146
Probable space group: P -1
;
_chemical_formula_sum "Si O2"
_cell_formula_units_Z 16
_cell_length_a 9.306131
_cell_length_b 15.003654
_cell_length_c 15.606959
_cell_angle_alpha 44.765713
_cell_angle_beta 34.791132
_cell_angle_gamma 44.429197
_cell_volume 827.729934
_symmetry_space_group_name_H-M "P -1"
_symmetry_group_IT_number 2
_symmetry_cell_setting 'triclinic'
loop_
_space_group_symop_operation_xyz
x,y,z
-x,-y,-z
loop_
_atom_site_type_symbol
_atom_site_label
_atom_site_fract_x
_atom_site_fract_y
_atom_site_fract_z
Si Si1 0.762420 0.949025 0.621765
Si Si2 0.691034 0.542095 0.636692
Si Si3 0.187822 0.719282 0.499924
Si Si4 0.571420 0.746984 0.946324
Si Si5 0.573063 0.766577 0.423821
Si Si6 0.486386 0.340065 0.783034
Si Si7 0.006874 0.494132 0.181699
Si Si8 0.828816 0.370323 0.842309
O O1 0.641174 0.881714 0.802761
O O2 0.893325 0.832194 0.568166
O O3 0.517856 0.074192 0.621156
O O4 0.000000 0.000000 0.500000
O O5 0.556649 0.698713 0.570993
O O6 0.559862 0.469989 0.682283
O O7 0.656479 0.496484 0.781050
O O8 0.000000 0.500000 0.500000
O O9 0.373968 0.738780 0.471505
O O10 0.307882 0.738600 0.336676
O O11 0.152071 0.573499 0.628913
O O12 0.822368 0.615551 0.893615
O O13 0.494757 0.753793 0.079600
O O14 0.326792 0.738302 0.012096
O O15 0.871375 0.706739 0.282455
O O16 0.190674 0.386961 0.857721
O O17 0.179695 0.565449 0.103704
#
# Coordination Sequence:
#
# PCOD8038146 Si02
#       8
#     2   2   2   2   2   2   2   2
#     4   9  21  38  58  79 108 152 191 231 271 328
#     4   9  18  30  52  87 114 138 176 231 278 325
#     4  10  18  32  58  86 110 145 191 229 264 331
#     4  10  23  37  53  84 118 145 181 237 282 326
#     4  10  17  34  56  81 112 152 188 219 275 334
#     4  11  19  33  58  87 114 142 185 235 282 325
#     4  11  19  34  58  85 117 147 184 225 284 337
#     4  10  20  33  57  84 116 145 179 230 289 331
#
# _framework density 19.329975000000001
#
# number of rings (size 3 to 8) (size 9 to 14) (size 15 to 20)
#    0.000    2.000    2.500    2.625    0.000    0.500 
#    0.000    2.500    0.000   18.750    0.000    0.000 
#    0.000    0.000    0.000    0.000    0.000    0.000 
#
# Total GULP energy -198274.516469 kJ/mol
# GULP energy per Si atom -12392.157279 kJ/mol
# Density = 1.928598 g / cm^3
# Si number density = 19.329975 Si / 1000 Ang^3
#
#
#
# Elastic Constant Matrix: (Units=GPa)
#
#
# Indices 1 2 3 4 5 6 
#
# 1 95.3344 21.3531 37.6376 -9.4613 4.2405 -0.0512
# 2 21.3531 86.4025 34.3645 -14.1568 14.0269 -16.4467
# 3 37.6376 34.3645 103.9248 -12.6130 -4.1213 -5.7612
# 4 -9.4613 -14.1568 -12.6130 28.9984 3.8843 0.8319
# 5 4.2405 14.0269 -4.1213 3.8843 25.7462 -3.2147
# 6 -0.0512 -16.4467 -5.7612 0.8319 -3.2147 14.6491
#
#
#
# Elastic Compliance Matrix: (Units=1/GPa)
#
#
# Indices 1 2 3 4 5 6 
#
# 1 0.012820 -0.001426 -0.004245 0.002133 -0.002831 -0.003968
# 2 -0.001426 0.020290 -0.004591 0.008333 -0.010541 0.018183
# 3 -0.004245 -0.004591 0.013107 0.001344 0.005228 0.001056
# 4 0.002133 0.008333 0.001344 0.041048 -0.010205 0.005322
# 5 -0.002831 -0.010541 0.005228 -0.010205 0.047580 0.001232
# 6 -0.003968 0.018183 0.001056 0.005322 0.001232 0.089047
#
#
# Mechanical properties :
#
#
# Convention : Reuss Voigt Hill
#
# Bulk Modulus (GPa) = 38.92199 52.48577 45.70388
# Shear Modulus (GPa) = 19.76433 26.69919 23.23176
#
# Velocity S-wave (km/s) = 3.20108 3.72053 3.47053
# Velocity P-wave (km/s) = 5.81737 6.75780 6.30514
#
# Compressibility (1/GPa) = 0.02569242
#
# Stress axis : x y z
#
# Youngs Moduli (GPa) = 78.00215 49.28497 76.29633
#
# Poissons Ratio (x) = 0.07029 0.32386
# Poissons Ratio (y) = 0.11125 0.35031
# Poissons Ratio (z) = 0.33110 0.22629
#
# Static dielectric constant tensor:
#      x y z
#    x 3.539790 -0.184760 -0.054170 
#    y -0.184760 3.759030 -0.074950 
#    z -0.054170 -0.074950 3.772990 
# 
# 
# High freq. dielectric constant tensor:
#      x y z
#    x 1.743650 -0.011650 -0.012070 
#    y -0.011650 1.733040 0.007400 
#    z -0.012070 0.007400 1.753380 
# 
# From -- ./inp_files/176677.got.cif
#   From: 2010.06.25/outbox.cif.g09.slc.cpg/sg2_89_cif.got.tgz:176677.got - 2010.06.27 13:26:56.
