data_PCOD8038442
_publ_section_title
;
Structure prediction by ZEFSAII (Michael W. Deem and Ramdas Pophale) SiO2 
 PCOD8038442
Probable space group: P -1
;
_chemical_formula_sum "Si O2"
_cell_formula_units_Z 16
_cell_length_a 18.166432
_cell_length_b 11.906092
_cell_length_c 20.880768
_cell_angle_alpha 142.149669
_cell_angle_beta 160.027428
_cell_angle_gamma 38.271103
_cell_volume 926.466199
_symmetry_space_group_name_H-M "P -1"
_symmetry_group_IT_number 2
_symmetry_cell_setting 'triclinic'
loop_
_space_group_symop_operation_xyz
x,y,z
-x,-y,-z
loop_
_atom_site_type_symbol
_atom_site_label
_atom_site_fract_x
_atom_site_fract_y
_atom_site_fract_z
Si Si1 0.282514 0.303310 0.994377
Si Si2 0.175358 0.720848 0.110169
Si Si3 0.730527 0.055235 0.595268
Si Si4 0.000595 0.959575 0.320056
Si Si5 0.648078 0.722692 0.456915
Si Si6 0.259024 0.279141 0.324187
Si Si7 0.114982 0.696693 0.403079
Si Si8 0.238632 0.709580 0.649426
O O1 0.200188 0.151387 0.904535
O O2 0.134768 0.333214 0.822602
O O3 0.245699 0.502940 0.090274
O O4 0.527839 0.230323 0.138011
O O5 0.145309 0.837045 0.203621
O O6 0.381160 0.771044 0.261971
O O7 0.952487 0.767624 0.906688
O O8 0.483250 0.162935 0.424901
O O9 0.868675 0.032937 0.633933
O O10 0.728290 0.848468 0.525589
O O11 0.161955 0.848582 0.457543
O O12 0.904237 0.171769 0.358700
O O13 0.747318 0.771090 0.628181
O O14 0.740630 0.508315 0.416339
O O15 0.276608 0.497039 0.431995
O O16 0.128372 0.769748 0.518150
#
# Coordination Sequence:
#
# PCOD8038442 Si02
#       8
#     2   2   2   2   2   2   2   2
#     4   8  18  33  52  79  93 124 173 205 243 296
#     4   9  17  35  55  74  97 130 168 207 243 287
#     4  11  22  33  45  79 111 130 159 198 251 306
#     4  10  21  34  48  78 107 128 162 202 251 307
#     4   9  20  33  55  75  95 131 176 205 234 291
#     4   9  17  35  55  74  97 130 168 207 243 287
#     4   8  18  33  52  79  93 124 173 205 243 296
#     4  10  17  36  58  68  96 135 168 215 240 268
#
# _framework density 17.269922999999999
#
# number of rings (size 3 to 8) (size 9 to 14) (size 15 to 20)
#    0.750    2.000    0.000    3.000    0.000    3.500 
#    2.250    0.000    0.000    0.000    0.000    8.750 
#    0.000    0.000    0.000    0.000    0.000    0.000 
#
# Total GULP energy -198267.747130 kJ/mol
# GULP energy per Si atom -12391.734196 kJ/mol
# Density = 1.723062 g / cm^3
# Si number density = 17.269923 Si / 1000 Ang^3
#
#
#
# Elastic Constant Matrix: (Units=GPa)
#
#
# Indices 1 2 3 4 5 6 
#
# 1 118.4332 71.3174 47.7954 4.4321 10.4935 -7.1620
# 2 71.3174 105.6923 41.4552 1.5726 5.3697 -5.9297
# 3 47.7954 41.4552 101.8093 -2.7373 -8.1734 -3.3556
# 4 4.4321 1.5726 -2.7373 27.1815 3.2785 -2.6451
# 5 10.4935 5.3697 -8.1734 3.2785 15.7549 0.5129
# 6 -7.1620 -5.9297 -3.3556 -2.6451 0.5129 18.7308
#
#
#
# Elastic Compliance Matrix: (Units=1/GPa)
#
#
# Indices 1 2 3 4 5 6 
#
# 1 0.016960 -0.008646 -0.005254 -0.001191 -0.010923 0.002938
# 2 -0.008646 0.016512 -0.002715 0.000504 -0.001433 0.001546
# 3 -0.005254 -0.002715 0.014343 0.001004 0.011672 -0.000477
# 4 -0.001191 0.000504 0.001004 0.038440 -0.007036 0.005505
# 5 -0.010923 -0.001433 0.011672 -0.007036 0.078940 -0.005694
# 6 0.002938 0.001546 -0.000477 0.005505 -0.005694 0.055848
#
#
# Mechanical properties :
#
#
# Convention : Reuss Voigt Hill
#
# Bulk Modulus (GPa) = 68.56186 71.89675 70.22930
# Shear Modulus (GPa) = 19.29488 23.35790 21.32639
#
# Velocity S-wave (km/s) = 3.34616 3.68165 3.51791
# Velocity P-wave (km/s) = 7.39699 7.73268 7.56669
#
# Compressibility (1/GPa) = 0.01458537
#
# Stress axis : x y z
#
# Youngs Moduli (GPa) = 58.96154 60.56038 69.72243
#
# Poissons Ratio (x) = 0.52361 0.36630
# Poissons Ratio (y) = 0.50978 0.18931
# Poissons Ratio (z) = 0.30977 0.16443
#
# Static dielectric constant tensor:
#      x y z
#    x 2.783550 0.019500 -0.112700 
#    y 0.019500 3.292760 0.005060 
#    z -0.112700 0.005060 3.265190 
# 
# 
# High freq. dielectric constant tensor:
#      x y z
#    x 1.626870 -0.002140 -0.009890 
#    y -0.002140 1.680430 0.002490 
#    z -0.009890 0.002490 1.665770 
# 
# From -- ./inp_files/454838.got.cif
#   From: 2010.06.25/outbox.cif.g09.slc.cpg/sg2_228_cif.got.tgz:454838.got - 2010.06.27 13:26:56.
