data_PCOD8038645
_publ_section_title
;
Structure prediction by ZEFSAII (Michael W. Deem and Ramdas Pophale) SiO2 
 PCOD8038645
Probable space group: P -1
;
_chemical_formula_sum "Si O2"
_cell_formula_units_Z 14
_cell_length_a 23.912524
_cell_length_b 20.707613
_cell_length_c 10.285501
_cell_angle_alpha 33.159083
_cell_angle_beta 146.388712
_cell_angle_gamma 163.286263
_cell_volume 785.415876
_symmetry_space_group_name_H-M "P -1"
_symmetry_group_IT_number 2
_symmetry_cell_setting 'triclinic'
loop_
_space_group_symop_operation_xyz
x,y,z
-x,-y,-z
loop_
_atom_site_type_symbol
_atom_site_label
_atom_site_fract_x
_atom_site_fract_y
_atom_site_fract_z
Si Si1 0.276150 0.058505 0.838115
Si Si2 0.411767 0.879494 0.894558
Si Si3 0.934524 0.877850 0.442690
Si Si4 0.931468 0.123661 0.999010
Si Si5 0.662925 0.454053 0.773672
Si Si6 0.649751 0.139205 0.674409
Si Si7 0.967520 0.394287 0.482562
O O1 0.484877 0.320678 0.747000
O O2 0.097274 0.943055 0.605105
O O3 0.247691 0.057063 0.938240
O O4 0.265867 0.907236 0.060157
O O5 0.188771 0.701051 0.753332
O O6 0.541172 0.072591 0.707100
O O7 0.412913 0.740671 0.112248
O O8 0.500000 0.000000 0.000000
O O9 0.718694 0.600911 0.516781
O O10 0.000000 0.000000 0.500000
O O11 0.929589 0.990333 0.151577
O O12 0.892773 0.185703 0.713950
O O13 0.140607 0.368659 0.058724
O O14 0.829863 0.407964 0.539730
O O15 0.500000 0.000000 0.500000
O O16 0.000000 0.500000 0.500000
#
# Coordination Sequence:
#
# PCOD8038645 Si02
#       7
#     2   2   2   2   2   2   2
#     4   9  15  26  44  69 101 130 163 211 259 300
#     4  11  23  35  52  82 110 136 177 218 262 322
#     4   8  17  27  42  71 100 130 172 212 255 304
#     4  10  18  28  47  76  98 131 176 211 254 309
#     4   9  16  30  48  68 100 136 166 213 261 303
#     4  11  19  32  56  82 101 140 181 212 265 322
#     4  12  18  34  55  73 108 143 165 219 267 301
#
# _framework density 17.824950999999999
#
# number of rings (size 3 to 8) (size 9 to 14) (size 15 to 20)
#    0.000    2.286    4.286    1.714    0.000    5.714 
#    0.000    0.000    0.000    0.857    0.000    5.000 
#    0.000    0.000    0.000    0.000    0.000    0.000 
#
# Total GULP energy -173445.986485 kJ/mol
# GULP energy per Si atom -12388.999035 kJ/mol
# Density = 1.778438 g / cm^3
# Si number density = 17.824951 Si / 1000 Ang^3
#
#
#
# Elastic Constant Matrix: (Units=GPa)
#
#
# Indices 1 2 3 4 5 6 
#
# 1 68.4970 51.7716 35.4469 0.0894 -7.2464 17.8218
# 2 51.7716 103.2891 42.2063 -9.2504 -9.7501 24.6772
# 3 35.4469 42.2063 100.0515 -15.7274 10.9812 1.5204
# 4 0.0894 -9.2504 -15.7274 30.6096 -2.6449 -3.1875
# 5 -7.2464 -9.7501 10.9812 -2.6449 27.2409 1.4696
# 6 17.8218 24.6772 1.5204 -3.1875 1.4696 30.7380
#
#
#
# Elastic Compliance Matrix: (Units=1/GPa)
#
#
# Indices 1 2 3 4 5 6 
#
# 1 0.029116 -0.008327 -0.008710 -0.007512 0.008136 -0.010933
# 2 -0.008327 0.019766 -0.005686 0.002635 0.007994 -0.010868
# 3 -0.008710 -0.005686 0.017747 0.007495 -0.011321 0.010056
# 4 -0.007512 0.002635 0.007495 0.037884 -0.000713 0.005832
# 5 0.008136 0.007994 -0.011321 -0.000713 0.046925 -0.012892
# 6 -0.010933 -0.010868 0.010056 0.005832 -0.012892 0.048321
#
#
# Mechanical properties :
#
#
# Convention : Reuss Voigt Hill
#
# Bulk Modulus (GPa) = 47.20961 58.96523 53.08742
# Shear Modulus (GPa) = 19.82029 27.21189 23.51609
#
# Velocity S-wave (km/s) = 3.33819 3.91143 3.63613
# Velocity P-wave (km/s) = 6.43434 7.31786 6.89027
#
# Compressibility (1/GPa) = 0.02118213
#
# Stress axis : x y z
#
# Youngs Moduli (GPa) = 34.34567 50.59213 56.34676
#
# Poissons Ratio (x) = 0.42129 0.49080
# Poissons Ratio (y) = 0.28600 0.32038
# Poissons Ratio (z) = 0.29916 0.28766
#
# Static dielectric constant tensor:
#      x y z
#    x 3.223560 0.361240 0.407670 
#    y 0.361240 3.205220 -0.345510 
#    z 0.407670 -0.345510 3.937730 
# 
# 
# High freq. dielectric constant tensor:
#      x y z
#    x 1.650910 0.045050 0.026620 
#    y 0.045050 1.675460 -0.026720 
#    z 0.026620 -0.026720 1.691140 
# 
# From -- ./inp_files/291680.got.cif
#   From: 2010.06.25/outbox.cif.g09.slc.cpg/sg2_146_cif.got.tgz:291680.got - 2010.06.27 13:26:56.
