data_PCOD8038251
_publ_section_title
;
Structure prediction by ZEFSAII (Michael W. Deem and Ramdas Pophale) SiO2 
 PCOD8038251
Probable space group: P -1
;
_chemical_formula_sum "Si O2"
_cell_formula_units_Z 16
_cell_length_a 9.000000
_cell_length_b 12.000000
_cell_length_c 18.000000
_cell_angle_alpha 30.000000
_cell_angle_beta 130.000000
_cell_angle_gamma 120.000000
_cell_volume 736.400153
_symmetry_space_group_name_H-M "P -1"
_symmetry_group_IT_number 2
_symmetry_cell_setting 'triclinic'
loop_
_space_group_symop_operation_xyz
x,y,z
-x,-y,-z
loop_
_atom_site_type_symbol
_atom_site_label
_atom_site_fract_x
_atom_site_fract_y
_atom_site_fract_z
Si Si1 0.565707 0.078141 0.203917
Si Si2 0.835396 0.670468 0.559322
Si Si3 0.814615 0.744983 0.924011
Si Si4 0.034714 0.771008 0.711134
Si Si5 0.885623 0.440426 0.423330
Si Si6 0.722590 0.994305 0.601724
Si Si7 0.884420 0.169764 0.920370
Si Si8 0.411350 0.121069 0.973842
O O1 0.371389 0.200714 0.111532
O O2 0.759096 0.143372 0.265393
O O3 0.615834 0.805539 0.392277
O O4 0.556933 0.158544 0.067534
O O5 0.827552 0.425680 0.730068
O O6 0.954290 0.800130 0.583566
O O7 0.951008 0.645474 0.534248
O O8 0.752979 0.817771 0.780092
O O9 0.911472 0.487959 0.100206
O O10 0.992192 0.865692 0.942910
O O11 0.871692 0.904946 0.635773
O O12 0.738892 0.655858 0.222061
O O13 0.000000 0.500000 0.500000
O O14 0.757072 0.236224 0.507599
O O15 0.500000 0.000000 0.500000
O O16 0.679950 0.086461 0.904407
O O17 0.000000 0.000000 0.000000
O O18 0.500000 0.000000 0.000000
#
# Coordination Sequence:
#
# PCOD8038251 Si02
#       8
#     2   2   2   2   2   2   2   2
#     4  12  24  43  71 105 134 188 233 293 353 427
#     4  11  24  44  76  96 139 187 238 290 353 428
#     4  11  25  43  71  99 142 180 234 293 354 423
#     4  11  25  46  72  99 142 187 235 291 363 420
#     4  12  26  47  72 103 145 192 233 299 363 418
#     4  12  28  45  73 108 142 186 242 299 353 427
#     4  11  22  47  68  98 137 186 231 288 353 422
#     4  12  27  43  70 103 141 183 240 291 356 430
#
# _framework density 21.727318
#
# number of rings (size 3 to 8) (size 9 to 14) (size 15 to 20)
#    0.000    0.500    3.750    4.125    5.250    3.500 
#    0.000    0.000    0.000    0.000    0.000    0.000 
#    0.000    0.000    0.000    0.000    0.000    0.000 
#
# Total GULP energy -198209.113330 kJ/mol
# GULP energy per Si atom -12388.069583 kJ/mol
# Density = 2.167787 g / cm^3
# Si number density = 21.727318 Si / 1000 Ang^3
#
#
#
# Elastic Constant Matrix: (Units=GPa)
#
#
# Indices 1 2 3 4 5 6 
#
# 1 52.4546 30.2567 -1.6574 -11.5078 0.9970 -19.6651
# 2 30.2567 132.0548 67.8255 6.4607 -1.1914 -16.3817
# 3 -1.6574 67.8255 125.7022 22.8001 11.8774 -6.6305
# 4 -11.5078 6.4607 22.8001 38.0353 -15.1917 -3.7613
# 5 0.9970 -1.1914 11.8774 -15.1917 33.8114 4.3703
# 6 -19.6651 -16.3817 -6.6305 -3.7613 4.3703 40.8546
#
#
#
# Elastic Compliance Matrix: (Units=1/GPa)
#
#
# Indices 1 2 3 4 5 6 
#
# 1 0.030673 -0.007592 0.003320 0.010075 0.000491 0.013134
# 2 -0.007592 0.013460 -0.008167 0.002124 0.004504 0.000131
# 3 0.003320 -0.008167 0.015533 -0.011220 -0.011011 0.000989
# 4 0.010075 0.002124 -0.011220 0.045644 0.023508 0.005568
# 5 0.000491 0.004504 -0.011011 0.023508 0.044452 -0.002336
# 6 0.013134 0.000131 0.000989 0.005568 -0.002336 0.031774
#
#
# Mechanical properties :
#
#
# Convention : Reuss Voigt Hill
#
# Bulk Modulus (GPa) = 28.74512 55.89570 42.32041
# Shear Modulus (GPa) = 22.93471 36.79273 29.86372
#
# Velocity S-wave (km/s) = 3.25248 4.11954 3.71142
# Velocity P-wave (km/s) = 5.23101 6.95768 6.15519
#
# Compressibility (1/GPa) = 0.03478851
#
# Stress axis : x y z
#
# Youngs Moduli (GPa) = 32.60180 74.29646 64.37825
#
# Poissons Ratio (x) = 0.56409 -0.21375
# Poissons Ratio (y) = 0.24752 0.52575
# Poissons Ratio (z) = -0.10824 0.60674
#
# Static dielectric constant tensor:
#      x y z
#    x 3.815430 -0.108850 0.246660 
#    y -0.108850 4.454610 0.017810 
#    z 0.246660 0.017810 4.468150 
# 
# 
# High freq. dielectric constant tensor:
#      x y z
#    x 1.843510 -0.014840 0.012880 
#    y -0.014840 1.879180 0.002970 
#    z 0.012880 0.002970 1.892360 
# 
# From -- ./inp_files/333013.got.cif
#   From: 2010.06.25/outbox.ucp.g09.slc.cvg/sg2_167_cif.got.tgz:333013.got - 2010.06.28 11:54:26.
