data_PCOD8038344
_publ_section_title
;
Structure prediction by ZEFSAII (Michael W. Deem and Ramdas Pophale) SiO2 
 PCOD8038344
Probable space group: P -1
;
_chemical_formula_sum "Si O2"
_cell_formula_units_Z 14
_cell_length_a 14.580352
_cell_length_b 9.172037
_cell_length_c 15.343858
_cell_angle_alpha 86.849435
_cell_angle_beta 28.577004
_cell_angle_gamma 66.982608
_cell_volume 682.542447
_symmetry_space_group_name_H-M "P -1"
_symmetry_group_IT_number 2
_symmetry_cell_setting 'triclinic'
loop_
_space_group_symop_operation_xyz
x,y,z
-x,-y,-z
loop_
_atom_site_type_symbol
_atom_site_label
_atom_site_fract_x
_atom_site_fract_y
_atom_site_fract_z
Si Si1 0.913966 0.347831 0.517191
Si Si2 0.205339 0.223573 0.100362
Si Si3 0.544299 0.603956 0.159539
Si Si4 0.867222 0.791201 0.326080
Si Si5 0.708808 0.772960 0.646198
Si Si6 0.113509 0.495167 0.789601
Si Si7 0.451734 0.275751 0.667598
O O1 0.714061 0.317618 0.679977
O O2 0.730099 0.593579 0.662327
O O3 0.129288 0.233446 0.262389
O O4 0.085531 0.240472 0.466595
O O5 0.928017 0.381920 0.266058
O O6 0.373042 0.284004 0.951920
O O7 0.394946 0.989563 0.916031
O O8 0.458499 0.665137 0.331446
O O9 0.805534 0.352493 0.940460
O O10 0.785997 0.750369 0.482565
O O11 0.814633 0.710599 0.291715
O O12 0.701265 0.031006 0.444865
O O13 0.360118 0.412544 0.650900
O O14 0.818634 0.666834 0.079187
#
# Coordination Sequence:
#
# PCOD8038344 Si02
#       7
#     2   2   2   2   2   2   2
#     4  11  24  39  56  84 116 150 188 235 274 335
#     4  10  20  41  58  83 114 147 189 234 273 337
#     4  10  22  37  58  84 116 146 190 232 276 330
#     4  10  17  35  57  84 116 144 187 229 275 339
#     4  11  21  39  59  81 116 151 187 229 287 327
#     4   9  17  30  59  85 110 146 185 228 280 329
#     4   9  17  33  56  87 110 146 187 228 277 335
#
# _framework density 20.511545000000002
#
# number of rings (size 3 to 8) (size 9 to 14) (size 15 to 20)
#    0.000    2.286    5.714    0.857    0.000    2.286 
#    0.000    0.714    0.000    1.714    0.000    0.000 
#    0.000    0.000    0.000    0.000    0.000    0.000 
#
# Total GULP energy -173526.948238 kJ/mol
# GULP energy per Si atom -12394.782017 kJ/mol
# Density = 2.046486 g / cm^3
# Si number density = 20.511545 Si / 1000 Ang^3
#
#
#
# Elastic Constant Matrix: (Units=GPa)
#
#
# Indices 1 2 3 4 5 6 
#
# 1 44.8957 -3.4964 15.5743 -3.1585 9.0924 -4.8584
# 2 -3.4964 40.8780 29.7337 18.1405 1.4759 -7.6709
# 3 15.5743 29.7337 87.0108 27.0767 15.8322 8.6680
# 4 -3.1585 18.1405 27.0767 40.6228 3.4790 0.1076
# 5 9.0924 1.4759 15.8322 3.4790 21.8143 3.9832
# 6 -4.8584 -7.6709 8.6680 0.1076 3.9832 19.4998
#
#
#
# Elastic Compliance Matrix: (Units=1/GPa)
#
#
# Indices 1 2 3 4 5 6 
#
# 1 0.032356 0.013671 -0.012430 0.005506 -0.010102 0.020998
# 2 0.013671 0.049944 -0.020502 -0.007763 0.001204 0.031964
# 3 -0.012430 -0.020502 0.027137 -0.009181 -0.007719 -0.021597
# 4 0.005506 -0.007763 -0.009181 0.034717 -0.001087 0.002429
# 5 -0.010102 0.001204 -0.007719 -0.001087 0.057642 -0.010381
# 6 0.020998 0.031964 -0.021597 0.002429 -0.010381 0.080796
#
#
# Mechanical properties :
#
#
# Convention : Reuss Voigt Hill
#
# Bulk Modulus (GPa) = 14.10145 28.48973 21.29559
# Shear Modulus (GPa) = 14.50318 25.11889 19.81104
#
# Velocity S-wave (km/s) = 2.66197 3.50326 3.11118
# Velocity P-wave (km/s) = 4.04202 5.50305 4.82812
#
# Compressibility (1/GPa) = 0.07091471
#
# Stress axis : x y z
#
# Youngs Moduli (GPa) = 30.90612 20.02236 36.85066
#
# Poissons Ratio (x) = -0.27372 0.45805
# Poissons Ratio (y) = -0.42251 0.75550
# Poissons Ratio (z) = 0.38416 0.41049
#
# Static dielectric constant tensor:
#      x y z
#    x 4.017200 -0.233680 0.179590 
#    y -0.233680 3.389590 0.356210 
#    z 0.179590 0.356210 3.644220 
# 
# 
# High freq. dielectric constant tensor:
#      x y z
#    x 1.809110 -0.016540 0.017260 
#    y -0.016540 1.769300 0.032380 
#    z 0.017260 0.032380 1.796500 
# 
# From -- ./inp_files/312972.got.cif
#   From: 2010.06.25/outbox.cif.g09.slc.cpg/sg2_157_cif.got.tgz:312972.got - 2010.06.27 13:26:56.
