data_PCOD8038779
_publ_section_title
;
Structure prediction by ZEFSAII (Michael W. Deem and Ramdas Pophale) SiO2 
 PCOD8038779
Probable space group: P -1
;
_chemical_formula_sum "Si O2"
_cell_formula_units_Z 16
_cell_length_a 11.263595
_cell_length_b 8.933745
_cell_length_c 12.260522
_cell_angle_alpha 75.935472
_cell_angle_beta 54.791670
_cell_angle_gamma 47.938725
_cell_volume 727.230318
_symmetry_space_group_name_H-M "P -1"
_symmetry_group_IT_number 2
_symmetry_cell_setting 'triclinic'
loop_
_space_group_symop_operation_xyz
x,y,z
-x,-y,-z
loop_
_atom_site_type_symbol
_atom_site_label
_atom_site_fract_x
_atom_site_fract_y
_atom_site_fract_z
Si Si1 0.194434 0.707930 0.026038
Si Si2 0.634470 0.819633 0.288070
Si Si3 0.710635 0.132633 0.443501
Si Si4 0.022480 0.427929 0.273058
Si Si5 0.734368 0.086857 0.201430
Si Si6 0.883336 0.335681 0.699848
Si Si7 0.129415 0.760726 0.501579
Si Si8 0.200354 0.384049 0.977337
O O1 0.246687 0.648351 0.136954
O O2 0.309527 0.772897 0.904342
O O3 0.249101 0.525706 0.953821
O O4 0.961651 0.885128 0.112238
O O5 0.453073 0.868084 0.431167
O O6 0.826425 0.627478 0.283917
O O7 0.632428 0.788437 0.164409
O O8 0.606997 0.022681 0.275712
O O9 0.677699 0.212090 0.322400
O O10 0.708624 0.289788 0.490689
O O11 0.910613 0.895135 0.383823
O O12 0.002109 0.274905 0.363412
O O13 0.085658 0.505331 0.319143
O O14 0.188917 0.298125 0.113246
O O15 0.773797 0.385362 0.632608
O O16 0.000000 0.000000 0.500000
O O17 0.000000 0.500000 0.000000
#
# Coordination Sequence:
#
# PCOD8038779 Si02
#       8
#     2   2   2   2   2   2   2   2
#     4   9  17  31  53  79 101 134 182 217 258 300
#     4  11  20  33  52  81 118 139 163 217 276 328
#     4  10  21  34  50  82 114 140 173 207 278 315
#     4  10  19  34  57  81 102 139 178 222 266 305
#     4  10  18  30  53  78 109 139 168 220 261 319
#     4   9  18  38  57  78 104 142 184 217 250 312
#     4  10  22  36  55  76 105 143 183 226 247 310
#     4   9  17  31  49  78 109 134 167 214 266 317
#
# _framework density 22.001283000000001
#
# number of rings (size 3 to 8) (size 9 to 14) (size 15 to 20)
#    0.000    2.250    5.000    0.750    3.500    2.500 
#    0.000    0.000    0.000    9.750    0.000    0.000 
#    0.000    0.000    0.000    0.000    0.000    0.000 
#
# Total GULP energy -198261.704555 kJ/mol
# GULP energy per Si atom -12391.356535 kJ/mol
# Density = 2.195121 g / cm^3
# Si number density = 22.001283 Si / 1000 Ang^3
#
#
#
# Elastic Constant Matrix: (Units=GPa)
#
#
# Indices 1 2 3 4 5 6 
#
# 1 91.5170 36.7493 71.9856 -5.1458 26.6977 39.6545
# 2 36.7493 63.4135 48.6561 -30.1992 9.3222 31.2964
# 3 71.9856 48.6561 154.2601 -27.6452 21.6206 29.4143
# 4 -5.1458 -30.1992 -27.6452 40.3108 12.5747 -7.9156
# 5 26.6977 9.3222 21.6206 12.5747 39.2979 5.1335
# 6 39.6545 31.2964 29.4143 -7.9156 5.1335 28.0042
#
#
#
# Elastic Compliance Matrix: (Units=1/GPa)
#
#
# Indices 1 2 3 4 5 6 
#
# 1 0.073154 0.055500 -0.014276 0.029545 -0.047005 -0.133650
# 2 0.055500 0.122676 -0.008247 0.079824 -0.065277 -0.172495
# 3 -0.014276 -0.008247 0.013165 0.003971 0.000980 0.016547
# 4 0.029545 0.079824 0.003971 0.089248 -0.056741 -0.099587
# 5 -0.047005 -0.065277 0.000980 -0.056741 0.076315 0.108455
# 6 -0.133650 -0.172495 0.016547 -0.099587 0.108455 0.352323
#
#
# Mechanical properties :
#
#
# Convention : Reuss Voigt Hill
#
# Bulk Modulus (GPa) = 3.63704 69.33027 36.48366
# Shear Modulus (GPa) = 6.64383 31.64256 19.14319
#
# Velocity S-wave (km/s) = 1.73963 3.79649 2.95294
# Velocity P-wave (km/s) = 2.38574 7.12728 5.31460
#
# Compressibility (1/GPa) = 0.27494875
#
# Stress axis : x y z
#
# Youngs Moduli (GPa) = 13.66972 8.15153 75.95922
#
# Poissons Ratio (x) = -0.45241 1.08438
# Poissons Ratio (y) = -0.75866 0.62645
# Poissons Ratio (z) = 0.19515 0.06723
#
# Static dielectric constant tensor:
#      x y z
#    x 4.244710 0.381730 0.542300 
#    y 0.381730 3.672350 -0.108800 
#    z 0.542300 -0.108800 4.186180 
# 
# 
# High freq. dielectric constant tensor:
#      x y z
#    x 1.847850 0.035090 0.022550 
#    y 0.035090 1.833030 -0.010820 
#    z 0.022550 -0.010820 1.887030 
# 
# From -- ./inp_files/243423.got.cif
#   From: 2010.06.25/outbox.cif.g09.slc.cpg/sg2_122_cif.got.tgz:243423.got - 2010.06.27 13:26:56.
