data_PCOD8038064
_publ_section_title
;
Structure prediction by ZEFSAII (Michael W. Deem and Ramdas Pophale) SiO2 
 PCOD8038064
Probable space group: P -1
;
_chemical_formula_sum "Si O2"
_cell_formula_units_Z 16
_cell_length_a 31.965275
_cell_length_b 14.040405
_cell_length_c 9.983261
_cell_angle_alpha 40.812766
_cell_angle_beta 148.741389
_cell_angle_gamma 160.836544
_cell_volume 728.729670
_symmetry_space_group_name_H-M "P -1"
_symmetry_group_IT_number 2
_symmetry_cell_setting 'triclinic'
loop_
_space_group_symop_operation_xyz
x,y,z
-x,-y,-z
loop_
_atom_site_type_symbol
_atom_site_label
_atom_site_fract_x
_atom_site_fract_y
_atom_site_fract_z
Si Si1 0.918146 0.174386 0.984709
Si Si2 0.963426 0.700799 0.538884
Si Si3 0.039183 0.704861 0.478190
Si Si4 0.160617 0.503999 0.062510
Si Si5 0.277386 0.437791 0.892031
Si Si6 0.728043 0.605513 0.386037
Si Si7 0.633753 0.897290 0.091425
Si Si8 0.600202 0.800596 0.413317
O O1 0.995461 0.316820 0.192426
O O2 0.067335 0.428008 0.016242
O O3 0.839121 0.888023 0.052318
O O4 0.775720 0.075042 0.684016
O O5 0.938043 0.545823 0.512503
O O6 0.799851 0.542729 0.270662
O O7 0.119960 0.043839 0.551612
O O8 0.000000 0.500000 0.500000
O O9 0.240505 0.021160 0.720626
O O10 0.974984 0.735160 0.175233
O O11 0.248039 0.490111 0.346274
O O12 0.306028 0.842534 0.048959
O O13 0.279724 0.469195 0.706185
O O14 0.468634 0.723485 0.167846
O O15 0.555048 0.416190 0.148030
O O16 0.642311 0.870293 0.299020
O O17 0.500000 0.500000 0.500000
#
# Coordination Sequence:
#
# PCOD8038064 Si02
#       8
#     2   2   2   2   2   2   2   2
#     4  10  17  33  60  92 116 153 203 236 294 356
#     4  11  20  37  62  89 119 155 200 251 288 344
#     4  10  24  41  57  82 123 163 194 245 303 351
#     4  11  19  36  60  85 123 161 192 234 296 364
#     4   9  17  33  57  91 123 146 197 251 295 340
#     4  10  19  35  60  92 119 152 197 246 292 352
#     4  10  21  36  57  85 123 162 189 238 304 348
#     4   9  18  32  58  87 120 159 193 242 288 350
#
# _framework density 21.956016999999999
#
# number of rings (size 3 to 8) (size 9 to 14) (size 15 to 20)
#    0.000    2.000    3.750    1.875    0.000    1.000 
#    0.000    3.750    0.000   12.000    0.000    0.000 
#    0.000    0.000    0.000    0.000    0.000    0.000 
#
# Total GULP energy -198270.292849 kJ/mol
# GULP energy per Si atom -12391.893303 kJ/mol
# Density = 2.190604 g / cm^3
# Si number density = 21.956017 Si / 1000 Ang^3
#
#
#
# Elastic Constant Matrix: (Units=GPa)
#
#
# Indices 1 2 3 4 5 6 
#
# 1 107.4064 0.5161 48.0848 5.6404 -0.5783 23.9317
# 2 0.5161 61.3893 18.1381 -14.1477 -4.6731 20.7302
# 3 48.0848 18.1381 167.3249 5.4586 11.1098 17.4820
# 4 5.6404 -14.1477 5.4586 32.0836 16.4231 -0.2772
# 5 -0.5783 -4.6731 11.1098 16.4231 31.4236 1.9693
# 6 23.9317 20.7302 17.4820 -0.2772 1.9693 26.7449
#
#
#
# Elastic Compliance Matrix: (Units=1/GPa)
#
#
# Indices 1 2 3 4 5 6 
#
# 1 0.014422 0.006192 -0.003391 -0.001492 0.004156 -0.015809
# 2 0.006192 0.028343 -0.002591 0.011080 0.001070 -0.025780
# 3 -0.003391 -0.002591 0.007392 -0.000300 -0.002931 0.000424
# 4 -0.001492 0.011080 -0.000300 0.048175 -0.023147 -0.004854
# 5 0.004156 0.001070 -0.002931 -0.023147 0.045583 -0.006228
# 6 -0.015809 -0.025780 0.000424 -0.004854 -0.006228 0.071650
#
#
# Mechanical properties :
#
#
# Convention : Reuss Voigt Hill
#
# Bulk Modulus (GPa) = 19.77193 52.17762 35.97478
# Shear Modulus (GPa) = 21.55131 36.00921 28.78026
#
# Velocity S-wave (km/s) = 3.13640 4.05416 3.62444
# Velocity P-wave (km/s) = 4.70540 6.76248 5.82546
#
# Compressibility (1/GPa) = 0.05057674
#
# Stress axis : x y z
#
# Youngs Moduli (GPa) = 69.33799 35.28161 135.28271
#
# Poissons Ratio (x) = -0.21845 0.45878
# Poissons Ratio (y) = -0.42932 0.35049
# Poissons Ratio (z) = 0.23514 0.09141
#
# Static dielectric constant tensor:
#      x y z
#    x 4.650540 -0.437960 1.542460 
#    y -0.437960 4.644540 -0.936470 
#    z 1.542460 -0.936470 6.720130 
# 
# 
# High freq. dielectric constant tensor:
#      x y z
#    x 1.821780 0.033860 0.009360 
#    y 0.033860 1.858930 -0.002970 
#    z 0.009360 -0.002970 1.892940 
# 
# From -- ./inp_files/302674.got.cif
#   From: 2010.06.25/outbox.cif.g09.slc.cpg/sg2_152_cif.got.tgz:302674.got - 2010.06.27 13:26:56.
