data_PCOD8038455
_publ_section_title
;
Structure prediction by ZEFSAII (Michael W. Deem and Ramdas Pophale) SiO2 
 PCOD8038455
Probable space group: P -1
;
_chemical_formula_sum "Si O2"
_cell_formula_units_Z 14
_cell_length_a 11.688666
_cell_length_b 12.677793
_cell_length_c 15.200548
_cell_angle_alpha 40.417964
_cell_angle_beta 29.062583
_cell_angle_gamma 51.343630
_cell_volume 703.443363
_symmetry_space_group_name_H-M "P -1"
_symmetry_group_IT_number 2
_symmetry_cell_setting 'triclinic'
loop_
_space_group_symop_operation_xyz
x,y,z
-x,-y,-z
loop_
_atom_site_type_symbol
_atom_site_label
_atom_site_fract_x
_atom_site_fract_y
_atom_site_fract_z
Si Si1 0.201638 0.026987 0.118733
Si Si2 0.364968 0.404733 0.774149
Si Si3 0.350321 0.549444 0.276761
Si Si4 0.191423 0.627099 0.617744
Si Si5 0.298780 0.986839 0.275542
Si Si6 0.101066 0.273053 0.516405
Si Si7 0.267366 0.305249 0.194013
O O1 0.176799 0.964818 0.275692
O O2 0.970544 0.923368 0.293158
O O3 0.219710 0.223260 0.974822
O O4 0.423485 0.961325 0.963407
O O5 0.429171 0.439892 0.810368
O O6 0.199046 0.533624 0.765631
O O7 0.617137 0.434217 0.537247
O O8 0.143685 0.649566 0.386314
O O9 0.238385 0.360873 0.452100
O O10 0.468168 0.622703 0.060137
O O11 0.930575 0.584627 0.777665
O O12 0.257703 0.820998 0.465149
O O13 0.194228 0.124035 0.316203
O O14 0.270243 0.299752 0.300731
#
# Coordination Sequence:
#
# PCOD8038455 Si02
#       7
#     2   2   2   2   2   2   2
#     4  10  17  36  59  83 111 148 191 235 278 331
#     4  10  20  39  58  84 119 150 188 231 287 340
#     4  11  22  38  56  85 119 152 188 233 283 344
#     4  10  21  33  59  90 115 148 186 241 283 333
#     4  10  18  32  59  88 113 139 193 244 277 323
#     4  11  22  36  59  84 118 151 188 237 284 329
#     4  12  20  35  59  91 111 148 191 243 276 338
#
# _framework density 19.902100000000001
#
# number of rings (size 3 to 8) (size 9 to 14) (size 15 to 20)
#    0.000    1.429    5.714    1.714    0.000    0.571 
#    0.000    0.000    0.000   12.857    0.000    0.000 
#    0.000    0.000    0.000    0.000    0.000    0.000 
#
# Total GULP energy -173543.085913 kJ/mol
# GULP energy per Si atom -12395.934708 kJ/mol
# Density = 1.985680 g / cm^3
# Si number density = 19.902100 Si / 1000 Ang^3
#
#
#
# Elastic Constant Matrix: (Units=GPa)
#
#
# Indices 1 2 3 4 5 6 
#
# 1 43.2286 32.5481 14.9704 -14.0504 2.2305 7.8661
# 2 32.5481 78.3608 34.6878 -13.8274 5.2821 5.9862
# 3 14.9704 34.6878 78.5315 -4.5411 6.4241 13.2179
# 4 -14.0504 -13.8274 -4.5411 34.5077 7.7777 -2.7122
# 5 2.2305 5.2821 6.4241 7.7777 26.2983 -7.7615
# 6 7.8661 5.9862 13.2179 -2.7122 -7.7615 28.6880
#
#
#
# Elastic Compliance Matrix: (Units=1/GPa)
#
#
# Indices 1 2 3 4 5 6 
#
# 1 0.038470 -0.013414 0.001362 0.011314 -0.006960 -0.009190
# 2 -0.013414 0.022001 -0.007221 0.002971 -0.001739 0.002225
# 3 0.001362 -0.007221 0.017576 0.000577 -0.005617 -0.008430
# 4 0.011314 0.002971 0.000577 0.037696 -0.014097 -0.004238
# 5 -0.006960 -0.001739 -0.005617 -0.014097 0.049499 0.016919
# 6 -0.009190 0.002225 -0.008430 -0.004238 0.016919 0.044974
#
#
# Mechanical properties :
#
#
# Convention : Reuss Voigt Hill
#
# Bulk Modulus (GPa) = 25.31667 40.50370 32.91018
# Shear Modulus (GPa) = 19.08906 25.75977 22.42442
#
# Velocity S-wave (km/s) = 3.10037 3.60157 3.36033
# Velocity P-wave (km/s) = 5.05615 6.13928 5.62385
#
# Compressibility (1/GPa) = 0.03949967
#
# Stress axis : x y z
#
# Youngs Moduli (GPa) = 25.99438 45.45165 56.89738
#
# Poissons Ratio (x) = 0.60970 -0.07750
# Poissons Ratio (y) = 0.34869 0.41088
# Poissons Ratio (z) = -0.03540 0.32822
#
# Static dielectric constant tensor:
#      x y z
#    x 3.278600 0.093270 0.009120 
#    y 0.093270 3.588500 0.047600 
#    z 0.009120 0.047600 3.776460 
# 
# 
# High freq. dielectric constant tensor:
#      x y z
#    x 1.726290 0.021230 -0.002570 
#    y 0.021230 1.768820 0.010150 
#    z -0.002570 0.010150 1.799390 
# 
# From -- ./inp_files/348796.got.cif
#   From: 2010.06.25/outbox.cif.g09.slc.cpg/sg2_175_cif.got.tgz:348796.got - 2010.06.27 13:26:56.
