data_PCOD8038467
_publ_section_title
;
Structure prediction by ZEFSAII (Michael W. Deem and Ramdas Pophale) SiO2 
 PCOD8038467
Probable space group: P -1
;
_chemical_formula_sum "Si O2"
_cell_formula_units_Z 16
_cell_length_a 9.190547
_cell_length_b 29.302331
_cell_length_c 11.636519
_cell_angle_alpha 147.206951
_cell_angle_beta 127.593833
_cell_angle_gamma 30.643745
_cell_volume 789.043216
_symmetry_space_group_name_H-M "P -1"
_symmetry_group_IT_number 2
_symmetry_cell_setting 'triclinic'
loop_
_space_group_symop_operation_xyz
x,y,z
-x,-y,-z
loop_
_atom_site_type_symbol
_atom_site_label
_atom_site_fract_x
_atom_site_fract_y
_atom_site_fract_z
Si Si1 0.183367 0.087078 0.091095
Si Si2 0.213395 0.397230 0.226741
Si Si3 0.740578 0.912608 0.603650
Si Si4 0.680940 0.705985 0.706960
Si Si5 0.332446 0.652106 0.760053
Si Si6 0.899739 0.064860 0.213828
Si Si7 0.085986 0.208633 0.934370
Si Si8 0.860796 0.365615 0.925409
O O1 0.183018 0.104397 0.262352
O O2 0.909601 0.246386 0.245313
O O3 0.500000 0.000000 0.000000
O O4 0.121146 0.009532 0.870858
O O5 0.428593 0.279246 0.184544
O O6 0.420998 0.362868 0.156215
O O7 0.019976 0.543424 0.502548
O O8 0.984279 0.414910 0.096181
O O9 0.868515 0.945440 0.657852
O O10 0.919618 0.762992 0.332175
O O11 0.363724 0.040626 0.674585
O O12 0.446071 0.766725 0.619990
O O13 0.712547 0.794860 0.910438
O O14 0.500000 0.500000 0.500000
O O15 0.166309 0.730903 0.968664
O O16 0.000000 0.000000 0.000000
O O17 0.888170 0.312740 0.951066
O O18 0.500000 0.500000 0.000000
#
# Coordination Sequence:
#
# PCOD8038467 Si02
#       8
#     2   2   2   2   2   2   2   2
#     4  11  22  38  63  98 132 154 203 264 321 376
#     4  10  22  36  63  89 128 162 213 252 317 364
#     4  11  22  41  65  91 127 166 205 260 312 370
#     4  10  17  36  60  96 119 159 204 272 303 363
#     4  12  24  39  64  98 129 164 197 265 326 366
#     4  10  18  32  62  89 121 152 207 257 311 358
#     4  11  22  41  61  91 126 159 211 257 316 367
#     4  11  26  44  63  88 123 172 220 255 301 379
#
# _framework density 20.277723000000002
#
# number of rings (size 3 to 8) (size 9 to 14) (size 15 to 20)
#    0.000    1.250    5.000    2.625    3.500    0.000 
#    0.000    2.500    0.000    0.000    0.000    0.000 
#    0.000    0.000    0.000    0.000    0.000    0.000 
#
# Total GULP energy -198296.007482 kJ/mol
# GULP energy per Si atom -12393.500468 kJ/mol
# Density = 2.023157 g / cm^3
# Si number density = 20.277723 Si / 1000 Ang^3
#
#
#
# Elastic Constant Matrix: (Units=GPa)
#
#
# Indices 1 2 3 4 5 6 
#
# 1 146.7224 50.6686 41.5174 9.8495 -8.9778 -8.4777
# 2 50.6686 117.1342 34.8149 20.0433 0.4616 0.0312
# 3 41.5174 34.8149 89.6521 16.2230 -4.7077 -4.4714
# 4 9.8495 20.0433 16.2230 31.5190 1.5327 -1.4219
# 5 -8.9778 0.4616 -4.7077 1.5327 23.2844 6.9542
# 6 -8.4777 0.0312 -4.4714 -1.4219 6.9542 24.1252
#
#
#
# Elastic Compliance Matrix: (Units=1/GPa)
#
#
# Indices 1 2 3 4 5 6 
#
# 1 0.008904 -0.003137 -0.002800 0.000632 0.002293 0.001990
# 2 -0.003137 0.011434 -0.002182 -0.005183 -0.001084 -0.001515
# 3 -0.002800 -0.002182 0.014383 -0.005200 0.001972 0.000810
# 4 0.000632 -0.005183 -0.005200 0.037815 -0.003983 0.002642
# 5 0.002293 -0.001084 0.001972 -0.003983 0.048401 -0.013014
# 6 0.001990 -0.001515 0.000810 0.002642 -0.013014 0.046209
#
#
# Mechanical properties :
#
#
# Convention : Reuss Voigt Hill
#
# Bulk Modulus (GPa) = 54.10219 67.50118 60.80169
# Shear Modulus (GPa) = 26.37890 30.88624 28.63257
#
# Velocity S-wave (km/s) = 3.61069 3.90700 3.76176
# Velocity P-wave (km/s) = 6.64238 7.32895 6.99410
#
# Compressibility (1/GPa) = 0.01848354
#
# Stress axis : x y z
#
# Youngs Moduli (GPa) = 112.30734 87.45494 69.52617
#
# Poissons Ratio (x) = 0.27436 0.19466
# Poissons Ratio (y) = 0.35233 0.15171
# Poissons Ratio (z) = 0.31444 0.19083
#
# Static dielectric constant tensor:
#      x y z
#    x 3.998150 -0.095410 0.122600 
#    y -0.095410 2.864230 0.214760 
#    z 0.122600 0.214760 3.685750 
# 
# 
# High freq. dielectric constant tensor:
#      x y z
#    x 1.792070 -0.006840 0.002860 
#    y -0.006840 1.790660 0.031460 
#    z 0.002860 0.031460 1.780410 
# 
# From -- ./inp_files/305056.got.cif
#   From: 2010.06.25/outbox.cif.g09.slc.cpg/sg2_153_cif.got.tgz:305056.got - 2010.06.27 13:26:56.
