data_PCOD8038538
_publ_section_title
;
Structure prediction by ZEFSAII (Michael W. Deem and Ramdas Pophale) SiO2 
 PCOD8038538
Probable space group: P -1
;
_chemical_formula_sum "Si O2"
_cell_formula_units_Z 16
_cell_length_a 8.535756
_cell_length_b 17.497487
_cell_length_c 11.246080
_cell_angle_alpha 80.067961
_cell_angle_beta 55.226523
_cell_angle_gamma 126.080979
_cell_volume 717.089151
_symmetry_space_group_name_H-M "P -1"
_symmetry_group_IT_number 2
_symmetry_cell_setting 'triclinic'
loop_
_space_group_symop_operation_xyz
x,y,z
-x,-y,-z
loop_
_atom_site_type_symbol
_atom_site_label
_atom_site_fract_x
_atom_site_fract_y
_atom_site_fract_z
Si Si1 0.152551 0.208826 0.700667
Si Si2 0.129272 0.593378 0.059557
Si Si3 0.660838 0.292188 0.307326
Si Si4 0.567481 0.938156 0.434640
Si Si5 0.615620 0.794006 0.015556
Si Si6 0.334355 0.061151 0.872457
Si Si7 0.419490 0.440328 0.423098
Si Si8 0.376677 0.589982 0.337033
O O1 0.295627 0.188173 0.564127
O O2 0.088820 0.262950 0.628672
O O3 0.486104 0.346367 0.606347
O O4 0.794692 0.060396 0.966901
O O5 0.312472 0.683460 0.076619
O O6 0.017623 0.463674 0.149816
O O7 0.768889 0.516292 0.202942
O O8 0.403939 0.709195 0.802773
O O9 0.698411 0.213026 0.338802
O O10 0.470797 0.898920 0.344601
O O11 0.500000 0.000000 0.500000
O O12 0.981465 0.054327 0.249385
O O13 0.451098 0.807253 0.165974
O O14 0.655244 0.726562 0.088715
O O15 0.000000 0.000000 0.000000
O O16 0.500000 0.500000 0.500000
O O17 0.336606 0.483558 0.359247
O O18 0.000000 0.500000 0.500000
#
# Coordination Sequence:
#
# PCOD8038538 Si02
#       8
#     2   2   2   2   2   2   2   2
#     4  10  17  37  62  85 120 169 209 254 320 372
#     4  10  23  39  66  92 121 171 217 268 314 381
#     4  10  20  40  64  84 130 172 211 254 338 373
#     4  11  23  38  65  95 133 173 208 263 332 384
#     4  11  21  39  67  95 124 167 225 260 315 388
#     4  10  18  37  64  90 123 170 212 260 316 384
#     4   9  20  34  59  89 122 158 209 258 319 371
#     4  11  20  34  64  94 122 157 213 266 314 381
#
# _framework density 22.312428000000001
#
# number of rings (size 3 to 8) (size 9 to 14) (size 15 to 20)
#    0.000    1.750    5.000    2.250    1.750    0.500 
#    0.000    0.625   27.500    9.000    0.000    0.000 
#    0.000    0.000    0.000    0.000    0.000    0.000 
#
# Total GULP energy -198219.008861 kJ/mol
# GULP energy per Si atom -12388.688054 kJ/mol
# Density = 2.226164 g / cm^3
# Si number density = 22.312428 Si / 1000 Ang^3
#
#
#
# Elastic Constant Matrix: (Units=GPa)
#
#
# Indices 1 2 3 4 5 6 
#
# 1 105.2978 59.8052 45.0778 -16.7569 34.3596 -29.2323
# 2 59.8052 154.8950 41.5229 0.5956 25.2217 -14.7535
# 3 45.0778 41.5229 92.8342 -6.5762 37.4569 -17.2474
# 4 -16.7569 0.5956 -6.5762 36.5365 -7.7587 10.2619
# 5 34.3596 25.2217 37.4569 -7.7587 40.1900 -9.8458
# 6 -29.2323 -14.7535 -17.2474 10.2619 -9.8458 30.5146
#
#
#
# Elastic Compliance Matrix: (Units=1/GPa)
#
#
# Indices 1 2 3 4 5 6 
#
# 1 0.019332 -0.004572 -0.001379 0.003590 -0.008873 0.011459
# 2 -0.004572 0.008743 -0.001724 -0.002543 -0.000574 -0.000457
# 3 -0.001379 -0.001724 0.018724 -0.001500 -0.014432 0.004277
# 4 0.003590 -0.002543 -0.001500 0.031922 0.004117 -0.008045
# 5 -0.008873 -0.000574 -0.014432 0.004117 0.046240 -0.003399
# 6 0.011459 -0.000457 0.004277 -0.008045 -0.003399 0.047554
#
#
# Mechanical properties :
#
#
# Convention : Reuss Voigt Hill
#
# Bulk Modulus (GPa) = 31.79729 71.75988 51.77859
# Shear Modulus (GPa) = 25.20844 35.22294 30.21569
#
# Velocity S-wave (km/s) = 3.36489 3.97750 3.68395
# Velocity P-wave (km/s) = 5.42019 7.30241 6.43054
#
# Compressibility (1/GPa) = 0.03144922
#
# Stress axis : x y z
#
# Youngs Moduli (GPa) = 51.72878 114.37548 53.40849
#
# Poissons Ratio (x) = 0.52292 0.07363
# Poissons Ratio (y) = 0.23650 0.09207
# Poissons Ratio (z) = 0.07132 0.19717
#
# Static dielectric constant tensor:
#      x y z
#    x 4.105740 -0.238460 0.785880 
#    y -0.238460 4.093880 -0.323150 
#    z 0.785880 -0.323150 4.243260 
# 
# 
# High freq. dielectric constant tensor:
#      x y z
#    x 1.855650 -0.018420 0.038110 
#    y -0.018420 1.880160 -0.006860 
#    z 0.038110 -0.006860 1.873500 
# 
# From -- ./inp_files/402066.got.cif
#   From: 2010.06.25/outbox.cif.g09.slc.cpg/sg2_202_cif.got.tgz:402066.got - 2010.06.27 13:26:56.
