data_PCOD8038003
_publ_section_title
;
Structure prediction by ZEFSAII (Michael W. Deem and Ramdas Pophale) SiO2 
 PCOD8038003
Probable space group: P -1
;
_chemical_formula_sum "Si O2"
_cell_formula_units_Z 16
_cell_length_a 13.301710
_cell_length_b 8.182414
_cell_length_c 16.619642
_cell_angle_alpha 87.356198
_cell_angle_beta 36.547413
_cell_angle_gamma 61.962913
_cell_volume 737.824794
_symmetry_space_group_name_H-M "P -1"
_symmetry_group_IT_number 2
_symmetry_cell_setting 'triclinic'
loop_
_space_group_symop_operation_xyz
x,y,z
-x,-y,-z
loop_
_atom_site_type_symbol
_atom_site_label
_atom_site_fract_x
_atom_site_fract_y
_atom_site_fract_z
Si Si1 0.293372 0.883944 0.917851
Si Si2 0.394289 0.874654 0.431263
Si Si3 0.935205 0.198848 0.619880
Si Si4 0.859335 0.990202 0.243822
Si Si5 0.497644 0.444875 0.355295
Si Si6 0.769177 0.649101 0.705674
Si Si7 0.150425 0.241210 0.878993
Si Si8 0.023106 0.180377 0.380338
O O1 0.406250 0.665896 0.792617
O O2 0.503851 0.836529 0.829834
O O3 0.133232 0.120276 0.962565
O O4 0.096310 0.940793 0.103419
O O5 0.554804 0.594648 0.333746
O O6 0.568250 0.908372 0.315896
O O7 0.220843 0.011448 0.617322
O O8 0.225218 0.002472 0.457897
O O9 0.796159 0.456717 0.741099
O O10 0.899533 0.240082 0.546105
O O11 0.835637 0.093491 0.721166
O O12 0.947430 0.770733 0.140291
O O13 0.627193 0.242180 0.343927
O O14 0.199368 0.631630 0.544285
O O15 0.000000 0.500000 0.500000
O O16 0.789645 0.796959 0.745441
O O17 0.000000 0.500000 0.000000
#
# Coordination Sequence:
#
# PCOD8038003 Si02
#       8
#     2   2   2   2   2   2   2   2
#     4  11  21  38  60  87 116 155 201 252 290 350
#     4  11  22  37  59  90 123 157 188 246 307 366
#     4   9  18  31  55  85 116 146 203 242 298 349
#     4  11  24  38  56  89 127 158 188 237 319 362
#     4  10  19  36  62  83 117 154 203 243 290 359
#     4  10  17  33  57  85 114 146 202 256 291 336
#     4  11  22  39  60  88 118 153 209 246 284 352
#     4   9  17  31  55  92 107 148 206 256 285 339
#
# _framework density 21.685362999999999
#
# number of rings (size 3 to 8) (size 9 to 14) (size 15 to 20)
#    0.000    1.750    2.500    5.250    1.750    0.000 
#    2.250    0.625    0.000    3.000    0.000    0.000 
#    0.000    0.000    0.000    0.000    0.000    0.000 
#
# Total GULP energy -198294.182901 kJ/mol
# GULP energy per Si atom -12393.386431 kJ/mol
# Density = 2.163601 g / cm^3
# Si number density = 21.685363 Si / 1000 Ang^3
#
#
#
# Elastic Constant Matrix: (Units=GPa)
#
#
# Indices 1 2 3 4 5 6 
#
# 1 66.5212 28.4331 22.6410 -2.9141 -27.1833 13.6348
# 2 28.4331 99.9741 13.4808 11.1320 5.2568 32.1400
# 3 22.6410 13.4808 67.6414 -9.8547 -10.6824 2.7166
# 4 -2.9141 11.1320 -9.8547 25.4590 5.1368 -5.6872
# 5 -27.1833 5.2568 -10.6824 5.1368 25.5097 -3.0050
# 6 13.6348 32.1400 2.7166 -5.6872 -3.0050 41.9456
#
#
#
# Elastic Compliance Matrix: (Units=1/GPa)
#
#
# Indices 1 2 3 4 5 6 
#
# 1 0.039579 -0.013298 -0.003731 0.000309 0.043375 0.000715
# 2 -0.013298 0.021466 -0.004059 -0.011835 -0.019663 -0.014876
# 3 -0.003731 -0.004059 0.018476 0.008843 0.003355 0.004566
# 4 0.000309 -0.011835 0.008843 0.051755 -0.002154 0.015258
# 5 0.043375 -0.019663 0.003355 -0.002154 0.092144 0.007059
# 6 0.000715 -0.014876 0.004566 0.015258 0.007059 0.037285
#
#
# Mechanical properties :
#
#
# Convention : Reuss Voigt Hill
#
# Bulk Modulus (GPa) = 26.77788 40.36072 33.56930
# Shear Modulus (GPa) = 15.85642 29.88833 22.87238
#
# Velocity S-wave (km/s) = 2.70701 3.71654 3.25120
# Velocity P-wave (km/s) = 4.70592 6.08845 5.44127
#
# Compressibility (1/GPa) = 0.03734426
#
# Stress axis : x y z
#
# Youngs Moduli (GPa) = 25.26615 46.58531 54.12285
#
# Poissons Ratio (x) = 0.61950 0.20194
# Poissons Ratio (y) = 0.33599 0.21969
# Poissons Ratio (z) = 0.09427 0.18909
#
# Static dielectric constant tensor:
#      x y z
#    x 4.110500 0.480590 -0.291980 
#    y 0.480590 4.474920 0.017830 
#    z -0.291980 0.017830 3.450090 
# 
# 
# High freq. dielectric constant tensor:
#      x y z
#    x 1.851320 0.018650 -0.028690 
#    y 0.018650 1.862900 0.005630 
#    z -0.028690 0.005630 1.804400 
# 
# From -- ./inp_files/572871.got.cif
#   From: 2010.06.25/outbox.cif.g09.slc.cpg/sg2_287_cif.got.tgz:572871.got - 2010.06.27 13:26:56.
