data_PCOD8039764
_publ_section_title
;
Structure prediction by ZEFSAII (Michael W. Deem and Ramdas Pophale) SiO2 
 PCOD8039764
Probable space group: P -1
;
_chemical_formula_sum "Si O2"
_cell_formula_units_Z 16
_cell_length_a 8.970407
_cell_length_b 11.263595
_cell_length_c 11.970765
_cell_angle_alpha 47.920504
_cell_angle_beta 77.539792
_cell_angle_gamma 66.392869
_cell_volume 820.127847
_symmetry_space_group_name_H-M "P -1"
_symmetry_group_IT_number 2
_symmetry_cell_setting 'triclinic'
loop_
_space_group_symop_operation_xyz
x,y,z
-x,-y,-z
loop_
_atom_site_type_symbol
_atom_site_label
_atom_site_fract_x
_atom_site_fract_y
_atom_site_fract_z
Si Si1 0.153453 0.679756 0.416267
Si Si2 0.751852 0.306811 0.372612
Si Si3 0.579690 0.414277 0.732737
Si Si4 0.239006 0.972792 0.300103
Si Si5 0.462478 0.135930 0.822418
Si Si6 0.846030 0.217434 0.983426
Si Si7 0.881496 0.842925 0.206358
Si Si8 0.962163 0.327387 0.114714
O O1 0.174259 0.618872 0.580227
O O2 0.297278 0.549214 0.399878
O O3 0.974986 0.710285 0.373895
O O4 0.172144 0.868724 0.284829
O O5 0.560279 0.410039 0.320083
O O6 0.852623 0.316648 0.242970
O O7 0.765528 0.111946 0.523461
O O8 0.489062 0.301870 0.759694
O O9 0.678190 0.326995 0.881519
O O10 0.133167 0.171638 0.191943
O O11 0.422614 0.948853 0.248613
O O12 0.276572 0.199032 0.772714
O O13 0.500000 0.000000 0.000000
O O14 0.861870 0.320286 0.025326
O O15 0.831334 0.037541 0.133378
O O16 0.002875 0.189813 0.899091
O O17 0.000000 0.500000 0.000000
#
# Coordination Sequence:
#
# PCOD8039764 Si02
#       8
#     2   2   2   2   2   2   2   2
#     4   8  18  37  64  84 117 159 203 238 297 369
#     4  10  22  40  64  81 124 174 199 236 303 383
#     4  10  20  36  61  94 119 156 201 251 308 355
#     4   9  21  40  60  85 116 165 202 235 305 361
#     4  11  20  31  63 100 124 146 195 267 305 349
#     4  10  20  37  57  90 128 156 198 246 317 354
#     4  10  18  34  63  93 122 154 194 261 305 358
#     4  12  25  39  64  90 121 161 212 253 288 362
#
# _framework density 19.509152
#
# number of rings (size 3 to 8) (size 9 to 14) (size 15 to 20)
#    0.750    1.250    2.500    1.500    3.500    0.500 
#    0.000    1.875    0.000    2.250    0.000    0.000 
#    0.000    0.000    0.000    0.000    0.000    0.000 
#
# Total GULP energy -198328.014557 kJ/mol
# GULP energy per Si atom -12395.500910 kJ/mol
# Density = 1.946475 g / cm^3
# Si number density = 19.509152 Si / 1000 Ang^3
#
#
#
# Elastic Constant Matrix: (Units=GPa)
#
#
# Indices 1 2 3 4 5 6 
#
# 1 143.7800 44.4062 44.2371 3.2898 22.3580 -12.7661
# 2 44.4062 71.3505 42.5865 2.0016 3.8775 -10.1206
# 3 44.2371 42.5865 86.7811 12.0116 7.4441 -5.6577
# 4 3.2898 2.0016 12.0116 32.4426 1.6260 5.1225
# 5 22.3580 3.8775 7.4441 1.6260 29.8517 -2.4999
# 6 -12.7661 -10.1206 -5.6577 5.1225 -2.4999 30.0830
#
#
#
# Elastic Compliance Matrix: (Units=1/GPa)
#
#
# Indices 1 2 3 4 5 6 
#
# 1 0.010168 -0.004262 -0.002451 0.000160 -0.006303 0.001869
# 2 -0.004262 0.022432 -0.009039 0.001625 0.002778 0.003992
# 3 -0.002451 -0.009039 0.018139 -0.005888 -0.001173 0.000236
# 4 0.000160 0.001625 -0.005888 0.033957 -0.001247 -0.006378
# 5 -0.006303 0.002778 -0.001173 -0.001247 0.038340 0.001438
# 6 0.001869 0.003992 0.000236 -0.006378 0.001438 0.036627
#
#
# Mechanical properties :
#
#
# Convention : Reuss Voigt Hill
#
# Bulk Modulus (GPa) = 51.98672 62.70790 57.34731
# Shear Modulus (GPa) = 25.30623 29.85424 27.58023
#
# Velocity S-wave (km/s) = 3.60550 3.91611 3.76401
# Velocity P-wave (km/s) = 6.63612 7.25675 6.95336
#
# Compressibility (1/GPa) = 0.01923568
#
# Stress axis : x y z
#
# Youngs Moduli (GPa) = 98.34819 44.57820 55.12844
#
# Poissons Ratio (x) = 0.18999 0.13514
# Poissons Ratio (y) = 0.41916 0.49830
# Poissons Ratio (z) = 0.24109 0.40293
#
# Static dielectric constant tensor:
#      x y z
#    x 3.390250 -0.207970 0.165030 
#    y -0.207970 3.362300 0.040910 
#    z 0.165030 0.040910 3.492670 
# 
# 
# High freq. dielectric constant tensor:
#      x y z
#    x 1.755460 -0.017940 0.012580 
#    y -0.017940 1.740330 -0.004830 
#    z 0.012580 -0.004830 1.758900 
# 
# From -- ./inp_files/389024.got.cif
#   From: 2010.06.25/outbox.cif.g09.slc.cpg/sg2_195_cif.got.tgz:389024.got - 2010.06.27 13:26:56.
