data_PCOD8039759
_publ_section_title
;
Structure prediction by ZEFSAII (Michael W. Deem and Ramdas Pophale) SiO2 
 PCOD8039759
Probable space group: P -1
;
_chemical_formula_sum "Si O2"
_cell_formula_units_Z 16
_cell_length_a 11.012045
_cell_length_b 16.820019
_cell_length_c 9.870730
_cell_angle_alpha 101.188852
_cell_angle_beta 111.829374
_cell_angle_gamma 134.153664
_cell_volume 892.543427
_symmetry_space_group_name_H-M "P -1"
_symmetry_group_IT_number 2
_symmetry_cell_setting 'triclinic'
loop_
_space_group_symop_operation_xyz
x,y,z
-x,-y,-z
loop_
_atom_site_type_symbol
_atom_site_label
_atom_site_fract_x
_atom_site_fract_y
_atom_site_fract_z
Si Si1 0.637158 0.783533 0.860467
Si Si2 0.814691 0.381594 0.267008
Si Si3 0.542381 0.098126 0.453271
Si Si4 0.300821 0.856136 0.773768
Si Si5 0.900255 0.066890 0.919652
Si Si6 0.116139 0.282540 0.308005
Si Si7 0.153620 0.588152 0.227609
Si Si8 0.447925 0.600869 0.461840
O O1 0.437034 0.697682 0.863984
O O2 0.481466 0.663007 0.637299
O O3 0.765176 0.930976 0.910586
O O4 0.850923 0.834960 0.015983
O O5 0.741028 0.251036 0.209324
O O6 0.000000 0.500000 0.500000
O O7 0.946706 0.466906 0.211446
O O8 0.633722 0.117352 0.348989
O O9 0.721992 0.258425 0.648988
O O10 0.500000 0.000000 0.500000
O O11 0.275573 0.998146 0.295507
O O12 0.052325 0.778956 0.656260
O O13 0.500000 0.000000 0.000000
O O14 0.953413 0.167220 0.077443
O O15 0.252239 0.429067 0.346161
O O16 0.297183 0.307216 0.448682
O O17 0.354454 0.620462 0.324329
O O18 0.000000 0.500000 0.000000
#
# Coordination Sequence:
#
# PCOD8039759 Si02
#       8
#     2   2   2   2   2   2   2   2
#     4  10  18  34  63  89 111 150 201 257 288 339
#     4  12  19  38  64  89 116 151 210 253 287 340
#     4  12  26  42  59  88 127 162 193 245 308 362
#     4  12  21  36  62  93 121 151 199 249 291 349
#     4  10  19  36  58  88 121 151 194 242 305 347
#     4  10  20  32  61  93 117 147 193 254 291 343
#     4  12  26  41  62  86 124 164 197 246 302 361
#     4  10  19  36  58  88 120 150 195 245 299 341
#
# _framework density 17.926297999999999
#
# number of rings (size 3 to 8) (size 9 to 14) (size 15 to 20)
#    0.000    1.000    7.500    0.000    3.500    0.000 
#    0.000    1.250    0.000    3.000    0.000    0.000 
#    0.000    0.000    0.000    0.000    0.000    0.000 
#
# Total GULP energy -198299.272301 kJ/mol
# GULP energy per Si atom -12393.704519 kJ/mol
# Density = 1.788550 g / cm^3
# Si number density = 17.926298 Si / 1000 Ang^3
#
#
#
# Elastic Constant Matrix: (Units=GPa)
#
#
# Indices 1 2 3 4 5 6 
#
# 1 131.0227 46.0885 53.3773 -3.7269 10.9977 8.8341
# 2 46.0885 92.9526 51.4977 -2.6891 -9.4499 -4.3503
# 3 53.3773 51.4977 130.8447 3.5175 -9.8242 -1.8013
# 4 -3.7269 -2.6891 3.5175 29.0840 -11.3170 -1.8181
# 5 10.9977 -9.4499 -9.8242 -11.3170 37.1620 13.2043
# 6 8.8341 -4.3503 -1.8013 -1.8181 13.2043 34.0468
#
#
#
# Elastic Compliance Matrix: (Units=1/GPa)
#
#
# Indices 1 2 3 4 5 6 
#
# 1 0.010896 -0.004237 -0.003138 -0.000545 -0.004675 -0.001750
# 2 -0.004237 0.015835 -0.004221 0.003356 0.004747 0.001238
# 3 -0.003138 -0.004221 0.010794 -0.001171 0.002405 -0.000149
# 4 -0.000545 0.003356 -0.001171 0.039984 0.013851 -0.002728
# 5 -0.004675 0.004747 0.002405 0.013851 0.038737 -0.012337
# 6 -0.001750 0.001238 -0.000149 -0.002728 -0.012337 0.034615
#
#
# Mechanical properties :
#
#
# Convention : Reuss Voigt Hill
#
# Bulk Modulus (GPa) = 69.76511 72.97189 71.36850
# Shear Modulus (GPa) = 27.95952 33.64899 30.80426
#
# Velocity S-wave (km/s) = 3.95358 4.33722 4.14984
# Velocity P-wave (km/s) = 7.73584 8.11646 7.92844
#
# Compressibility (1/GPa) = 0.01433381
#
# Stress axis : x y z
#
# Youngs Moduli (GPa) = 91.77688 63.15143 92.64539
#
# Poissons Ratio (x) = 0.26758 0.29070
# Poissons Ratio (y) = 0.38887 0.39102
# Poissons Ratio (z) = 0.28798 0.26653
#
# Static dielectric constant tensor:
#      x y z
#    x 4.213080 0.347540 0.162950 
#    y 0.347540 3.580310 0.290400 
#    z 0.162950 0.290400 3.403360 
# 
# 
# High freq. dielectric constant tensor:
#      x y z
#    x 1.717080 -0.005130 0.001390 
#    y -0.005130 1.670830 0.040030 
#    z 0.001390 0.040030 1.696200 
# 
# From -- ./inp_files/185983.got.cif
#   From: 2010.06.25/outbox.cif.g09.slc.cpg/sg2_93_cif.got.tgz:185983.got - 2010.06.27 13:26:56.
