data_PCOD8039307
_publ_section_title
;
Structure prediction by ZEFSAII (Michael W. Deem and Ramdas Pophale) SiO2 
 PCOD8039307
Probable space group: P -1
;
_chemical_formula_sum "Si O2"
_cell_formula_units_Z 16
_cell_length_a 28.180976
_cell_length_b 8.993006
_cell_length_c 10.182828
_cell_angle_alpha 118.721496
_cell_angle_beta 153.112486
_cell_angle_gamma 49.813290
_cell_volume 857.234354
_symmetry_space_group_name_H-M "P -1"
_symmetry_group_IT_number 2
_symmetry_cell_setting 'triclinic'
loop_
_space_group_symop_operation_xyz
x,y,z
-x,-y,-z
loop_
_atom_site_type_symbol
_atom_site_label
_atom_site_fract_x
_atom_site_fract_y
_atom_site_fract_z
Si Si1 0.760622 0.541264 0.108427
Si Si2 0.023912 0.992989 0.205614
Si Si3 0.776361 0.206409 0.841057
Si Si4 0.498173 0.814291 0.465962
Si Si5 0.501821 0.504877 0.164656
Si Si6 0.255084 0.626532 0.746087
Si Si7 0.739047 0.045226 0.928249
Si Si8 0.107227 0.281423 0.630395
O O1 0.771714 0.509818 0.280711
O O2 0.804716 0.690481 0.239979
O O3 0.822907 0.335456 0.088102
O O4 0.618114 0.641266 0.761366
O O5 0.062248 0.152347 0.394280
O O6 0.891646 0.059491 0.970533
O O7 0.134254 0.761073 0.412519
O O8 0.000000 0.000000 0.000000
O O9 0.642021 0.333160 0.487935
O O10 0.771464 0.049199 0.859169
O O11 0.468117 0.722880 0.226296
O O12 0.400656 0.897727 0.379329
O O13 0.500000 0.000000 0.500000
O O14 0.500000 0.500000 0.000000
O O15 0.386894 0.489375 0.932153
O O16 0.257288 0.782486 0.913698
O O17 0.827392 0.825061 0.116449
O O18 0.000000 0.500000 0.500000
#
# Coordination Sequence:
#
# PCOD8039307 Si02
#       8
#     2   2   2   2   2   2   2   2
#     4  10  19  34  58  85 107 136 183 231 273 303
#     4  11  23  38  56  79 111 148 182 215 272 330
#     4  10  20  35  58  82 108 142 184 230 260 319
#     4  10  18  33  56  84 107 136 176 229 269 313
#     4  10  20  36  58  80 108 148 184 215 266 329
#     4   9  20  35  57  82 109 142 183 226 262 322
#     4   9  19  33  56  85 107 137 183 225 272 311
#     4  11  21  34  57  82 108 141 179 226 269 323
#
# _framework density 18.664674000000002
#
# number of rings (size 3 to 8) (size 9 to 14) (size 15 to 20)
#    0.000    2.000    2.500    1.500    1.750    4.500 
#    0.000    0.625    2.750    1.500    0.000    0.000 
#    0.000    0.000    0.000    0.000    0.000    0.000 
#
# Total GULP energy -198219.183420 kJ/mol
# GULP energy per Si atom -12388.698964 kJ/mol
# Density = 1.862219 g / cm^3
# Si number density = 18.664674 Si / 1000 Ang^3
#
#
#
# Elastic Constant Matrix: (Units=GPa)
#
#
# Indices 1 2 3 4 5 6 
#
# 1 174.1327 46.8247 69.8017 -7.8164 0.7988 16.9034
# 2 46.8247 61.2108 27.8805 -6.6525 -0.5419 16.8503
# 3 69.8017 27.8805 95.9474 -15.3930 2.0946 3.0343
# 4 -7.8164 -6.6525 -15.3930 18.7211 -1.5530 2.3698
# 5 0.7988 -0.5419 2.0946 -1.5530 34.8290 -5.5903
# 6 16.9034 16.8503 3.0343 2.3698 -5.5903 33.8441
#
#
#
# Elastic Compliance Matrix: (Units=1/GPa)
#
#
# Indices 1 2 3 4 5 6 
#
# 1 0.009291 -0.004152 -0.005832 -0.002172 -0.000337 -0.001954
# 2 -0.004152 0.024217 -0.002735 0.005861 -0.000751 -0.010273
# 3 -0.005832 -0.002735 0.017061 0.010357 -0.000153 0.001994
# 4 -0.002172 0.005861 0.010357 0.064102 0.001246 -0.007045
# 5 -0.000337 -0.000751 -0.000153 0.001246 0.029633 0.005364
# 6 -0.001954 -0.010273 0.001994 -0.007045 0.005364 0.036838
#
#
# Mechanical properties :
#
#
# Convention : Reuss Voigt Hill
#
# Bulk Modulus (GPa) = 39.78994 68.92276 54.35635
# Shear Modulus (GPa) = 23.26045 29.93111 26.59578
#
# Velocity S-wave (km/s) = 3.53403 4.00887 3.77891
# Velocity P-wave (km/s) = 6.16580 7.64428 6.94450
#
# Compressibility (1/GPa) = 0.02513198
#
# Stress axis : x y z
#
# Youngs Moduli (GPa) = 107.63562 41.29305 58.61175
#
# Poissons Ratio (x) = 0.17145 0.34181
# Poissons Ratio (y) = 0.44691 0.16029
# Poissons Ratio (z) = 0.62770 0.11293
#
# Static dielectric constant tensor:
#      x y z
#    x 21.375750 32.120790 -11.367030 
#    y 32.120790 60.570060 -20.752100 
#    z -11.367030 -20.752100 10.815490 
# 
# 
# High freq. dielectric constant tensor:
#      x y z
#    x 1.733980 0.014150 0.016270 
#    y 0.014150 1.704090 -0.025840 
#    z 0.016270 -0.025840 1.723770 
# 
# From -- ./inp_files/186517.got.cif
#   From: 2010.06.25/outbox.cif.g09.slc.cpg/sg2_94_cif.got.tgz:186517.got - 2010.06.27 13:26:56.
