data_PCOD8039593
_publ_section_title
;
Structure prediction by ZEFSAII (Michael W. Deem and Ramdas Pophale) SiO2 
 PCOD8039593
Probable space group: P -1
;
_chemical_formula_sum "Si O2"
_cell_formula_units_Z 16
_cell_length_a 11.704517
_cell_length_b 12.815300
_cell_length_c 9.959381
_cell_angle_alpha 129.978300
_cell_angle_beta 79.859284
_cell_angle_gamma 127.974429
_cell_volume 840.830679
_symmetry_space_group_name_H-M "P -1"
_symmetry_group_IT_number 2
_symmetry_cell_setting 'triclinic'
loop_
_space_group_symop_operation_xyz
x,y,z
-x,-y,-z
loop_
_atom_site_type_symbol
_atom_site_label
_atom_site_fract_x
_atom_site_fract_y
_atom_site_fract_z
Si Si1 0.010622 0.957199 0.117130
Si Si2 0.141000 0.390611 0.264799
Si Si3 0.557415 0.798518 0.949382
Si Si4 0.333975 0.108372 0.282765
Si Si5 0.461149 0.511284 0.367908
Si Si6 0.722374 0.230779 0.562103
Si Si7 0.126831 0.883920 0.707698
Si Si8 0.600428 0.104390 0.768456
O O1 0.181578 0.066042 0.227277
O O2 0.933725 0.021883 0.269392
O O3 0.914619 0.741271 0.962568
O O4 0.000000 0.000000 0.000000
O O5 0.287084 0.430726 0.333855
O O6 0.180413 0.570036 0.353190
O O7 0.004921 0.294021 0.323741
O O8 0.550863 0.823364 0.811859
O O9 0.522192 0.610205 0.830123
O O10 0.426546 0.787157 0.039995
O O11 0.728112 0.971760 0.106979
O O12 0.417560 0.271686 0.512340
O O13 0.298691 0.933263 0.208941
O O14 0.500000 0.500000 0.500000
O O15 0.823147 0.173040 0.472437
O O16 0.695136 0.232003 0.726309
O O17 0.560374 0.092198 0.402787
#
# Coordination Sequence:
#
# PCOD8039593 Si02
#       8
#     2   2   2   2   2   2   2   2
#     4  10  18  34  58  85 113 140 175 231 283 324
#     4  11  18  35  57  84 109 143 186 221 277 324
#     4  10  18  34  57  85 111 141 180 228 278 323
#     4  11  19  36  58  86 112 141 183 228 276 322
#     4  10  19  31  55  90 113 133 180 236 273 319
#     4  10  22  38  54  79 114 151 187 222 267 327
#     4  10  18  34  58  84 110 143 181 225 277 328
#     4  10  22  38  54  78 116 151 183 225 271 321
#
# _framework density 19.028801999999999
#
# number of rings (size 3 to 8) (size 9 to 14) (size 15 to 20)
#    0.000    1.750    5.000    3.000    0.000    0.000 
#    0.000    4.375    0.000    0.000    0.000    0.000 
#    0.000    0.000    0.000    0.000    0.000    0.000 
#
# Total GULP energy -198306.937377 kJ/mol
# GULP energy per Si atom -12394.183586 kJ/mol
# Density = 1.898549 g / cm^3
# Si number density = 19.028802 Si / 1000 Ang^3
#
#
#
# Elastic Constant Matrix: (Units=GPa)
#
#
# Indices 1 2 3 4 5 6 
#
# 1 120.8727 31.3290 43.6440 -0.3309 -15.6423 0.4395
# 2 31.3290 47.3509 36.0688 4.2057 -7.8567 7.1838
# 3 43.6440 36.0688 81.4416 12.2284 -14.4147 3.7546
# 4 -0.3309 4.2057 12.2284 23.3946 -0.0963 3.1836
# 5 -15.6423 -7.8567 -14.4147 -0.0963 30.8960 4.8810
# 6 0.4395 7.1838 3.7546 3.1836 4.8810 16.7037
#
#
#
# Elastic Compliance Matrix: (Units=1/GPa)
#
#
# Indices 1 2 3 4 5 6 
#
# 1 0.011212 -0.004269 -0.004182 0.002959 0.002460 0.001198
# 2 -0.004269 0.036182 -0.012826 0.002045 0.003259 -0.013908
# 3 -0.004182 -0.012826 0.022469 -0.009610 0.004921 0.000969
# 4 0.002959 0.002045 -0.009610 0.048488 -0.001095 -0.007719
# 5 0.002460 0.003259 0.004921 -0.001095 0.038903 -0.013732
# 6 0.001198 -0.013908 0.000969 -0.007719 -0.013732 0.071083
#
#
# Mechanical properties :
#
#
# Convention : Reuss Voigt Hill
#
# Bulk Modulus (GPa) = 36.61627 52.41653 44.51640
# Shear Modulus (GPa) = 17.85757 23.44043 20.64900
#
# Velocity S-wave (km/s) = 3.06674 3.51356 3.29773
# Velocity P-wave (km/s) = 5.64129 6.63821 6.15995
#
# Compressibility (1/GPa) = 0.02731026
#
# Stress axis : x y z
#
# Youngs Moduli (GPa) = 89.19297 27.63773 44.50542
#
# Poissons Ratio (x) = 0.11799 0.18611
# Poissons Ratio (y) = 0.38078 0.57081
# Poissons Ratio (z) = 0.37298 0.35447
#
# Static dielectric constant tensor:
#      x y z
#    x 3.763490 -0.078080 -0.369070 
#    y -0.078080 3.286470 0.390430 
#    z -0.369070 0.390430 3.831080 
# 
# 
# High freq. dielectric constant tensor:
#      x y z
#    x 1.753450 -0.006860 -0.012630 
#    y -0.006860 1.701780 0.026230 
#    z -0.012630 0.026230 1.734480 
# 
# From -- ./inp_files/263070.got.cif
#   From: 2010.06.25/outbox.cif.g09.slc.cpg/sg2_132_cif.got.tgz:263070.got - 2010.06.27 13:26:56.
