data_PCOD8039939
_publ_section_title
;
Structure prediction by ZEFSAII (Michael W. Deem and Ramdas Pophale) SiO2 
 PCOD8039939
Probable space group: P -1
;
_chemical_formula_sum "Si O2"
_cell_formula_units_Z 10
_cell_length_a 7.372545
_cell_length_b 9.266367
_cell_length_c 11.872780
_cell_angle_alpha 38.385638
_cell_angle_beta 128.697246
_cell_angle_gamma 134.164608
_cell_volume 355.556195
_symmetry_space_group_name_H-M "P -1"
_symmetry_group_IT_number 2
_symmetry_cell_setting 'triclinic'
loop_
_space_group_symop_operation_xyz
x,y,z
-x,-y,-z
loop_
_atom_site_type_symbol
_atom_site_label
_atom_site_fract_x
_atom_site_fract_y
_atom_site_fract_z
Si Si1 0.377143 0.932248 0.372949
Si Si2 0.067752 0.622858 0.071945
Si Si3 0.204011 0.204012 0.743898
Si Si4 0.257365 0.257365 0.476393
Si Si5 0.743482 0.743482 0.030816
O O1 0.485201 0.747030 0.470698
O O2 0.072998 0.791569 0.357569
O O3 0.500000 0.000000 0.500000
O O4 0.447367 0.181932 0.166077
O O5 0.252971 0.514799 0.267473
O O6 0.000000 0.500000 0.000000
O O7 0.818069 0.552633 0.099358
O O8 0.208430 0.927003 0.923859
O O9 0.310091 0.310092 0.597371
O O10 0.367060 0.367060 0.818821
O O11 0.000000 0.000000 0.500000
O O12 0.000000 0.000000 0.000000
#
# Coordination Sequence:
#
# PCOD8039939 Si02
#       5
#     2   2   2   2   2
#     4  10  18  35  59  84 111 148 190 228 276 338
#     4  10  18  35  59  84 111 148 190 228 276 338
#     4  10  22  42  57  80 122 147 179 241 283 325
#     4  12  21  34  60  87 110 150 190 232 277 327
#     4   8  19  38  56  78 118 151 175 235 291 318
#
# _framework density 28.124950999999999
#
# number of rings (size 3 to 8) (size 9 to 14) (size 15 to 20)
#    0.000    2.400    4.000    1.200    0.000    1.600 
#    0.000   17.000    0.000    0.000    0.000    0.000 
#    0.000    0.000    0.000    0.000    0.000    0.000 
#
# Total GULP energy -123901.600731 kJ/mol
# GULP energy per Si atom -12390.160073 kJ/mol
# Density = 2.806094 g / cm^3
# Si number density = 28.124951 Si / 1000 Ang^3
#
#
#
# Elastic Constant Matrix: (Units=GPa)
#
#
# Indices 1 2 3 4 5 6 
#
# 1 180.4275 47.4610 86.8735 24.4300 10.5408 -64.2022
# 2 47.4610 161.6261 86.8065 25.4105 -19.7310 -62.5724
# 3 86.8735 86.8065 280.7168 15.8371 -10.1998 -61.3488
# 4 24.4300 25.4105 15.8371 83.1411 -14.0921 -11.8292
# 5 10.5408 -19.7310 -10.1998 -14.0921 72.1914 8.5281
# 6 -64.2022 -62.5724 -61.3488 -11.8292 8.5281 75.6030
#
#
#
# Elastic Compliance Matrix: (Units=1/GPa)
#
#
# Indices 1 2 3 4 5 6 
#
# 1 0.008983 0.000953 -0.001482 -0.002053 -0.002509 0.007177
# 2 0.000953 0.010085 -0.001652 -0.001798 0.001158 0.007403
# 3 -0.001482 -0.001652 0.004809 0.000265 0.000345 0.001279
# 4 -0.002053 -0.001798 0.000265 0.013399 0.002605 -0.001214
# 5 -0.002509 0.001158 0.000345 0.002605 0.015354 -0.002217
# 6 0.007177 0.007403 0.001279 -0.001214 -0.002217 0.026547
#
#
# Mechanical properties :
#
#
# Convention : Reuss Voigt Hill
#
# Bulk Modulus (GPa) = 51.24190 118.33915 84.79053
# Shear Modulus (GPa) = 55.52861 72.96238 64.24549
#
# Velocity S-wave (km/s) = 4.44819 5.09888 4.78461
# Velocity P-wave (km/s) = 6.68138 8.76540 7.79337
#
# Compressibility (1/GPa) = 0.01951528
#
# Stress axis : x y z
#
# Youngs Moduli (GPa) = 111.31547 99.15994 207.95085
#
# Poissons Ratio (x) = -0.09447 0.30810
# Poissons Ratio (y) = -0.10605 0.34352
# Poissons Ratio (z) = 0.16493 0.16380
#
# Static dielectric constant tensor:
#      x y z
#    x 5.641900 -0.899760 -1.088840 
#    y -0.899760 5.560950 1.010020 
#    z -1.088840 1.010020 5.619050 
# 
# 
# High freq. dielectric constant tensor:
#      x y z
#    x 2.142690 -0.024780 -0.005430 
#    y -0.024780 2.148810 0.014350 
#    z -0.005430 0.014350 2.160670 
# 
# From -- ./inp_files/195925.got.cif
#   From: 2010.06.25/outbox.cif.g09.slc.cpg/sg2_98_cif.got.tgz:195925.got - 2010.06.27 13:26:56.
