data_PCOD8039881
_publ_section_title
;
Structure prediction by ZEFSAII (Michael W. Deem and Ramdas Pophale) SiO2 
 PCOD8039881
Probable space group: P -1
;
_chemical_formula_sum "Si O2"
_cell_formula_units_Z 16
_cell_length_a 8.266548
_cell_length_b 14.697880
_cell_length_c 11.482689
_cell_angle_alpha 59.120078
_cell_angle_beta 39.247827
_cell_angle_gamma 73.236039
_cell_volume 742.126793
_symmetry_space_group_name_H-M "P -1"
_symmetry_group_IT_number 2
_symmetry_cell_setting 'triclinic'
loop_
_space_group_symop_operation_xyz
x,y,z
-x,-y,-z
loop_
_atom_site_type_symbol
_atom_site_label
_atom_site_fract_x
_atom_site_fract_y
_atom_site_fract_z
Si Si1 0.755799 0.527653 0.417098
Si Si2 0.576551 0.856843 0.116185
Si Si3 0.012230 0.575038 0.832038
Si Si4 0.762256 0.335579 0.702932
Si Si5 0.760668 0.772692 0.538341
Si Si6 0.428101 0.269728 0.571344
Si Si7 0.473272 0.382692 0.038852
Si Si8 0.105942 0.973532 0.331130
O O1 0.500000 0.500000 0.500000
O O2 0.996212 0.509504 0.214955
O O3 0.736385 0.448990 0.588278
O O4 0.773391 0.648532 0.373935
O O5 0.459264 0.759963 0.159426
O O6 0.667356 0.811764 0.216109
O O7 0.370294 0.928236 0.225761
O O8 0.823464 0.923780 0.862938
O O9 0.270349 0.669897 0.621717
O O10 0.766812 0.632722 0.911712
O O11 0.000000 0.500000 0.000000
O O12 0.035987 0.304636 0.545952
O O13 0.725470 0.359520 0.844325
O O14 0.611308 0.792454 0.489536
O O15 0.559287 0.708177 0.784693
O O16 0.883470 0.888498 0.446736
O O17 0.500000 0.500000 0.000000
O O18 0.000000 0.000000 0.500000
#
# Coordination Sequence:
#
# PCOD8039881 Si02
#       8
#     2   2   2   2   2   2   2   2
#     4  10  18  35  57  86 126 166 204 245 296 361
#     4  10  21  41  67  92 117 158 213 257 318 378
#     4  11  21  36  56  87 129 172 216 248 295 363
#     4  11  21  40  63  90 125 171 210 254 304 371
#     4  11  24  42  61  93 130 162 211 260 315 374
#     4  11  23  40  61  91 131 169 204 257 307 377
#     4  12  24  37  60  91 129 171 213 253 303 365
#     4  10  22  44  70  90 116 158 207 268 325 379
#
# _framework density 21.559657999999999
#
# number of rings (size 3 to 8) (size 9 to 14) (size 15 to 20)
#    0.000    1.250    3.750    4.500    1.750    1.500 
#    0.000    0.625    0.000    0.000    0.000    0.000 
#    0.000    0.000    0.000    0.000    0.000    0.000 
#
# Total GULP energy -198347.281234 kJ/mol
# GULP energy per Si atom -12396.705077 kJ/mol
# Density = 2.151059 g / cm^3
# Si number density = 21.559658 Si / 1000 Ang^3
#
#
#
# Elastic Constant Matrix: (Units=GPa)
#
#
# Indices 1 2 3 4 5 6 
#
# 1 65.5510 25.3216 28.4192 -8.5819 27.2440 14.9556
# 2 25.3216 94.1823 42.8602 6.2483 18.7694 12.2629
# 3 28.4192 42.8602 140.5296 -3.3513 45.0217 5.0396
# 4 -8.5819 6.2483 -3.3513 41.1573 -4.0415 6.5065
# 5 27.2440 18.7694 45.0217 -4.0415 39.4406 6.4506
# 6 14.9556 12.2629 5.0396 6.5065 6.4506 31.0218
#
#
#
# Elastic Compliance Matrix: (Units=1/GPa)
#
#
# Indices 1 2 3 4 5 6 
#
# 1 0.025164 -0.003560 0.001295 0.005837 -0.015093 -0.009021
# 2 -0.003560 0.013638 -0.003415 -0.002685 0.000011 -0.002559
# 3 0.001295 -0.003415 0.012114 0.000234 -0.013315 0.001478
# 4 0.005837 -0.002685 0.000234 0.027264 0.001036 -0.007724
# 5 -0.015093 0.000011 -0.013315 0.001036 0.051318 -0.001453
# 6 -0.009021 -0.002559 0.001478 -0.007724 -0.001453 0.039278
#
#
# Mechanical properties :
#
#
# Convention : Reuss Voigt Hill
#
# Bulk Modulus (GPa) = 25.28059 54.82945 40.05502
# Shear Modulus (GPa) = 25.86353 35.90138 30.88246
#
# Velocity S-wave (km/s) = 3.46732 4.08513 3.78884
# Velocity P-wave (km/s) = 5.27078 6.90925 6.14487
#
# Compressibility (1/GPa) = 0.03955603
#
# Stress axis : x y z
#
# Youngs Moduli (GPa) = 39.73915 73.32330 82.54835
#
# Poissons Ratio (x) = 0.26101 -0.10688
# Poissons Ratio (y) = 0.14146 0.28193
# Poissons Ratio (z) = -0.05145 0.25042
#
# Static dielectric constant tensor:
#      x y z
#    x 4.019790 0.017600 0.053200 
#    y 0.017600 4.238550 0.238470 
#    z 0.053200 0.238470 4.035870 
# 
# 
# High freq. dielectric constant tensor:
#      x y z
#    x 1.850260 0.010710 0.010450 
#    y 0.010710 1.840140 0.008810 
#    z 0.010450 0.008810 1.851030 
# 
# From -- ./inp_files/306022.got.cif
#   From: 2010.06.25/outbox.cif.g09.slc.cpg/sg2_154_cif.got.tgz:306022.got - 2010.06.27 13:26:56.
