data_PCOD8039417
_publ_section_title
;
Structure prediction by ZEFSAII (Michael W. Deem and Ramdas Pophale) SiO2 
 PCOD8039417
Probable space group: P -1
;
_chemical_formula_sum "Si O2"
_cell_formula_units_Z 14
_cell_length_a 8.411167
_cell_length_b 11.892613
_cell_length_c 18.015094
_cell_angle_alpha 40.203370
_cell_angle_beta 102.750356
_cell_angle_gamma 133.343813
_cell_volume 645.354181
_symmetry_space_group_name_H-M "P -1"
_symmetry_group_IT_number 2
_symmetry_cell_setting 'triclinic'
loop_
_space_group_symop_operation_xyz
x,y,z
-x,-y,-z
loop_
_atom_site_type_symbol
_atom_site_label
_atom_site_fract_x
_atom_site_fract_y
_atom_site_fract_z
Si Si1 0.817426 0.893236 0.752807
Si Si2 0.330772 0.272608 0.709842
Si Si3 0.979381 0.839124 0.515578
Si Si4 0.520214 0.278340 0.065937
Si Si5 0.069159 0.564311 0.216643
Si Si6 0.697576 0.141388 0.056977
Si Si7 0.046828 0.191228 0.850511
O O1 0.586985 0.812854 0.813360
O O2 0.731731 0.619422 0.895178
O O3 0.143788 0.201947 0.661998
O O4 0.802174 0.929725 0.646004
O O5 0.668399 0.561425 0.583514
O O6 0.306204 0.363083 0.737341
O O7 0.198804 0.962476 0.862269
O O8 0.064966 0.732087 0.616833
O O9 0.000000 0.000000 0.500000
O O10 0.687190 0.246326 0.079006
O O11 0.241121 0.049592 0.103516
O O12 0.879300 0.560020 0.228230
O O13 0.387485 0.862992 0.129159
O O14 0.081896 0.578133 0.120993
O O15 0.000000 0.000000 0.000000
#
# Coordination Sequence:
#
# PCOD8039417 Si02
#       7
#     2   2   2   2   2   2   2
#     4  10  21  39  56  82 116 149 188 228 285 337
#     4  10  21  36  58  86 111 150 187 234 282 327
#     4  11  23  38  59  80 117 155 186 228 282 339
#     4   9  20  35  58  83 109 151 189 232 283 328
#     4   9  18  32  54  87 114 145 184 232 282 332
#     4   9  16  32  56  85 111 139 191 233 278 330
#     4  10  18  33  60  87 113 142 186 239 278 327
#
# _framework density 21.693514
#
# number of rings (size 3 to 8) (size 9 to 14) (size 15 to 20)
#    0.000    2.286    1.429    1.286    4.000    0.571 
#    0.000   13.571    0.000    0.000    0.000    0.000 
#    0.000    0.000    0.000    0.000    0.000    0.000 
#
# Total GULP energy -173529.837596 kJ/mol
# GULP energy per Si atom -12394.988400 kJ/mol
# Density = 2.164414 g / cm^3
# Si number density = 21.693514 Si / 1000 Ang^3
#
#
#
# Elastic Constant Matrix: (Units=GPa)
#
#
# Indices 1 2 3 4 5 6 
#
# 1 135.9770 36.1023 51.0742 18.3042 14.7515 -45.5193
# 2 36.1023 51.9866 46.1768 22.0160 -1.0489 -37.6527
# 3 51.0742 46.1768 117.9029 29.5130 5.6471 -22.0849
# 4 18.3042 22.0160 29.5130 35.8512 -5.5736 -9.8494
# 5 14.7515 -1.0489 5.6471 -5.5736 27.3341 -3.5097
# 6 -45.5193 -37.6527 -22.0849 -9.8494 -3.5097 39.7790
#
#
#
# Elastic Compliance Matrix: (Units=1/GPa)
#
#
# Indices 1 2 3 4 5 6 
#
# 1 0.018014 0.026788 -0.008783 -0.008345 -0.003610 0.038709
# 2 0.026788 0.163274 -0.037216 -0.038637 0.011649 0.155999
# 3 -0.008783 -0.037216 0.020685 0.000070 -0.005345 -0.034247
# 4 -0.008345 -0.038637 0.000070 0.047949 0.008487 -0.033460
# 5 -0.003610 0.011649 -0.005345 0.008487 0.043077 0.009830
# 6 0.038709 0.155999 -0.034247 -0.033460 0.009830 0.190664
#
#
# Mechanical properties :
#
#
# Convention : Reuss Voigt Hill
#
# Bulk Modulus (GPa) = 6.11428 63.61922 34.86675
# Shear Modulus (GPa) = 8.67152 32.09375 20.38264
#
# Velocity S-wave (km/s) = 2.00149 3.85049 3.06857
# Velocity P-wave (km/s) = 2.85760 7.01131 5.35371
#
# Compressibility (1/GPa) = 0.16355160
#
# Stress axis : x y z
#
# Youngs Moduli (GPa) = 55.51343 6.12469 48.34352
#
# Poissons Ratio (x) = -0.16407 0.42458
# Poissons Ratio (y) = -1.48711 1.79917
# Poissons Ratio (z) = 0.48755 0.22794
#
# Static dielectric constant tensor:
#      x y z
#    x 4.374240 -0.324070 -0.052240 
#    y -0.324070 3.872500 0.110410 
#    z -0.052240 0.110410 3.716510 
# 
# 
# High freq. dielectric constant tensor:
#      x y z
#    x 1.857490 -0.012990 -0.005940 
#    y -0.012990 1.846930 0.007300 
#    z -0.005940 0.007300 1.829520 
# 
# From -- ./inp_files/159258.got.cif
#   From: 2010.06.25/outbox.cif.g09.slc.cpg/sg2_80_cif.got.tgz:159258.got - 2010.06.27 13:26:56.
