data_PCOD8039743
_publ_section_title
;
Structure prediction by ZEFSAII (Michael W. Deem and Ramdas Pophale) SiO2 
 PCOD8039743
Probable space group: P -1
;
_chemical_formula_sum "Si O2"
_cell_formula_units_Z 16
_cell_length_a 13.841619
_cell_length_b 8.953374
_cell_length_c 9.910271
_cell_angle_alpha 112.977611
_cell_angle_beta 84.608785
_cell_angle_gamma 53.410288
_cell_volume 814.440639
_symmetry_space_group_name_H-M "P -1"
_symmetry_group_IT_number 2
_symmetry_cell_setting 'triclinic'
loop_
_space_group_symop_operation_xyz
x,y,z
-x,-y,-z
loop_
_atom_site_type_symbol
_atom_site_label
_atom_site_fract_x
_atom_site_fract_y
_atom_site_fract_z
Si Si1 0.355330 0.191782 0.834339
Si Si2 0.314424 0.077559 0.070848
Si Si3 0.948808 0.714254 0.669038
Si Si4 0.449296 0.396704 0.041422
Si Si5 0.941613 0.845806 0.440791
Si Si6 0.633527 0.758886 0.637342
Si Si7 0.816742 0.649799 0.343379
Si Si8 0.217844 0.661419 0.374250
O O1 0.410494 0.307212 0.902713
O O2 0.248286 0.334908 0.780379
O O3 0.477469 0.934076 0.675983
O O4 0.282926 0.188176 0.967952
O O5 0.182072 0.156856 0.180264
O O6 0.367955 0.161963 0.185431
O O7 0.429713 0.808108 0.952606
O O8 0.922720 0.881574 0.619546
O O9 0.000000 0.500000 0.500000
O O10 0.069031 0.613450 0.722752
O O11 0.500000 0.500000 0.000000
O O12 0.322566 0.584857 0.217075
O O13 0.884832 0.747009 0.348703
O O14 0.102438 0.674041 0.332762
O O15 0.857160 0.090819 0.475005
O O16 0.709172 0.781667 0.525448
O O17 0.706545 0.501620 0.561458
#
# Coordination Sequence:
#
# PCOD8039743 Si02
#       8
#     2   2   2   2   2   2   2   2
#     4  11  24  37  59  94 120 151 193 245 297 350
#     4  11  19  38  62  86 114 155 205 238 281 354
#     4  10  18  34  62  84 114 154 201 236 283 348
#     4  11  23  38  62  86 119 153 200 239 295 345
#     4  10  21  36  62  89 114 152 205 238 285 348
#     4  11  18  39  60  85 117 157 199 236 282 355
#     4  11  22  38  61  89 123 151 191 248 297 340
#     4  11  20  37  63  87 111 152 206 243 276 344
#
# _framework density 19.645384
#
# number of rings (size 3 to 8) (size 9 to 14) (size 15 to 20)
#    0.000    1.250    6.250    2.625    1.750    0.500 
#    0.000    1.875    0.000    1.500    0.000    0.000 
#    0.000    0.000    0.000    0.000    0.000    0.000 
#
# Total GULP energy -198325.865502 kJ/mol
# GULP energy per Si atom -12395.366594 kJ/mol
# Density = 1.960067 g / cm^3
# Si number density = 19.645384 Si / 1000 Ang^3
#
#
#
# Elastic Constant Matrix: (Units=GPa)
#
#
# Indices 1 2 3 4 5 6 
#
# 1 91.9558 32.2659 39.6858 -9.7642 -18.8873 -5.0243
# 2 32.2659 94.0568 23.8184 -11.9094 4.8396 -8.8322
# 3 39.6858 23.8184 64.1746 -6.0534 -21.5570 -6.9395
# 4 -9.7642 -11.9094 -6.0534 27.3490 -6.8218 -3.6487
# 5 -18.8873 4.8396 -21.5570 -6.8218 38.6459 -2.2704
# 6 -5.0243 -8.8322 -6.9395 -3.6487 -2.2704 38.1564
#
#
#
# Elastic Compliance Matrix: (Units=1/GPa)
#
#
# Indices 1 2 3 4 5 6 
#
# 1 0.016707 -0.003746 -0.006433 0.004506 0.005897 0.000945
# 2 -0.003746 0.013739 -0.004088 0.002684 -0.005247 0.001888
# 3 -0.006433 -0.004088 0.026635 0.005775 0.013503 0.004407
# 4 0.004506 0.002684 0.005775 0.044959 0.013456 0.007365
# 5 0.005897 -0.005247 0.013503 0.013456 0.039655 0.005664
# 6 0.000945 0.001888 0.004407 0.007365 0.005664 0.028612
#
#
# Mechanical properties :
#
#
# Convention : Reuss Voigt Hill
#
# Bulk Modulus (GPa) = 35.03043 49.08083 42.05563
# Shear Modulus (GPa) = 23.99713 31.12473 27.56093
#
# Velocity S-wave (km/s) = 3.49881 3.98468 3.74962
# Velocity P-wave (km/s) = 5.84742 6.79764 6.34035
#
# Compressibility (1/GPa) = 0.02854661
#
# Stress axis : x y z
#
# Youngs Moduli (GPa) = 59.85505 72.78392 37.54436
#
# Poissons Ratio (x) = 0.27267 0.24153
# Poissons Ratio (y) = 0.22424 0.15348
# Poissons Ratio (z) = 0.38506 0.29753
#
# Static dielectric constant tensor:
#      x y z
#    x 3.479090 -0.144640 -0.344530 
#    y -0.144640 4.058510 -0.052010 
#    z -0.344530 -0.052010 3.308610 
# 
# 
# High freq. dielectric constant tensor:
#      x y z
#    x 1.748320 -0.009310 -0.046520 
#    y -0.009310 1.781920 -0.000850 
#    z -0.046520 -0.000850 1.737680 
# 
# From -- ./inp_files/258893.got.cif
#   From: 2010.06.25/outbox.cif.g09.slc.cpg/sg2_130_cif.got.tgz:258893.got - 2010.06.27 13:26:56.
