data_PCOD8039634
_publ_section_title
;
Structure prediction by ZEFSAII (Michael W. Deem and Ramdas Pophale) SiO2 
 PCOD8039634
Probable space group: P -1
;
_chemical_formula_sum "Si O2"
_cell_formula_units_Z 16
_cell_length_a 14.915478
_cell_length_b 18.629750
_cell_length_c 12.539395
_cell_angle_alpha 19.415356
_cell_angle_beta 45.598906
_cell_angle_gamma 45.638284
_cell_volume 816.111518
_symmetry_space_group_name_H-M "P -1"
_symmetry_group_IT_number 2
_symmetry_cell_setting 'triclinic'
loop_
_space_group_symop_operation_xyz
x,y,z
-x,-y,-z
loop_
_atom_site_type_symbol
_atom_site_label
_atom_site_fract_x
_atom_site_fract_y
_atom_site_fract_z
Si Si1 0.063169 0.917111 0.254522
Si Si2 0.939844 0.886614 0.614283
Si Si3 0.290117 0.946938 0.896811
Si Si4 0.015874 0.519081 0.723816
Si Si5 0.441535 0.111004 0.286341
Si Si6 0.142706 0.718479 0.164486
Si Si7 0.290510 0.789370 0.745633
Si Si8 0.275578 0.402495 0.169172
O O1 0.004361 0.758144 0.447173
O O2 0.044955 0.849267 0.485983
O O3 0.213419 0.910421 0.119245
O O4 0.988858 0.153280 0.952943
O O5 0.811940 0.025459 0.482801
O O6 0.912018 0.656124 0.006774
O O7 0.000000 0.000000 0.500000
O O8 0.434976 0.816369 0.975714
O O9 0.292054 0.203757 0.517412
O O10 0.219081 0.863835 0.971242
O O11 0.101430 0.513837 0.551141
O O12 0.871886 0.480611 0.878585
O O13 0.333617 0.316465 0.124681
O O14 0.500000 0.000000 0.500000
O O15 0.393959 0.927414 0.510203
O O16 0.233011 0.654860 0.076563
O O17 0.346190 0.598833 0.881250
#
# Coordination Sequence:
#
# PCOD8039634 Si02
#       8
#     2   2   2   2   2   2   2   2
#     4  10  19  34  61  83 114 150 191 234 298 340
#     4  11  23  36  54  85 123 148 189 235 287 352
#     4  10  18  36  57  87 115 145 189 249 282 337
#     4  11  19  35  57  87 114 152 184 236 295 348
#     4  10  21  37  57  86 119 147 198 242 281 329
#     4  10  18  34  58  87 119 140 190 242 292 342
#     4  11  22  37  59  89 117 154 190 239 283 345
#     4  11  19  33  60  82 118 153 187 230 293 334
#
# _framework density 19.605165
#
# number of rings (size 3 to 8) (size 9 to 14) (size 15 to 20)
#    0.000    1.500    6.250    1.875    0.000    3.500 
#    0.000    0.000    0.000    7.500    0.000    0.000 
#    0.000    0.000    0.000    0.000    0.000    0.000 
#
# Total GULP energy -198254.110886 kJ/mol
# GULP energy per Si atom -12390.881930 kJ/mol
# Density = 1.956054 g / cm^3
# Si number density = 19.605165 Si / 1000 Ang^3
#
#
#
# Elastic Constant Matrix: (Units=GPa)
#
#
# Indices 1 2 3 4 5 6 
#
# 1 83.9526 29.0007 26.8933 7.3771 -16.2557 -3.9937
# 2 29.0007 78.2943 39.4426 8.8189 -15.4737 -6.0796
# 3 26.8933 39.4426 85.8848 11.4097 6.1266 -2.6417
# 4 7.3771 8.8189 11.4097 31.8714 8.0469 -6.1290
# 5 -16.2557 -15.4737 6.1266 8.0469 34.4578 0.8094
# 6 -3.9937 -6.0796 -2.6417 -6.1290 0.8094 26.7250
#
#
#
# Elastic Compliance Matrix: (Units=1/GPa)
#
#
# Indices 1 2 3 4 5 6 
#
# 1 0.015807 -0.001570 -0.004319 -0.003700 0.008373 0.000476
# 2 -0.001570 0.020941 -0.009261 -0.004545 0.011319 0.002229
# 3 -0.004319 -0.009261 0.017974 -0.000714 -0.009205 -0.000860
# 4 -0.003700 -0.004545 -0.000714 0.038431 -0.012812 0.007544
# 5 0.008373 0.011319 -0.009205 -0.012812 0.042713 -0.001316
# 6 0.000476 0.002229 -0.000860 0.007544 -0.001316 0.039681
#
#
# Mechanical properties :
#
#
# Convention : Reuss Voigt Hill
#
# Bulk Modulus (GPa) = 40.94839 48.75610 44.85224
# Shear Modulus (GPa) = 23.36576 28.79718 26.08147
#
# Velocity S-wave (km/s) = 3.45601 3.83672 3.65134
# Velocity P-wave (km/s) = 6.07102 6.67460 6.37995
#
# Compressibility (1/GPa) = 0.02442099
#
# Stress axis : x y z
#
# Youngs Moduli (GPa) = 63.26471 47.75274 55.63600
#
# Poissons Ratio (x) = 0.07499 0.24031
# Poissons Ratio (y) = 0.09935 0.51522
# Poissons Ratio (z) = 0.27327 0.44222
#
# Static dielectric constant tensor:
#      x y z
#    x 5.363440 -1.009740 0.439790 
#    y -1.009740 4.531940 -0.220770 
#    z 0.439790 -0.220770 3.325770 
# 
# 
# High freq. dielectric constant tensor:
#      x y z
#    x 1.749650 0.005580 -0.016070 
#    y 0.005580 1.762250 0.000960 
#    z -0.016070 0.000960 1.742330 
# 
# From -- ./inp_files/329046.got.cif
#   From: 2010.06.25/outbox.cif.g09.slc.cpg/sg2_165_cif.got.tgz:329046.got - 2010.06.27 13:26:56.
