data_PCOD8039008
_publ_section_title
;
Structure prediction by ZEFSAII (Michael W. Deem and Ramdas Pophale) SiO2 
 PCOD8039008
Probable space group: P -1
;
_chemical_formula_sum "Si O2"
_cell_formula_units_Z 14
_cell_length_a 11.643211
_cell_length_b 11.366511
_cell_length_c 11.364943
_cell_angle_alpha 118.250535
_cell_angle_beta 60.412932
_cell_angle_gamma 69.633284
_cell_volume 749.596463
_symmetry_space_group_name_H-M "P -1"
_symmetry_group_IT_number 2
_symmetry_cell_setting 'triclinic'
loop_
_space_group_symop_operation_xyz
x,y,z
-x,-y,-z
loop_
_atom_site_type_symbol
_atom_site_label
_atom_site_fract_x
_atom_site_fract_y
_atom_site_fract_z
Si Si1 0.008150 0.417196 0.609804
Si Si2 0.727470 0.833082 0.851185
Si Si3 0.715947 0.570620 0.422875
Si Si4 0.688524 0.761321 0.305409
Si Si5 0.931486 0.375204 0.878603
Si Si6 0.055289 0.828664 0.023988
Si Si7 0.272269 0.913164 0.870749
O O1 0.790367 0.638985 0.779899
O O2 0.980865 0.337900 0.697165
O O3 0.124212 0.243233 0.369222
O O4 0.134325 0.457567 0.585293
O O5 0.500000 0.000000 0.000000
O O6 0.750569 0.923826 0.984270
O O7 0.644259 0.724927 0.431857
O O8 0.507934 0.687251 0.647225
O O9 0.825050 0.356868 0.216249
O O10 0.889879 0.694879 0.170371
O O11 0.500000 0.000000 0.500000
O O12 0.724231 0.620781 0.119802
O O13 0.921279 0.238396 0.883187
O O14 0.150653 0.902275 0.008411
O O15 0.823591 0.011706 0.177917
#
# Coordination Sequence:
#
# PCOD8039008 Si02
#       7
#     2   2   2   2   2   2   2
#     4  10  21  35  56  80 107 138 180 230 269 307
#     4  11  22  37  56  80 104 141 186 226 263 311
#     4  10  18  32  52  80 109 134 174 221 265 312
#     4   9  17  26  49  77 105 138 167 212 268 318
#     4   9  19  33  50  76 112 138 170 220 272 313
#     4  10  21  36  52  82 115 142 171 217 271 328
#     4  11  21  34  57  79 110 146 181 213 263 325
#
# _framework density 18.676718000000001
#
# number of rings (size 3 to 8) (size 9 to 14) (size 15 to 20)
#    0.000    2.000    2.857    2.143    2.000    0.000 
#    0.000    0.714    0.000    0.857    0.000    0.000 
#    0.000    0.000    0.000    0.000    0.000    0.000 
#
# Total GULP energy -173481.814971 kJ/mol
# GULP energy per Si atom -12391.558212 kJ/mol
# Density = 1.863421 g / cm^3
# Si number density = 18.676718 Si / 1000 Ang^3
#
#
#
# Elastic Constant Matrix: (Units=GPa)
#
#
# Indices 1 2 3 4 5 6 
#
# 1 39.5765 8.5024 10.4607 0.2257 -11.9613 -1.1378
# 2 8.5024 101.1591 22.9780 -4.1949 -9.5174 -6.7482
# 3 10.4607 22.9780 69.9446 7.7623 -13.8210 -8.6060
# 4 0.2257 -4.1949 7.7623 32.7182 -8.0228 0.2522
# 5 -11.9613 -9.5174 -13.8210 -8.0228 22.7893 1.0852
# 6 -1.1378 -6.7482 -8.6060 0.2522 1.0852 21.7922
#
#
#
# Elastic Compliance Matrix: (Units=1/GPa)
#
#
# Indices 1 2 3 4 5 6 
#
# 1 0.030738 -0.000498 -0.001665 0.004135 0.016374 -0.000070
# 2 -0.000498 0.011202 -0.002981 0.003006 0.003569 0.002053
# 3 -0.001665 -0.002981 0.018043 -0.002845 0.007547 0.005772
# 4 0.004135 0.003006 -0.002845 0.035060 0.014095 -0.001084
# 5 0.016374 0.003569 0.007547 0.014095 0.063427 0.001619
# 6 -0.000070 0.002053 0.005772 -0.001084 0.001619 0.048732
#
#
# Mechanical properties :
#
#
# Convention : Reuss Voigt Hill
#
# Bulk Modulus (GPa) = 20.12346 32.72916 26.42631
# Shear Modulus (GPa) = 21.36248 26.70920 24.03584
#
# Velocity S-wave (km/s) = 3.38568 3.78574 3.59129
# Velocity P-wave (km/s) = 5.10704 6.05568 5.60147
#
# Compressibility (1/GPa) = 0.04969325
#
# Stress axis : x y z
#
# Youngs Moduli (GPa) = 32.53306 89.27057 55.42403
#
# Poissons Ratio (x) = 0.04445 0.09231
# Poissons Ratio (y) = 0.01620 0.16523
# Poissons Ratio (z) = 0.05418 0.26614
#
# Static dielectric constant tensor:
#      x y z
#    x 3.603730 -0.578590 0.820380 
#    y -0.578590 4.289720 -1.372120 
#    z 0.820380 -1.372120 6.028220 
# 
# 
# High freq. dielectric constant tensor:
#      x y z
#    x 1.685040 -0.008430 -0.009570 
#    y -0.008430 1.726100 0.008370 
#    z -0.009570 0.008370 1.733210 
# 
# From -- ./inp_files/65871.got.cif
#   From: 2010.06.25/outbox.cif.g09.slc.cpg/sg2_33_cif.got.tgz:65871.got - 2010.06.27 13:26:56.
