data_PCOD8039744
_publ_section_title
;
Structure prediction by ZEFSAII (Michael W. Deem and Ramdas Pophale) SiO2 
 PCOD8039744
Probable space group: P -1
;
_chemical_formula_sum "Si O2"
_cell_formula_units_Z 14
_cell_length_a 9.059643
_cell_length_b 8.694869
_cell_length_c 12.401514
_cell_angle_alpha 51.489551
_cell_angle_beta 125.945925
_cell_angle_gamma 110.873297
_cell_volume 618.784504
_symmetry_space_group_name_H-M "P -1"
_symmetry_group_IT_number 2
_symmetry_cell_setting 'triclinic'
loop_
_space_group_symop_operation_xyz
x,y,z
-x,-y,-z
loop_
_atom_site_type_symbol
_atom_site_label
_atom_site_fract_x
_atom_site_fract_y
_atom_site_fract_z
Si Si1 0.000145 0.292191 0.321277
Si Si2 0.701959 0.027703 0.375089
Si Si3 0.652232 0.905364 0.180338
Si Si4 0.656247 0.109838 0.631900
Si Si5 0.493267 0.487699 0.631899
Si Si6 0.146583 0.686866 0.174765
Si Si7 0.004552 0.896364 0.820332
O O1 0.024425 0.523737 0.254475
O O2 0.955596 0.260022 0.189219
O O3 0.839691 0.211556 0.366730
O O4 0.188170 0.178027 0.477056
O O5 0.628034 0.035874 0.219082
O O6 0.520194 0.030769 0.369458
O O7 0.635096 0.675751 0.300454
O O8 0.850136 0.929010 0.200620
O O9 0.500000 0.000000 0.000000
O O10 0.585159 0.302918 0.452299
O O11 0.755272 0.167900 0.762099
O O12 0.802777 0.991793 0.673428
O O13 0.500000 0.500000 0.500000
O O14 0.700745 0.431484 0.779795
O O15 0.017116 0.803475 0.985302
#
# Coordination Sequence:
#
# PCOD8039744 Si02
#       7
#     2   2   2   2   2   2   2
#     4  10  22  37  62  83 119 162 209 233 291 373
#     4  10  19  38  59  85 116 165 201 233 298 370
#     4  11  19  36  61  93 118 154 206 252 286 352
#     4  11  21  38  64  88 120 155 202 251 304 344
#     4  10  18  34  62  85 112 156 201 234 285 359
#     4  11  19  39  62  88 115 164 203 242 293 368
#     4  11  24  35  59  94 126 148 195 263 305 337
#
# _framework density 22.625001000000001
#
# number of rings (size 3 to 8) (size 9 to 14) (size 15 to 20)
#    0.000    1.429    5.714    1.714    0.000    1.143 
#    0.000    0.714    0.000    0.000    0.000    0.000 
#    0.000    0.000    0.000    0.000    0.000    0.000 
#
# Total GULP energy -173510.108478 kJ/mol
# GULP energy per Si atom -12393.579177 kJ/mol
# Density = 2.257351 g / cm^3
# Si number density = 22.625001 Si / 1000 Ang^3
#
#
#
# Elastic Constant Matrix: (Units=GPa)
#
#
# Indices 1 2 3 4 5 6 
#
# 1 138.1523 36.5173 21.7267 -26.9117 7.4005 40.1087
# 2 36.5173 63.9356 12.0337 -15.6476 -4.2000 30.9224
# 3 21.7267 12.0337 74.4197 -14.4467 -1.6659 16.7412
# 4 -26.9117 -15.6476 -14.4467 33.3280 8.2905 -7.1306
# 5 7.4005 -4.2000 -1.6659 8.2905 33.2937 -6.3318
# 6 40.1087 30.9224 16.7412 -7.1306 -6.3318 39.9728
#
#
#
# Elastic Compliance Matrix: (Units=1/GPa)
#
#
# Indices 1 2 3 4 5 6 
#
# 1 0.013428 0.001054 0.000986 0.010785 -0.008164 -0.014071
# 2 0.001054 0.027747 0.002224 0.011009 -0.003558 -0.022053
# 3 0.000986 0.002224 0.016137 0.007674 -0.002663 -0.008521
# 4 0.010785 0.011009 0.007674 0.047553 -0.015612 -0.016543
# 5 -0.008164 -0.003558 -0.002663 -0.015612 0.038067 0.015305
# 6 -0.014071 -0.022053 -0.008521 -0.016543 0.015305 0.059238
#
#
# Mechanical properties :
#
#
# Convention : Reuss Voigt Hill
#
# Bulk Modulus (GPa) = 15.18864 46.34035 30.76450
# Shear Modulus (GPa) = 23.19222 35.06756 29.12989
#
# Velocity S-wave (km/s) = 3.20515 3.94121 3.59208
# Velocity P-wave (km/s) = 4.51941 6.42162 5.55258
#
# Compressibility (1/GPa) = 0.06583870
#
# Stress axis : x y z
#
# Youngs Moduli (GPa) = 74.46899 36.04011 61.97000
#
# Poissons Ratio (x) = -0.03797 -0.06108
# Poissons Ratio (y) = -0.07846 -0.13783
# Poissons Ratio (z) = -0.07340 -0.08016
#
# Static dielectric constant tensor:
#      x y z
#    x 4.200410 0.344590 0.153650 
#    y 0.344590 3.990870 -0.114520 
#    z 0.153650 -0.114520 4.341410 
# 
# 
# High freq. dielectric constant tensor:
#      x y z
#    x 1.879170 0.037420 -0.002100 
#    y 0.037420 1.871950 0.008090 
#    z -0.002100 0.008090 1.898760 
# 
# From -- ./inp_files/259106.got.cif
#   From: 2010.06.25/outbox.cif.g09.slc.cpg/sg2_130_cif.got.tgz:259106.got - 2010.06.27 13:26:56.
