data_PCOD8039877
_publ_section_title
;
Structure prediction by ZEFSAII (Michael W. Deem and Ramdas Pophale) SiO2 
 PCOD8039877
Probable space group: P -1
;
_chemical_formula_sum "Si O2"
_cell_formula_units_Z 14
_cell_length_a 11.784735
_cell_length_b 22.838136
_cell_length_c 8.965240
_cell_angle_alpha 141.316709
_cell_angle_beta 125.753148
_cell_angle_gamma 27.140119
_cell_volume 634.316022
_symmetry_space_group_name_H-M "P -1"
_symmetry_group_IT_number 2
_symmetry_cell_setting 'triclinic'
loop_
_space_group_symop_operation_xyz
x,y,z
-x,-y,-z
loop_
_atom_site_type_symbol
_atom_site_label
_atom_site_fract_x
_atom_site_fract_y
_atom_site_fract_z
Si Si1 0.372912 0.294110 0.517199
Si Si2 0.104485 0.307974 0.161721
Si Si3 0.206077 0.501617 0.069495
Si Si4 0.375922 0.170104 0.785300
Si Si5 0.198218 0.669283 0.160837
Si Si6 0.373424 0.780861 0.942920
Si Si7 0.822197 0.117462 0.323177
O O1 0.270542 0.244820 0.312208
O O2 0.672811 0.138415 0.372353
O O3 0.173674 0.474827 0.629450
O O4 0.357144 0.332573 0.754623
O O5 0.302465 0.217505 0.996958
O O6 0.008552 0.254190 0.972198
O O7 0.190393 0.607629 0.177501
O O8 0.895845 0.652180 0.166297
O O9 0.374312 0.418283 0.184895
O O10 0.592240 0.126651 0.831443
O O11 0.500000 0.000000 0.500000
O O12 0.095721 0.831087 0.438909
O O13 0.500000 0.500000 0.000000
O O14 0.364947 0.756452 0.714782
O O15 0.097317 0.908661 0.067921
#
# Coordination Sequence:
#
# PCOD8039877 Si02
#       7
#     2   2   2   2   2   2   2
#     4   9  17  35  57  84 105 155 193 235 279 341
#     4   9  17  31  60  82 105 144 201 230 271 345
#     4  10  22  36  60  88 116 149 197 246 285 332
#     4  10  19  37  60  84 116 155 190 232 293 354
#     4  10  18  35  57  86 109 152 194 235 287 339
#     4  11  23  36  56  91 118 152 194 240 290 344
#     4  11  21  37  61  81 119 159 195 229 292 352
#
# _framework density 22.071019
#
# number of rings (size 3 to 8) (size 9 to 14) (size 15 to 20)
#    0.000    2.286    4.286    2.143    0.000    1.143 
#    0.000    0.000    0.000    3.429    0.000    0.000 
#    0.000    0.000    0.000    0.000    0.000    0.000 
#
# Total GULP energy -173512.938501 kJ/mol
# GULP energy per Si atom -12393.781321 kJ/mol
# Density = 2.202078 g / cm^3
# Si number density = 22.071019 Si / 1000 Ang^3
#
#
#
# Elastic Constant Matrix: (Units=GPa)
#
#
# Indices 1 2 3 4 5 6 
#
# 1 59.5462 15.8178 17.4178 -5.7159 3.0697 -32.6967
# 2 15.8178 80.8681 20.5385 -12.3387 -0.8114 -17.3604
# 3 17.4178 20.5385 70.4640 -0.0292 0.4906 -11.9537
# 4 -5.7159 -12.3387 -0.0292 27.2118 -18.7718 1.9606
# 5 3.0697 -0.8114 0.4906 -18.7718 38.5384 -0.1397
# 6 -32.6967 -17.3604 -11.9537 1.9606 -0.1397 30.4021
#
#
#
# Elastic Compliance Matrix: (Units=1/GPa)
#
#
# Indices 1 2 3 4 5 6 
#
# 1 0.043264 0.003748 -0.003876 0.007907 0.000703 0.046638
# 2 0.003748 0.016925 -0.003959 0.011654 0.005826 0.011414
# 3 -0.003876 -0.003959 0.016357 -0.003911 -0.001887 0.000245
# 4 0.007907 0.011654 -0.003911 0.064446 0.031091 0.009608
# 5 0.000703 0.005826 -0.001887 0.031091 0.041189 0.001525
# 6 0.046638 0.011414 0.000245 0.009608 0.001525 0.089052
#
#
# Mechanical properties :
#
#
# Convention : Reuss Voigt Hill
#
# Bulk Modulus (GPa) = 14.62625 35.38074 25.00349
# Shear Modulus (GPa) = 16.54544 29.70407 23.12475
#
# Velocity S-wave (km/s) = 2.74094 3.67255 3.24040
# Velocity P-wave (km/s) = 4.08145 5.83513 5.03522
#
# Compressibility (1/GPa) = 0.06837022
#
# Stress axis : x y z
#
# Youngs Moduli (GPa) = 23.11408 59.08347 61.13615
#
# Poissons Ratio (x) = -0.22143 0.23699
# Poissons Ratio (y) = -0.08662 0.24205
# Poissons Ratio (z) = 0.08960 0.23392
#
# Static dielectric constant tensor:
#      x y z
#    x 4.055360 -0.708650 0.091110 
#    y -0.708650 4.047150 -0.415960 
#    z 0.091110 -0.415960 4.211890 
# 
# 
# High freq. dielectric constant tensor:
#      x y z
#    x 1.849610 -0.043370 -0.011090 
#    y -0.043370 1.852110 -0.011820 
#    z -0.011090 -0.011820 1.863840 
# 
# From -- ./inp_files/277895.got.cif
#   From: 2010.06.25/outbox.cif.g09.slc.cpg/sg2_139_cif.got.tgz:277895.got - 2010.06.27 13:26:56.
