data_PCOD8039305
_publ_section_title
;
Structure prediction by ZEFSAII (Michael W. Deem and Ramdas Pophale) SiO2 
 PCOD8039305
Probable space group: P -1
;
_chemical_formula_sum "Si O2"
_cell_formula_units_Z 14
_cell_length_a 20.979246
_cell_length_b 10.778780
_cell_length_c 11.281476
_cell_angle_alpha 48.802989
_cell_angle_beta 146.646326
_cell_angle_gamma 152.917787
_cell_volume 600.563855
_symmetry_space_group_name_H-M "P -1"
_symmetry_group_IT_number 2
_symmetry_cell_setting 'triclinic'
loop_
_space_group_symop_operation_xyz
x,y,z
-x,-y,-z
loop_
_atom_site_type_symbol
_atom_site_label
_atom_site_fract_x
_atom_site_fract_y
_atom_site_fract_z
Si Si1 0.627753 0.246673 0.216394
Si Si2 0.093207 0.472050 0.320272
Si Si3 0.214830 0.151550 0.189331
Si Si4 0.936787 0.651105 0.907832
Si Si5 0.202712 0.832113 0.756328
Si Si6 0.560661 0.303080 0.697885
Si Si7 0.963918 0.681513 0.278009
O O1 0.692047 0.306491 0.417093
O O2 0.801751 0.524632 0.228418
O O3 0.559509 0.981150 0.239909
O O4 0.432694 0.133272 0.964738
O O5 0.090455 0.358882 0.269419
O O6 0.923288 0.213443 0.312906
O O7 0.050456 0.612553 0.135850
O O8 0.402801 0.244324 0.429847
O O9 0.303655 0.442557 0.150775
O O10 0.055744 0.945267 0.183512
O O11 0.091201 0.975386 0.986929
O O12 0.710208 0.401533 0.768170
O O13 0.126056 0.549234 0.816544
O O14 0.163368 0.842733 0.553608
#
# Coordination Sequence:
#
# PCOD8039305 Si02
#       7
#     2   2   2   2   2   2   2
#     4  11  20  36  59  89 114 147 193 240 288 333
#     4  10  21  34  57  85 119 148 190 243 284 334
#     4  11  22  39  55  87 122 148 186 236 288 351
#     4  11  21  37  55  84 120 154 187 237 291 335
#     4  10  18  33  56  83 115 146 186 241 284 330
#     4  11  22  35  59  85 118 150 188 235 292 343
#     4  10  20  35  57  84 118 150 188 237 286 343
#
# _framework density 23.311425
#
# number of rings (size 3 to 8) (size 9 to 14) (size 15 to 20)
#    0.000    1.429    4.286    2.571    0.000    2.857 
#    0.000    0.000    0.000    3.429    0.000   33.000 
#    0.000    0.000    0.000    0.000    0.000    0.000 
#
# Total GULP energy -173528.924920 kJ/mol
# GULP energy per Si atom -12394.923209 kJ/mol
# Density = 2.325837 g / cm^3
# Si number density = 23.311425 Si / 1000 Ang^3
#
#
#
# Elastic Constant Matrix: (Units=GPa)
#
#
# Indices 1 2 3 4 5 6 
#
# 1 126.4213 37.6082 59.0526 11.6752 -25.1130 7.4405
# 2 37.6082 92.5269 31.1227 3.1903 -16.6380 -1.4691
# 3 59.0526 31.1227 154.1083 35.2586 -20.6047 9.5823
# 4 11.6752 3.1903 35.2586 32.2669 -1.2576 -0.8931
# 5 -25.1130 -16.6380 -20.6047 -1.2576 37.0810 0.2422
# 6 7.4405 -1.4691 9.5823 -0.8931 0.2422 23.6674
#
#
#
# Elastic Compliance Matrix: (Units=1/GPa)
#
#
# Indices 1 2 3 4 5 6 
#
# 1 0.011200 -0.002775 -0.002785 -0.000622 0.004789 -0.002638
# 2 -0.002775 0.013041 -0.001718 0.001778 0.003062 0.002413
# 3 -0.002785 -0.001718 0.011084 -0.010926 0.003159 -0.004163
# 4 -0.000622 0.001778 -0.010926 0.042990 -0.004278 0.006396
# 5 0.004789 0.003062 0.003159 -0.004278 0.033216 -0.003096
# 6 -0.002638 0.002413 -0.004163 0.006396 -0.003096 0.045190
#
#
# Mechanical properties :
#
#
# Convention : Reuss Voigt Hill
#
# Bulk Modulus (GPa) = 48.14583 69.84704 58.99644
# Shear Modulus (GPa) = 28.05831 34.95459 31.50645
#
# Velocity S-wave (km/s) = 3.47310 3.87649 3.68033
# Velocity P-wave (km/s) = 6.06477 7.07558 6.58958
#
# Compressibility (1/GPa) = 0.02077023
#
# Stress axis : x y z
#
# Youngs Moduli (GPa) = 89.28223 76.68114 90.21967
#
# Poissons Ratio (x) = 0.21280 0.25125
# Poissons Ratio (y) = 0.24776 0.15497
# Poissons Ratio (z) = 0.24864 0.13171
#
# Static dielectric constant tensor:
#      x y z
#    x 4.107360 0.090710 -0.016540 
#    y 0.090710 3.871260 0.165210 
#    z -0.016540 0.165210 4.900280 
# 
# 
# High freq. dielectric constant tensor:
#      x y z
#    x 1.893420 0.019190 0.004750 
#    y 0.019190 1.892840 0.009840 
#    z 0.004750 0.009840 1.966920 
# 
# From -- ./inp_files/470973.got.cif
#   From: 2010.06.25/outbox.cif.g09.slc.cpg/sg2_236_cif.got.tgz:470973.got - 2010.06.27 13:26:56.
