data_PCOD8039409
_publ_section_title
;
Structure prediction by ZEFSAII (Michael W. Deem and Ramdas Pophale) SiO2 
 PCOD8039409
Probable space group: P -1
;
_chemical_formula_sum "Si O2"
_cell_formula_units_Z 16
_cell_length_a 15.106094
_cell_length_b 14.202381
_cell_length_c 9.907231
_cell_angle_alpha 82.277983
_cell_angle_beta 39.873813
_cell_angle_gamma 51.985885
_cell_volume 797.256685
_symmetry_space_group_name_H-M "P -1"
_symmetry_group_IT_number 2
_symmetry_cell_setting 'triclinic'
loop_
_space_group_symop_operation_xyz
x,y,z
-x,-y,-z
loop_
_atom_site_type_symbol
_atom_site_label
_atom_site_fract_x
_atom_site_fract_y
_atom_site_fract_z
Si Si1 0.673408 0.651354 0.250975
Si Si2 0.801360 0.062454 0.134377
Si Si3 0.562316 0.657450 0.893347
Si Si4 0.144566 0.014478 0.351060
Si Si5 0.771272 0.248886 0.933009
Si Si6 0.426972 0.446186 0.829437
Si Si7 0.092939 0.537742 0.710152
Si Si8 0.953302 0.213885 0.281066
O O1 0.418124 0.839563 0.532211
O O2 0.648228 0.568057 0.213260
O O3 0.773022 0.577651 0.296519
O O4 0.834919 0.635777 0.984084
O O5 0.729097 0.176824 0.080695
O O6 0.000000 0.000000 0.000000
O O7 0.886852 0.915681 0.001020
O O8 0.773555 0.565671 0.563172
O O9 0.395625 0.669933 0.018271
O O10 0.669848 0.552485 0.923689
O O11 0.418913 0.833921 0.065988
O O12 0.043421 0.110573 0.593947
O O13 0.088358 0.121725 0.280727
O O14 0.000000 0.000000 0.500000
O O15 0.691648 0.385003 0.083153
O O16 0.706303 0.296890 0.546650
O O17 0.078713 0.657502 0.724057
#
# Coordination Sequence:
#
# PCOD8039409 Si02
#       8
#     2   2   2   2   2   2   2   2
#     4  11  26  44  57  89 124 165 201 251 296 359
#     4  12  23  36  61  92 125 152 199 258 304 342
#     4  11  19  38  62  90 120 159 194 249 301 357
#     4  10  18  33  59  95 121 147 191 252 306 354
#     4  11  20  35  59  96 119 152 195 259 302 354
#     4  12  22  35  66  94 117 150 212 253 297 347
#     4  11  25  43  63  82 126 167 205 237 303 368
#     4  12  20  36  65  93 113 159 200 251 298 359
#
# _framework density 20.068819000000001
#
# number of rings (size 3 to 8) (size 9 to 14) (size 15 to 20)
#    0.000    0.750    8.750    1.125    1.750    2.000 
#    0.000    0.000    0.000    1.500    0.000    0.000 
#    0.000    0.000    0.000    0.000    0.000    0.000 
#
# Total GULP energy -198403.933048 kJ/mol
# GULP energy per Si atom -12400.245816 kJ/mol
# Density = 2.002314 g / cm^3
# Si number density = 20.068819 Si / 1000 Ang^3
#
#
#
# Elastic Constant Matrix: (Units=GPa)
#
#
# Indices 1 2 3 4 5 6 
#
# 1 43.9965 -3.3677 35.3808 8.2080 2.3856 7.8257
# 2 -3.3677 39.4911 31.3253 3.8402 -2.7130 0.7143
# 3 35.3808 31.3253 174.3492 14.1673 8.7852 13.0236
# 4 8.2080 3.8402 14.1673 25.7563 6.3518 3.2385
# 5 2.3856 -2.7130 8.7852 6.3518 28.7081 4.1138
# 6 7.8257 0.7143 13.0236 3.2385 4.1138 16.0278
#
#
#
# Elastic Compliance Matrix: (Units=1/GPa)
#
#
# Indices 1 2 3 4 5 6 
#
# 1 0.032036 0.009446 -0.007046 -0.007360 0.003409 -0.009726
# 2 0.009446 0.033172 -0.007737 -0.005118 0.005890 -0.000282
# 3 -0.007046 -0.007737 0.008927 -0.000585 -0.002354 -0.002746
# 4 -0.007360 -0.005118 -0.000585 0.044843 -0.009273 -0.002383
# 5 0.003409 0.005890 -0.002354 -0.009273 0.039049 -0.008163
# 6 -0.009726 -0.000282 -0.002746 -0.002383 -0.008163 0.071961
#
#
# Mechanical properties :
#
#
# Convention : Reuss Voigt Hill
#
# Bulk Modulus (GPa) = 15.75716 42.72373 29.24044
# Shear Modulus (GPa) = 19.09753 27.06499 23.08126
#
# Velocity S-wave (km/s) = 3.08815 3.67633 3.39500
# Velocity P-wave (km/s) = 4.53698 6.27338 5.47446
#
# Compressibility (1/GPa) = 0.06346323
#
# Stress axis : x y z
#
# Youngs Moduli (GPa) = 31.21470 30.14564 112.02210
#
# Poissons Ratio (x) = -0.28477 0.78926
# Poissons Ratio (y) = -0.29487 0.86671
# Poissons Ratio (z) = 0.21992 0.23323
#
# Static dielectric constant tensor:
#      x y z
#    x 4.034390 -1.023770 1.072510 
#    y -1.023770 5.184710 -0.995510 
#    z 1.072510 -0.995510 5.263340 
# 
# 
# High freq. dielectric constant tensor:
#      x y z
#    x 1.750950 -0.007510 0.029110 
#    y -0.007510 1.779200 0.012880 
#    z 0.029110 0.012880 1.794660 
# 
# From -- ./inp_files/179129.got.cif
#   From: 2010.06.25/outbox.cif.g09.slc.cpg/sg2_90_cif.got.tgz:179129.got - 2010.06.27 13:26:56.
