data_PCOD8039425
_publ_section_title
;
Structure prediction by ZEFSAII (Michael W. Deem and Ramdas Pophale) SiO2 
 PCOD8039425
Probable space group: P -1
;
_chemical_formula_sum "Si O2"
_cell_formula_units_Z 16
_cell_length_a 9.847579
_cell_length_b 8.868667
_cell_length_c 14.443540
_cell_angle_alpha 73.560001
_cell_angle_beta 58.056985
_cell_angle_gamma 46.065833
_cell_volume 763.513879
_symmetry_space_group_name_H-M "P -1"
_symmetry_group_IT_number 2
_symmetry_cell_setting 'triclinic'
loop_
_space_group_symop_operation_xyz
x,y,z
-x,-y,-z
loop_
_atom_site_type_symbol
_atom_site_label
_atom_site_fract_x
_atom_site_fract_y
_atom_site_fract_z
Si Si1 0.224895 0.018935 0.553153
Si Si2 0.178947 0.846351 0.040488
Si Si3 0.094301 0.585081 0.505624
Si Si4 0.033488 0.559278 0.745937
Si Si5 0.467882 0.329302 0.288498
Si Si6 0.341369 0.416491 0.122935
Si Si7 0.371669 0.111165 0.654240
Si Si8 0.882655 0.174634 0.237943
O O1 0.236725 0.144614 0.606981
O O2 0.032057 0.177888 0.524124
O O3 0.448774 0.878774 0.440606
O O4 0.182507 0.876348 0.636889
O O5 0.236572 0.623236 0.063099
O O6 0.406492 0.784998 0.952333
O O7 0.090336 0.961993 0.151326
O O8 0.000000 0.000000 0.000000
O O9 0.071105 0.590008 0.622304
O O10 0.343704 0.436797 0.411536
O O11 0.000000 0.500000 0.500000
O O12 0.204664 0.307512 0.749026
O O13 0.070775 0.675904 0.782781
O O14 0.792893 0.654087 0.834038
O O15 0.322604 0.475730 0.228327
O O16 0.682193 0.294850 0.218220
O O17 0.526497 0.106166 0.294059
#
# Coordination Sequence:
#
# PCOD8039425 Si02
#       8
#     2   2   2   2   2   2   2   2
#     4  10  19  35  59  88 124 176 212 257 297 379
#     4  11  24  46  75  95 117 163 221 271 316 380
#     4  12  19  34  62  93 126 166 224 250 299 382
#     4  12  24  38  60  98 133 167 203 265 320 379
#     4  11  20  38  67  93 124 170 216 261 299 386
#     4  11  23  43  76  96 117 165 224 258 315 383
#     4  10  18  33  60  90 125 171 216 244 307 371
#     4  11  25  40  60  93 135 163 208 268 332 362
#
# _framework density 20.955742000000001
#
# number of rings (size 3 to 8) (size 9 to 14) (size 15 to 20)
#    0.000    1.000    5.000    3.750    0.000    3.000 
#    0.000    4.375    0.000    0.000    0.000    0.000 
#    0.000    0.000    0.000    0.000    0.000    0.000 
#
# Total GULP energy -198384.742315 kJ/mol
# GULP energy per Si atom -12399.046395 kJ/mol
# Density = 2.090805 g / cm^3
# Si number density = 20.955742 Si / 1000 Ang^3
#
#
#
# Elastic Constant Matrix: (Units=GPa)
#
#
# Indices 1 2 3 4 5 6 
#
# 1 102.8743 49.7662 43.8923 6.5212 -29.1994 10.3540
# 2 49.7662 97.8350 25.7413 -3.5186 -9.6681 -19.1861
# 3 43.8923 25.7413 84.4122 6.1555 -29.9835 -2.2018
# 4 6.5212 -3.5186 6.1555 36.2966 -10.3023 3.2429
# 5 -29.1994 -9.6681 -29.9835 -10.3023 33.1542 -0.4185
# 6 10.3540 -19.1861 -2.2018 3.2429 -0.4185 25.9078
#
#
#
# Elastic Compliance Matrix: (Units=1/GPa)
#
#
# Indices 1 2 3 4 5 6 
#
# 1 0.023666 -0.013501 -0.004068 0.000625 0.013173 -0.019667
# 2 -0.013501 0.020812 -0.001075 0.001031 -0.006214 0.020487
# 3 -0.004068 -0.001075 0.019187 0.001067 0.013820 0.002550
# 4 0.000625 0.001031 0.001067 0.030858 0.011367 -0.003075
# 5 0.013173 -0.006214 0.013820 0.011367 0.055866 -0.009212
# 6 -0.019667 0.020487 0.002550 -0.003075 -0.009212 0.062083
#
#
# Mechanical properties :
#
#
# Convention : Reuss Voigt Hill
#
# Bulk Modulus (GPa) = 37.90981 58.21346 48.06164
# Shear Modulus (GPa) = 19.33835 30.11983 24.72909
#
# Velocity S-wave (km/s) = 3.04109 3.79530 3.43893
# Velocity P-wave (km/s) = 5.51912 6.85895 6.22519
#
# Compressibility (1/GPa) = 0.02637839
#
# Stress axis : x y z
#
# Youngs Moduli (GPa) = 42.25416 48.04870 52.11774
#
# Poissons Ratio (x) = 0.64869 0.21203
# Poissons Ratio (y) = 0.57046 0.05601
# Poissons Ratio (z) = 0.17190 0.05164
#
# Static dielectric constant tensor:
#      x y z
#    x 3.632290 -0.245590 -0.316690 
#    y -0.245590 3.933190 0.047870 
#    z -0.316690 0.047870 3.957780 
# 
# 
# High freq. dielectric constant tensor:
#      x y z
#    x 1.795430 -0.024720 -0.029000 
#    y -0.024720 1.819610 -0.004660 
#    z -0.029000 -0.004660 1.816580 
# 
# From -- ./inp_files/216050.got.cif
#   From: 2010.06.25/outbox.cif.g09.slc.cpg/sg2_109_cif.got.tgz:216050.got - 2010.06.27 13:26:56.
