data_PCOD8039654
_publ_section_title
;
Structure prediction by ZEFSAII (Michael W. Deem and Ramdas Pophale) SiO2 
 PCOD8039654
Probable space group: P -1
;
_chemical_formula_sum "Si O2"
_cell_formula_units_Z 16
_cell_length_a 17.608754
_cell_length_b 13.003542
_cell_length_c 7.944299
_cell_angle_alpha 113.160086
_cell_angle_beta 66.249818
_cell_angle_gamma 156.531100
_cell_volume 661.665160
_symmetry_space_group_name_H-M "P -1"
_symmetry_group_IT_number 2
_symmetry_cell_setting 'triclinic'
loop_
_space_group_symop_operation_xyz
x,y,z
-x,-y,-z
loop_
_atom_site_type_symbol
_atom_site_label
_atom_site_fract_x
_atom_site_fract_y
_atom_site_fract_z
Si Si1 0.473005 0.760114 0.619918
Si Si2 0.250614 0.294863 0.116930
Si Si3 0.130632 0.023072 0.742550
Si Si4 0.148662 0.699255 0.247446
Si Si5 0.894155 0.529971 0.573727
Si Si6 0.222050 0.243793 0.481266
Si Si7 0.473341 0.774800 0.265090
Si Si8 0.657583 0.172816 0.113997
O O1 0.337539 0.491065 0.607465
O O2 0.573084 0.870872 0.416889
O O3 0.330309 0.694767 0.716131
O O4 0.654450 0.987894 0.730862
O O5 0.299594 0.302876 0.263978
O O6 0.408148 0.580463 0.108558
O O7 0.258145 0.206258 0.912544
O O8 0.043310 0.100708 0.184896
O O9 0.249068 0.182372 0.563309
O O10 0.065554 0.815278 0.678316
O O11 0.168065 0.636732 0.343200
O O12 0.962680 0.551866 0.351426
O O13 0.144051 0.624046 0.027006
O O14 0.714498 0.388231 0.606107
O O15 0.000000 0.000000 0.500000
O O16 0.606724 0.010093 0.180078
O O17 0.500000 0.000000 0.000000
#
# Coordination Sequence:
#
# PCOD8039654 Si02
#       8
#     2   2   2   2   2   2   2   2
#     4  10  20  34  59  81 110 143 182 230 280 322
#     4   8  17  29  51  83 103 135 180 236 263 317
#     4   9  17  30  55  74 106 144 181 217 277 327
#     4  10  22  36  55  79 116 145 179 230 276 328
#     4  10  20  37  55  79 114 149 179 222 283 331
#     4   9  18  32  50  84 111 134 180 238 273 316
#     4  10  18  34  59  80 110 140 186 229 273 325
#     4  10  19  31  54  87 103 142 188 229 264 326
#
# _framework density 24.181414
#
# number of rings (size 3 to 8) (size 9 to 14) (size 15 to 20)
#    0.000    2.500    2.500    1.125    3.500    2.000 
#    0.000    1.250    2.750    1.500    0.000    0.000 
#    0.000    0.000    0.000    0.000    0.000    0.000 
#
# Total GULP energy -198246.575444 kJ/mol
# GULP energy per Si atom -12390.410965 kJ/mol
# Density = 2.412638 g / cm^3
# Si number density = 24.181414 Si / 1000 Ang^3
#
#
#
# Elastic Constant Matrix: (Units=GPa)
#
#
# Indices 1 2 3 4 5 6 
#
# 1 8.8379 11.3281 -2.5419 -2.2203 2.6771 -5.4732
# 2 11.3281 79.3070 15.8122 -3.8018 -6.4925 -24.6355
# 3 -2.5419 15.8122 115.9871 -8.8893 -4.8143 -5.0339
# 4 -2.2203 -3.8018 -8.8893 32.0945 -2.2646 -6.5112
# 5 2.6771 -6.4925 -4.8143 -2.2646 25.0293 -5.1817
# 6 -5.4732 -24.6355 -5.0339 -6.5112 -5.1817 21.3015
#
#
#
# Elastic Compliance Matrix: (Units=1/GPa)
#
#
# Indices 1 2 3 4 5 6 
#
# 1 0.160469 -0.017293 0.007509 0.015078 -0.013820 0.024253
# 2 -0.017293 0.028053 -0.001207 0.010084 0.017041 0.034943
# 3 0.007509 -0.001207 0.009544 0.004082 0.002027 0.004530
# 4 0.015078 0.010084 0.004082 0.041946 0.012272 0.032308
# 5 -0.013820 0.017041 0.002027 0.012272 0.054307 0.033598
# 6 0.024253 0.034943 0.004530 0.032308 0.033598 0.112707
#
#
# Mechanical properties :
#
#
# Convention : Reuss Voigt Hill
#
# Bulk Modulus (GPa) = 5.67912 28.14764 16.91338
# Shear Modulus (GPa) = 10.25213 27.65397 18.95305
#
# Velocity S-wave (km/s) = 2.06128 3.38539 2.80265
# Velocity P-wave (km/s) = 2.83175 5.19101 4.18123
#
# Compressibility (1/GPa) = 0.17608375
#
# Stress axis : x y z
#
# Youngs Moduli (GPa) = 6.23174 35.64713 104.77464
#
# Poissons Ratio (x) = 0.61645 -0.78673
# Poissons Ratio (y) = 0.10777 0.12643
# Poissons Ratio (z) = -0.04679 0.04301
#
# Static dielectric constant tensor:
#      x y z
#    x 4.059130 -0.166080 -0.085090 
#    y -0.166080 4.245150 -0.002360 
#    z -0.085090 -0.002360 5.062390 
# 
# 
# High freq. dielectric constant tensor:
#      x y z
#    x 1.929280 -0.009280 0.005200 
#    y -0.009280 1.952900 0.005320 
#    z 0.005200 0.005320 1.969830 
# 
# From -- ./inp_files/347322.got.cif
#   From: 2010.06.25/outbox.cif.g09.slc.cpg/sg2_174_cif.got.tgz:347322.got - 2010.06.27 13:26:56.
