data_PCOD8039486
_publ_section_title
;
Structure prediction by ZEFSAII (Michael W. Deem and Ramdas Pophale) SiO2 
 PCOD8039486
Probable space group: P -1
;
_chemical_formula_sum "Si O2"
_cell_formula_units_Z 16
_cell_length_a 11.603033
_cell_length_b 13.952770
_cell_length_c 9.213679
_cell_angle_alpha 74.215118
_cell_angle_beta 82.952186
_cell_angle_gamma 138.290709
_cell_volume 822.172502
_symmetry_space_group_name_H-M "P -1"
_symmetry_group_IT_number 2
_symmetry_cell_setting 'triclinic'
loop_
_space_group_symop_operation_xyz
x,y,z
-x,-y,-z
loop_
_atom_site_type_symbol
_atom_site_label
_atom_site_fract_x
_atom_site_fract_y
_atom_site_fract_z
Si Si1 0.862142 0.639504 0.361771
Si Si2 0.581488 0.887213 0.272451
Si Si3 0.474270 0.240035 0.090622
Si Si4 0.233239 0.539103 0.289765
Si Si5 0.419760 0.669638 0.650117
Si Si6 0.410172 0.896535 0.906756
Si Si7 0.001602 0.449689 0.769421
Si Si8 0.117209 0.989445 0.048818
O O1 0.810360 0.594076 0.560951
O O2 0.659966 0.485359 0.357318
O O3 0.006437 0.644789 0.309885
O O4 0.962466 0.813089 0.234885
O O5 0.386427 0.715162 0.285190
O O6 0.581143 0.838147 0.452442
O O7 0.574204 0.001380 0.250742
O O8 0.781663 0.999143 0.104989
O O9 0.475627 0.286692 0.232864
O O10 0.462232 0.110894 0.156961
O O11 0.279077 0.142784 0.076225
O O12 0.669191 0.416574 0.899818
O O13 0.032919 0.465680 0.330547
O O14 0.225207 0.604655 0.743174
O O15 0.177348 0.699071 0.029602
O O16 0.500000 0.000000 0.000000
O O17 0.000000 0.000000 0.000000
#
# Coordination Sequence:
#
# PCOD8039486 Si02
#       8
#     2   2   2   2   2   2   2   2
#     4   9  18  34  54  78 103 143 178 217 269 318
#     4  10  18  34  52  81 110 148 177 223 275 320
#     4  10  21  36  52  83 112 141 182 225 268 323
#     4   9  17  28  55  79 109 143 176 213 255 327
#     4   9  21  33  52  78 120 142 174 220 278 329
#     4  11  16  29  56  81 116 146 177 219 264 315
#     4   9  16  28  52  77 111 141 176 200 269 321
#     4  11  22  39  61  78  99 141 196 233 264 322
#
# _framework density 19.460635
#
# number of rings (size 3 to 8) (size 9 to 14) (size 15 to 20)
#    0.750    1.500    5.000    0.375    0.000    2.500 
#    0.000    9.375    0.000    0.000    0.000    0.000 
#    0.000    0.000    0.000    0.000    0.000    0.000 
#
# Total GULP energy -198245.816348 kJ/mol
# GULP energy per Si atom -12390.363522 kJ/mol
# Density = 1.941634 g / cm^3
# Si number density = 19.460635 Si / 1000 Ang^3
#
#
#
# Elastic Constant Matrix: (Units=GPa)
#
#
# Indices 1 2 3 4 5 6 
#
# 1 66.5870 16.8548 25.5030 -8.2566 17.3607 13.7810
# 2 16.8548 37.6631 34.0873 1.0062 9.8672 11.2004
# 3 25.5030 34.0873 131.4820 -4.3650 26.4360 3.6290
# 4 -8.2566 1.0062 -4.3650 33.5587 -2.4436 6.8715
# 5 17.3607 9.8672 26.4360 -2.4436 17.6253 0.8092
# 6 13.7810 11.2004 3.6290 6.8715 0.8092 16.6572
#
#
#
# Elastic Compliance Matrix: (Units=1/GPa)
#
#
# Indices 1 2 3 4 5 6 
#
# 1 0.028636 0.001944 0.000585 0.010860 -0.027369 -0.028277
# 2 0.001944 0.046329 -0.008860 0.003501 -0.012624 -0.031661
# 3 0.000585 -0.008860 0.012669 0.000309 -0.014728 0.003301
# 4 0.010860 0.003501 0.000309 0.037338 -0.006728 -0.026482
# 5 -0.027369 -0.012624 -0.014728 -0.006728 0.110462 0.031750
# 6 -0.028277 -0.031661 0.003301 -0.026482 0.031750 0.113381
#
#
# Mechanical properties :
#
#
# Convention : Reuss Voigt Hill
#
# Bulk Modulus (GPa) = 13.33791 43.18025 28.25908
# Shear Modulus (GPa) = 12.93769 24.18737 18.56253
#
# Velocity S-wave (km/s) = 2.58119 3.52928 3.09180
# Velocity P-wave (km/s) = 3.96889 6.23253 5.22478
#
# Compressibility (1/GPa) = 0.07497429
#
# Stress axis : x y z
#
# Youngs Moduli (GPa) = 34.92080 21.58476 78.93017
#
# Poissons Ratio (x) = -0.04197 -0.04620
# Poissons Ratio (y) = -0.06790 0.69931
# Poissons Ratio (z) = -0.02044 0.19124
#
# Static dielectric constant tensor:
#      x y z
#    x 3.193470 0.131040 0.091380 
#    y 0.131040 3.216540 -0.205050 
#    z 0.091380 -0.205050 3.837310 
# 
# 
# High freq. dielectric constant tensor:
#      x y z
#    x 1.717550 0.015890 0.011210 
#    y 0.015890 1.720910 -0.013680 
#    z 0.011210 -0.013680 1.763180 
# 
# From -- ./inp_files/272527.got.cif
#   From: 2010.06.25/outbox.cif.g09.slc.cpg/sg2_137_cif.got.tgz:272527.got - 2010.06.27 13:26:56.
