data_PCOD8039814
_publ_section_title
;
Structure prediction by ZEFSAII (Michael W. Deem and Ramdas Pophale) SiO2 
 PCOD8039814
Probable space group: P -1
;
_chemical_formula_sum "Si O2"
_cell_formula_units_Z 16
_cell_length_a 25.736777
_cell_length_b 9.220199
_cell_length_c 14.175409
_cell_angle_alpha 122.326699
_cell_angle_beta 19.820805
_cell_angle_gamma 130.021333
_cell_volume 840.920976
_symmetry_space_group_name_H-M "P -1"
_symmetry_group_IT_number 2
_symmetry_cell_setting 'triclinic'
loop_
_space_group_symop_operation_xyz
x,y,z
-x,-y,-z
loop_
_atom_site_type_symbol
_atom_site_label
_atom_site_fract_x
_atom_site_fract_y
_atom_site_fract_z
Si Si1 0.006490 0.749079 0.372532
Si Si2 0.940496 0.568154 0.910345
Si Si3 0.019213 0.158552 0.237651
Si Si4 0.555032 0.372048 0.488483
Si Si5 0.165645 0.716683 0.275165
Si Si6 0.789400 0.833972 0.908174
Si Si7 0.522771 0.747712 0.631054
Si Si8 0.909685 0.069984 0.102571
O O1 0.830924 0.735189 0.713134
O O2 0.953122 0.545981 0.338264
O O3 0.148742 0.788346 0.225117
O O4 0.094391 0.930530 0.213291
O O5 0.922016 0.683160 0.891428
O O6 0.033452 0.704724 0.890072
O O7 0.741840 0.406718 0.219262
O O8 0.841548 0.133988 0.581608
O O9 0.167896 0.245122 0.095101
O O10 0.011082 0.958224 0.142136
O O11 0.558048 0.578059 0.548937
O O12 0.509498 0.260694 0.428070
O O13 0.416654 0.236386 0.758022
O O14 0.000000 0.500000 0.500000
O O15 0.354431 0.730977 0.968322
O O16 0.698337 0.951392 0.425445
O O17 0.000000 0.000000 0.000000
#
# Coordination Sequence:
#
# PCOD8039814 Si02
#       8
#     2   2   2   2   2   2   2   2
#     4  10  21  36  52  86 114 138 178 235 275 318
#     4  11  20  36  56  83 114 139 186 235 262 322
#     4  10  18  35  55  75 110 147 178 220 275 322
#     4  11  18  31  55  82 107 141 182 225 274 322
#     4  11  19  32  57  83 108 138 186 229 273 321
#     4  10  21  34  56  81 114 143 178 226 284 327
#     4  11  19  32  55  86 109 143 186 228 275 317
#     4  10  20  36  52  80 119 145 179 233 272 321
#
# _framework density 19.026758000000001
#
# number of rings (size 3 to 8) (size 9 to 14) (size 15 to 20)
#    0.000    1.500    6.250    2.250    0.000    0.500 
#    0.000    4.375    0.000    0.000    0.000    5.250 
#    0.000    0.000    0.000    0.000    0.000    0.000 
#
# Total GULP energy -198296.343772 kJ/mol
# GULP energy per Si atom -12393.521486 kJ/mol
# Density = 1.898345 g / cm^3
# Si number density = 19.026758 Si / 1000 Ang^3
#
#
#
# Elastic Constant Matrix: (Units=GPa)
#
#
# Indices 1 2 3 4 5 6 
#
# 1 34.2258 31.9574 38.8934 -0.6607 2.7617 18.4256
# 2 31.9574 103.8324 49.9848 13.7166 13.8968 32.6863
# 3 38.8934 49.9848 136.4911 8.5597 6.3705 27.8571
# 4 -0.6607 13.7166 8.5597 29.6165 7.0031 4.5135
# 5 2.7617 13.8968 6.3705 7.0031 26.7203 2.6306
# 6 18.4256 32.6863 27.8571 4.5135 2.6306 33.2266
#
#
#
# Elastic Compliance Matrix: (Units=1/GPa)
#
#
# Indices 1 2 3 4 5 6 
#
# 1 0.059187 -0.009462 -0.010853 0.011267 0.000008 -0.015946
# 2 -0.009462 0.017696 -0.001145 -0.005222 -0.005595 -0.010050
# 3 -0.010853 -0.001145 0.011433 -0.002676 -0.000104 -0.002069
# 4 0.011267 -0.005222 -0.002676 0.039614 -0.007836 -0.003629
# 5 0.000008 -0.005595 -0.000104 -0.007836 0.042085 0.003319
# 6 -0.015946 -0.010050 -0.002069 -0.003629 0.003319 0.050790
#
#
# Mechanical properties :
#
#
# Convention : Reuss Voigt Hill
#
# Bulk Modulus (GPa) = 22.02753 57.35785 39.69269
# Shear Modulus (GPa) = 17.93030 28.16025 23.04528
#
# Velocity S-wave (km/s) = 3.07314 3.85129 3.48401
# Velocity P-wave (km/s) = 4.91879 7.07022 6.09026
#
# Compressibility (1/GPa) = 0.04539774
#
# Stress axis : x y z
#
# Youngs Moduli (GPa) = 16.89565 56.50893 87.46379
#
# Poissons Ratio (x) = 0.53466 0.94924
# Poissons Ratio (y) = 0.15986 0.10014
# Poissons Ratio (z) = 0.18337 0.06470
#
# Static dielectric constant tensor:
#      x y z
#    x 3.418360 0.349910 0.223220 
#    y 0.349910 3.736420 0.351550 
#    z 0.223220 0.351550 3.723300 
# 
# 
# High freq. dielectric constant tensor:
#      x y z
#    x 1.702510 0.006630 0.017050 
#    y 0.006630 1.728410 0.025550 
#    z 0.017050 0.025550 1.742150 
# 
# From -- ./inp_files/305206.got.cif
#   From: 2010.06.25/outbox.cif.g09.slc.cpg/sg2_153_cif.got.tgz:305206.got - 2010.06.27 13:26:56.
