data_PCOD8039136
_publ_section_title
;
Structure prediction by ZEFSAII (Michael W. Deem and Ramdas Pophale) SiO2 
 PCOD8039136
Probable space group: P -1
;
_chemical_formula_sum "Si O2"
_cell_formula_units_Z 16
_cell_length_a 11.758786
_cell_length_b 16.040161
_cell_length_c 11.762594
_cell_angle_alpha 97.119766
_cell_angle_beta 39.422794
_cell_angle_gamma 128.668671
_cell_volume 759.392518
_symmetry_space_group_name_H-M "P -1"
_symmetry_group_IT_number 2
_symmetry_cell_setting 'triclinic'
loop_
_space_group_symop_operation_xyz
x,y,z
-x,-y,-z
loop_
_atom_site_type_symbol
_atom_site_label
_atom_site_fract_x
_atom_site_fract_y
_atom_site_fract_z
Si Si1 0.796403 0.588192 0.423971
Si Si2 0.060718 0.267796 0.882424
Si Si3 0.940414 0.663693 0.585146
Si Si4 0.424752 0.337661 0.048281
Si Si5 0.186227 0.586835 0.033991
Si Si6 0.240467 0.155883 0.774606
Si Si7 0.680422 0.266958 0.259995
Si Si8 0.657168 0.322155 0.690570
O O1 0.403734 0.437518 0.694995
O O2 0.955754 0.718822 0.237119
O O3 0.897281 0.653678 0.482730
O O4 0.920792 0.544113 0.289169
O O5 0.034094 0.157466 0.901560
O O6 0.767642 0.202437 0.163454
O O7 0.914540 0.747214 0.672873
O O8 0.295234 0.760291 0.352863
O O9 0.665824 0.498364 0.828685
O O10 0.569368 0.355299 0.053377
O O11 0.366485 0.239116 0.986141
O O12 0.398825 0.720752 0.798006
O O13 0.003099 0.437246 0.091834
O O14 0.369374 0.157716 0.564204
O O15 0.551883 0.303718 0.640491
O O16 0.000000 0.000000 0.000000
O O17 0.000000 0.500000 0.500000
#
# Coordination Sequence:
#
# PCOD8039136 Si02
#       8
#     2   2   2   2   2   2   2   2
#     4  10  18  32  57  91 127 150 198 261 311 350
#     4  10  21  35  56  88 120 162 202 251 305 361
#     4  10  19  29  49  84 118 152 183 241 307 358
#     4  10  19  29  49  84 118 152 183 241 307 358
#     4  10  18  32  57  91 127 150 198 261 311 350
#     4  12  26  42  62  88 127 167 203 245 304 374
#     4  10  21  35  56  88 120 162 202 251 305 361
#     4  10  20  36  58  84 118 151 199 249 292 356
#
# _framework density 21.069472999999999
#
# number of rings (size 3 to 8) (size 9 to 14) (size 15 to 20)
#    0.000    1.750    2.500    3.750    3.500    3.500 
#    0.000    0.000    0.000    1.500    0.000    0.000 
#    0.000    0.000    0.000    0.000    0.000    0.000 
#
# Total GULP energy -198260.020582 kJ/mol
# GULP energy per Si atom -12391.251286 kJ/mol
# Density = 2.102152 g / cm^3
# Si number density = 21.069473 Si / 1000 Ang^3
#
#
#
# Elastic Constant Matrix: (Units=GPa)
#
#
# Indices 1 2 3 4 5 6 
#
# 1 132.6231 49.9065 54.9297 31.1426 16.1913 -30.8438
# 2 49.9065 75.7221 63.7166 38.1137 0.5012 -31.8938
# 3 54.9297 63.7166 115.6465 43.0543 18.0522 -23.5798
# 4 31.1426 38.1137 43.0543 52.6369 -4.2768 -9.9614
# 5 16.1913 0.5012 18.0522 -4.2768 28.2971 8.2814
# 6 -30.8438 -31.8938 -23.5798 -9.9614 8.2814 38.7489
#
#
#
# Elastic Compliance Matrix: (Units=1/GPa)
#
#
# Indices 1 2 3 4 5 6 
#
# 1 0.013308 -0.002036 0.001400 -0.006528 -0.012615 0.010787
# 2 -0.002036 0.040547 -0.011417 -0.014875 -0.000702 0.021132
# 3 0.001400 -0.011417 0.022900 -0.011557 -0.018923 0.006726
# 4 -0.006528 -0.014875 -0.011557 0.041411 0.023123 -0.018769
# 5 -0.012615 -0.000702 -0.018923 0.023123 0.067070 -0.030525
# 6 0.010787 0.021132 0.006726 -0.018769 -0.030525 0.057579
#
#
# Mechanical properties :
#
#
# Convention : Reuss Voigt Hill
#
# Bulk Modulus (GPa) = 18.99356 73.45525 46.22441
# Shear Modulus (GPa) = 17.57640 34.29917 25.93778
#
# Velocity S-wave (km/s) = 2.89141 4.03911 3.51245
# Velocity P-wave (km/s) = 4.49236 7.52938 6.19971
#
# Compressibility (1/GPa) = 0.05264941
#
# Stress axis : x y z
#
# Youngs Moduli (GPa) = 75.13998 24.66275 43.66753
#
# Poissons Ratio (x) = 0.05022 -0.06112
# Poissons Ratio (y) = 0.15300 0.49853
# Poissons Ratio (z) = -0.10517 0.28156
#
# Static dielectric constant tensor:
#      x y z
#    x 4.192960 -0.461520 -0.049920 
#    y -0.461520 4.099300 1.072740 
#    z -0.049920 1.072740 4.072190 
# 
# 
# High freq. dielectric constant tensor:
#      x y z
#    x 1.840530 -0.025400 0.017900 
#    y -0.025400 1.795200 0.058190 
#    z 0.017900 0.058190 1.804610 
# 
# From -- ./inp_files/434028.got.cif
#   From: 2010.06.25/outbox.cif.g09.slc.cpg/sg2_218_cif.got.tgz:434028.got - 2010.06.27 13:26:56.
