data_PCOD8039263
_publ_section_title
;
Structure prediction by ZEFSAII (Michael W. Deem and Ramdas Pophale) SiO2 
 PCOD8039263
Probable space group: P -1
;
_chemical_formula_sum "Si O2"
_cell_formula_units_Z 14
_cell_length_a 16.687730
_cell_length_b 5.151231
_cell_length_c 12.228822
_cell_angle_alpha 67.068387
_cell_angle_beta 72.524141
_cell_angle_gamma 114.953402
_cell_volume 729.286253
_symmetry_space_group_name_H-M "P -1"
_symmetry_group_IT_number 2
_symmetry_cell_setting 'triclinic'
loop_
_space_group_symop_operation_xyz
x,y,z
-x,-y,-z
loop_
_atom_site_type_symbol
_atom_site_label
_atom_site_fract_x
_atom_site_fract_y
_atom_site_fract_z
Si Si1 0.593636 0.531858 0.518267
Si Si2 0.206648 0.805067 0.998536
Si Si3 0.600142 0.444786 0.178479
Si Si4 0.119477 0.207078 0.953469
Si Si5 0.684932 0.291883 0.350849
Si Si6 0.451053 0.590920 0.203032
Si Si7 0.343026 0.660950 0.057541
O O1 0.500000 0.500000 0.500000
O O2 0.650260 0.405163 0.448904
O O3 0.559383 0.319736 0.683232
O O4 0.680175 0.954128 0.440859
O O5 0.150226 0.520955 0.970904
O O6 0.322253 0.168319 0.853774
O O7 0.133305 0.919333 0.047271
O O8 0.236115 0.636487 0.109979
O O9 0.601403 0.176019 0.302201
O O10 0.479345 0.313796 0.239297
O O11 0.656452 0.505285 0.029711
O O12 0.195287 0.382090 0.787430
O O13 0.000000 0.000000 0.000000
O O14 0.348018 0.454857 0.192771
O O15 0.553384 0.930561 0.044957
#
# Coordination Sequence:
#
# PCOD8039263 Si02
#       7
#     2   2   2   2   2   2   2
#     4  12  23  35  52  80 116 163 180 213 268 339
#     4  10  19  34  56  83 112 136 172 233 295 323
#     4  10  18  33  55  75 116 149 187 226 272 314
#     4  11  22  38  61  87 109 138 184 242 298 335
#     4  11  22  36  55  77 116 144 184 224 277 337
#     4  10  22  31  52  81 111 160 201 217 262 320
#     4  10  19  36  52  80 114 153 192 240 254 319
#
# _framework density 19.196850999999999
#
# number of rings (size 3 to 8) (size 9 to 14) (size 15 to 20)
#    0.000    1.429    4.286    3.857    2.000    0.000 
#    0.000    0.000    0.000    0.000    0.000    6.000 
#    0.000    0.000    0.000    0.000    0.000    0.000 
#
# Total GULP energy -173443.963735 kJ/mol
# GULP energy per Si atom -12388.854553 kJ/mol
# Density = 1.915316 g / cm^3
# Si number density = 19.196851 Si / 1000 Ang^3
#
#
#
# Elastic Constant Matrix: (Units=GPa)
#
#
# Indices 1 2 3 4 5 6 
#
# 1 128.0163 25.1608 24.2179 3.1325 5.2952 -2.0509
# 2 25.1608 74.0052 -1.8214 10.3301 5.8798 -19.3413
# 3 24.2179 -1.8214 40.1172 14.4329 9.0424 -1.5217
# 4 3.1325 10.3301 14.4329 23.7346 3.5026 -1.7610
# 5 5.2952 5.8798 9.0424 3.5026 23.2572 5.1018
# 6 -2.0509 -19.3413 -1.5217 -1.7610 5.1018 23.6922
#
#
#
# Elastic Compliance Matrix: (Units=1/GPa)
#
#
# Indices 1 2 3 4 5 6 
#
# 1 0.010562 -0.006336 -0.009935 0.006556 0.003190 -0.005096
# 2 -0.006336 0.025041 0.014191 -0.015094 -0.013067 0.022497
# 3 -0.009935 0.014191 0.046964 -0.029534 -0.018546 0.015540
# 4 0.006556 -0.015094 -0.029534 0.064089 0.006406 -0.010267
# 5 0.003190 -0.013067 -0.018546 0.006406 0.056947 -0.023369
# 6 -0.005096 0.022497 0.015540 -0.010267 -0.023369 0.065400
#
#
# Mechanical properties :
#
#
# Convention : Reuss Voigt Hill
#
# Bulk Modulus (GPa) = 12.75402 37.47259 25.11330
# Shear Modulus (GPa) = 16.70579 27.10889 21.90734
#
# Velocity S-wave (km/s) = 2.95318 3.76194 3.38182
# Velocity P-wave (km/s) = 4.27628 6.19937 5.32535
#
# Compressibility (1/GPa) = 0.07840667
#
# Stress axis : x y z
#
# Youngs Moduli (GPa) = 94.67696 39.93498 21.29308
#
# Poissons Ratio (x) = 0.25302 0.21154
# Poissons Ratio (y) = 0.59987 -0.30217
# Poissons Ratio (z) = 0.94060 -0.56671
#
# Static dielectric constant tensor:
#      x y z
#    x 3.980730 -0.329230 0.357330 
#    y -0.329230 3.603000 -0.096000 
#    z 0.357330 -0.096000 3.286710 
# 
# 
# High freq. dielectric constant tensor:
#      x y z
#    x 1.745940 -0.029090 0.022330 
#    y -0.029090 1.754400 0.007540 
#    z 0.022330 0.007540 1.689010 
# 
# From -- ./inp_files/82109.got.cif
#   From: 2010.06.25/outbox.cif.g09.slc.cpg/sg2_42_cif.got.tgz:82109.got - 2010.06.27 13:26:56.
