data_PCOD8039355
_publ_section_title
;
Structure prediction by ZEFSAII (Michael W. Deem and Ramdas Pophale) SiO2 
 PCOD8039355
Probable space group: P -1
;
_chemical_formula_sum "Si O2"
_cell_formula_units_Z 16
_cell_length_a 8.893944
_cell_length_b 18.300728
_cell_length_c 9.929999
_cell_angle_alpha 45.818124
_cell_angle_beta 90.230441
_cell_angle_gamma 119.019381
_cell_volume 857.766787
_symmetry_space_group_name_H-M "P -1"
_symmetry_group_IT_number 2
_symmetry_cell_setting 'triclinic'
loop_
_space_group_symop_operation_xyz
x,y,z
-x,-y,-z
loop_
_atom_site_type_symbol
_atom_site_label
_atom_site_fract_x
_atom_site_fract_y
_atom_site_fract_z
Si Si1 0.861904 0.656361 0.677013
Si Si2 0.208371 0.359253 0.002936
Si Si3 0.049445 0.915810 0.774868
Si Si4 0.448237 0.647681 0.936162
Si Si5 0.360176 0.069646 0.812078
Si Si6 0.517239 0.663262 0.616417
Si Si7 0.282521 0.074541 0.305237
Si Si8 0.710641 0.077972 0.730508
O O1 0.906002 0.668787 0.821265
O O2 0.760918 0.502872 0.826494
O O3 0.716151 0.684152 0.605023
O O4 0.073165 0.766784 0.459148
O O5 0.052900 0.242411 0.043083
O O6 0.371033 0.349361 0.054968
O O7 0.327421 0.512127 0.748813
O O8 0.881918 0.928311 0.763853
O O9 0.161646 0.967439 0.850777
O O10 0.206011 0.007544 0.537737
O O11 0.444825 0.676723 0.741776
O O12 0.500686 0.768842 0.874091
O O13 0.431522 0.219426 0.631217
O O14 0.538057 0.083298 0.732870
O O15 0.303202 0.010279 0.037566
O O16 0.319239 0.992711 0.320270
#
# Coordination Sequence:
#
# PCOD8039355 Si02
#       8
#     2   2   2   2   2   2   2   2
#     4   9  16  32  56  79 105 136 170 214 265 312
#     4   8  15  29  54  85 108 126 162 221 272 308
#     4  10  18  33  58  84 105 131 173 221 266 312
#     4   8  15  29  54  85 108 126 162 221 272 308
#     4  11  24  38  50  72 110 149 181 214 255 308
#     4   9  16  32  56  79 105 136 170 214 265 312
#     4  10  18  33  58  84 105 131 173 221 266 312
#     4  11  24  38  50  72 110 149 181 214 255 308
#
# _framework density 18.653089000000001
#
# number of rings (size 3 to 8) (size 9 to 14) (size 15 to 20)
#    0.000    2.500    2.500    2.250    0.000    2.500 
#    0.000    5.000    0.000    7.500    0.000    0.000 
#    0.000    0.000    0.000    0.000    0.000    0.000 
#
# Total GULP energy -198336.828301 kJ/mol
# GULP energy per Si atom -12396.051769 kJ/mol
# Density = 1.861063 g / cm^3
# Si number density = 18.653089 Si / 1000 Ang^3
#
#
#
# Elastic Constant Matrix: (Units=GPa)
#
#
# Indices 1 2 3 4 5 6 
#
# 1 11.6358 6.0312 3.3560 -5.2414 -6.7137 2.4288
# 2 6.0312 71.0869 24.3140 -33.5895 3.1805 -3.7268
# 3 3.3560 24.3140 65.3913 -32.0101 -4.2988 6.0845
# 4 -5.2414 -33.5895 -32.0101 33.8178 2.0780 -1.6584
# 5 -6.7137 3.1805 -4.2988 2.0780 21.4639 6.3498
# 6 2.4288 -3.7268 6.0845 -1.6584 6.3498 12.6821
#
#
#
# Elastic Compliance Matrix: (Units=1/GPa)
#
#
# Indices 1 2 3 4 5 6 
#
# 1 0.164610 -0.024091 0.019399 0.010425 0.084173 -0.088693
# 2 -0.024091 0.035264 0.000598 0.034996 -0.025507 0.032037
# 3 0.019399 0.000598 0.033638 0.033272 0.016469 -0.023573
# 4 0.010425 0.034996 0.033272 0.098331 -0.007412 0.008894
# 5 0.084173 -0.025507 0.016469 -0.007412 0.106030 -0.085574
# 6 -0.088693 0.032037 -0.023573 0.008894 -0.085574 0.160570
#
#
# Mechanical properties :
#
#
# Convention : Reuss Voigt Hill
#
# Bulk Modulus (GPa) = 4.43807 23.94625 14.19216
# Shear Modulus (GPa) = 7.33420 21.22031 14.27725
#
# Velocity S-wave (km/s) = 1.98505 3.37654 2.76961
# Velocity P-wave (km/s) = 2.76375 5.29782 4.22524
#
# Compressibility (1/GPa) = 0.22532332
#
# Stress axis : x y z
#
# Youngs Moduli (GPa) = 6.07498 28.35792 29.72827
#
# Poissons Ratio (x) = 0.68316 -0.57669
# Poissons Ratio (y) = 0.14635 -0.01778
# Poissons Ratio (z) = -0.11785 -0.01696
#
# Static dielectric constant tensor:
#      x y z
#    x 3.079850 0.002080 0.010530 
#    y 0.002080 3.738100 -0.494190 
#    z 0.010530 -0.494190 3.465160 
# 
# 
# High freq. dielectric constant tensor:
#      x y z
#    x 1.691280 0.000440 0.000610 
#    y 0.000440 1.721450 -0.030210 
#    z 0.000610 -0.030210 1.715940 
# 
# From -- ./inp_files/205935.got.cif
#   From: 2010.06.25/outbox.cif.g09.slc.cpg/sg2_103_cif.got.tgz:205935.got - 2010.06.27 13:26:56.
