data_PCOD8039781
_publ_section_title
;
Structure prediction by ZEFSAII (Michael W. Deem and Ramdas Pophale) SiO2 
 PCOD8039781
Probable space group: P -1
;
_chemical_formula_sum "Si O2"
_cell_formula_units_Z 16
_cell_length_a 13.628148
_cell_length_b 24.587067
_cell_length_c 16.543783
_cell_angle_alpha 157.758763
_cell_angle_beta 34.951581
_cell_angle_gamma 156.964770
_cell_volume 801.442324
_symmetry_space_group_name_H-M "P -1"
_symmetry_group_IT_number 2
_symmetry_cell_setting 'triclinic'
loop_
_space_group_symop_operation_xyz
x,y,z
-x,-y,-z
loop_
_atom_site_type_symbol
_atom_site_label
_atom_site_fract_x
_atom_site_fract_y
_atom_site_fract_z
Si Si1 0.166691 0.821434 0.317933
Si Si2 0.451575 0.804094 0.534776
Si Si3 0.238855 0.080219 0.767372
Si Si4 0.697935 0.186881 0.182248
Si Si5 0.192654 0.359205 0.141618
Si Si6 0.382630 0.648119 0.961947
Si Si7 0.050690 0.377658 0.433794
Si Si8 0.834034 0.798934 0.778813
O O1 0.296292 0.746979 0.122216
O O2 0.271238 0.991156 0.409551
O O3 0.250740 0.947969 0.520139
O O4 0.862706 0.610562 0.216294
O O5 0.452220 0.844236 0.683083
O O6 0.377993 0.588025 0.284425
O O7 0.253305 0.786292 0.597740
O O8 0.457497 0.222270 0.885032
O O9 0.278438 0.248231 0.916986
O O10 0.946310 0.893443 0.743407
O O11 0.833688 0.393457 0.322718
O O12 0.903839 0.196761 0.081862
O O13 0.500000 0.000000 0.000000
O O14 0.184625 0.378016 0.269565
O O15 0.542055 0.667999 0.809752
O O16 0.115423 0.334656 0.413377
O O17 0.000000 0.000000 0.000000
#
# Coordination Sequence:
#
# PCOD8039781 Si02
#       8
#     2   2   2   2   2   2   2   2
#     4  11  24  41  57  86 124 159 190 236 294 358
#     4   9  19  37  59  79 119 158 183 237 300 338
#     4  11  22  39  64  88 116 154 199 240 291 346
#     4   9  19  34  56  90 115 145 196 247 283 340
#     4   9  18  35  59  86 112 146 198 242 282 345
#     4  10  23  41  59  85 123 153 198 240 288 348
#     4   9  16  34  60  84 112 147 194 241 285 336
#     4  10  18  34  65  87 110 152 193 246 289 329
#
# _framework density 19.964006999999999
#
# number of rings (size 3 to 8) (size 9 to 14) (size 15 to 20)
#    0.000    2.250    2.500    3.375    1.750    2.000 
#    9.000    0.625    0.000    0.000    0.000    0.000 
#    0.000    0.000    0.000    0.000    0.000    0.000 
#
# Total GULP energy -198246.959414 kJ/mol
# GULP energy per Si atom -12390.434963 kJ/mol
# Density = 1.991857 g / cm^3
# Si number density = 19.964007 Si / 1000 Ang^3
#
#
#
# Elastic Constant Matrix: (Units=GPa)
#
#
# Indices 1 2 3 4 5 6 
#
# 1 64.3931 34.0634 34.9297 9.1889 -8.4878 -0.4597
# 2 34.0634 122.6122 32.9063 22.0200 -4.6348 -8.8555
# 3 34.9297 32.9063 67.0865 9.0179 -2.9583 3.4025
# 4 9.1889 22.0200 9.0179 24.9130 7.7473 -2.8758
# 5 -8.4878 -4.6348 -2.9583 7.7473 36.2024 6.6199
# 6 -0.4597 -8.8555 3.4025 -2.8758 6.6199 25.4466
#
#
#
# Elastic Compliance Matrix: (Units=1/GPa)
#
#
# Indices 1 2 3 4 5 6 
#
# 1 0.023959 -0.003042 -0.010088 -0.004366 0.005560 -0.001217
# 2 -0.003042 0.011578 -0.003072 -0.008186 0.001719 0.003013
# 3 -0.010088 -0.003072 0.022217 -0.002250 0.000375 -0.004574
# 4 -0.004366 -0.008186 -0.002250 0.055522 -0.015544 0.007692
# 5 0.005560 0.001719 0.000375 -0.015544 0.034339 -0.010041
# 6 -0.001217 0.003013 -0.004574 0.007692 -0.010041 0.044417
#
#
# Mechanical properties :
#
#
# Convention : Reuss Voigt Hill
#
# Bulk Modulus (GPa) = 39.45013 50.87674 45.16344
# Shear Modulus (GPa) = 21.46973 27.45854 24.46413
#
# Velocity S-wave (km/s) = 3.28292 3.71266 3.50439
# Velocity P-wave (km/s) = 5.84582 6.62707 6.24867
#
# Compressibility (1/GPa) = 0.02534846
#
# Stress axis : x y z
#
# Youngs Moduli (GPa) = 41.73880 86.36988 45.01148
#
# Poissons Ratio (x) = 0.26275 0.45410
# Poissons Ratio (y) = 0.12698 0.13826
# Poissons Ratio (z) = 0.42108 0.26530
#
# Static dielectric constant tensor:
#      x y z
#    x 3.203950 -0.001070 -0.054580 
#    y -0.001070 3.923530 -0.021590 
#    z -0.054580 -0.021590 3.505640 
# 
# 
# High freq. dielectric constant tensor:
#      x y z
#    x 1.760100 -0.005800 -0.019910 
#    y -0.005800 1.773760 0.011790 
#    z -0.019910 0.011790 1.777430 
# 
# From -- ./inp_files/283464.got.cif
#   From: 2010.06.25/outbox.cif.g09.slc.cpg/sg2_142_cif.got.tgz:283464.got - 2010.06.27 13:26:56.
