data_PCOD8039374
_publ_section_title
;
Structure prediction by ZEFSAII (Michael W. Deem and Ramdas Pophale) SiO2 
 PCOD8039374
Probable space group: P -1
;
_chemical_formula_sum "Si O2"
_cell_formula_units_Z 16
_cell_length_a 9.352829
_cell_length_b 22.835089
_cell_length_c 15.082700
_cell_angle_alpha 144.620263
_cell_angle_beta 142.900291
_cell_angle_gamma 25.165492
_cell_volume 769.474202
_symmetry_space_group_name_H-M "P -1"
_symmetry_group_IT_number 2
_symmetry_cell_setting 'triclinic'
loop_
_space_group_symop_operation_xyz
x,y,z
-x,-y,-z
loop_
_atom_site_type_symbol
_atom_site_label
_atom_site_fract_x
_atom_site_fract_y
_atom_site_fract_z
Si Si1 0.776988 0.885129 0.623377
Si Si2 0.172592 0.198554 0.650894
Si Si3 0.394845 0.896543 0.592012
Si Si4 0.697908 0.171470 0.075297
Si Si5 0.365156 0.353375 0.965108
Si Si6 0.290729 0.594515 0.925983
Si Si7 0.589171 0.328712 0.651642
Si Si8 0.186192 0.168447 0.887613
O O1 0.841723 0.853749 0.513183
O O2 0.633709 0.834198 0.545341
O O3 0.153053 0.799653 0.740619
O O4 0.457600 0.064897 0.696289
O O5 0.300334 0.269823 0.778189
O O6 0.791653 0.311615 0.645968
O O7 0.530674 0.750303 0.525850
O O8 0.422221 0.991091 0.783780
O O9 0.000000 0.000000 0.500000
O O10 0.627622 0.258435 0.059879
O O11 0.361827 0.214269 0.991544
O O12 0.000000 0.000000 0.000000
O O13 0.500440 0.388312 0.003886
O O14 0.000000 0.500000 0.000000
O O15 0.265664 0.502485 0.735246
O O16 0.500000 0.500000 0.000000
O O17 0.926895 0.760237 0.980556
O O18 0.845921 0.247984 0.762414
#
# Coordination Sequence:
#
# PCOD8039374 Si02
#       8
#     2   2   2   2   2   2   2   2
#     4  11  23  37  64  96 130 166 213 274 328 382
#     4  11  21  37  62 100 121 164 222 264 321 383
#     4  10  18  33  58  90 122 164 206 264 320 374
#     4  12  21  44  65  95 135 170 217 278 327 381
#     4  12  22  40  71  93 128 174 223 266 321 398
#     4  10  22  36  60  96 124 167 215 269 319 386
#     4  10  18  37  58  90 126 161 207 270 313 384
#     4  10  19  36  61  92 123 163 214 265 325 372
#
# _framework density 20.793417999999999
#
# number of rings (size 3 to 8) (size 9 to 14) (size 15 to 20)
#    0.000    1.250    7.500    0.750    5.250    0.000 
#    0.000    2.500    0.000    1.500    0.000    0.000 
#    0.000    0.000    0.000    0.000    0.000    0.000 
#
# Total GULP energy -198209.990624 kJ/mol
# GULP energy per Si atom -12388.124414 kJ/mol
# Density = 2.074609 g / cm^3
# Si number density = 20.793418 Si / 1000 Ang^3
#
#
#
# Elastic Constant Matrix: (Units=GPa)
#
#
# Indices 1 2 3 4 5 6 
#
# 1 139.3867 32.7022 46.9336 20.0591 3.4165 7.8063
# 2 32.7022 58.4527 29.4578 8.3186 -7.4284 10.3420
# 3 46.9336 29.4578 89.2871 18.7679 8.3300 8.5922
# 4 20.0591 8.3186 18.7679 35.4747 0.3718 -2.4535
# 5 3.4165 -7.4284 8.3300 0.3718 34.9656 13.2803
# 6 7.8063 10.3420 8.5922 -2.4535 13.2803 27.2207
#
#
#
# Elastic Compliance Matrix: (Units=1/GPa)
#
#
# Indices 1 2 3 4 5 6 
#
# 1 0.009479 -0.003307 -0.003175 -0.002924 -0.000696 -0.000384
# 2 -0.003307 0.026466 -0.006465 -0.001974 0.012592 -0.013387
# 3 -0.003175 -0.006465 0.016598 -0.005412 -0.004988 0.000073
# 4 -0.002924 -0.001974 -0.005412 0.033694 -0.001974 0.007297
# 5 -0.000696 0.012592 -0.004988 -0.001974 0.041442 -0.023407
# 6 -0.000384 -0.013387 0.000073 0.007297 -0.023407 0.053987
#
#
# Mechanical properties :
#
#
# Convention : Reuss Voigt Hill
#
# Bulk Modulus (GPa) = 37.52638 56.14597 46.83617
# Shear Modulus (GPa) = 23.10096 31.40107 27.25101
#
# Velocity S-wave (km/s) = 3.33674 3.89027 3.62409
# Velocity P-wave (km/s) = 5.73860 6.87309 6.33131
#
# Compressibility (1/GPa) = 0.02664792
#
# Stress axis : x y z
#
# Youngs Moduli (GPa) = 105.50149 37.78456 60.25004
#
# Poissons Ratio (x) = 0.12497 0.19128
# Poissons Ratio (y) = 0.34893 0.38950
# Poissons Ratio (z) = 0.33495 0.24427
#
# Static dielectric constant tensor:
#      x y z
#    x 3.427090 -0.200290 -0.055590 
#    y -0.200290 4.376390 0.321780 
#    z -0.055590 0.321780 4.677020 
# 
# 
# High freq. dielectric constant tensor:
#      x y z
#    x 1.822470 -0.005020 0.005010 
#    y -0.005020 1.781260 0.030970 
#    z 0.005010 0.030970 1.809200 
# 
# From -- ./inp_files/307838.got.cif
#   From: 2010.06.25/outbox.cif.g09.slc.cpg/sg2_154_cif.got.tgz:307838.got - 2010.06.27 13:26:56.
