data_PCOD8040156
_publ_section_title
;
Structure prediction by ZEFSAII (Michael W. Deem and Ramdas Pophale) SiO2 
 PCOD8040156
Probable space group: P -1
;
_chemical_formula_sum "Si O2"
_cell_formula_units_Z 12
_cell_length_a 15.657714
_cell_length_b 8.292155
_cell_length_c 5.094739
_cell_angle_alpha 96.847574
_cell_angle_beta 52.063986
_cell_angle_gamma 77.826735
_cell_volume 482.677637
_symmetry_space_group_name_H-M "P -1"
_symmetry_group_IT_number 2
_symmetry_cell_setting 'triclinic'
loop_
_space_group_symop_operation_xyz
x,y,z
-x,-y,-z
loop_
_atom_site_type_symbol
_atom_site_label
_atom_site_fract_x
_atom_site_fract_y
_atom_site_fract_z
Si Si1 0.180837 0.544698 0.419232
Si Si2 0.894679 0.173087 0.801052
Si Si3 0.802549 0.903059 0.014815
Si Si4 0.064120 0.296667 0.774188
Si Si5 0.631915 0.745048 0.259500
Si Si6 0.417960 0.392324 0.166456
O O1 0.136996 0.730989 0.399612
O O2 0.072554 0.491437 0.731835
O O3 0.282215 0.524351 0.439588
O O4 0.241744 0.409758 0.041923
O O5 0.933968 0.286029 0.969323
O O6 0.000000 0.000000 0.500000
O O7 0.796168 0.104230 0.088920
O O8 0.884731 0.778382 0.055705
O O9 0.668167 0.911915 0.286735
O O10 0.851511 0.830061 0.622341
O O11 0.556551 0.707607 0.626273
O O12 0.558212 0.755515 0.134763
O O13 0.500000 0.500000 0.000000
#
# Coordination Sequence:
#
# PCOD8040156 Si02
#       6
#     2   2   2   2   2   2
#     4   9  20  35  56  81 112 141 185 226 263 312
#     4  10  21  36  53  83 113 153 182 216 263 321
#     4  10  18  36  52  78 111 146 175 222 267 316
#     4  10  19  36  52  77 109 148 186 218 257 313
#     4   9  18  35  56  81 107 138 176 226 273 316
#     4  10  19  35  61  83 101 133 183 231 272 319
#
# _framework density 24.861312000000002
#
# number of rings (size 3 to 8) (size 9 to 14) (size 15 to 20)
#    1.000    1.333    1.667    1.500    0.000    0.000 
#   12.000    5.000    0.000    2.000    0.000    0.000 
#    0.000    0.000    0.000    0.000    0.000    0.000 
#
# Total GULP energy -148704.328822 kJ/mol
# GULP energy per Si atom -12392.027402 kJ/mol
# Density = 2.480473 g / cm^3
# Si number density = 24.861312 Si / 1000 Ang^3
#
#
#
# Elastic Constant Matrix: (Units=GPa)
#
#
# Indices 1 2 3 4 5 6 
#
# 1 127.6194 24.6910 54.2689 -17.7342 -12.0067 43.5151
# 2 24.6910 100.2218 29.1659 -33.2491 -4.9224 24.2251
# 3 54.2689 29.1659 132.8670 -45.8858 -8.0276 20.8338
# 4 -17.7342 -33.2491 -45.8858 38.9422 11.0247 -11.8569
# 5 -12.0067 -4.9224 -8.0276 11.0247 51.5489 -19.4076
# 6 43.5151 24.2251 20.8338 -11.8569 -19.4076 48.2422
#
#
#
# Elastic Compliance Matrix: (Units=1/GPa)
#
#
# Indices 1 2 3 4 5 6 
#
# 1 0.013013 -0.000160 -0.004512 -0.002471 -0.001228 -0.010810
# 2 -0.000160 0.015944 0.002943 0.016083 -0.004062 -0.006814
# 3 -0.004512 0.002943 0.015168 0.018960 -0.002591 -0.000340
# 4 -0.002471 0.016083 0.018960 0.062749 -0.010589 -0.002872
# 5 -0.001228 -0.004062 -0.002591 -0.010589 0.024999 0.011721
# 6 -0.010810 -0.006814 -0.000340 -0.002872 0.011721 0.038058
#
#
# Mechanical properties :
#
#
# Convention : Reuss Voigt Hill
#
# Bulk Modulus (GPa) = 24.59081 64.10663 44.34872
# Shear Modulus (GPa) = 26.74576 44.58549 35.66562
#
# Velocity S-wave (km/s) = 3.28349 4.23941 3.79170
# Velocity P-wave (km/s) = 4.92826 7.05728 6.08658
#
# Compressibility (1/GPa) = 0.04066560
#
# Stress axis : x y z
#
# Youngs Moduli (GPa) = 76.84859 62.71932 65.92725
#
# Poissons Ratio (x) = 0.01003 0.29750
# Poissons Ratio (y) = 0.01229 -0.19400
# Poissons Ratio (z) = 0.34678 -0.18456
#
# Static dielectric constant tensor:
#      x y z
#    x 7.644050 5.417410 -2.464100 
#    y 5.417410 12.067580 -4.241990 
#    z -2.464100 -4.241990 6.627770 
# 
# 
# High freq. dielectric constant tensor:
#      x y z
#    x 1.994280 0.037470 0.008680 
#    y 0.037470 1.969760 -0.017590 
#    z 0.008680 -0.017590 2.008200 
# 
# From -- ./inp_files/31220.got.cif
#   From: 2010.06.25/outbox.cif.g09.slc.cpg/sg2_16_cif.got.tgz:31220.got - 2010.06.27 13:26:56.
