data_PCOD8040280
_publ_section_title
;
Structure prediction by ZEFSAII (Michael W. Deem and Ramdas Pophale) SiO2 
 PCOD8040280
Probable space group: P -1
;
_chemical_formula_sum "Si O2"
_cell_formula_units_Z 14
_cell_length_a 8.583142
_cell_length_b 21.885102
_cell_length_c 9.506301
_cell_angle_alpha 149.176824
_cell_angle_beta 115.757884
_cell_angle_gamma 50.213864
_cell_volume 672.459359
_symmetry_space_group_name_H-M "P -1"
_symmetry_group_IT_number 2
_symmetry_cell_setting 'triclinic'
loop_
_space_group_symop_operation_xyz
x,y,z
-x,-y,-z
loop_
_atom_site_type_symbol
_atom_site_label
_atom_site_fract_x
_atom_site_fract_y
_atom_site_fract_z
Si Si1 0.086209 0.125448 0.895940
Si Si2 0.000516 0.310840 0.806296
Si Si3 0.646570 0.172469 0.186015
Si Si4 0.791928 0.195090 0.681760
Si Si5 0.057425 0.153933 0.250190
Si Si6 0.583525 0.598820 0.214160
Si Si7 0.632286 0.855692 0.176316
O O1 0.273027 0.110979 0.852992
O O2 0.865206 0.221854 0.912243
O O3 0.127213 0.970360 0.634187
O O4 0.071125 0.198731 0.184574
O O5 0.894703 0.230104 0.662862
O O6 0.090334 0.247266 0.559805
O O7 0.187852 0.275809 0.915473
O O8 0.837929 0.487305 0.079874
O O9 0.474355 0.297928 0.470569
O O10 0.822200 0.196890 0.259409
O O11 0.522470 0.185387 0.021316
O O12 0.755985 0.015652 0.991498
O O13 0.535515 0.300448 0.772401
O O14 0.500000 0.500000 0.000000
O O15 0.500000 0.000000 0.500000
#
# Coordination Sequence:
#
# PCOD8040280 Si02
#       7
#     2   2   2   2   2   2   2
#     4  10  21  33  59  89 122 142 195 254 290 331
#     4  10  20  38  62  83 123 154 196 235 291 357
#     4  11  21  35  63  90 119 149 201 237 288 352
#     4   9  17  34  57  87 111 157 191 237 282 345
#     4  11  19  36  61  93 107 151 204 243 273 345
#     4  10  18  36  60  88 115 163 192 233 286 359
#     4  11  24  39  57  91 120 153 192 247 303 339
#
# _framework density 20.819102000000001
#
# number of rings (size 3 to 8) (size 9 to 14) (size 15 to 20)
#    0.000    1.714    5.714    0.857    4.000    1.143 
#    0.000    0.714    0.000    3.429    0.000    0.000 
#    0.000    0.000    0.000    0.000    0.000    0.000 
#
# Total GULP energy -173550.399359 kJ/mol
# GULP energy per Si atom -12396.457097 kJ/mol
# Density = 2.077172 g / cm^3
# Si number density = 20.819102 Si / 1000 Ang^3
#
#
#
# Elastic Constant Matrix: (Units=GPa)
#
#
# Indices 1 2 3 4 5 6 
#
# 1 35.7208 35.2707 20.3312 -10.6284 -12.3710 -7.3049
# 2 35.2707 148.8428 50.7559 -17.2891 -18.7756 -15.6924
# 3 20.3312 50.7559 117.9273 -14.3007 -24.7547 -1.2237
# 4 -10.6284 -17.2891 -14.3007 42.2106 -1.2468 -6.0655
# 5 -12.3710 -18.7756 -24.7547 -1.2468 29.4726 -8.3562
# 6 -7.3049 -15.6924 -1.2237 -6.0655 -8.3562 30.0306
#
#
#
# Elastic Compliance Matrix: (Units=1/GPa)
#
#
# Indices 1 2 3 4 5 6 
#
# 1 0.048824 -0.005296 0.000636 0.013680 0.023457 0.018425
# 2 -0.005296 0.010206 -0.002162 0.003065 0.004223 0.005751
# 3 0.000636 -0.002162 0.011911 0.004048 0.009943 0.003095
# 4 0.013680 0.003065 0.004048 0.032634 0.017142 0.016456
# 5 0.023457 0.004223 0.009943 0.017142 0.063926 0.029568
# 6 0.018425 0.005751 0.003095 0.016456 0.029568 0.052464
#
#
# Mechanical properties :
#
#
# Convention : Reuss Voigt Hill
#
# Bulk Modulus (GPa) = 17.45273 57.24515 37.34894
# Shear Modulus (GPa) = 19.78584 33.41830 26.60207
#
# Velocity S-wave (km/s) = 3.08615 4.01081 3.57847
# Velocity P-wave (km/s) = 4.59351 7.00035 5.92053
#
# Compressibility (1/GPa) = 0.05729761
#
# Stress axis : x y z
#
# Youngs Moduli (GPa) = 20.48156 97.98449 83.95850
#
# Poissons Ratio (x) = 0.51893 -0.05340
# Poissons Ratio (y) = 0.10847 0.18148
# Poissons Ratio (z) = -0.01303 0.21180
#
# Static dielectric constant tensor:
#      x y z
#    x 3.038460 -0.697730 -0.527770 
#    y -0.697730 4.376310 -0.189570 
#    z -0.527770 -0.189570 3.547140 
# 
# 
# High freq. dielectric constant tensor:
#      x y z
#    x 1.779870 -0.019230 -0.009310 
#    y -0.019230 1.832420 -0.014780 
#    z -0.009310 -0.014780 1.803030 
# 
# From -- ./inp_files/202666.got.cif
#   From: 2010.06.25/outbox.cif.g09.slc.cpg/sg2_102_cif.got.tgz:202666.got - 2010.06.27 13:26:56.
