data_PCOD8040961
_publ_section_title
;
Structure prediction by ZEFSAII (Michael W. Deem and Ramdas Pophale) SiO2 
 PCOD8040961
Probable space group: P -1
;
_chemical_formula_sum "Si O2"
_cell_formula_units_Z 16
_cell_length_a 21.117386
_cell_length_b 14.988333
_cell_length_c 27.371116
_cell_angle_alpha 161.421712
_cell_angle_beta 162.399094
_cell_angle_gamma 28.607840
_cell_volume 804.627287
_symmetry_space_group_name_H-M "P -1"
_symmetry_group_IT_number 2
_symmetry_cell_setting 'triclinic'
loop_
_space_group_symop_operation_xyz
x,y,z
-x,-y,-z
loop_
_atom_site_type_symbol
_atom_site_label
_atom_site_fract_x
_atom_site_fract_y
_atom_site_fract_z
Si Si1 0.482375 0.412982 0.790775
Si Si2 0.890191 0.475211 0.065456
Si Si3 0.593348 0.674658 0.111004
Si Si4 0.834342 0.189504 0.772560
Si Si5 0.051715 0.909002 0.544981
Si Si6 0.708852 0.642850 0.849910
Si Si7 0.615153 0.354474 0.468858
Si Si8 0.507934 0.006091 0.951829
O O1 0.442043 0.666597 0.859466
O O2 0.283462 0.145799 0.492593
O O3 0.714037 0.350788 0.914416
O O4 0.469816 0.498705 0.882623
O O5 0.131727 0.467444 0.255234
O O6 0.899150 0.811926 0.238036
O O7 0.808572 0.299464 0.865018
O O8 0.845980 0.669111 0.290213
O O9 0.579325 0.009167 0.274142
O O10 0.500000 0.500000 0.000000
O O11 0.724784 0.346823 0.732951
O O12 0.087526 0.231864 0.970410
O O13 0.000000 0.000000 0.500000
O O14 0.274075 0.810187 0.656936
O O15 0.489528 0.592954 0.631857
O O16 0.699259 0.871899 0.004251
O O17 0.500000 0.500000 0.500000
O O18 0.500000 0.000000 0.000000
#
# Coordination Sequence:
#
# PCOD8040961 Si02
#       8
#     2   2   2   2   2   2   2   2
#     4  11  23  42  64  93 132 167 212 268 322 382
#     4  10  20  39  66  90 121 172 211 255 321 383
#     4  11  24  40  67  98 128 168 212 269 330 374
#     4  11  25  40  63  90 135 174 204 257 334 390
#     4  10  18  40  68  89 124 168 213 263 317 381
#     4  11  23  42  62  93 124 171 216 259 320 384
#     4  11  22  42  68  92 124 163 219 266 310 381
#     4  11  22  40  67  95 120 165 221 266 314 381
#
# _framework density 19.884982999999998
#
# number of rings (size 3 to 8) (size 9 to 14) (size 15 to 20)
#    0.000    1.250    5.000    2.625    1.750    2.500 
#    2.250    1.875    0.000    0.000    0.000    0.000 
#    0.000    0.000    0.000    0.000    0.000    0.000 
#
# Total GULP energy -198348.536317 kJ/mol
# GULP energy per Si atom -12396.783520 kJ/mol
# Density = 1.983972 g / cm^3
# Si number density = 19.884983 Si / 1000 Ang^3
#
#
#
# Elastic Constant Matrix: (Units=GPa)
#
#
# Indices 1 2 3 4 5 6 
#
# 1 139.0283 34.2784 34.6182 10.2718 -9.9485 4.2182
# 2 34.2784 72.1714 19.5718 -4.8683 2.0180 -0.8111
# 3 34.6182 19.5718 88.6867 12.0544 -7.4989 13.2826
# 4 10.2718 -4.8683 12.0544 23.4707 -3.8165 -6.5231
# 5 -9.9485 2.0180 -7.4989 -3.8165 36.9422 2.4533
# 6 4.2182 -0.8111 13.2826 -6.5231 2.4533 37.8498
#
#
#
# Elastic Compliance Matrix: (Units=1/GPa)
#
#
# Indices 1 2 3 4 5 6 
#
# 1 0.009144 -0.004221 -0.001719 -0.004037 0.002016 -0.001333
# 2 -0.004221 0.017664 -0.004169 0.008356 -0.002344 0.003904
# 3 -0.001719 -0.004169 0.015447 -0.009642 0.002378 -0.007134
# 4 -0.004037 0.008356 -0.009642 0.054994 0.001290 0.013407
# 5 0.002016 -0.002344 0.002378 0.001290 0.028538 -0.002737
# 6 -0.001333 0.003904 -0.007134 0.013407 -0.002737 0.031644
#
#
# Mechanical properties :
#
#
# Convention : Reuss Voigt Hill
#
# Bulk Modulus (GPa) = 45.37828 52.98037 49.17933
# Shear Modulus (GPa) = 27.02753 33.74709 30.38731
#
# Velocity S-wave (km/s) = 3.69072 4.12407 3.91340
# Velocity P-wave (km/s) = 6.40561 7.02699 6.72348
#
# Compressibility (1/GPa) = 0.02203697
#
# Stress axis : x y z
#
# Youngs Moduli (GPa) = 109.35604 56.61128 64.73720
#
# Poissons Ratio (x) = 0.23893 0.11130
# Poissons Ratio (y) = 0.46155 0.26992
# Poissons Ratio (z) = 0.18802 0.23604
#
# Static dielectric constant tensor:
#      x y z
#    x 3.852350 -0.305400 -0.004230 
#    y -0.305400 3.859330 -0.175950 
#    z -0.004230 -0.175950 3.675500 
# 
# 
# High freq. dielectric constant tensor:
#      x y z
#    x 1.791610 -0.019600 -0.011030 
#    y -0.019600 1.763890 -0.016800 
#    z -0.011030 -0.016800 1.771470 
# 
# From -- ./inp_files/620825.got.cif
#   From: 2010.06.25/outbox.cif.g09.slc.cpg/sg2_311_cif.got.tgz:620825.got - 2010.06.27 13:26:56.
