data_PCOD8040713
_publ_section_title
;
Structure prediction by ZEFSAII (Michael W. Deem and Ramdas Pophale) SiO2 
 PCOD8040713
Probable space group: P -1
;
_chemical_formula_sum "Si O2"
_cell_formula_units_Z 16
_cell_length_a 11.665768
_cell_length_b 11.440040
_cell_length_c 17.163478
_cell_angle_alpha 31.422106
_cell_angle_beta 46.547654
_cell_angle_gamma 67.425153
_cell_volume 731.644506
_symmetry_space_group_name_H-M "P -1"
_symmetry_group_IT_number 2
_symmetry_cell_setting 'triclinic'
loop_
_space_group_symop_operation_xyz
x,y,z
-x,-y,-z
loop_
_atom_site_type_symbol
_atom_site_label
_atom_site_fract_x
_atom_site_fract_y
_atom_site_fract_z
Si Si1 0.654370 0.493018 0.270033
Si Si2 0.513279 0.172953 0.063457
Si Si3 0.812755 0.775565 0.876898
Si Si4 0.053663 0.371045 0.249415
Si Si5 0.365907 0.005509 0.389537
Si Si6 0.570694 0.387612 0.598275
Si Si7 0.809494 0.740066 0.600590
Si Si8 0.076698 0.285868 0.837610
O O1 0.478099 0.528317 0.344771
O O2 0.811942 0.676654 0.155693
O O3 0.571051 0.179142 0.495808
O O4 0.739682 0.583465 0.093769
O O5 0.330039 0.140452 0.129147
O O6 0.509873 0.195484 0.146881
O O7 0.534280 0.929994 0.170285
O O8 0.700565 0.438629 0.791839
O O9 0.842062 0.608729 0.891416
O O10 0.010165 0.046099 0.655011
O O11 0.114732 0.235710 0.360968
O O12 0.087941 0.655590 0.100909
O O13 0.831285 0.191989 0.446869
O O14 0.346623 0.180863 0.365346
O O15 0.500000 0.500000 0.500000
O O16 0.789142 0.511209 0.408990
O O17 0.000000 0.000000 0.000000
#
# Coordination Sequence:
#
# PCOD8040713 Si02
#       8
#     2   2   2   2   2   2   2   2
#     4  10  23  41  64  91 130 170 198 265 323 360
#     4  12  21  39  65  92 123 164 218 254 305 381
#     4  11  23  43  61  95 136 160 204 262 328 369
#     4  10  19  36  64  92 121 164 206 259 308 367
#     4  10  18  38  61  92 122 160 215 253 310 375
#     4  10  20  40  62  88 123 165 212 256 307 366
#     4  11  22  35  67  95 123 166 212 259 311 371
#     4  10  21  38  65  95 117 163 219 253 304 379
#
# _framework density 21.868544
#
# number of rings (size 3 to 8) (size 9 to 14) (size 15 to 20)
#    0.000    1.500    6.250    1.125    3.500    5.000 
#    2.250    1.250    0.000    0.000    0.000    0.000 
#    0.000    0.000    0.000    0.000    0.000    0.000 
#
# Total GULP energy -198311.948556 kJ/mol
# GULP energy per Si atom -12394.496785 kJ/mol
# Density = 2.181877 g / cm^3
# Si number density = 21.868544 Si / 1000 Ang^3
#
#
#
# Elastic Constant Matrix: (Units=GPa)
#
#
# Indices 1 2 3 4 5 6 
#
# 1 33.9974 23.2054 12.7596 2.7340 13.4253 -12.4197
# 2 23.2054 112.0363 38.8406 -6.3332 13.0960 -22.2868
# 3 12.7596 38.8406 92.2867 -7.8593 12.6369 -6.7804
# 4 2.7340 -6.3332 -7.8593 48.1076 -0.4261 8.9136
# 5 13.4253 13.0960 12.6369 -0.4261 23.2093 0.8497
# 6 -12.4197 -22.2868 -6.7804 8.9136 0.8497 27.6816
#
#
#
# Elastic Compliance Matrix: (Units=1/GPa)
#
#
# Indices 1 2 3 4 5 6 
#
# 1 0.053261 -0.002666 -0.001033 -0.008469 -0.029817 0.025139
# 2 -0.002666 0.012991 -0.003965 -0.000404 -0.003949 0.008543
# 3 -0.001033 -0.003965 0.013339 0.001834 -0.004363 -0.000845
# 4 -0.008469 -0.000404 0.001834 0.023681 0.004982 -0.011454
# 5 -0.029817 -0.003949 -0.004363 0.004982 0.065808 -0.021251
# 6 0.025139 0.008543 -0.000845 -0.011454 -0.021251 0.058416
#
#
# Mechanical properties :
#
#
# Convention : Reuss Voigt Hill
#
# Bulk Modulus (GPa) = 15.56117 43.10351 29.33234
# Shear Modulus (GPa) = 18.92202 30.70068 24.81135
#
# Velocity S-wave (km/s) = 2.94473 3.75090 3.37199
# Velocity P-wave (km/s) = 4.32355 6.20581 5.34814
#
# Compressibility (1/GPa) = 0.06426253
#
# Stress axis : x y z
#
# Youngs Moduli (GPa) = 18.77556 76.97914 74.96912
#
# Poissons Ratio (x) = 0.20523 0.07745
# Poissons Ratio (y) = 0.05006 0.29723
# Poissons Ratio (z) = 0.01940 0.30520
#
# Static dielectric constant tensor:
#      x y z
#    x 3.698090 -0.464120 0.018890 
#    y -0.464120 4.331610 0.055870 
#    z 0.018890 0.055870 3.995870 
# 
# 
# High freq. dielectric constant tensor:
#      x y z
#    x 1.824810 -0.033190 0.002830 
#    y -0.033190 1.860910 -0.007680 
#    z 0.002830 -0.007680 1.860010 
# 
# From -- ./inp_files/568468.got.cif
#   From: 2010.06.25/outbox.cif.g09.slc.cpg/sg2_285_cif.got.tgz:568468.got - 2010.06.27 13:26:56.
