data_PCOD8040874
_publ_section_title
;
Structure prediction by ZEFSAII (Michael W. Deem and Ramdas Pophale) SiO2 
 PCOD8040874
Probable space group: P -1
;
_chemical_formula_sum "Si O2"
_cell_formula_units_Z 14
_cell_length_a 19.610272
_cell_length_b 10.821982
_cell_length_c 9.879976
_cell_angle_alpha 61.473198
_cell_angle_beta 140.359391
_cell_angle_gamma 146.056580
_cell_volume 665.995634
_symmetry_space_group_name_H-M "P -1"
_symmetry_group_IT_number 2
_symmetry_cell_setting 'triclinic'
loop_
_space_group_symop_operation_xyz
x,y,z
-x,-y,-z
loop_
_atom_site_type_symbol
_atom_site_label
_atom_site_fract_x
_atom_site_fract_y
_atom_site_fract_z
Si Si1 0.698547 0.869467 0.513709
Si Si2 0.298024 0.472054 0.025917
Si Si3 0.064002 0.696046 0.845270
Si Si4 0.810201 0.942742 0.944652
Si Si5 0.781675 0.650772 0.736440
Si Si6 0.705643 0.287096 0.686723
Si Si7 0.001815 0.662282 0.462093
O O1 0.510533 0.747813 0.244558
O O2 0.731186 0.927373 0.693816
O O3 0.663479 0.666282 0.535320
O O4 0.868177 0.111644 0.559060
O O5 0.299594 0.317798 0.040257
O O6 0.176114 0.332682 0.050340
O O7 0.206551 0.493039 0.780765
O O8 0.076044 0.759029 0.676963
O O9 0.843079 0.441004 0.684088
O O10 0.172246 0.664386 0.039488
O O11 0.187359 0.937671 0.997421
O O12 0.021783 0.117875 0.157956
O O13 0.663560 0.397744 0.618921
O O14 0.500000 0.000000 0.500000
O O15 0.000000 0.500000 0.500000
#
# Coordination Sequence:
#
# PCOD8040874 Si02
#       7
#     2   2   2   2   2   2   2
#     4  11  23  39  67  93 120 164 211 255 301 364
#     4  11  22  38  67  93 121 165 206 257 306 357
#     4  10  25  41  62  95 124 165 201 253 315 359
#     4  10  19  41  68  91 124 159 212 258 300 363
#     4  10  18  39  65  95 118 163 210 251 303 358
#     4  10  23  39  66  92 124 158 205 256 304 362
#     4  12  26  44  61  88 132 163 203 252 313 377
#
# _framework density 21.021159000000001
#
# number of rings (size 3 to 8) (size 9 to 14) (size 15 to 20)
#    0.000    1.429    2.857    3.429    8.000    2.286 
#    0.000    0.714    0.000    0.000    0.000    0.000 
#    0.000    0.000    0.000    0.000    0.000    0.000 
#
# Total GULP energy -173569.391583 kJ/mol
# GULP energy per Si atom -12397.813685 kJ/mol
# Density = 2.097331 g / cm^3
# Si number density = 21.021159 Si / 1000 Ang^3
#
#
#
# Elastic Constant Matrix: (Units=GPa)
#
#
# Indices 1 2 3 4 5 6 
#
# 1 89.2199 41.6654 53.4974 -2.6047 -12.5005 -19.2222
# 2 41.6654 81.5820 50.9187 5.2776 -6.9319 -18.8732
# 3 53.4974 50.9187 138.0505 -3.6141 -3.8861 -8.5653
# 4 -2.6047 5.2776 -3.6141 34.4811 -2.3223 -5.3490
# 5 -12.5005 -6.9319 -3.8861 -2.3223 27.5362 4.0610
# 6 -19.2222 -18.8732 -8.5653 -5.3490 4.0610 23.0468
#
#
#
# Elastic Compliance Matrix: (Units=1/GPa)
#
#
# Indices 1 2 3 4 5 6 
#
# 1 0.019369 -0.003921 -0.005129 0.003599 0.005785 0.010853
# 2 -0.003921 0.020274 -0.005331 -0.002246 0.000806 0.010687
# 3 -0.005129 -0.005331 0.010922 0.000834 -0.001449 -0.004136
# 4 0.003599 -0.002246 0.000834 0.031159 0.002598 0.008247
# 5 0.005785 0.000806 -0.001449 0.002598 0.039364 -0.001387
# 6 0.010853 0.010687 -0.004136 0.008247 -0.001387 0.061815
#
#
# Mechanical properties :
#
#
# Convention : Reuss Voigt Hill
#
# Bulk Modulus (GPa) = 45.86808 66.77950 56.32379
# Shear Modulus (GPa) = 22.83801 27.86421 25.35111
#
# Velocity S-wave (km/s) = 3.29968 3.64474 3.47649
# Velocity P-wave (km/s) = 6.03196 7.03909 6.55490
#
# Compressibility (1/GPa) = 0.02180165
#
# Stress axis : x y z
#
# Youngs Moduli (GPa) = 51.62951 49.32450 91.55662
#
# Poissons Ratio (x) = 0.19341 0.46960
# Poissons Ratio (y) = 0.20245 0.48812
# Poissons Ratio (z) = 0.26481 0.26296
#
# Static dielectric constant tensor:
#      x y z
#    x 3.910630 -0.362440 0.150360 
#    y -0.362440 4.146320 -0.176860 
#    z 0.150360 -0.176860 3.824280 
# 
# 
# High freq. dielectric constant tensor:
#      x y z
#    x 1.818380 -0.016970 0.014130 
#    y -0.016970 1.814970 0.012160 
#    z 0.014130 0.012160 1.822770 
# 
# From -- ./inp_files/346051.got.cif
#   From: 2010.06.25/outbox.cif.g09.slc.cpg/sg2_174_cif.got.tgz:346051.got - 2010.06.27 13:26:56.
