data_PCOD8040550
_publ_section_title
;
Structure prediction by ZEFSAII (Michael W. Deem and Ramdas Pophale) SiO2 
 PCOD8040550
Probable space group: P -1
;
_chemical_formula_sum "Si O2"
_cell_formula_units_Z 16
_cell_length_a 20.529122
_cell_length_b 7.849421
_cell_length_c 8.992381
_cell_angle_alpha 106.521762
_cell_angle_beta 73.557825
_cell_angle_gamma 144.612634
_cell_volume 801.069763
_symmetry_space_group_name_H-M "P -1"
_symmetry_group_IT_number 2
_symmetry_cell_setting 'triclinic'
loop_
_space_group_symop_operation_xyz
x,y,z
-x,-y,-z
loop_
_atom_site_type_symbol
_atom_site_label
_atom_site_fract_x
_atom_site_fract_y
_atom_site_fract_z
Si Si1 0.528003 0.992859 0.142185
Si Si2 0.761191 0.377193 0.655954
Si Si3 0.524128 0.877010 0.548610
Si Si4 0.158167 0.089924 0.379170
Si Si5 0.987059 0.665528 0.611221
Si Si6 0.394443 0.443441 0.282252
Si Si7 0.305047 0.913386 0.069992
Si Si8 0.071248 0.600070 0.122475
O O1 0.542587 0.209617 0.277506
O O2 0.425297 0.664694 0.200272
O O3 0.636239 0.086024 0.094812
O O4 0.500000 0.000000 0.000000
O O5 0.812701 0.677720 0.676066
O O6 0.720538 0.274012 0.825725
O O7 0.863471 0.458132 0.579577
O O8 0.657027 0.119485 0.548653
O O9 0.476936 0.612302 0.416341
O O10 0.500000 0.000000 0.500000
O O11 0.272051 0.222913 0.378782
O O12 0.088193 0.992907 0.552045
O O13 0.083252 0.810372 0.252160
O O14 0.000000 0.500000 0.500000
O O15 0.991140 0.670704 0.791524
O O16 0.392977 0.249236 0.153790
O O17 0.192690 0.770266 0.040004
O O18 0.000000 0.500000 0.000000
#
# Coordination Sequence:
#
# PCOD8040550 Si02
#       8
#     2   2   2   2   2   2   2   2
#     4  11  19  37  58  84 116 157 196 236 291 353
#     4  11  19  37  62  84 115 157 191 238 304 336
#     4  10  20  37  59  86 123 147 199 245 284 345
#     4  10  18  37  62  83 116 152 191 241 298 349
#     4   9  20  37  59  85 110 148 194 236 289 352
#     4  10  21  38  59  86 123 156 194 244 293 338
#     4  10  21  37  62  85 119 161 194 239 298 357
#     4   9  20  40  60  83 117 147 194 247 293 344
#
# _framework density 19.973292000000001
#
# number of rings (size 3 to 8) (size 9 to 14) (size 15 to 20)
#    0.000    2.000    3.750    1.500    0.000    0.500 
#    9.000    6.250    0.000    0.000    0.000    0.000 
#    0.000    0.000    0.000    0.000    0.000    0.000 
#
# Total GULP energy -198208.804662 kJ/mol
# GULP energy per Si atom -12388.050291 kJ/mol
# Density = 1.992783 g / cm^3
# Si number density = 19.973292 Si / 1000 Ang^3
#
#
#
# Elastic Constant Matrix: (Units=GPa)
#
#
# Indices 1 2 3 4 5 6 
#
# 1 90.9540 39.6201 41.1162 0.6800 6.1211 21.5894
# 2 39.6201 101.6000 54.9677 -7.3321 8.9711 9.5223
# 3 41.1162 54.9677 103.1837 -3.3283 10.5766 14.6910
# 4 0.6800 -7.3321 -3.3283 25.6073 7.1659 0.3121
# 5 6.1211 8.9711 10.5766 7.1659 37.5683 -2.2301
# 6 21.5894 9.5223 14.6910 0.3121 -2.2301 41.5209
#
#
#
# Elastic Compliance Matrix: (Units=1/GPa)
#
#
# Indices 1 2 3 4 5 6 
#
# 1 0.015667 -0.003786 -0.003328 -0.001645 -0.000762 -0.006129
# 2 -0.003786 0.015153 -0.006310 0.004168 -0.001985 0.000588
# 3 -0.003328 -0.006310 0.014987 0.000953 -0.002487 -0.002266
# 4 -0.001645 0.004168 0.000953 0.043024 -0.009277 -0.001259
# 5 -0.000762 -0.001985 -0.002487 -0.009277 0.029888 0.003406
# 6 -0.006129 0.000588 -0.002266 -0.001259 0.003406 0.028130
#
#
# Mechanical properties :
#
#
# Convention : Reuss Voigt Hill
#
# Bulk Modulus (GPa) = 52.74360 63.01619 57.87989
# Shear Modulus (GPa) = 27.77514 31.60822 29.69168
#
# Velocity S-wave (km/s) = 3.73314 3.98241 3.85979
# Velocity P-wave (km/s) = 6.71164 7.26394 6.99325
#
# Compressibility (1/GPa) = 0.01895965
#
# Stress axis : x y z
#
# Youngs Moduli (GPa) = 63.83011 65.99139 66.72307
#
# Poissons Ratio (x) = 0.24982 0.22209
# Poissons Ratio (y) = 0.24164 0.42101
# Poissons Ratio (z) = 0.21246 0.41639
#
# Static dielectric constant tensor:
#      x y z
#    x 4.170560 0.682670 -0.707210 
#    y 0.682670 4.902190 -1.246360 
#    z -0.707210 -1.246360 5.100830 
# 
# 
# High freq. dielectric constant tensor:
#      x y z
#    x 1.789640 0.005100 -0.001080 
#    y 0.005100 1.765370 -0.022440 
#    z -0.001080 -0.022440 1.766540 
# 
# From -- ./inp_files/218569.got.cif
#   From: 2010.06.25/outbox.cif.g09.slc.cpg/sg2_110_cif.got.tgz:218569.got - 2010.06.27 13:26:56.
