data_PCOD8040650
_publ_section_title
;
Structure prediction by ZEFSAII (Michael W. Deem and Ramdas Pophale) SiO2 
 PCOD8040650
Probable space group: P -1
;
_chemical_formula_sum "Si O2"
_cell_formula_units_Z 16
_cell_length_a 10.300261
_cell_length_b 18.115779
_cell_length_c 12.669838
_cell_angle_alpha 28.059934
_cell_angle_beta 48.599102
_cell_angle_gamma 62.587444
_cell_volume 781.680687
_symmetry_space_group_name_H-M "P -1"
_symmetry_group_IT_number 2
_symmetry_cell_setting 'triclinic'
loop_
_space_group_symop_operation_xyz
x,y,z
-x,-y,-z
loop_
_atom_site_type_symbol
_atom_site_label
_atom_site_fract_x
_atom_site_fract_y
_atom_site_fract_z
Si Si1 0.965541 0.821340 0.496963
Si Si2 0.997085 0.827713 0.871984
Si Si3 0.723461 0.216963 0.767190
Si Si4 0.562436 0.850996 0.350350
Si Si5 0.306308 0.359780 0.295595
Si Si6 0.625811 0.823926 0.108360
Si Si7 0.013209 0.500538 0.368909
Si Si8 0.815526 0.163947 0.454744
O O1 0.770559 0.709986 0.691266
O O2 0.121384 0.832133 0.314536
O O3 0.013066 0.733859 0.688600
O O4 0.957073 0.005404 0.292382
O O5 0.094643 0.885111 0.634570
O O6 0.068399 0.689803 0.058348
O O7 0.772932 0.741409 0.091191
O O8 0.583122 0.269591 0.700585
O O9 0.815646 0.377065 0.589171
O O10 0.608462 0.047772 0.106248
O O11 0.670214 0.785411 0.461593
O O12 0.631986 0.826159 0.228514
O O13 0.336989 0.753820 0.600389
O O14 0.174052 0.436256 0.329932
O O15 0.500000 0.500000 0.000000
O O16 0.698697 0.011733 0.785913
O O17 0.000000 0.500000 0.500000
#
# Coordination Sequence:
#
# PCOD8040650 Si02
#       8
#     2   2   2   2   2   2   2   2
#     4  10  20  40  68  86 122 161 207 243 301 372
#     4  11  22  38  63  93 124 163 191 254 315 350
#     4  10  20  38  66  93 113 163 209 247 296 361
#     4  11  19  38  71  88 117 161 210 248 293 367
#     4  11  26  45  60  90 122 165 208 248 297 369
#     4  10  18  37  67  93 118 151 213 251 291 368
#     4  11  26  43  57  89 136 154 201 260 300 355
#     4  10  19  38  62  97 122 149 204 260 297 353
#
# _framework density 20.468716000000001
#
# number of rings (size 3 to 8) (size 9 to 14) (size 15 to 20)
#    0.000    1.500    3.750    3.750    1.750    1.500 
#    9.000    3.125    0.000    0.000    0.000    0.000 
#    0.000    0.000    0.000    0.000    0.000    0.000 
#
# Total GULP energy -198241.696322 kJ/mol
# GULP energy per Si atom -12390.106020 kJ/mol
# Density = 2.042213 g / cm^3
# Si number density = 20.468716 Si / 1000 Ang^3
#
#
#
# Elastic Constant Matrix: (Units=GPa)
#
#
# Indices 1 2 3 4 5 6 
#
# 1 144.6062 55.3156 36.3068 -2.7670 -18.4508 6.0835
# 2 55.3156 103.5078 25.6960 3.0660 -10.9056 6.7622
# 3 36.3068 25.6960 51.1260 -0.8430 -13.3439 6.5932
# 4 -2.7670 3.0660 -0.8430 28.8294 -3.5876 2.3716
# 5 -18.4508 -10.9056 -13.3439 -3.5876 26.5009 -8.0551
# 6 6.0835 6.7622 6.5932 2.3716 -8.0551 37.6489
#
#
#
# Elastic Compliance Matrix: (Units=1/GPa)
#
#
# Indices 1 2 3 4 5 6 
#
# 1 0.009954 -0.003991 -0.004170 0.001661 0.003565 0.000497
# 2 -0.003991 0.012783 -0.003442 -0.001740 0.000244 -0.000887
# 3 -0.004170 -0.003442 0.026833 0.002000 0.008972 -0.001614
# 4 0.001661 -0.001740 0.002000 0.035933 0.005915 -0.001304
# 5 0.003565 0.000244 0.008972 0.005915 0.047976 0.007701
# 6 0.000497 -0.000887 -0.001614 -0.001304 0.007701 0.028653
#
#
# Mechanical properties :
#
#
# Convention : Reuss Voigt Hill
#
# Bulk Modulus (GPa) = 37.92609 59.31962 48.62285
# Shear Modulus (GPa) = 25.75652 30.72395 28.24024
#
# Velocity S-wave (km/s) = 3.55115 3.87850 3.71843
# Velocity P-wave (km/s) = 5.94838 7.00718 6.49938
#
# Compressibility (1/GPa) = 0.02636708
#
# Stress axis : x y z
#
# Youngs Moduli (GPa) = 100.45726 78.22676 37.26735
#
# Poissons Ratio (x) = 0.31218 0.15539
# Poissons Ratio (y) = 0.40090 0.12826
# Poissons Ratio (z) = 0.41887 0.26922
#
# Static dielectric constant tensor:
#      x y z
#    x 4.436190 -0.082990 -0.115060 
#    y -0.082990 3.675230 0.029350 
#    z -0.115060 0.029350 3.539830 
# 
# 
# High freq. dielectric constant tensor:
#      x y z
#    x 1.819400 -0.010720 -0.000350 
#    y -0.010720 1.794760 0.010900 
#    z -0.000350 0.010900 1.774390 
# 
# From -- ./inp_files/401642.got.cif
#   From: 2010.06.25/outbox.cif.g09.slc.cpg/sg2_201_cif.got.tgz:401642.got - 2010.06.27 13:26:56.
