data_PCOD8040739
_publ_section_title
;
Structure prediction by ZEFSAII (Michael W. Deem and Ramdas Pophale) SiO2 
 PCOD8040739
Probable space group: P -1
;
_chemical_formula_sum "Si O2"
_cell_formula_units_Z 16
_cell_length_a 8.396373
_cell_length_b 13.945836
_cell_length_c 10.992931
_cell_angle_alpha 82.150025
_cell_angle_beta 44.332869
_cell_angle_gamma 64.881559
_cell_volume 785.569693
_symmetry_space_group_name_H-M "P -1"
_symmetry_group_IT_number 2
_symmetry_cell_setting 'triclinic'
loop_
_space_group_symop_operation_xyz
x,y,z
-x,-y,-z
loop_
_atom_site_type_symbol
_atom_site_label
_atom_site_fract_x
_atom_site_fract_y
_atom_site_fract_z
Si Si1 0.173052 0.223442 0.758674
Si Si2 0.849585 0.454455 0.008180
Si Si3 0.292932 0.604420 0.665198
Si Si4 0.372133 0.806549 0.632207
Si Si5 0.153366 0.020111 0.162507
Si Si6 0.435101 0.135001 0.875015
Si Si7 0.283117 0.337408 0.074863
Si Si8 0.299400 0.817084 0.956441
O O1 0.346256 0.204903 0.546847
O O2 0.366864 0.142590 0.769472
O O3 0.048315 0.350066 0.842311
O O4 0.947957 0.192787 0.858603
O O5 0.680360 0.554779 0.991682
O O6 0.686535 0.420347 0.195910
O O7 0.000000 0.500000 0.000000
O O8 0.500000 0.500000 0.500000
O O9 0.354489 0.704882 0.597373
O O10 0.016240 0.632547 0.753856
O O11 0.312563 0.816923 0.805131
O O12 0.156361 0.919631 0.668922
O O13 0.277139 0.962846 0.234351
O O14 0.230496 0.114454 0.069973
O O15 0.269034 0.930408 0.006898
O O16 0.411113 0.251157 0.909767
O O17 0.436156 0.285620 0.124480
#
# Coordination Sequence:
#
# PCOD8040739 Si02
#       8
#     2   2   2   2   2   2   2   2
#     4  12  23  40  64  91 127 162 206 249 312 367
#     4  10  18  38  63  87 119 160 199 255 304 351
#     4  11  21  39  65  95 118 160 212 257 304 358
#     4  12  23  41  63  92 126 164 205 252 307 369
#     4  10  21  40  67  87 122 166 205 256 311 346
#     4  10  19  39  66  91 117 160 211 259 299 360
#     4  10  20  39  65  89 123 162 206 251 310 359
#     4  11  24  43  60  90 131 169 197 249 311 373
#
# _framework density 20.367384000000001
#
# number of rings (size 3 to 8) (size 9 to 14) (size 15 to 20)
#    0.000    1.250    6.250    1.875    0.000    1.500 
#    2.250    1.250    0.000    0.000    0.000    0.000 
#    0.000    0.000    0.000    0.000    0.000    0.000 
#
# Total GULP energy -198373.000244 kJ/mol
# GULP energy per Si atom -12398.312515 kJ/mol
# Density = 2.032103 g / cm^3
# Si number density = 20.367384 Si / 1000 Ang^3
#
#
#
# Elastic Constant Matrix: (Units=GPa)
#
#
# Indices 1 2 3 4 5 6 
#
# 1 77.4153 31.3837 23.1064 5.7801 -15.7682 -10.9599
# 2 31.3837 111.1814 34.5960 11.3740 -4.8744 -15.1577
# 3 23.1064 34.5960 111.5058 3.5375 -17.4611 -7.6943
# 4 5.7801 11.3740 3.5375 26.3943 5.4904 -6.2813
# 5 -15.7682 -4.8744 -17.4611 5.4904 20.2227 7.1747
# 6 -10.9599 -15.1577 -7.6943 -6.2813 7.1747 26.3169
#
#
#
# Elastic Compliance Matrix: (Units=1/GPa)
#
#
# Indices 1 2 3 4 5 6 
#
# 1 0.017799 -0.003831 -0.000099 -0.005188 0.014260 0.000051
# 2 -0.003831 0.011710 -0.003085 -0.001763 -0.004104 0.004945
# 3 -0.000099 -0.003085 0.011570 -0.002908 0.010683 -0.002042
# 4 -0.005188 -0.001763 -0.002908 0.048938 -0.025444 0.014591
# 5 0.014260 -0.004104 0.010683 -0.025444 0.083573 -0.022159
# 6 0.000051 0.004945 -0.002042 0.014591 -0.022159 0.049795
#
#
# Mechanical properties :
#
#
# Convention : Reuss Voigt Hill
#
# Bulk Modulus (GPa) = 36.96731 53.14164 45.05447
# Shear Modulus (GPa) = 20.28977 28.65454 24.47215
#
# Velocity S-wave (km/s) = 3.15967 3.75491 3.47008
# Velocity P-wave (km/s) = 5.61258 6.70428 6.18257
#
# Compressibility (1/GPa) = 0.02705093
#
# Stress axis : x y z
#
# Youngs Moduli (GPa) = 56.18346 85.39572 86.43026
#
# Poissons Ratio (x) = 0.32711 0.00853
# Poissons Ratio (y) = 0.21521 0.26663
# Poissons Ratio (z) = 0.00554 0.26343
#
# Static dielectric constant tensor:
#      x y z
#    x 3.688220 -0.189010 -0.135830 
#    y -0.189010 4.451370 0.004050 
#    z -0.135830 0.004050 3.445690 
# 
# 
# High freq. dielectric constant tensor:
#      x y z
#    x 1.784270 -0.001580 -0.008350 
#    y -0.001580 1.819060 0.009670 
#    z -0.008350 0.009670 1.768280 
# 
# From -- ./inp_files/270584.got.cif
#   From: 2010.06.25/outbox.cif.g09.slc.cpg/sg2_136_cif.got.tgz:270584.got - 2010.06.27 13:26:56.
