data_PCOD8040405
_publ_section_title
;
Structure prediction by ZEFSAII (Michael W. Deem and Ramdas Pophale) SiO2 
 PCOD8040405
Probable space group: P -1
;
_chemical_formula_sum "Si O2"
_cell_formula_units_Z 16
_cell_length_a 11.054066
_cell_length_b 11.764935
_cell_length_c 9.148268
_cell_angle_alpha 126.330341
_cell_angle_beta 67.194339
_cell_angle_gamma 125.412488
_cell_volume 779.372207
_symmetry_space_group_name_H-M "P -1"
_symmetry_group_IT_number 2
_symmetry_cell_setting 'triclinic'
loop_
_space_group_symop_operation_xyz
x,y,z
-x,-y,-z
loop_
_atom_site_type_symbol
_atom_site_label
_atom_site_fract_x
_atom_site_fract_y
_atom_site_fract_z
Si Si1 0.158364 0.843812 0.974649
Si Si2 0.680983 0.334339 0.697915
Si Si3 0.189499 0.113532 0.575513
Si Si4 0.856294 0.684608 0.822692
Si Si5 0.392017 0.939456 0.704409
Si Si6 0.103659 0.105803 0.303697
Si Si7 0.371322 0.239840 0.845287
Si Si8 0.730948 0.148973 0.766494
O O1 0.272054 0.832424 0.798739
O O2 0.989833 0.742934 0.919860
O O3 0.189015 0.776933 0.060714
O O4 0.198412 0.030419 0.121710
O O5 0.792606 0.494810 0.683354
O O6 0.603162 0.179818 0.511409
O O7 0.548809 0.357435 0.856962
O O8 0.771300 0.299030 0.755211
O O9 0.177078 0.194667 0.490471
O O10 0.324850 0.248080 0.705101
O O11 0.199149 0.954702 0.412509
O O12 0.048561 0.051999 0.703184
O O13 0.915134 0.773233 0.706788
O O14 0.719910 0.711415 0.962078
O O15 0.335933 0.057294 0.751185
O O16 0.552624 0.039100 0.780378
#
# Coordination Sequence:
#
# PCOD8040405 Si02
#       8
#     2   2   2   2   2   2   2   2
#     4  11  22  36  63  87 116 152 201 248 281 346
#     4  11  24  39  59  87 124 158 188 238 299 355
#     4  10  18  36  65  85 112 145 208 246 276 338
#     4  12  24  39  58  90 125 152 190 243 302 345
#     4  11  20  39  64  87 115 155 202 241 282 350
#     4  10  21  36  59  92 113 151 196 248 290 335
#     4  11  19  40  63  86 112 157 206 238 280 346
#     4  10  21  39  61  89 112 155 203 241 286 339
#
# _framework density 20.529343999999998
#
# number of rings (size 3 to 8) (size 9 to 14) (size 15 to 20)
#    0.000    1.250    5.000    2.625    0.000    1.000 
#    0.000    1.875    0.000    0.000    0.000    0.000 
#    0.000    0.000    0.000    0.000    0.000    0.000 
#
# Total GULP energy -198338.638704 kJ/mol
# GULP energy per Si atom -12396.164919 kJ/mol
# Density = 2.048262 g / cm^3
# Si number density = 20.529344 Si / 1000 Ang^3
#
#
#
# Elastic Constant Matrix: (Units=GPa)
#
#
# Indices 1 2 3 4 5 6 
#
# 1 105.6737 35.0982 32.1559 -8.0227 19.5019 -16.4950
# 2 35.0982 93.4500 29.8774 -2.0823 14.9239 -15.0862
# 3 32.1559 29.8774 57.9367 -14.1774 5.7916 -6.7974
# 4 -8.0227 -2.0823 -14.1774 26.3121 0.0503 1.8098
# 5 19.5019 14.9239 5.7916 0.0503 37.2964 -12.6418
# 6 -16.4950 -15.0862 -6.7974 1.8098 -12.6418 21.9025
#
#
#
# Elastic Compliance Matrix: (Units=1/GPa)
#
#
# Indices 1 2 3 4 5 6 
#
# 1 0.013167 -0.001896 -0.005220 0.000729 -0.003689 0.004800
# 2 -0.001896 0.014638 -0.006425 -0.003280 -0.001883 0.005845
# 3 -0.005220 -0.006425 0.026255 0.012088 0.000992 -0.000635
# 4 0.000729 -0.003280 0.012088 0.044676 -0.001946 -0.002774
# 5 -0.003689 -0.001883 0.000992 -0.001946 0.034960 0.016572
# 6 0.004800 0.005845 -0.000635 -0.002774 0.016572 0.062895
#
#
# Mechanical properties :
#
#
# Convention : Reuss Voigt Hill
#
# Bulk Modulus (GPa) = 37.06652 50.14704 43.60678
# Shear Modulus (GPa) = 21.48998 27.76414 24.62706
#
# Velocity S-wave (km/s) = 3.23893 3.68151 3.46729
# Velocity P-wave (km/s) = 5.66411 6.52314 6.10874
#
# Compressibility (1/GPa) = 0.02697852
#
# Stress axis : x y z
#
# Youngs Moduli (GPa) = 75.94956 68.31305 38.08780
#
# Poissons Ratio (x) = 0.12952 0.19880
# Poissons Ratio (y) = 0.14400 0.24473
# Poissons Ratio (z) = 0.39642 0.43893
#
# Static dielectric constant tensor:
#      x y z
#    x 4.031190 -0.111840 0.001840 
#    y -0.111840 3.391520 -0.232820 
#    z 0.001840 -0.232820 3.650550 
# 
# 
# High freq. dielectric constant tensor:
#      x y z
#    x 1.818160 -0.002060 -0.003360 
#    y -0.002060 1.766650 -0.022900 
#    z -0.003360 -0.022900 1.798170 
# 
# From -- ./inp_files/252229.got.cif
#   From: 2010.06.25/outbox.cif.g09.slc.cpg/sg2_127_cif.got.tgz:252229.got - 2010.06.27 13:26:56.
