data_PCOD8040597
_publ_section_title
;
Structure prediction by ZEFSAII (Michael W. Deem and Ramdas Pophale) SiO2 
 PCOD8040597
Probable space group: P -1
;
_chemical_formula_sum "Si O2"
_cell_formula_units_Z 14
_cell_length_a 14.171903
_cell_length_b 8.432809
_cell_length_c 11.270926
_cell_angle_alpha 43.737398
_cell_angle_beta 59.333807
_cell_angle_gamma 89.816925
_cell_volume 632.045162
_symmetry_space_group_name_H-M "P -1"
_symmetry_group_IT_number 2
_symmetry_cell_setting 'triclinic'
loop_
_space_group_symop_operation_xyz
x,y,z
-x,-y,-z
loop_
_atom_site_type_symbol
_atom_site_label
_atom_site_fract_x
_atom_site_fract_y
_atom_site_fract_z
Si Si1 0.648252 0.703920 0.475062
Si Si2 0.405599 0.655541 0.734744
Si Si3 0.901128 0.366635 0.312632
Si Si4 0.955052 0.631330 0.550630
Si Si5 0.670133 0.220849 0.064488
Si Si6 0.918209 0.057311 0.249265
Si Si7 0.631220 0.276299 0.534448
O O1 0.505464 0.559856 0.719772
O O2 0.617933 0.473143 0.522890
O O3 0.691164 0.995317 0.226623
O O4 0.771738 0.784717 0.437609
O O5 0.308367 0.550835 0.970660
O O6 0.323800 0.571937 0.707480
O O7 0.500000 0.000000 0.500000
O O8 0.885921 0.189083 0.304247
O O9 0.748815 0.250818 0.516309
O O10 0.972048 0.315800 0.399153
O O11 0.991547 0.707434 0.038754
O O12 0.000000 0.500000 0.500000
O O13 0.000257 0.938643 0.307006
O O14 0.788016 0.414163 0.787309
O O15 0.517506 0.044362 0.198514
#
# Coordination Sequence:
#
# PCOD8040597 Si02
#       7
#     2   2   2   2   2   2   2
#     4  10  18  37  64 100 127 165 221 267 329 383
#     4   8  16  32  59  91 125 163 214 258 314 386
#     4  11  24  45  69  93 132 175 225 268 324 394
#     4  12  27  44  66 100 136 168 220 275 330 391
#     4  10  20  40  64  93 134 169 215 270 324 391
#     4  11  24  43  70  94 131 180 220 267 328 391
#     4  10  20  35  68  99 125 172 218 268 329 383
#
# _framework density 22.150316
#
# number of rings (size 3 to 8) (size 9 to 14) (size 15 to 20)
#    0.000    2.000    1.429    5.571    4.000    1.143 
#    0.000    5.714    0.000    0.000    0.000    0.000 
#    0.000    0.000    0.000    0.000    0.000    0.000 
#
# Total GULP energy -173573.781533 kJ/mol
# GULP energy per Si atom -12398.127252 kJ/mol
# Density = 2.209990 g / cm^3
# Si number density = 22.150316 Si / 1000 Ang^3
#
#
#
# Elastic Constant Matrix: (Units=GPa)
#
#
# Indices 1 2 3 4 5 6 
#
# 1 123.4515 24.3807 32.7779 -7.8140 -3.6395 -8.5921
# 2 24.3807 146.1018 22.7710 12.8786 -6.4253 -6.9049
# 3 32.7779 22.7710 53.4052 9.0294 -3.1602 -8.2025
# 4 -7.8140 12.8786 9.0294 24.6723 -7.6524 -3.3001
# 5 -3.6395 -6.4253 -3.1602 -7.6524 32.1871 -0.8321
# 6 -8.5921 -6.9049 -8.2025 -3.3001 -0.8321 40.1524
#
#
#
# Elastic Compliance Matrix: (Units=1/GPa)
#
#
# Indices 1 2 3 4 5 6 
#
# 1 0.010848 -0.001212 -0.007079 0.007489 0.002104 0.001326
# 2 -0.001212 0.007683 -0.001849 -0.003545 0.000383 0.000401
# 3 -0.007079 -0.001849 0.026012 -0.010799 -0.001117 0.002570
# 4 0.007489 -0.003545 -0.010799 0.052791 0.011717 0.003368
# 5 0.002104 0.000383 -0.001117 0.011717 0.034109 0.001958
# 6 0.001326 0.000401 0.002570 0.003368 0.001958 0.026100
#
#
# Mechanical properties :
#
#
# Convention : Reuss Voigt Hill
#
# Bulk Modulus (GPa) = 41.21288 53.64640 47.42964
# Shear Modulus (GPa) = 26.89466 35.60430 31.24948
#
# Velocity S-wave (km/s) = 3.48830 4.01358 3.76013
# Velocity P-wave (km/s) = 5.90514 6.76390 6.34906
#
# Compressibility (1/GPa) = 0.02426426
#
# Stress axis : x y z
#
# Youngs Moduli (GPa) = 92.18631 130.15458 38.44311
#
# Poissons Ratio (x) = 0.15772 0.27214
# Poissons Ratio (y) = 0.11171 0.07106
# Poissons Ratio (z) = 0.65260 0.24060
#
# Static dielectric constant tensor:
#      x y z
#    x 4.115720 -0.004210 -0.073400 
#    y -0.004210 4.498920 0.498930 
#    z -0.073400 0.498930 4.043260 
# 
# 
# High freq. dielectric constant tensor:
#      x y z
#    x 1.877840 -0.001840 -0.013090 
#    y -0.001840 1.886290 0.013430 
#    z -0.013090 0.013430 1.836780 
# 
# From -- ./inp_files/413930.got.cif
#   From: 2010.06.25/outbox.cif.g09.slc.cpg/sg2_207_cif.got.tgz:413930.got - 2010.06.27 13:26:56.
