data_PCOD8040717
_publ_section_title
;
Structure prediction by ZEFSAII (Michael W. Deem and Ramdas Pophale) SiO2 
 PCOD8040717
Probable space group: P -1
;
_chemical_formula_sum "Si O2"
_cell_formula_units_Z 16
_cell_length_a 10.699908
_cell_length_b 15.727178
_cell_length_c 8.750605
_cell_angle_alpha 133.970752
_cell_angle_beta 112.636416
_cell_angle_gamma 49.346233
_cell_volume 797.858849
_symmetry_space_group_name_H-M "P -1"
_symmetry_group_IT_number 2
_symmetry_cell_setting 'triclinic'
loop_
_space_group_symop_operation_xyz
x,y,z
-x,-y,-z
loop_
_atom_site_type_symbol
_atom_site_label
_atom_site_fract_x
_atom_site_fract_y
_atom_site_fract_z
Si Si1 0.408292 0.810792 0.421846
Si Si2 0.481864 0.182991 0.184815
Si Si3 0.974445 0.609932 0.496110
Si Si4 0.727721 0.614132 0.157364
Si Si5 0.080341 0.086300 0.648641
Si Si6 0.219810 0.126992 0.058033
Si Si7 0.292227 0.456139 0.259212
Si Si8 0.248761 0.646201 0.229492
O O1 0.499724 0.798135 0.604983
O O2 0.540639 0.752794 0.276429
O O3 0.334961 0.716126 0.285567
O O4 0.263440 0.979770 0.526592
O O5 0.318405 0.183723 0.090975
O O6 0.453062 0.318256 0.245203
O O7 0.645824 0.034408 0.013360
O O8 0.859786 0.622418 0.321544
O O9 0.893190 0.768673 0.726845
O O10 0.000000 0.500000 0.500000
O O11 0.152447 0.550140 0.436191
O O12 0.763166 0.606856 0.982309
O O13 0.736521 0.470158 0.029299
O O14 0.949972 0.235274 0.684070
O O15 0.099614 0.123360 0.876938
O O16 0.000000 0.000000 0.500000
O O17 0.331766 0.562129 0.325777
#
# Coordination Sequence:
#
# PCOD8040717 Si02
#       8
#     2   2   2   2   2   2   2   2
#     4  10  18  38  62  80 111 150 195 225 274 342
#     4  10  20  37  56  84 111 147 189 235 275 337
#     4  12  20  36  58  82 114 152 189 232 276 339
#     4  10  21  35  54  87 112 149 188 232 280 326
#     4   9  19  36  60  86 109 145 190 233 273 339
#     4  10  20  34  62  80 109 149 193 227 280 331
#     4  10  23  36  53  85 121 145 185 238 280 325
#     4   9  21  35  58  82 116 148 184 230 287 320
#
# _framework density 20.053673
#
# number of rings (size 3 to 8) (size 9 to 14) (size 15 to 20)
#    0.750    1.250    2.500    1.500    0.000    0.500 
#    2.250    0.625    0.000    2.250    0.000    0.000 
#    0.000    0.000    0.000    0.000    0.000    0.000 
#
# Total GULP energy -198234.792430 kJ/mol
# GULP energy per Si atom -12389.674527 kJ/mol
# Density = 2.000803 g / cm^3
# Si number density = 20.053673 Si / 1000 Ang^3
#
#
#
# Elastic Constant Matrix: (Units=GPa)
#
#
# Indices 1 2 3 4 5 6 
#
# 1 29.4655 9.7735 17.3492 3.3492 -6.4147 -9.3988
# 2 9.7735 92.9612 14.7328 17.0407 -14.4495 -14.2064
# 3 17.3492 14.7328 113.4085 12.1358 -9.8674 -11.5740
# 4 3.3492 17.0407 12.1358 29.0291 -11.0082 -6.6931
# 5 -6.4147 -14.4495 -9.8674 -11.0082 39.6433 -0.3004
# 6 -9.3988 -14.2064 -11.5740 -6.6931 -0.3004 19.6988
#
#
#
# Elastic Compliance Matrix: (Units=1/GPa)
#
#
# Indices 1 2 3 4 5 6 
#
# 1 0.044093 -0.000628 -0.004518 0.004383 0.007146 0.019529
# 2 -0.000628 0.013431 -0.000043 -0.004638 0.003554 0.007839
# 3 -0.004518 -0.000043 0.010188 -0.002629 0.001081 0.002923
# 4 0.004383 -0.004638 -0.002629 0.044800 0.010900 0.012590
# 5 0.007146 0.003554 0.001081 0.010900 0.031054 0.010785
# 6 0.019529 0.007839 0.002923 0.012590 0.010785 0.071895
#
#
# Mechanical properties :
#
#
# Convention : Reuss Voigt Hill
#
# Bulk Modulus (GPa) = 17.44165 35.50514 26.47339
# Shear Modulus (GPa) = 20.41226 30.60623 25.50925
#
# Velocity S-wave (km/s) = 3.19389 3.91092 3.57045
# Velocity P-wave (km/s) = 4.72415 6.17553 5.49794
#
# Compressibility (1/GPa) = 0.05733403
#
# Stress axis : x y z
#
# Youngs Moduli (GPa) = 22.67927 74.45584 98.15378
#
# Poissons Ratio (x) = 0.04675 0.44346
# Poissons Ratio (y) = 0.01424 0.00423
# Poissons Ratio (z) = 0.10246 0.00321
#
# Static dielectric constant tensor:
#      x y z
#    x 3.346660 -0.372580 -0.091280 
#    y -0.372580 3.910040 0.396990 
#    z -0.091280 0.396990 3.921980 
# 
# 
# High freq. dielectric constant tensor:
#      x y z
#    x 1.749590 -0.027840 -0.000650 
#    y -0.027840 1.779100 0.018670 
#    z -0.000650 0.018670 1.793270 
# 
# From -- ./inp_files/271119.got.cif
#   From: 2010.06.25/outbox.cif.g09.slc.cpg/sg2_136_cif.got.tgz:271119.got - 2010.06.27 13:26:56.
