data_PCOD8040341
_publ_section_title
;
Structure prediction by ZEFSAII (Michael W. Deem and Ramdas Pophale) SiO2 
 PCOD8040341
Probable space group: P -1
;
_chemical_formula_sum "Si O2"
_cell_formula_units_Z 14
_cell_length_a 9.386774
_cell_length_b 11.808063
_cell_length_c 15.378922
_cell_angle_alpha 135.183993
_cell_angle_beta 80.455925
_cell_angle_gamma 132.395491
_cell_volume 709.608835
_symmetry_space_group_name_H-M "P -1"
_symmetry_group_IT_number 2
_symmetry_cell_setting 'triclinic'
loop_
_space_group_symop_operation_xyz
x,y,z
-x,-y,-z
loop_
_atom_site_type_symbol
_atom_site_label
_atom_site_fract_x
_atom_site_fract_y
_atom_site_fract_z
Si Si1 0.591893 0.309099 0.092443
Si Si2 0.864832 0.748569 0.626988
Si Si3 0.909773 0.110254 0.154312
Si Si4 0.661098 0.664467 0.160563
Si Si5 0.204866 0.368851 0.104371
Si Si6 0.519347 0.711483 0.708488
Si Si7 0.888630 0.306272 0.986389
O O1 0.701886 0.540197 0.143661
O O2 0.540598 0.326394 0.203942
O O3 0.780539 0.330370 0.083615
O O4 0.338348 0.025046 0.921524
O O5 0.673446 0.687515 0.665334
O O6 0.731285 0.521505 0.445333
O O7 0.996640 0.749561 0.684308
O O8 0.070655 0.035006 0.715407
O O9 0.112269 0.344779 0.193361
O O10 0.876959 0.888055 0.042687
O O11 0.496388 0.640084 0.221272
O O12 0.500000 0.500000 0.000000
O O13 0.098776 0.384633 0.047592
O O14 0.668856 0.995326 0.810499
O O15 0.000000 0.500000 0.000000
#
# Coordination Sequence:
#
# PCOD8040341 Si02
#       7
#     2   2   2   2   2   2   2
#     4  11  22  36  64  87 121 156 204 237 298 355
#     4  11  21  37  63  88 123 149 201 252 300 337
#     4  10  18  36  62  87 108 158 200 249 278 350
#     4  11  19  34  61  91 112 154 204 250 282 345
#     4  10  19  34  61  86 116 145 212 239 287 337
#     4  11  23  39  57  92 121 157 191 253 302 350
#     4  12  23  38  62  91 121 158 197 247 293 363
#
# _framework density 19.729178999999998
#
# number of rings (size 3 to 8) (size 9 to 14) (size 15 to 20)
#    0.000    1.143    5.714    3.857    0.000    0.571 
#    0.000    2.143    0.000    1.714    0.000    0.000 
#    0.000    0.000    0.000    0.000    0.000    0.000 
#
# Total GULP energy -173518.528956 kJ/mol
# GULP energy per Si atom -12394.180640 kJ/mol
# Density = 1.968427 g / cm^3
# Si number density = 19.729179 Si / 1000 Ang^3
#
#
#
# Elastic Constant Matrix: (Units=GPa)
#
#
# Indices 1 2 3 4 5 6 
#
# 1 65.9807 4.6040 12.5107 -3.3252 2.6155 5.8467
# 2 4.6040 99.0678 34.3174 4.7002 4.6215 -5.8707
# 3 12.5107 34.3174 97.2123 -2.7436 20.8851 -5.9598
# 4 -3.3252 4.7002 -2.7436 22.9116 -3.8003 4.7798
# 5 2.6155 4.6215 20.8851 -3.8003 25.2502 2.1541
# 6 5.8467 -5.8707 -5.9598 4.7798 2.1541 36.3897
#
#
#
# Elastic Compliance Matrix: (Units=1/GPa)
#
#
# Indices 1 2 3 4 5 6 
#
# 1 0.016033 -0.000348 -0.002293 0.003021 0.001050 -0.003467
# 2 -0.000348 0.011805 -0.004284 -0.003193 0.000800 0.001631
# 3 -0.002293 -0.004284 0.014711 -0.000165 -0.011409 0.002784
# 4 0.003021 -0.003193 -0.000165 0.047712 0.008253 -0.007783
# 5 0.001050 0.000800 -0.011409 0.008253 0.050538 -0.005984
# 6 -0.003467 0.001631 0.002784 -0.007783 -0.005984 0.030133
#
#
# Mechanical properties :
#
#
# Convention : Reuss Voigt Hill
#
# Bulk Modulus (GPa) = 34.84662 40.56945 37.70803
# Shear Modulus (GPa) = 25.72664 30.96554 28.34609
#
# Velocity S-wave (km/s) = 3.61500 3.96603 3.79457
# Velocity P-wave (km/s) = 5.92664 6.44828 6.19296
#
# Compressibility (1/GPa) = 0.02869719
#
# Stress axis : x y z
#
# Youngs Moduli (GPa) = 62.37172 84.70772 67.97419
#
# Poissons Ratio (x) = 0.02952 0.15588
# Poissons Ratio (y) = 0.02174 0.29124
# Poissons Ratio (z) = 0.14303 0.36293
#
# Static dielectric constant tensor:
#      x y z
#    x 3.766980 0.176430 0.260140 
#    y 0.176430 4.033760 0.094950 
#    z 0.260140 0.094950 3.362550 
# 
# 
# High freq. dielectric constant tensor:
#      x y z
#    x 1.770800 0.004610 0.022020 
#    y 0.004610 1.795910 0.007060 
#    z 0.022020 0.007060 1.718390 
# 
# From -- ./inp_files/239916.got.cif
#   From: 2010.06.25/outbox.cif.g09.slc.cpg/sg2_120_cif.got.tgz:239916.got - 2010.06.27 13:26:56.
