data_PCOD8040728
_publ_section_title
;
Structure prediction by ZEFSAII (Michael W. Deem and Ramdas Pophale) SiO2 
 PCOD8040728
Probable space group: P -1
;
_chemical_formula_sum "Si O2"
_cell_formula_units_Z 16
_cell_length_a 10.982665
_cell_length_b 8.879248
_cell_length_c 17.957743
_cell_angle_alpha 74.183352
_cell_angle_beta 29.878862
_cell_angle_gamma 86.460244
_cell_volume 781.696661
_symmetry_space_group_name_H-M "P -1"
_symmetry_group_IT_number 2
_symmetry_cell_setting 'triclinic'
loop_
_space_group_symop_operation_xyz
x,y,z
-x,-y,-z
loop_
_atom_site_type_symbol
_atom_site_label
_atom_site_fract_x
_atom_site_fract_y
_atom_site_fract_z
Si Si1 0.242024 0.845331 0.681206
Si Si2 0.858111 0.633281 0.545188
Si Si3 0.175625 0.335602 0.707170
Si Si4 0.906448 0.568799 0.796447
Si Si5 0.724473 0.034758 0.776391
Si Si6 0.830682 0.995072 0.894063
Si Si7 0.415510 0.334608 0.165878
Si Si8 0.477914 0.594695 0.618459
O O1 0.316053 0.713487 0.712760
O O2 0.086518 0.752820 0.703038
O O3 0.500000 0.000000 0.500000
O O4 0.021468 0.899258 0.832661
O O5 0.662897 0.644323 0.711555
O O6 0.679134 0.579343 0.574276
O O7 0.000000 0.500000 0.500000
O O8 0.071783 0.820253 0.399989
O O9 0.286002 0.406267 0.721311
O O10 0.389825 0.310161 0.541568
O O11 0.094517 0.471896 0.685911
O O12 0.926647 0.165263 0.868682
O O13 0.749845 0.583619 0.806107
O O14 0.718221 0.453627 0.977026
O O15 0.855913 0.026066 0.787416
O O16 0.642612 0.858016 0.800377
O O17 0.475774 0.094225 0.911632
#
# Coordination Sequence:
#
# PCOD8040728 Si02
#       8
#     2   2   2   2   2   2   2   2
#     4  11  20  36  62  97 126 154 204 264 309 371
#     4  12  26  43  64  90 128 169 212 261 322 376
#     4  10  18  38  62  89 126 155 207 266 298 372
#     4  10  22  37  64  99 119 161 216 256 321 360
#     4  11  23  40  62  95 129 166 215 257 316 374
#     4  11  21  37  69  94 127 158 213 270 308 360
#     4  11  23  40  64  89 132 166 206 266 311 378
#     4  10  22  38  61  92 122 164 209 253 318 373
#
# _framework density 20.468297
#
# number of rings (size 3 to 8) (size 9 to 14) (size 15 to 20)
#    0.000    1.250    5.000    1.125    1.750    0.000 
#    0.000    2.500    0.000    1.500    0.000    0.000 
#    0.000    0.000    0.000    0.000    0.000    0.000 
#
# Total GULP energy -198273.863280 kJ/mol
# GULP energy per Si atom -12392.116455 kJ/mol
# Density = 2.042171 g / cm^3
# Si number density = 20.468297 Si / 1000 Ang^3
#
#
#
# Elastic Constant Matrix: (Units=GPa)
#
#
# Indices 1 2 3 4 5 6 
#
# 1 102.7165 50.7855 33.3323 0.7330 -18.2358 1.2284
# 2 50.7855 114.5955 29.2160 2.3471 -10.0383 10.9486
# 3 33.3323 29.2160 81.5378 -3.0753 -3.5649 4.4349
# 4 0.7330 2.3471 -3.0753 31.7837 0.1442 -12.1323
# 5 -18.2358 -10.0383 -3.5649 0.1442 31.2506 1.4756
# 6 1.2284 10.9486 4.4349 -12.1323 1.4756 32.6818
#
#
#
# Elastic Compliance Matrix: (Units=1/GPa)
#
#
# Indices 1 2 3 4 5 6 
#
# 1 0.014641 -0.005061 -0.003965 0.000181 0.006396 0.001462
# 2 -0.005061 0.012077 -0.002070 -0.002750 0.000922 -0.004637
# 3 -0.003965 -0.002070 0.014655 0.001460 -0.001288 -0.000546
# 4 0.000181 -0.002750 0.001460 0.037409 -0.001476 0.014670
# 5 0.006396 0.000922 -0.001288 -0.001476 0.036008 -0.002548
# 6 0.001462 -0.004637 -0.000546 0.014670 -0.002548 0.037732
#
#
# Mechanical properties :
#
#
# Convention : Reuss Voigt Hill
#
# Bulk Modulus (GPa) = 52.13104 58.39082 55.26093
# Shear Modulus (GPa) = 27.60804 31.51096 29.55950
#
# Velocity S-wave (km/s) = 3.67661 3.92790 3.80433
# Velocity P-wave (km/s) = 6.59907 7.01146 6.80839
#
# Compressibility (1/GPa) = 0.01918243
#
# Stress axis : x y z
#
# Youngs Moduli (GPa) = 68.30115 82.80278 68.23541
#
# Poissons Ratio (x) = 0.41904 0.27055
# Poissons Ratio (y) = 0.34566 0.14122
# Poissons Ratio (z) = 0.27081 0.17137
#
# Static dielectric constant tensor:
#      x y z
#    x 3.538930 0.026130 -0.388280 
#    y 0.026130 3.962810 0.098290 
#    z -0.388280 0.098290 3.724010 
# 
# 
# High freq. dielectric constant tensor:
#      x y z
#    x 1.779510 0.005990 -0.044480 
#    y 0.005990 1.819120 0.010040 
#    z -0.044480 0.010040 1.789240 
# 
# From -- ./inp_files/414378.got.cif
#   From: 2010.06.25/outbox.cif.g09.slc.cpg/sg2_208_cif.got.tgz:414378.got - 2010.06.27 13:26:56.
