data_PCOD8040205
_publ_section_title
;
Structure prediction by ZEFSAII (Michael W. Deem and Ramdas Pophale) SiO2 
 PCOD8040205
Probable space group: P -1
;
_chemical_formula_sum "Si O2"
_cell_formula_units_Z 16
_cell_length_a 14.338164
_cell_length_b 8.740549
_cell_length_c 11.614186
_cell_angle_alpha 124.260374
_cell_angle_beta 52.435485
_cell_angle_gamma 138.650812
_cell_volume 746.656189
_symmetry_space_group_name_H-M "P -1"
_symmetry_group_IT_number 2
_symmetry_cell_setting 'triclinic'
loop_
_space_group_symop_operation_xyz
x,y,z
-x,-y,-z
loop_
_atom_site_type_symbol
_atom_site_label
_atom_site_fract_x
_atom_site_fract_y
_atom_site_fract_z
Si Si1 0.818650 0.818338 0.732391
Si Si2 0.716296 0.046207 0.057779
Si Si3 0.144659 0.028849 0.657517
Si Si4 0.531791 0.382569 0.828789
Si Si5 0.956874 0.174707 0.118895
Si Si6 0.708572 0.924993 0.659852
Si Si7 0.404157 0.489898 0.774802
Si Si8 0.252346 0.676115 0.053417
O O1 0.711387 0.536622 0.729148
O O2 0.810285 0.869373 0.626138
O O3 0.988554 0.967153 0.707524
O O4 0.728336 0.896904 0.891876
O O5 0.837761 0.125082 0.096164
O O6 0.549948 0.884648 0.175440
O O7 0.748950 0.266022 0.056599
O O8 0.110130 0.858950 0.717613
O O9 0.218675 0.980226 0.480455
O O10 0.256996 0.302407 0.729189
O O11 0.448120 0.356923 0.762288
O O12 0.500000 0.500000 0.000000
O O13 0.093818 0.446048 0.116202
O O14 0.000000 0.000000 0.000000
O O15 0.540126 0.681751 0.670319
O O16 0.700278 0.115827 0.807910
O O17 0.370659 0.623796 0.947221
#
# Coordination Sequence:
#
# PCOD8040205 Si02
#       8
#     2   2   2   2   2   2   2   2
#     4   9  19  35  59  89 124 164 199 243 304 367
#     4  10  18  36  57  95 120 154 202 263 298 350
#     4  12  22  38  65  90 125 161 205 250 299 370
#     4   9  18  33  60  90 123 152 201 254 300 352
#     4  12  21  37  64  93 120 159 210 249 306 361
#     4  10  24  40  59  94 128 159 200 250 314 355
#     4  11  21  41  65  93 118 164 209 248 295 368
#     4  11  23  38  63  92 124 157 204 258 303 355
#
# _framework density 21.428871999999998
#
# number of rings (size 3 to 8) (size 9 to 14) (size 15 to 20)
#    0.000    1.500    3.750    2.250    1.750    1.500 
#    0.000    0.000    0.000    0.750    0.000    0.000 
#    0.000    0.000    0.000    0.000    0.000    0.000 
#
# Total GULP energy -198261.463135 kJ/mol
# GULP energy per Si atom -12391.341446 kJ/mol
# Density = 2.138010 g / cm^3
# Si number density = 21.428872 Si / 1000 Ang^3
#
#
#
# Elastic Constant Matrix: (Units=GPa)
#
#
# Indices 1 2 3 4 5 6 
#
# 1 75.5990 59.9712 24.9988 -5.1074 14.9620 14.4110
# 2 59.9712 168.2701 40.0426 -26.5780 8.7300 5.2273
# 3 24.9988 40.0426 77.3890 -16.2429 18.4996 -2.2265
# 4 -5.1074 -26.5780 -16.2429 27.6418 -9.0383 4.3358
# 5 14.9620 8.7300 18.4996 -9.0383 21.9788 -8.2579
# 6 14.4110 5.2273 -2.2265 4.3358 -8.2579 36.5696
#
#
#
# Elastic Compliance Matrix: (Units=1/GPa)
#
#
# Indices 1 2 3 4 5 6 
#
# 1 0.027827 -0.009676 -0.000849 -0.010278 -0.023793 -0.013789
# 2 -0.009676 0.011001 -0.002733 0.009885 0.009749 0.003104
# 3 -0.000849 -0.002733 0.018487 0.004144 -0.012766 -0.001523
# 4 -0.010278 0.009885 0.004144 0.053178 0.022037 0.001561
# 5 -0.023793 0.009749 -0.012766 0.022037 0.086713 0.024174
# 6 -0.013789 0.003104 -0.001523 0.001561 0.024174 0.037516
#
#
# Mechanical properties :
#
#
# Convention : Reuss Voigt Hill
#
# Bulk Modulus (GPa) = 32.46726 63.47593 47.97160
# Shear Modulus (GPa) = 18.41586 30.32107 24.36847
#
# Velocity S-wave (km/s) = 2.93472 3.76568 3.37587
# Velocity P-wave (km/s) = 5.16406 6.97088 6.13436
#
# Compressibility (1/GPa) = 0.03080026
#
# Stress axis : x y z
#
# Youngs Moduli (GPa) = 35.93589 90.90227 54.09073
#
# Poissons Ratio (x) = 0.87960 0.04590
# Poissons Ratio (y) = 0.34773 0.14782
# Poissons Ratio (z) = 0.03049 0.24842
#
# Static dielectric constant tensor:
#      x y z
#    x 3.776740 -0.175280 0.192290 
#    y -0.175280 4.506960 -0.473650 
#    z 0.192290 -0.473650 3.453630 
# 
# 
# High freq. dielectric constant tensor:
#      x y z
#    x 1.838350 0.009870 0.024360 
#    y 0.009870 1.862310 -0.030310 
#    z 0.024360 -0.030310 1.798860 
# 
# From -- ./inp_files/277674.got.cif
#   From: 2010.06.25/outbox.cif.g09.slc.cpg/sg2_139_cif.got.tgz:277674.got - 2010.06.27 13:26:56.
