data_PCOD8040502
_publ_section_title
;
Structure prediction by ZEFSAII (Michael W. Deem and Ramdas Pophale) SiO2 
 PCOD8040502
Probable space group: P -1
;
_chemical_formula_sum "Si O2"
_cell_formula_units_Z 10
_cell_length_a 12.421650
_cell_length_b 11.057701
_cell_length_c 6.895304
_cell_angle_alpha 77.792056
_cell_angle_beta 58.040812
_cell_angle_gamma 121.158532
_cell_volume 511.412567
_symmetry_space_group_name_H-M "P -1"
_symmetry_group_IT_number 2
_symmetry_cell_setting 'triclinic'
loop_
_space_group_symop_operation_xyz
x,y,z
-x,-y,-z
loop_
_atom_site_type_symbol
_atom_site_label
_atom_site_fract_x
_atom_site_fract_y
_atom_site_fract_z
Si Si1 0.571719 0.200446 0.530445
Si Si2 0.737337 0.069566 0.389430
Si Si3 0.722180 0.935857 0.856855
Si Si4 0.582444 0.463170 0.583287
Si Si5 0.979696 0.855468 0.175645
O O1 0.734996 0.214822 0.388854
O O2 0.665793 0.406015 0.401711
O O3 0.470444 0.120984 0.442222
O O4 0.403781 0.055673 0.904801
O O5 0.913445 0.170589 0.043288
O O6 0.768551 0.014033 0.571868
O O7 0.594952 0.714087 0.049032
O O8 0.927402 0.064635 0.726575
O O9 0.500000 0.500000 0.500000
O O10 0.754155 0.650438 0.483259
O O11 0.000000 0.000000 0.000000
#
# Coordination Sequence:
#
# PCOD8040502 Si02
#       5
#     2   2   2   2   2
#     4   8  19  35  60  79 115 142 177 229 271 320
#     4  10  18  37  60  82 107 150 182 218 280 320
#     4   9  20  36  59  81 109 146 182 223 269 329
#     4  10  19  39  56  78 115 145 176 231 274 314
#     4  11  21  38  55  80 116 143 181 231 272 316
#
# _framework density 19.553684000000001
#
# number of rings (size 3 to 8) (size 9 to 14) (size 15 to 20)
#    1.200    1.200    2.000    0.600    0.000    1.600 
#    3.600    3.000    0.000    0.000    0.000    0.000 
#    0.000    0.000    0.000    0.000    0.000    0.000 
#
# Total GULP energy -123917.502668 kJ/mol
# GULP energy per Si atom -12391.750267 kJ/mol
# Density = 1.950918 g / cm^3
# Si number density = 19.553684 Si / 1000 Ang^3
#
#
#
# Elastic Constant Matrix: (Units=GPa)
#
#
# Indices 1 2 3 4 5 6 
#
# 1 83.9469 31.6299 25.4208 -20.4598 17.4028 13.3213
# 2 31.6299 96.5390 27.8814 -31.3691 7.0738 14.1489
# 3 25.4208 27.8814 45.5567 -8.6476 12.5606 20.3621
# 4 -20.4598 -31.3691 -8.6476 28.6052 6.8684 -2.8035
# 5 17.4028 7.0738 12.5606 6.8684 30.9545 4.5886
# 6 13.3213 14.1489 20.3621 -2.8035 4.5886 43.8194
#
#
#
# Elastic Compliance Matrix: (Units=1/GPa)
#
#
# Indices 1 2 3 4 5 6 
#
# 1 0.020125 0.001878 -0.004114 0.018312 -0.013812 -0.002195
# 2 0.001878 0.019743 -0.005626 0.023041 -0.008099 -0.002009
# 3 -0.004114 -0.005626 0.036802 0.003199 -0.010152 -0.012766
# 4 0.018312 0.023041 0.003199 0.081947 -0.034201 -0.005669
# 5 -0.013812 -0.008099 -0.010152 -0.034201 0.053069 0.003786
# 6 -0.002195 -0.002009 -0.012766 -0.005669 0.003786 0.029310
#
#
# Mechanical properties :
#
#
# Convention : Reuss Voigt Hill
#
# Bulk Modulus (GPa) = 16.40809 43.98964 30.19886
# Shear Modulus (GPa) = 18.04826 30.08317 24.06572
#
# Velocity S-wave (km/s) = 3.04141 3.92662 3.51201
# Velocity P-wave (km/s) = 4.55445 6.56532 5.65007
#
# Compressibility (1/GPa) = 0.06094556
#
# Stress axis : x y z
#
# Youngs Moduli (GPa) = 49.68931 50.65159 27.17223
#
# Poissons Ratio (x) = -0.09515 0.11180
# Poissons Ratio (y) = -0.09334 0.15288
# Poissons Ratio (z) = 0.20444 0.28498
#
# Static dielectric constant tensor:
#      x y z
#    x 3.599910 -0.025270 -0.129970 
#    y -0.025270 3.642170 0.001620 
#    z -0.129970 0.001620 3.132350 
# 
# 
# High freq. dielectric constant tensor:
#      x y z
#    x 1.770530 -0.000610 -0.004390 
#    y -0.000610 1.757640 0.006630 
#    z -0.004390 0.006630 1.723170 
# 
# From -- ./inp_files/21317.got.cif
#   From: 2010.06.25/outbox.cif.g09.slc.cpg/sg2_11_cif.got.tgz:21317.got - 2010.06.27 13:26:56.
