data_PCOD8040509
_publ_section_title
;
Structure prediction by ZEFSAII (Michael W. Deem and Ramdas Pophale) SiO2 
 PCOD8040509
Probable space group: P -1
;
_chemical_formula_sum "Si O2"
_cell_formula_units_Z 14
_cell_length_a 9.273243
_cell_length_b 10.664203
_cell_length_c 11.793912
_cell_angle_alpha 127.255197
_cell_angle_beta 129.606329
_cell_angle_gamma 60.769754
_cell_volume 705.183904
_symmetry_space_group_name_H-M "P -1"
_symmetry_group_IT_number 2
_symmetry_cell_setting 'triclinic'
loop_
_space_group_symop_operation_xyz
x,y,z
-x,-y,-z
loop_
_atom_site_type_symbol
_atom_site_label
_atom_site_fract_x
_atom_site_fract_y
_atom_site_fract_z
Si Si1 0.956726 0.758948 0.920802
Si Si2 0.172406 0.086855 0.656395
Si Si3 0.104603 0.717895 0.216122
Si Si4 0.071998 0.886568 0.834178
Si Si5 0.603487 0.129447 0.178928
Si Si6 0.354095 0.428956 0.308321
Si Si7 0.716713 0.974129 0.556355
O O1 0.791780 0.661916 0.745097
O O2 0.096686 0.762525 0.884582
O O3 0.057592 0.678512 0.040662
O O4 0.874365 0.943991 0.007532
O O5 0.252256 0.139389 0.603705
O O6 0.093204 0.232740 0.783457
O O7 0.333108 0.950784 0.713597
O O8 0.000000 0.000000 0.500000
O O9 0.232314 0.563362 0.245427
O O10 0.230917 0.856098 0.358960
O O11 0.217561 0.825361 0.774765
O O12 0.856146 0.900480 0.687131
O O13 0.468100 0.297977 0.211318
O O14 0.500000 0.000000 0.000000
O O15 0.500000 0.500000 0.500000
O O16 0.500000 0.000000 0.500000
#
# Coordination Sequence:
#
# PCOD8040509 Si02
#       7
#     2   2   2   2   2   2   2
#     4  10  21  41  62  88 125 172 204 264 314 377
#     4  10  18  37  60  85 122 161 216 252 306 372
#     4  10  21  41  60  91 124 171 209 258 321 381
#     4  10  21  39  65  91 124 164 221 260 311 370
#     4  12  22  40  64  97 123 170 221 259 305 390
#     4  12  25  37  64  97 134 160 216 266 324 376
#     4  10  21  35  64  94 125 165 215 267 314 375
#
# _framework density 19.852978
#
# number of rings (size 3 to 8) (size 9 to 14) (size 15 to 20)
#    0.000    1.429    5.714    2.143    4.000    1.143 
#    0.000    2.857    0.000    0.000    0.000    0.000 
#    0.000    0.000    0.000    0.000    0.000    0.000 
#
# Total GULP energy -173476.359713 kJ/mol
# GULP energy per Si atom -12391.168551 kJ/mol
# Density = 1.980779 g / cm^3
# Si number density = 19.852978 Si / 1000 Ang^3
#
#
#
# Elastic Constant Matrix: (Units=GPa)
#
#
# Indices 1 2 3 4 5 6 
#
# 1 115.8604 47.0843 48.3591 -8.8601 -1.5802 1.3573
# 2 47.0843 113.5102 40.2615 -13.1280 -7.8648 -4.9578
# 3 48.3591 40.2615 101.8722 -6.7886 1.8568 15.8333
# 4 -8.8601 -13.1280 -6.7886 28.0965 5.0966 -4.2759
# 5 -1.5802 -7.8648 1.8568 5.0966 31.4456 -1.7314
# 6 1.3573 -4.9578 15.8333 -4.2759 -1.7314 30.3818
#
#
#
# Elastic Compliance Matrix: (Units=1/GPa)
#
#
# Indices 1 2 3 4 5 6 
#
# 1 0.011879 -0.003076 -0.004566 0.001451 -0.000053 0.001548
# 2 -0.003076 0.012384 -0.003984 0.004105 0.002786 0.004971
# 3 -0.004566 -0.003984 0.014876 -0.000538 -0.002480 -0.008416
# 4 0.001451 0.004105 -0.000538 0.039678 -0.004959 0.006187
# 5 -0.000053 0.002786 -0.002480 -0.004959 0.033609 0.002967
# 6 0.001548 0.004971 -0.008416 0.006187 0.002967 0.039082
#
#
# Mechanical properties :
#
#
# Convention : Reuss Voigt Hill
#
# Bulk Modulus (GPa) = 62.94867 66.96141 64.95504
# Shear Modulus (GPa) = 27.76924 31.02065 29.39494
#
# Velocity S-wave (km/s) = 3.74404 3.95716 3.85207
# Velocity P-wave (km/s) = 7.10399 7.39464 7.25077
#
# Compressibility (1/GPa) = 0.01588596
#
# Stress axis : x y z
#
# Youngs Moduli (GPa) = 84.18066 80.75135 67.22376
#
# Poissons Ratio (x) = 0.24840 0.30697
# Poissons Ratio (y) = 0.25895 0.26781
# Poissons Ratio (z) = 0.38440 0.32170
#
# Static dielectric constant tensor:
#      x y z
#    x 4.283960 0.055680 -0.377640 
#    y 0.055680 3.456930 -0.088350 
#    z -0.377640 -0.088350 3.898140 
# 
# 
# High freq. dielectric constant tensor:
#      x y z
#    x 1.772580 0.005640 -0.002100 
#    y 0.005640 1.753740 -0.018010 
#    z -0.002100 -0.018010 1.780210 
# 
# From -- ./inp_files/181211.got.cif
#   From: 2010.06.25/outbox.cif.g09.slc.cpg/sg2_91_cif.got.tgz:181211.got - 2010.06.27 13:26:56.
