data_PCOD8040352
_publ_section_title
;
Structure prediction by ZEFSAII (Michael W. Deem and Ramdas Pophale) SiO2 
 PCOD8040352
Probable space group: P -1
;
_chemical_formula_sum "Si O2"
_cell_formula_units_Z 14
_cell_length_a 7.397114
_cell_length_b 17.872250
_cell_length_c 8.252260
_cell_angle_alpha 73.022791
_cell_angle_beta 48.792652
_cell_angle_gamma 50.259015
_cell_volume 615.190178
_symmetry_space_group_name_H-M "P -1"
_symmetry_group_IT_number 2
_symmetry_cell_setting 'triclinic'
loop_
_space_group_symop_operation_xyz
x,y,z
-x,-y,-z
loop_
_atom_site_type_symbol
_atom_site_label
_atom_site_fract_x
_atom_site_fract_y
_atom_site_fract_z
Si Si1 0.725943 0.494896 0.492615
Si Si2 0.129966 0.139181 0.121484
Si Si3 0.947415 0.182314 0.564907
Si Si4 0.241834 0.650981 0.916944
Si Si5 0.950599 0.693477 0.380439
Si Si6 0.715897 0.657116 0.261809
Si Si7 0.810239 0.041528 0.748884
O O1 0.500000 0.500000 0.500000
O O2 0.985954 0.381562 0.466141
O O3 0.863051 0.542964 0.291490
O O4 0.561094 0.560292 0.710974
O O5 0.840896 0.243645 0.153505
O O6 0.134587 0.139261 0.314606
O O7 0.109744 0.051689 0.131954
O O8 0.443580 0.115202 0.885503
O O9 0.126999 0.206059 0.561216
O O10 0.610011 0.286903 0.666166
O O11 0.907440 0.106141 0.726852
O O12 0.969546 0.649513 0.005809
O O13 0.246891 0.642804 0.115722
O O14 0.672799 0.717885 0.415854
O O15 0.000000 0.000000 0.500000
#
# Coordination Sequence:
#
# PCOD8040352 Si02
#       7
#     2   2   2   2   2   2   2
#     4  12  21  40  60  85 117 159 201 241 286 346
#     4  10  18  36  62  89 115 155 195 237 294 350
#     4  11  19  41  59  87 119 156 194 239 292 346
#     4  10  22  37  58  86 119 155 195 239 294 343
#     4  10  23  39  57  86 122 153 199 242 286 346
#     4  10  22  37  59  81 121 152 193 241 291 331
#     4   9  19  33  63  91 116 149 195 241 289 349
#
# _framework density 22.757190999999999
#
# number of rings (size 3 to 8) (size 9 to 14) (size 15 to 20)
#    0.857    0.857    4.286    0.857    0.000    0.571 
#    2.571    0.714    0.000   29.143    0.000    0.000 
#    0.000    0.000    0.000    0.000    0.000    0.000 
#
# Total GULP energy -173436.691598 kJ/mol
# GULP energy per Si atom -12388.335114 kJ/mol
# Density = 2.270539 g / cm^3
# Si number density = 22.757191 Si / 1000 Ang^3
#
#
#
# Elastic Constant Matrix: (Units=GPa)
#
#
# Indices 1 2 3 4 5 6 
#
# 1 37.5269 10.1318 -20.7729 -9.2720 6.3964 18.1314
# 2 10.1318 127.6130 10.7815 -22.4955 -2.2762 32.3562
# 3 -20.7729 10.7815 44.7591 -8.3513 -11.0885 -2.3650
# 4 -9.2720 -22.4955 -8.3513 31.0391 0.9220 -6.2817
# 5 6.3964 -2.2762 -11.0885 0.9220 28.6837 0.0318
# 6 18.1314 32.3562 -2.3650 -6.2817 0.0318 30.0125
#
#
#
# Elastic Compliance Matrix: (Units=1/GPa)
#
#
# Indices 1 2 3 4 5 6 
#
# 1 0.070180 0.006799 0.032868 0.026410 -0.003207 -0.041606
# 2 0.006799 0.012762 0.000638 0.008209 -0.000503 -0.016097
# 3 0.032868 0.000638 0.042341 0.018729 0.008502 -0.013297
# 4 0.026410 0.008209 0.018729 0.048411 0.000461 -0.013197
# 5 -0.003207 -0.000503 0.008502 0.000461 0.038807 0.003205
# 6 -0.041606 -0.016097 -0.013297 -0.013197 0.003205 0.071995
#
#
# Mechanical properties :
#
#
# Convention : Reuss Voigt Hill
#
# Bulk Modulus (GPa) = 4.85691 23.35330 14.10511
# Shear Modulus (GPa) = 18.34747 31.93097 25.13922
#
# Velocity S-wave (km/s) = 2.84250 3.74988 3.32727
# Velocity P-wave (km/s) = 3.59331 5.38823 4.57957
#
# Compressibility (1/GPa) = 0.20589203
#
# Stress axis : x y z
#
# Youngs Moduli (GPa) = 14.24904 78.35772 23.61795
#
# Poissons Ratio (x) = -0.53273 -0.77628
# Poissons Ratio (y) = -0.09688 -0.01506
# Poissons Ratio (z) = -0.46834 -0.04998
#
# Static dielectric constant tensor:
#      x y z
#    x 3.564490 0.381420 -0.155250 
#    y 0.381420 4.525650 -0.311830 
#    z -0.155250 -0.311830 4.036240 
# 
# 
# High freq. dielectric constant tensor:
#      x y z
#    x 1.850380 0.022710 -0.015390 
#    y 0.022710 1.913840 -0.020150 
#    z -0.015390 -0.020150 1.886430 
# 
# From -- ./inp_files/212604.got.cif
#   From: 2010.06.25/outbox.cif.g09.slc.cpg/sg2_107_cif.got.tgz:212604.got - 2010.06.27 13:26:56.
