data_PCOD8040453
_publ_section_title
;
Structure prediction by ZEFSAII (Michael W. Deem and Ramdas Pophale) SiO2 
 PCOD8040453
Probable space group: P -1
;
_chemical_formula_sum "Si O2"
_cell_formula_units_Z 16
_cell_length_a 18.757115
_cell_length_b 11.695361
_cell_length_c 17.225065
_cell_angle_alpha 160.140922
_cell_angle_beta 139.765140
_cell_angle_gamma 39.499028
_cell_volume 803.989857
_symmetry_space_group_name_H-M "P -1"
_symmetry_group_IT_number 2
_symmetry_cell_setting 'triclinic'
loop_
_space_group_symop_operation_xyz
x,y,z
-x,-y,-z
loop_
_atom_site_type_symbol
_atom_site_label
_atom_site_fract_x
_atom_site_fract_y
_atom_site_fract_z
Si Si1 0.054499 0.612637 0.821396
Si Si2 0.685639 0.242266 0.117220
Si Si3 0.551694 0.764801 0.759253
Si Si4 0.554246 0.484386 0.862300
Si Si5 0.659925 0.245256 0.642304
Si Si6 0.289921 0.475303 0.845859
Si Si7 0.092622 0.640252 0.571169
Si Si8 0.905135 0.067243 0.790917
O O1 0.167260 0.466920 0.771577
O O2 0.965039 0.384807 0.577370
O O3 0.079045 0.622795 0.940174
O O4 0.000000 0.000000 0.000000
O O5 0.572318 0.546140 0.238035
O O6 0.726064 0.279131 0.086337
O O7 0.784632 0.275453 0.281017
O O8 0.655406 0.868762 0.864382
O O9 0.500000 0.500000 0.500000
O O10 0.599136 0.598115 0.773884
O O11 0.452359 0.116123 0.914370
O O12 0.602791 0.233471 0.671346
O O13 0.638371 0.374272 0.934859
O O14 0.793310 0.226298 0.749478
O O15 0.642403 0.914738 0.368642
O O16 0.111372 0.272913 0.395720
O O17 0.014157 0.957805 0.756591
#
# Coordination Sequence:
#
# PCOD8040453 Si02
#       8
#     2   2   2   2   2   2   2   2
#     4  10  20  33  60  91 122 156 193 244 301 357
#     4  10  22  38  59  90 128 155 192 249 310 349
#     4  10  23  42  60  84 121 169 199 239 301 362
#     4  10  24  38  61  87 121 157 206 242 295 355
#     4  12  20  39  64  86 116 162 207 240 288 360
#     4  12  20  38  63  94 120 151 203 254 292 349
#     4  10  18  37  55  89 125 150 189 249 304 345
#     4  10  19  33  61  88 116 155 201 238 293 357
#
# _framework density 19.900749000000001
#
# number of rings (size 3 to 8) (size 9 to 14) (size 15 to 20)
#    0.750    0.750    5.000    2.250    0.000    0.500 
#    0.000    6.875    0.000    0.750    0.000    0.000 
#    0.000    0.000    0.000    0.000    0.000    0.000 
#
# Total GULP energy -198316.842039 kJ/mol
# GULP energy per Si atom -12394.802627 kJ/mol
# Density = 1.985545 g / cm^3
# Si number density = 19.900749 Si / 1000 Ang^3
#
#
#
# Elastic Constant Matrix: (Units=GPa)
#
#
# Indices 1 2 3 4 5 6 
#
# 1 66.8119 35.1605 46.4770 -18.1745 -15.3204 -6.6404
# 2 35.1605 80.1843 27.5515 -32.6855 -2.8529 -8.2775
# 3 46.4770 27.5515 91.4315 -24.5783 -2.9623 -2.0273
# 4 -18.1745 -32.6855 -24.5783 35.9789 -7.2061 3.1615
# 5 -15.3204 -2.8529 -2.9623 -7.2061 31.4755 -3.7011
# 6 -6.6404 -8.2775 -2.0273 3.1615 -3.7011 34.4519
#
#
#
# Elastic Compliance Matrix: (Units=1/GPa)
#
#
# Indices 1 2 3 4 5 6 
#
# 1 0.032941 -0.007374 -0.012874 0.003826 0.015635 0.005149
# 2 -0.007374 0.023269 0.002099 0.019289 0.003474 0.002896
# 3 -0.012874 0.002099 0.018842 0.007896 -0.002716 -0.001885
# 4 0.003826 0.019289 0.007896 0.055914 0.017458 0.002581
# 5 0.015635 0.003474 -0.002716 0.017458 0.044241 0.006839
# 6 0.005149 0.002896 -0.001885 0.002581 0.006839 0.031101
#
#
# Mechanical properties :
#
#
# Convention : Reuss Voigt Hill
#
# Bulk Modulus (GPa) = 25.80391 50.75618 38.28004
# Shear Modulus (GPa) = 19.56766 28.99718 24.28242
#
# Velocity S-wave (km/s) = 3.13910 3.82133 3.49689
# Velocity P-wave (km/s) = 5.11205 6.71044 5.96503
#
# Compressibility (1/GPa) = 0.03875382
#
# Stress axis : x y z
#
# Youngs Moduli (GPa) = 30.35729 42.97584 53.07395
#
# Poissons Ratio (x) = 0.31689 0.68325
# Poissons Ratio (y) = 0.22385 -0.11138
# Poissons Ratio (z) = 0.39081 -0.09019
#
# Static dielectric constant tensor:
#      x y z
#    x 3.340200 -0.089780 -0.235590 
#    y -0.089780 3.788260 -0.267450 
#    z -0.235590 -0.267450 3.617020 
# 
# 
# High freq. dielectric constant tensor:
#      x y z
#    x 1.749800 -0.015410 -0.023930 
#    y -0.015410 1.782550 -0.023280 
#    z -0.023930 -0.023280 1.762310 
# 
# From -- ./inp_files/576029.got.cif
#   From: 2010.06.25/outbox.cif.g09.slc.cpg/sg2_289_cif.got.tgz:576029.got - 2010.06.27 13:26:56.
