data_PCOD8040470
_publ_section_title
;
Structure prediction by ZEFSAII (Michael W. Deem and Ramdas Pophale) SiO2 
 PCOD8040470
Probable space group: P -1
;
_chemical_formula_sum "Si O2"
_cell_formula_units_Z 16
_cell_length_a 8.059306
_cell_length_b 19.779061
_cell_length_c 8.661932
_cell_angle_alpha 125.848655
_cell_angle_beta 131.818713
_cell_angle_gamma 84.825373
_cell_volume 723.724277
_symmetry_space_group_name_H-M "P -1"
_symmetry_group_IT_number 2
_symmetry_cell_setting 'triclinic'
loop_
_space_group_symop_operation_xyz
x,y,z
-x,-y,-z
loop_
_atom_site_type_symbol
_atom_site_label
_atom_site_fract_x
_atom_site_fract_y
_atom_site_fract_z
Si Si1 0.390915 0.067588 0.830102
Si Si2 0.197388 0.204959 0.878380
Si Si3 0.771608 0.155050 0.787610
Si Si4 0.884070 0.081629 0.271638
Si Si5 0.778998 0.991021 0.707636
Si Si6 0.596626 0.465162 0.153648
Si Si7 0.706458 0.598372 0.828168
Si Si8 0.077475 0.631554 0.851260
O O1 0.371630 0.161702 0.987646
O O2 0.293893 0.037353 0.556595
O O3 0.220466 0.984291 0.730958
O O4 0.686796 0.098811 0.075503
O O5 0.932095 0.160971 0.746648
O O6 0.116463 0.181500 0.615009
O O7 0.356959 0.319181 0.155847
O O8 0.474639 0.083496 0.454425
O O9 0.841375 0.102518 0.901445
O O10 0.820480 0.260418 0.007575
O O11 0.983479 0.029456 0.139475
O O12 0.340412 0.411086 0.029419
O O13 0.694360 0.392728 0.058627
O O14 0.828995 0.557473 0.502195
O O15 0.500000 0.500000 0.000000
O O16 0.500000 0.500000 0.500000
O O17 0.987630 0.624263 0.967768
#
# Coordination Sequence:
#
# PCOD8040470 Si02
#       8
#     2   2   2   2   2   2   2   2
#     4  10  19  34  55  80 112 148 191 233 278 333
#     4  10  18  37  58  80 110 149 191 230 286 342
#     4  10  19  35  57  79 113 155 183 230 283 335
#     4  10  19  34  54  82 111 149 190 233 277 333
#     4  10  19  35  54  78 115 152 189 226 280 332
#     4  10  21  41  63  88 117 150 192 248 299 349
#     4   9  20  39  64  86 115 154 193 241 299 353
#     4   9  21  40  60  87 120 153 194 240 294 354
#
# _framework density 22.107866999999999
#
# number of rings (size 3 to 8) (size 9 to 14) (size 15 to 20)
#    0.000    2.250    2.500    0.750    3.500    0.500 
#    2.250   12.500    0.000    0.000    0.000    0.000 
#    0.000    0.000    0.000    0.000    0.000    0.000 
#
# Total GULP energy -198219.977512 kJ/mol
# GULP energy per Si atom -12388.748595 kJ/mol
# Density = 2.205755 g / cm^3
# Si number density = 22.107867 Si / 1000 Ang^3
#
#
#
# Elastic Constant Matrix: (Units=GPa)
#
#
# Indices 1 2 3 4 5 6 
#
# 1 151.7310 78.3130 34.3846 4.2312 -1.9770 -13.6920
# 2 78.3130 126.7340 48.0589 28.0477 -1.5358 -25.9634
# 3 34.3846 48.0589 52.7212 24.0390 1.0672 -18.3980
# 4 4.2312 28.0477 24.0390 38.3242 -6.1510 -0.2821
# 5 -1.9770 -1.5358 1.0672 -6.1510 30.9135 -1.1782
# 6 -13.6920 -25.9634 -18.3980 -0.2821 -1.1782 47.5289
#
#
#
# Elastic Compliance Matrix: (Units=1/GPa)
#
#
# Indices 1 2 3 4 5 6 
#
# 1 0.010910 -0.006942 -0.005040 0.007322 0.001888 -0.002510
# 2 -0.006942 0.017172 -0.005404 -0.008518 -0.000900 0.005216
# 3 -0.005040 -0.005404 0.041483 -0.022395 -0.006046 0.011371
# 4 0.007322 -0.008518 -0.022395 0.047056 0.009774 -0.010691
# 5 0.001888 -0.000900 -0.006046 0.009774 0.034525 -0.001374
# 6 -0.002510 0.005216 0.011371 -0.010691 -0.001374 0.027470
#
#
# Mechanical properties :
#
#
# Convention : Reuss Voigt Hill
#
# Bulk Modulus (GPa) = 28.74119 72.52212 50.63166
# Shear Modulus (GPa) = 22.22374 34.71529 28.46951
#
# Velocity S-wave (km/s) = 3.17399 3.96696 3.59242
# Velocity P-wave (km/s) = 5.14402 7.33876 6.33713
#
# Compressibility (1/GPa) = 0.03479327
#
# Stress axis : x y z
#
# Youngs Moduli (GPa) = 91.66257 58.23393 24.10655
#
# Poissons Ratio (x) = 0.40426 0.12149
# Poissons Ratio (y) = 0.63632 0.13027
# Poissons Ratio (z) = 0.46195 0.31469
#
# Static dielectric constant tensor:
#      x y z
#    x 4.851250 -0.075540 -0.142230 
#    y -0.075540 4.262040 0.257720 
#    z -0.142230 0.257720 3.707850 
# 
# 
# High freq. dielectric constant tensor:
#      x y z
#    x 1.907860 -0.005060 -0.014060 
#    y -0.005060 1.863530 0.017210 
#    z -0.014060 0.017210 1.841760 
# 
# From -- ./inp_files/215640.got.cif
#   From: 2010.06.25/outbox.cif.g09.slc.cpg/sg2_108_cif.got.tgz:215640.got - 2010.06.27 13:26:56.
