data_PCOD8041986
_publ_section_title
;
Structure prediction by ZEFSAII (Michael W. Deem and Ramdas Pophale) SiO2 
 PCOD8041986
Probable space group: P -1
;
_chemical_formula_sum "Si O2"
_cell_formula_units_Z 12
_cell_length_a 11.412994
_cell_length_b 15.059714
_cell_length_c 8.729009
_cell_angle_alpha 52.658236
_cell_angle_beta 85.859741
_cell_angle_gamma 128.124870
_cell_volume 656.776225
_symmetry_space_group_name_H-M "P -1"
_symmetry_group_IT_number 2
_symmetry_cell_setting 'triclinic'
loop_
_space_group_symop_operation_xyz
x,y,z
-x,-y,-z
loop_
_atom_site_type_symbol
_atom_site_label
_atom_site_fract_x
_atom_site_fract_y
_atom_site_fract_z
Si Si1 0.957424 0.167694 0.612894
Si Si2 0.472084 0.220936 0.062120
Si Si3 0.279484 0.218844 0.850113
Si Si4 0.355153 0.492911 0.017010
Si Si5 0.865323 0.500724 0.550756
Si Si6 0.327430 0.491806 0.671699
O O1 0.153573 0.307319 0.336250
O O2 0.983513 0.290768 0.596533
O O3 0.745914 0.022665 0.680236
O O4 0.925029 0.026766 0.863980
O O5 0.449331 0.317511 0.863866
O O6 0.518062 0.297472 0.151234
O O7 0.672148 0.311190 0.880055
O O8 0.415351 0.312666 0.582154
O O9 0.786486 0.706171 0.188803
O O10 0.500000 0.500000 0.000000
O O11 0.276759 0.458164 0.890816
O O12 0.773231 0.477803 0.425816
O O13 0.000000 0.500000 0.500000
#
# Coordination Sequence:
#
# PCOD8041986 Si02
#       6
#     2   2   2   2   2   2
#     4   9  20  38  55  82 111 151 175 226 278 331
#     4   8  18  37  53  78 113 144 173 222 275 325
#     4   8  17  35  53  80 112 139 176 224 274 325
#     4  11  19  33  56  83 119 144 170 222 286 335
#     4  10  21  38  59  78 107 150 191 230 266 312
#     4  10  19  34  55  86 112 141 182 228 271 325
#
# _framework density 18.271061
#
# number of rings (size 3 to 8) (size 9 to 14) (size 15 to 20)
#    1.000    1.667    1.667    0.000    2.333    4.000 
#    3.000    3.333    0.000    2.000    0.000    0.000 
#    0.000    0.000    0.000    0.000    0.000    0.000 
#
# Total GULP energy -148706.911535 kJ/mol
# GULP energy per Si atom -12392.242628 kJ/mol
# Density = 1.822948 g / cm^3
# Si number density = 18.271061 Si / 1000 Ang^3
#
#
#
# Elastic Constant Matrix: (Units=GPa)
#
#
# Indices 1 2 3 4 5 6 
#
# 1 100.5695 38.2922 24.8406 7.5161 -7.8889 -16.5239
# 2 38.2922 85.9247 48.8570 -1.5159 -8.0842 -12.5024
# 3 24.8406 48.8570 91.0218 -8.0307 -10.2400 -11.4033
# 4 7.5161 -1.5159 -8.0307 30.7290 5.6135 -4.9188
# 5 -7.8889 -8.0842 -10.2400 5.6135 21.3463 2.2160
# 6 -16.5239 -12.5024 -11.4033 -4.9188 2.2160 19.7680
#
#
#
# Elastic Compliance Matrix: (Units=1/GPa)
#
#
# Indices 1 2 3 4 5 6 
#
# 1 0.013366 -0.004556 -0.000227 -0.003001 0.003162 0.007059
# 2 -0.004556 0.019047 -0.008428 0.000179 0.001097 0.003298
# 3 -0.000227 -0.008428 0.016930 0.004270 0.003209 0.004949
# 4 -0.003001 0.000179 0.004270 0.037945 -0.010076 0.010639
# 5 0.003162 0.001097 0.003209 -0.010076 0.052958 -0.003256
# 6 0.007059 0.003298 0.004949 0.010639 -0.003256 0.064440
#
#
# Mechanical properties :
#
#
# Convention : Reuss Voigt Hill
#
# Bulk Modulus (GPa) = 43.62741 55.72174 49.67457
# Shear Modulus (GPa) = 20.94260 25.40374 23.17317
#
# Velocity S-wave (km/s) = 3.38926 3.73283 3.56518
# Velocity P-wave (km/s) = 6.26465 7.01015 6.64785
#
# Compressibility (1/GPa) = 0.02292137
#
# Stress axis : x y z
#
# Youngs Moduli (GPa) = 74.81525 52.50240 59.06732
#
# Poissons Ratio (x) = 0.23920 0.01341
# Poissons Ratio (y) = 0.34085 0.49781
# Poissons Ratio (z) = 0.01698 0.44248
#
# Static dielectric constant tensor:
#      x y z
#    x 3.005730 0.022980 -0.140010 
#    y 0.022980 3.361940 0.028870 
#    z -0.140010 0.028870 3.310140 
# 
# 
# High freq. dielectric constant tensor:
#      x y z
#    x 1.679210 0.000900 -0.018760 
#    y 0.000900 1.709280 -0.002730 
#    z -0.018760 -0.002730 1.698760 
# 
# From -- ./inp_files/86080.got.cif
#   From: 2010.06.25/outbox.cif.g09.slc.cpg/sg2_44_cif.got.tgz:86080.got - 2010.06.27 13:26:56.
