data_PCOD8041277
_publ_section_title
;
Structure prediction by ZEFSAII (Michael W. Deem and Ramdas Pophale) SiO2 
 PCOD8041277
Probable space group: P -1
;
_chemical_formula_sum "Si O2"
_cell_formula_units_Z 16
_cell_length_a 12.911516
_cell_length_b 15.141297
_cell_length_c 17.906561
_cell_angle_alpha 49.172755
_cell_angle_beta 130.408282
_cell_angle_gamma 161.122956
_cell_volume 850.731117
_symmetry_space_group_name_H-M "P -1"
_symmetry_group_IT_number 2
_symmetry_cell_setting 'triclinic'
loop_
_space_group_symop_operation_xyz
x,y,z
-x,-y,-z
loop_
_atom_site_type_symbol
_atom_site_label
_atom_site_fract_x
_atom_site_fract_y
_atom_site_fract_z
Si Si1 0.069830 0.037827 0.242677
Si Si2 0.598031 0.903098 0.712695
Si Si3 0.232388 0.341432 0.020170
Si Si4 0.507302 0.269033 0.549608
Si Si5 0.426527 0.426979 0.326865
Si Si6 0.069251 0.594720 0.397180
Si Si7 0.270436 0.108776 0.062383
Si Si8 0.775196 0.632332 0.588500
O O1 0.288257 0.092736 0.303471
O O2 0.131622 0.172973 0.129150
O O3 0.155147 0.168375 0.287067
O O4 0.700802 0.708528 0.253495
O O5 0.617981 0.849760 0.828726
O O6 0.237964 0.662577 0.657734
O O7 0.833615 0.195386 0.669229
O O8 0.500000 0.500000 0.000000
O O9 0.407048 0.593271 0.994377
O O10 0.905605 0.125076 0.942083
O O11 0.576515 0.432626 0.437216
O O12 0.642388 0.255692 0.585519
O O13 0.696896 0.444305 0.619654
O O14 0.125970 0.954958 0.554122
O O15 0.260105 0.390691 0.325442
O O16 0.000000 0.500000 0.500000
O O17 0.000000 0.000000 0.000000
O O18 0.500000 0.500000 0.500000
#
# Coordination Sequence:
#
# PCOD8041277 Si02
#       8
#     2   2   2   2   2   2   2   2
#     4  12  21  32  53  82 120 149 174 230 289 338
#     4  12  23  36  56  78 115 165 192 225 269 334
#     4  10  19  32  51  74 112 152 174 215 295 342
#     4  11  21  40  57  74 115 154 188 240 279 316
#     4  11  22  34  54  86 107 141 197 230 294 343
#     4  12  26  39  53  82 119 159 205 220 259 336
#     4  10  19  34  54  75 107 148 191 231 281 327
#     4  10  20  37  61  79 102 144 193 247 294 333
#
# _framework density 18.807354
#
# number of rings (size 3 to 8) (size 9 to 14) (size 15 to 20)
#    0.000    1.000    2.500    8.625    3.500    0.000 
#    0.000    0.000    0.000    0.000    0.000    0.000 
#    0.000   70.000    0.000    0.000    0.000    0.000 
#
# Total GULP energy -198279.652186 kJ/mol
# GULP energy per Si atom -12392.478262 kJ/mol
# Density = 1.876455 g / cm^3
# Si number density = 18.807354 Si / 1000 Ang^3
#
#
#
# Elastic Constant Matrix: (Units=GPa)
#
#
# Indices 1 2 3 4 5 6 
#
# 1 90.1495 31.8425 26.3204 -1.9058 -12.7185 -6.6473
# 2 31.8425 134.8033 32.5381 -13.1576 -3.7002 -15.5365
# 3 26.3204 32.5381 83.4977 -5.4445 -7.2921 3.4277
# 4 -1.9058 -13.1576 -5.4445 35.9267 -4.7548 -5.0197
# 5 -12.7185 -3.7002 -7.2921 -4.7548 16.6593 0.1417
# 6 -6.6473 -15.5365 3.4277 -5.0197 0.1417 35.3280
#
#
#
# Elastic Compliance Matrix: (Units=1/GPa)
#
#
# Indices 1 2 3 4 5 6 
#
# 1 0.014158 -0.002036 -0.002864 0.001119 0.009404 0.002168
# 2 -0.002036 0.009510 -0.002998 0.003594 0.000232 0.004600
# 3 -0.002864 -0.002998 0.014580 0.001030 0.003850 -0.003141
# 4 0.001119 0.003594 0.001030 0.031694 0.011097 0.006150
# 5 0.009404 0.000232 0.003850 0.011097 0.072086 0.002786
# 6 0.002168 0.004600 -0.003141 0.006150 0.002786 0.031905
#
#
# Mechanical properties :
#
#
# Convention : Reuss Voigt Hill
#
# Bulk Modulus (GPa) = 44.54108 54.42805 49.48457
# Shear Modulus (GPa) = 25.35305 32.09943 28.72624
#
# Velocity S-wave (km/s) = 3.67555 4.13576 3.91243
# Velocity P-wave (km/s) = 6.46120 7.19782 6.83944
#
# Compressibility (1/GPa) = 0.02245118
#
# Stress axis : x y z
#
# Youngs Moduli (GPa) = 70.62980 105.15034 68.58644
#
# Poissons Ratio (x) = 0.21406 0.19646
# Poissons Ratio (y) = 0.14379 0.20566
# Poissons Ratio (z) = 0.20232 0.31529
#
# Static dielectric constant tensor:
#      x y z
#    x 3.777040 -0.163200 -0.164390 
#    y -0.163200 2.698930 -0.174410 
#    z -0.164390 -0.174410 3.358850 
# 
# 
# High freq. dielectric constant tensor:
#      x y z
#    x 1.706650 -0.029560 -0.021800 
#    y -0.029560 1.759760 -0.009410 
#    z -0.021800 -0.009410 1.708560 
# 
# From -- ./inp_files/569950.got.cif
#   From: 2010.06.25/outbox.cif.g09.slc.cpg/sg2_285_cif.got.tgz:569950.got - 2010.06.27 13:26:56.
