data_PCOD8041940
_publ_section_title
;
Structure prediction by ZEFSAII (Michael W. Deem and Ramdas Pophale) SiO2 
 PCOD8041940
Probable space group: P -1
;
_chemical_formula_sum "Si O2"
_cell_formula_units_Z 16
_cell_length_a 12.002728
_cell_length_b 9.264241
_cell_length_c 13.779748
_cell_angle_alpha 107.914335
_cell_angle_beta 146.689379
_cell_angle_gamma 61.628332
_cell_volume 727.587074
_symmetry_space_group_name_H-M "P -1"
_symmetry_group_IT_number 2
_symmetry_cell_setting 'triclinic'
loop_
_space_group_symop_operation_xyz
x,y,z
-x,-y,-z
loop_
_atom_site_type_symbol
_atom_site_label
_atom_site_fract_x
_atom_site_fract_y
_atom_site_fract_z
Si Si1 0.107065 0.960999 0.192344
Si Si2 0.024050 0.456973 0.122333
Si Si3 0.262897 0.098714 0.173250
Si Si4 0.321521 0.573688 0.470401
Si Si5 0.274326 0.927481 0.513050
Si Si6 0.034905 0.709478 0.624726
Si Si7 0.239006 0.663170 0.963078
Si Si8 0.314382 0.431112 0.633928
O O1 0.266356 0.945719 0.212030
O O2 0.946474 0.154045 0.118087
O O3 0.270703 0.899138 0.388932
O O4 0.947708 0.861180 0.046066
O O5 0.218396 0.269217 0.233899
O O6 0.091233 0.584239 0.259118
O O7 0.803049 0.462849 0.017664
O O8 0.000000 0.500000 0.000000
O O9 0.505308 0.045262 0.289015
O O10 0.500000 0.500000 0.500000
O O11 0.284737 0.753742 0.525933
O O12 0.399670 0.448244 0.592552
O O13 0.049814 0.089991 0.413094
O O14 0.219065 0.628701 0.827273
O O15 0.143560 0.614375 0.585545
O O16 0.813641 0.687601 0.489827
O O17 0.482967 0.651869 0.160510
#
# Coordination Sequence:
#
# PCOD8041940 Si02
#       8
#     2   2   2   2   2   2   2   2
#     4   9  20  34  54  88 119 158 204 252 298 364
#     4  11  21  36  56  88 129 162 201 244 309 373
#     4  10  19  34  54  84 119 161 200 245 305 355
#     4  12  24  39  60  96 127 164 200 250 320 370
#     4  11  22  37  60  86 126 159 201 252 303 369
#     4  10  23  43  66  91 118 167 213 259 294 361
#     4  10  20  38  63  88 119 160 209 256 303 361
#     4  11  23  42  67  91 124 159 214 256 305 367
#
# _framework density 21.990494999999999
#
# number of rings (size 3 to 8) (size 9 to 14) (size 15 to 20)
#    0.000    1.500    2.500    3.000    0.000    3.500 
#    0.000    0.000    0.000    0.750    0.000    0.000 
#    0.000    0.000    0.000    0.000    0.000    0.000 
#
# Total GULP energy -198287.585886 kJ/mol
# GULP energy per Si atom -12392.974118 kJ/mol
# Density = 2.194044 g / cm^3
# Si number density = 21.990495 Si / 1000 Ang^3
#
#
#
# Elastic Constant Matrix: (Units=GPa)
#
#
# Indices 1 2 3 4 5 6 
#
# 1 54.2691 4.7202 3.4106 1.3747 -6.3027 5.3402
# 2 4.7202 67.9046 14.9940 7.7795 -3.0287 6.8573
# 3 3.4106 14.9940 113.7160 19.1872 -1.3639 16.8432
# 4 1.3747 7.7795 19.1872 32.6821 -0.9323 -0.1502
# 5 -6.3027 -3.0287 -1.3639 -0.9323 19.4667 2.7083
# 6 5.3402 6.8573 16.8432 -0.1502 2.7083 22.8284
#
#
#
# Elastic Compliance Matrix: (Units=1/GPa)
#
#
# Indices 1 2 3 4 5 6 
#
# 1 0.019854 -0.000504 0.000555 -0.000864 0.007148 -0.005756
# 2 -0.000504 0.015878 -0.000862 -0.003196 0.002700 -0.004358
# 3 0.000555 -0.000862 0.011237 -0.006406 0.001696 -0.008405
# 4 -0.000864 -0.003196 -0.006406 0.035172 -0.000399 0.006167
# 5 0.007148 0.002700 0.001696 -0.000399 0.055642 -0.010338
# 6 -0.005756 -0.004358 -0.008405 0.006167 -0.010338 0.053929
#
#
# Mechanical properties :
#
#
# Convention : Reuss Voigt Hill
#
# Bulk Modulus (GPa) = 22.05116 31.34881 26.69999
# Shear Modulus (GPa) = 23.98663 29.17978 26.58321
#
# Velocity S-wave (km/s) = 3.30627 3.64665 3.48062
# Velocity P-wave (km/s) = 4.96231 5.65839 5.32174
#
# Compressibility (1/GPa) = 0.04534908
#
# Stress axis : x y z
#
# Youngs Moduli (GPa) = 50.36743 62.97878 88.99297
#
# Poissons Ratio (x) = 0.03171 -0.04939
# Poissons Ratio (y) = 0.02536 0.07667
# Poissons Ratio (z) = -0.02795 0.05426
#
# Static dielectric constant tensor:
#      x y z
#    x 3.827500 0.124740 -0.074730 
#    y 0.124740 4.117470 0.348590 
#    z -0.074730 0.348590 4.083300 
# 
# 
# High freq. dielectric constant tensor:
#      x y z
#    x 1.830180 0.003160 -0.002650 
#    y 0.003160 1.867080 0.014120 
#    z -0.002650 0.014120 1.869620 
# 
# From -- ./inp_files/272644.got.cif
#   From: 2010.06.25/outbox.cif.g09.slc.cpg/sg2_137_cif.got.tgz:272644.got - 2010.06.27 13:26:56.
