data_PCOD8041839
_publ_section_title
;
Structure prediction by ZEFSAII (Michael W. Deem and Ramdas Pophale) SiO2 
 PCOD8041839
Probable space group: P -1
;
_chemical_formula_sum "Si O2"
_cell_formula_units_Z 14
_cell_length_a 6.685361
_cell_length_b 19.164756
_cell_length_c 4.931701
_cell_angle_alpha 78.359884
_cell_angle_beta 88.935832
_cell_angle_gamma 55.514605
_cell_volume 506.523042
_symmetry_space_group_name_H-M "P -1"
_symmetry_group_IT_number 2
_symmetry_cell_setting 'triclinic'
loop_
_space_group_symop_operation_xyz
x,y,z
-x,-y,-z
loop_
_atom_site_type_symbol
_atom_site_label
_atom_site_fract_x
_atom_site_fract_y
_atom_site_fract_z
Si Si1 0.005222 0.240606 0.726192
Si Si2 0.868151 0.472474 0.217311
Si Si3 0.639029 0.625504 0.471249
Si Si4 0.715781 0.941804 0.259221
Si Si5 0.263864 0.650683 0.854862
Si Si6 0.368934 0.909220 0.560185
Si Si7 0.531002 0.194261 0.852930
O O1 0.050467 0.144737 0.819345
O O2 0.251405 0.229297 0.809269
O O3 0.938955 0.275000 0.396177
O O4 0.785633 0.310024 0.873607
O O5 0.646661 0.556845 0.317203
O O6 0.754317 0.431107 0.085159
O O7 0.083626 0.402045 0.474147
O O8 0.000000 0.500000 0.000000
O O9 0.532294 0.619918 0.767255
O O10 0.457611 0.724308 0.282651
O O11 0.618221 0.904811 0.515925
O O12 0.810163 0.994703 0.371398
O O13 0.500000 0.000000 0.000000
O O14 0.299604 0.888717 0.288365
O O15 0.394341 0.836450 0.816147
#
# Coordination Sequence:
#
# PCOD8041839 Si02
#       7
#     2   2   2   2   2   2   2
#     4  11  23  40  66 100 134 178 226 277 331 404
#     4  11  26  46  74  99 134 178 224 277 340 407
#     4  11  27  45  69 101 133 180 223 279 339 402
#     4  10  19  33  61 101 135 171 230 276 330 392
#     4  12  27  45  68 101 140 174 226 278 335 403
#     4  10  20  32  61  98 128 176 225 278 324 396
#     4  11  21  39  65  93 131 177 226 269 336 391
#
# _framework density 27.639413999999999
#
# number of rings (size 3 to 8) (size 9 to 14) (size 15 to 20)
#    0.000    1.143    4.286    3.000    8.000    0.571 
#    0.000    0.000    0.000    5.143    0.000    0.000 
#    0.000    0.000    0.000    0.000    0.000    0.000 
#
# Total GULP energy -173563.758602 kJ/mol
# GULP energy per Si atom -12397.411329 kJ/mol
# Density = 2.757651 g / cm^3
# Si number density = 27.639414 Si / 1000 Ang^3
#
#
#
# Elastic Constant Matrix: (Units=GPa)
#
#
# Indices 1 2 3 4 5 6 
#
# 1 43.7930 42.3985 -0.7068 3.5579 -14.0193 17.5304
# 2 42.3985 229.7770 39.4105 10.6949 -9.7258 12.1349
# 3 -0.7068 39.4105 108.3563 -2.9029 -15.7882 13.5029
# 4 3.5579 10.6949 -2.9029 44.0839 4.4422 -2.2353
# 5 -14.0193 -9.7258 -15.7882 4.4422 30.8215 -3.3861
# 6 17.5304 12.1349 13.5029 -2.2353 -3.3861 46.7703
#
#
#
# Elastic Compliance Matrix: (Units=1/GPa)
#
#
# Indices 1 2 3 4 5 6 
#
# 1 0.042902 -0.007402 0.007666 -0.003945 0.020013 -0.015113
# 2 -0.007402 0.006036 -0.002872 -0.000699 -0.002634 0.001814
# 3 0.007666 -0.002872 0.012153 -0.000212 0.008282 -0.005047
# 4 -0.003945 -0.000699 -0.000212 0.023816 -0.005284 0.002477
# 5 0.020013 -0.002634 0.008282 -0.005284 0.045040 -0.006201
# 6 -0.015113 0.001814 -0.005047 0.002477 -0.006201 0.027702
#
#
# Mechanical properties :
#
#
# Convention : Reuss Voigt Hill
#
# Bulk Modulus (GPa) = 17.89736 60.45899 39.17817
# Shear Modulus (GPa) = 27.54968 44.39007 35.96988
#
# Velocity S-wave (km/s) = 3.16057 4.01189 3.61140
# Velocity P-wave (km/s) = 4.45065 6.58651 5.62096
#
# Compressibility (1/GPa) = 0.05587417
#
# Stress axis : x y z
#
# Youngs Moduli (GPa) = 23.30901 165.67875 82.28101
#
# Poissons Ratio (x) = 1.22639 -0.63075
# Poissons Ratio (y) = 0.17254 0.23631
# Poissons Ratio (z) = -0.17868 0.47583
#
# Static dielectric constant tensor:
#      x y z
#    x 4.756180 -0.011170 0.007140 
#    y -0.011170 5.745160 -0.027890 
#    z 0.007140 -0.027890 5.036450 
# 
# 
# High freq. dielectric constant tensor:
#      x y z
#    x 2.105040 0.002890 0.001730 
#    y 0.002890 2.137980 0.000130 
#    z 0.001730 0.000130 2.111260 
# 
# From -- ./inp_files/52418.got.cif
#   From: 2010.06.25/outbox.cif.g09.slc.cpg/sg2_27_cif.got.tgz:52418.got - 2010.06.27 13:26:56.
