data_PCOD8041317
_publ_section_title
;
Structure prediction by ZEFSAII (Michael W. Deem and Ramdas Pophale) SiO2 
 PCOD8041317
Probable space group: P -1
;
_chemical_formula_sum "Si O2"
_cell_formula_units_Z 14
_cell_length_a 8.606652
_cell_length_b 11.246932
_cell_length_c 14.165189
_cell_angle_alpha 150.438740
_cell_angle_beta 129.651845
_cell_angle_gamma 63.775715
_cell_volume 497.186656
_symmetry_space_group_name_H-M "P -1"
_symmetry_group_IT_number 2
_symmetry_cell_setting 'triclinic'
loop_
_space_group_symop_operation_xyz
x,y,z
-x,-y,-z
loop_
_atom_site_type_symbol
_atom_site_label
_atom_site_fract_x
_atom_site_fract_y
_atom_site_fract_z
Si Si1 0.345612 0.922462 0.994411
Si Si2 0.208935 0.404884 0.228940
Si Si3 0.798030 0.222524 0.358731
Si Si4 0.943102 0.132304 0.779491
Si Si5 0.228276 0.271015 0.814441
Si Si6 0.360174 0.874626 0.491106
Si Si7 0.682788 0.314256 0.997052
O O1 0.324973 0.199725 0.158048
O O2 0.599908 0.988535 0.160364
O O3 0.214917 0.777183 0.933457
O O4 0.265893 0.738123 0.747031
O O5 0.164563 0.523625 0.391844
O O6 0.352205 0.607678 0.350900
O O7 0.986582 0.257556 0.987888
O O8 0.012674 0.139602 0.387329
O O9 0.108951 0.301890 0.884905
O O10 0.712100 0.129206 0.649443
O O11 0.481418 0.400108 0.015573
O O12 0.189218 0.983628 0.559619
O O13 0.158346 0.444733 0.827659
O O14 0.596926 0.064895 0.723556
#
# Coordination Sequence:
#
# PCOD8041317 Si02
#       7
#     2   2   2   2   2   2   2
#     4  10  19  33  53  78 111 142 179 217 273 314
#     4  11  21  31  55  84 111 137 177 231 265 311
#     4  10  19  32  53  80 108 139 176 230 263 305
#     4  11  20  34  56  87 107 138 180 222 272 314
#     4   9  18  33  56  79 109 144 175 215 273 317
#     4  10  19  34  55  84 110 136 178 226 268 315
#     4   9  18  34  56  79 110 143 177 215 269 325
#
# _framework density 28.158439000000001
#
# number of rings (size 3 to 8) (size 9 to 14) (size 15 to 20)
#    0.857    1.143    4.286    1.286    0.000    0.000 
#    0.000    0.714    3.143    4.286    0.000    0.000 
#    0.000    0.000    0.000    0.000    0.000    0.000 
#
# Total GULP energy -173506.544091 kJ/mol
# GULP energy per Si atom -12393.324578 kJ/mol
# Density = 2.809435 g / cm^3
# Si number density = 28.158439 Si / 1000 Ang^3
#
#
#
# Elastic Constant Matrix: (Units=GPa)
#
#
# Indices 1 2 3 4 5 6 
#
# 1 27.2578 19.0840 26.2474 -7.9122 -11.3476 3.8430
# 2 19.0840 151.6256 56.0437 -3.2330 -14.1051 23.5653
# 3 26.2474 56.0437 147.3101 -24.1106 -31.4221 18.4056
# 4 -7.9122 -3.2330 -24.1106 45.8581 6.2362 -2.7344
# 5 -11.3476 -14.1051 -31.4221 6.2362 47.4492 -4.9331
# 6 3.8430 23.5653 18.4056 -2.7344 -4.9331 35.2550
#
#
#
# Elastic Compliance Matrix: (Units=1/GPa)
#
#
# Indices 1 2 3 4 5 6 
#
# 1 0.048080 -0.003600 -0.005220 0.004481 0.006502 0.001148
# 2 -0.003600 0.008527 -0.002346 -0.001488 -0.000122 -0.004215
# 3 -0.005220 -0.002346 0.010418 0.003693 0.004216 -0.002426
# 4 0.004481 -0.001488 0.003693 0.024456 -0.000091 0.000462
# 5 0.006502 -0.000122 0.004216 -0.000091 0.025473 0.000729
# 6 0.001148 -0.004215 -0.002426 0.000462 0.000729 0.032462
#
#
# Mechanical properties :
#
#
# Convention : Reuss Voigt Hill
#
# Bulk Modulus (GPa) = 22.37494 58.77152 40.57323
# Shear Modulus (GPa) = 26.78880 40.70034 33.74457
#
# Velocity S-wave (km/s) = 3.08776 3.80597 3.46552
# Velocity P-wave (km/s) = 4.54705 6.34279 5.51845
#
# Compressibility (1/GPa) = 0.04469285
#
# Stress axis : x y z
#
# Youngs Moduli (GPa) = 20.79885 117.26965 95.99061
#
# Poissons Ratio (x) = 0.42217 0.50110
# Poissons Ratio (y) = 0.07488 0.22516
# Poissons Ratio (z) = 0.10858 0.27508
#
# Static dielectric constant tensor:
#      x y z
#    x 4.744110 -0.022790 -0.120140 
#    y -0.022790 5.353090 -0.295790 
#    z -0.120140 -0.295790 4.916160 
# 
# 
# High freq. dielectric constant tensor:
#      x y z
#    x 2.125010 -0.002480 -0.010770 
#    y -0.002480 2.154960 -0.013060 
#    z -0.010770 -0.013060 2.129540 
# 
# From -- ./inp_files/518460.got.cif
#   From: 2010.06.25/outbox.cif.g09.slc.cpg/sg2_260_cif.got.tgz:518460.got - 2010.06.27 13:26:56.
