data_PCOD8041295
_publ_section_title
;
Structure prediction by ZEFSAII (Michael W. Deem and Ramdas Pophale) SiO2 
 PCOD8041295
Probable space group: P -1
;
_chemical_formula_sum "Si O2"
_cell_formula_units_Z 16
_cell_length_a 12.198132
_cell_length_b 10.202000
_cell_length_c 8.783515
_cell_angle_alpha 89.362048
_cell_angle_beta 88.586833
_cell_angle_gamma 51.617236
_cell_volume 856.561297
_symmetry_space_group_name_H-M "P -1"
_symmetry_group_IT_number 2
_symmetry_cell_setting 'triclinic'
loop_
_space_group_symop_operation_xyz
x,y,z
-x,-y,-z
loop_
_atom_site_type_symbol
_atom_site_label
_atom_site_fract_x
_atom_site_fract_y
_atom_site_fract_z
Si Si1 0.144482 0.226334 0.311230
Si Si2 0.406307 0.974238 0.699320
Si Si3 0.116185 0.298119 0.660244
Si Si4 0.541146 0.635687 0.851968
Si Si5 0.840782 0.509447 0.835360
Si Si6 0.432626 0.444484 0.800388
Si Si7 0.135811 0.558268 0.812915
Si Si8 0.432455 0.893932 0.354994
O O1 0.106375 0.307400 0.478652
O O2 0.189981 0.317022 0.207306
O O3 0.006817 0.262809 0.238714
O O4 0.269442 0.028950 0.313234
O O5 0.454880 0.831055 0.820171
O O6 0.457346 0.890208 0.533337
O O7 0.238833 0.109808 0.713048
O O8 0.476826 0.062143 0.734890
O O9 0.153264 0.416220 0.711984
O O10 0.970496 0.355853 0.736082
O O11 0.703373 0.527508 0.800030
O O12 0.476806 0.560928 0.762897
O O13 0.523868 0.628123 0.031351
O O14 0.877913 0.474136 0.011752
O O15 0.266076 0.557231 0.779673
O O16 0.516148 0.288334 0.686262
#
# Coordination Sequence:
#
# PCOD8041295 Si02
#       8
#     2   2   2   2   2   2   2   2
#     4  10  19  32  53  79 108 136 171 220 267 311
#     4  10  20  35  55  81 108 137 179 223 264 313
#     4  10  19  32  53  79 108 136 171 220 267 311
#     4  10  22  38  55  78 109 144 180 218 264 317
#     4  10  19  32  52  78 107 138 176 216 262 315
#     4  10  22  38  55  78 109 144 180 218 264 317
#     4  10  19  32  52  78 107 138 176 216 262 315
#     4  10  20  35  55  81 108 137 179 223 264 313
#
# _framework density 18.67934
#
# number of rings (size 3 to 8) (size 9 to 14) (size 15 to 20)
#    0.000    2.000    2.500    3.000    0.000    4.000 
#    0.000    1.250    0.000    7.500    0.000    0.000 
#    0.000    0.000    0.000    0.000    0.000    0.000 
#
# Total GULP energy -198412.686151 kJ/mol
# GULP energy per Si atom -12400.792884 kJ/mol
# Density = 1.863683 g / cm^3
# Si number density = 18.679340 Si / 1000 Ang^3
#
#
#
# Elastic Constant Matrix: (Units=GPa)
#
#
# Indices 1 2 3 4 5 6 
#
# 1 111.5512 20.5870 23.1413 -2.1513 9.4796 -6.7161
# 2 20.5870 37.0832 1.8438 -2.4081 3.3793 -5.3250
# 3 23.1413 1.8438 42.6292 -4.1024 9.7132 -8.5083
# 4 -2.1513 -2.4081 -4.1024 27.3867 -6.2562 3.3912
# 5 9.4796 3.3793 9.7132 -6.2562 22.2960 1.1313
# 6 -6.7161 -5.3250 -8.5083 3.3912 1.1313 26.3340
#
#
#
# Elastic Compliance Matrix: (Units=1/GPa)
#
#
# Indices 1 2 3 4 5 6 
#
# 1 0.011348 -0.005907 -0.005572 -0.000874 -0.001751 0.000087
# 2 -0.005907 0.031374 0.004114 0.001231 -0.004004 0.006180
# 3 -0.005572 0.004114 0.031106 0.000582 -0.012145 0.009908
# 4 -0.000874 0.001231 0.000582 0.039917 0.011407 -0.005416
# 5 -0.001751 -0.004004 -0.012145 0.011407 0.055152 -0.009018
# 6 0.000087 0.006180 0.009908 -0.005416 -0.009018 0.043532
#
#
# Mechanical properties :
#
#
# Convention : Reuss Voigt Hill
#
# Bulk Modulus (GPa) = 16.92161 31.37865 24.15013
# Shear Modulus (GPa) = 20.25456 24.91610 22.58533
#
# Velocity S-wave (km/s) = 3.29649 3.65620 3.48099
# Velocity P-wave (km/s) = 4.85467 5.88717 5.39567
#
# Compressibility (1/GPa) = 0.05909603
#
# Stress axis : x y z
#
# Youngs Moduli (GPa) = 88.12168 31.87385 32.14832
#
# Poissons Ratio (x) = 0.18829 0.17914
# Poissons Ratio (y) = 0.52058 -0.13226
# Poissons Ratio (z) = 0.49105 -0.13113
#
# Static dielectric constant tensor:
#      x y z
#    x 3.653650 -0.243820 0.094560 
#    y -0.243820 3.269760 -0.049210 
#    z 0.094560 -0.049210 3.403950 
# 
# 
# High freq. dielectric constant tensor:
#      x y z
#    x 1.724890 -0.027490 0.005390 
#    y -0.027490 1.705120 -0.004040 
#    z 0.005390 -0.004040 1.728020 
# 
# From -- ./inp_files/179057.got.cif
#   From: 2010.06.25/outbox.cif.g09.slc.cpg/sg2_90_cif.got.tgz:179057.got - 2010.06.27 13:26:56.
