data_PCOD8041903
_publ_section_title
;
Structure prediction by ZEFSAII (Michael W. Deem and Ramdas Pophale) SiO2 
 PCOD8041903
Probable space group: P -1
;
_chemical_formula_sum "Si O2"
_cell_formula_units_Z 16
_cell_length_a 18.366443
_cell_length_b 24.828289
_cell_length_c 11.985396
_cell_angle_alpha 141.600497
_cell_angle_beta 28.116911
_cell_angle_gamma 160.971808
_cell_volume 793.878560
_symmetry_space_group_name_H-M "P -1"
_symmetry_group_IT_number 2
_symmetry_cell_setting 'triclinic'
loop_
_space_group_symop_operation_xyz
x,y,z
-x,-y,-z
loop_
_atom_site_type_symbol
_atom_site_label
_atom_site_fract_x
_atom_site_fract_y
_atom_site_fract_z
Si Si1 0.302199 0.561117 0.199147
Si Si2 0.716019 0.677912 0.345905
Si Si3 0.891931 0.417632 0.698471
Si Si4 0.864672 0.178950 0.784159
Si Si5 0.857295 0.499357 0.105703
Si Si6 0.787307 0.179580 0.517930
Si Si7 0.205791 0.311652 0.343179
Si Si8 0.109452 0.804988 0.839177
O O1 0.293364 0.633061 0.237570
O O2 0.236168 0.562623 0.417404
O O3 0.041161 0.361352 0.196947
O O4 0.653406 0.695865 0.935830
O O5 0.511420 0.663633 0.631270
O O6 0.477353 0.483692 0.332129
O O7 0.955140 0.765411 0.260257
O O8 0.921392 0.788769 0.134725
O O9 0.714929 0.244254 0.693025
O O10 0.903344 0.488319 0.900306
O O11 0.958622 0.320905 0.846365
O O12 0.951494 0.156918 0.527319
O O13 0.500000 0.000000 0.000000
O O14 0.000000 0.500000 0.000000
O O15 0.908083 0.186809 0.256791
O O16 0.056152 0.308439 0.456254
O O17 0.473304 0.982820 0.670944
#
# Coordination Sequence:
#
# PCOD8041903 Si02
#       8
#     2   2   2   2   2   2   2   2
#     4   9  19  34  58  76 102 141 182 221 260 317
#     4  10  20  36  58  79 108 145 186 223 260 325
#     4  10  19  34  53  79 107 140 175 216 271 318
#     4  11  22  38  60  81 106 144 186 226 268 321
#     4  11  22  36  55  81 113 143 177 222 271 325
#     4  10  20  34  58  81 110 138 178 229 269 316
#     4  10  19  34  56  84 104 138 186 224 261 314
#     4   9  19  36  56  81 106 144 184 221 266 313
#
# _framework density 20.154216000000002
#
# number of rings (size 3 to 8) (size 9 to 14) (size 15 to 20)
#    0.000    2.000    0.000    6.000    0.000    5.500 
#    0.000    3.750    0.000   20.250    0.000    0.000 
#    0.000    0.000    0.000    0.000    0.000    0.000 
#
# Total GULP energy -198227.249019 kJ/mol
# GULP energy per Si atom -12389.203064 kJ/mol
# Density = 2.010834 g / cm^3
# Si number density = 20.154216 Si / 1000 Ang^3
#
#
#
# Elastic Constant Matrix: (Units=GPa)
#
#
# Indices 1 2 3 4 5 6 
#
# 1 97.0054 32.6516 63.6733 -13.3711 -2.9700 8.1965
# 2 32.6516 49.8192 43.9019 -15.5350 -4.7737 -0.6938
# 3 63.6733 43.9019 202.6440 -17.6874 22.8111 3.1316
# 4 -13.3711 -15.5350 -17.6874 28.7801 2.2770 0.2098
# 5 -2.9700 -4.7737 22.8111 2.2770 39.2262 -0.1779
# 6 8.1965 -0.6938 3.1316 0.2098 -0.1779 24.9471
#
#
#
# Elastic Compliance Matrix: (Units=1/GPa)
#
#
# Indices 1 2 3 4 5 6 
#
# 1 0.015462 -0.006429 -0.003533 0.001392 0.002340 -0.004810
# 2 -0.006429 0.032537 -0.004736 0.011197 0.005593 0.003557
# 3 -0.003533 -0.004736 0.007769 0.001005 -0.005420 0.000007
# 4 0.001392 0.011197 0.001005 0.042183 -0.001568 -0.000638
# 5 0.002340 0.005593 -0.005420 -0.001568 0.029595 0.000291
# 6 -0.004810 0.003557 0.000007 -0.000638 0.000291 0.041771
#
#
# Mechanical properties :
#
#
# Convention : Reuss Voigt Hill
#
# Bulk Modulus (GPa) = 37.92088 69.99135 53.95611
# Shear Modulus (GPa) = 24.09608 32.54015 28.31812
#
# Velocity S-wave (km/s) = 3.46147 4.02252 3.75249
# Velocity P-wave (km/s) = 5.90186 7.50849 6.75313
#
# Compressibility (1/GPa) = 0.02637070
#
# Stress axis : x y z
#
# Youngs Moduli (GPa) = 64.67602 30.73457 128.72148
#
# Poissons Ratio (x) = 0.19759 0.45478
# Poissons Ratio (y) = 0.41580 0.60965
# Poissons Ratio (z) = 0.22851 0.14556
#
# Static dielectric constant tensor:
#      x y z
#    x 3.605670 -0.001530 0.334100 
#    y -0.001530 3.307760 -0.084440 
#    z 0.334100 -0.084440 4.599470 
# 
# 
# High freq. dielectric constant tensor:
#      x y z
#    x 1.786250 0.002520 0.021890 
#    y 0.002520 1.739740 -0.007820 
#    z 0.021890 -0.007820 1.816150 
# 
# From -- ./inp_files/405402.got.cif
#   From: 2010.06.25/outbox.cif.g09.slc.cpg/sg2_203_cif.got.tgz:405402.got - 2010.06.27 13:26:56.
