data_PCOD8041282
_publ_section_title
;
Structure prediction by ZEFSAII (Michael W. Deem and Ramdas Pophale) SiO2 
 PCOD8041282
Probable space group: P -1
;
_chemical_formula_sum "Si O2"
_cell_formula_units_Z 12
_cell_length_a 7.311235
_cell_length_b 7.587295
_cell_length_c 10.917067
_cell_angle_alpha 105.489313
_cell_angle_beta 102.335459
_cell_angle_gamma 120.033808
_cell_volume 459.383205
_symmetry_space_group_name_H-M "P -1"
_symmetry_group_IT_number 2
_symmetry_cell_setting 'triclinic'
loop_
_space_group_symop_operation_xyz
x,y,z
-x,-y,-z
loop_
_atom_site_type_symbol
_atom_site_label
_atom_site_fract_x
_atom_site_fract_y
_atom_site_fract_z
Si Si1 0.568578 0.302815 0.477639
Si Si2 0.409309 0.699387 0.046274
Si Si3 0.142279 0.250968 0.832572
Si Si4 0.144399 0.889735 0.458992
Si Si5 0.964105 0.791318 0.679800
Si Si6 0.588384 0.175978 0.200781
O O1 0.720003 0.216091 0.515814
O O2 0.701281 0.560745 0.595013
O O3 0.550524 0.297486 0.326766
O O4 0.315671 0.143349 0.472954
O O5 0.169778 0.438258 0.967369
O O6 0.471838 0.759874 0.922365
O O7 0.604475 0.692984 0.140461
O O8 0.405183 0.898295 0.144278
O O9 0.056051 0.284247 0.697507
O O10 0.972394 0.983245 0.799274
O O11 0.041175 0.905292 0.574910
O O12 0.146697 0.749077 0.749195
#
# Coordination Sequence:
#
# PCOD8041282 Si02
#       6
#     2   2   2   2   2   2
#     4  10  20  34  55  80 103 133 172 213 258 305
#     4   9  18  32  54  75 101 141 176 208 249 302
#     4  10  19  32  51  78 106 136 171 209 258 306
#     4  10  20  34  53  80 106 132 170 214 259 305
#     4  10  19  33  56  80 104 134 166 212 265 305
#     4   9  17  33  54  76 101 136 177 210 249 304
#
# _framework density 26.121981000000002
#
# number of rings (size 3 to 8) (size 9 to 14) (size 15 to 20)
#    0.000    2.333    0.000    4.500    0.000    0.667 
#    0.000    1.667    0.000   14.000    0.000    0.000 
#    0.000    0.000    0.000    0.000    0.000    0.000 
#
# Total GULP energy -148702.581388 kJ/mol
# GULP energy per Si atom -12391.881782 kJ/mol
# Density = 2.606253 g / cm^3
# Si number density = 26.121981 Si / 1000 Ang^3
#
#
#
# Elastic Constant Matrix: (Units=GPa)
#
#
# Indices 1 2 3 4 5 6 
#
# 1 56.4648 20.5305 32.2473 8.0651 2.6162 -3.0504
# 2 20.5305 110.5324 47.3555 35.8381 -3.9126 -4.0494
# 3 32.2473 47.3555 140.3274 38.3756 14.2547 0.7576
# 4 8.0651 35.8381 38.3756 70.6091 -16.4603 -5.2559
# 5 2.6162 -3.9126 14.2547 -16.4603 33.8290 15.0628
# 6 -3.0504 -4.0494 0.7576 -5.2559 15.0628 22.0512
#
#
#
# Elastic Compliance Matrix: (Units=1/GPa)
#
#
# Indices 1 2 3 4 5 6 
#
# 1 0.021096 -0.002359 -0.004237 0.001075 -0.001267 0.003752
# 2 -0.002359 0.011946 -0.002244 -0.004531 -0.000115 0.000943
# 3 -0.004237 -0.002244 0.011663 -0.006715 -0.009741 0.003654
# 4 0.001075 -0.004531 -0.006715 0.023329 0.016238 -0.005984
# 5 -0.001267 -0.000115 -0.009741 0.016238 0.057291 -0.035126
# 6 0.003752 0.000943 0.003654 -0.005984 -0.035126 0.068483
#
#
# Mechanical properties :
#
#
# Convention : Reuss Voigt Hill
#
# Bulk Modulus (GPa) = 37.00188 56.39903 46.70045
# Shear Modulus (GPa) = 22.67621 39.11061 30.89341
#
# Velocity S-wave (km/s) = 2.94953 3.87360 3.44271
# Velocity P-wave (km/s) = 5.07892 6.45321 5.80686
#
# Compressibility (1/GPa) = 0.02702566
#
# Stress axis : x y z
#
# Youngs Moduli (GPa) = 47.40328 83.70939 85.74050
#
# Poissons Ratio (x) = 0.19745 0.36330
# Poissons Ratio (y) = 0.11181 0.19236
# Poissons Ratio (z) = 0.20086 0.18781
#
# Static dielectric constant tensor:
#      x y z
#    x 4.548090 -0.494910 0.249440 
#    y -0.494910 4.909450 0.534930 
#    z 0.249440 0.534930 5.295680 
# 
# 
# High freq. dielectric constant tensor:
#      x y z
#    x 2.030460 -0.054620 0.034290 
#    y -0.054620 2.038560 0.028050 
#    z 0.034290 0.028050 2.066830 
# 
# From -- ./inp_files/144863.got.cif
#   From: 2010.06.25/outbox.cif.g09.slc.cpg/sg2_73_cif.got.tgz:144863.got - 2010.06.27 13:26:56.
