data_PCOD8041397
_publ_section_title
;
Structure prediction by ZEFSAII (Michael W. Deem and Ramdas Pophale) SiO2 
 PCOD8041397
Probable space group: P -1
;
_chemical_formula_sum "Si O2"
_cell_formula_units_Z 16
_cell_length_a 28.092580
_cell_length_b 14.420975
_cell_length_c 11.413435
_cell_angle_alpha 147.619044
_cell_angle_beta 148.503944
_cell_angle_gamma 20.823317
_cell_volume 830.149727
_symmetry_space_group_name_H-M "P -1"
_symmetry_group_IT_number 2
_symmetry_cell_setting 'triclinic'
loop_
_space_group_symop_operation_xyz
x,y,z
-x,-y,-z
loop_
_atom_site_type_symbol
_atom_site_label
_atom_site_fract_x
_atom_site_fract_y
_atom_site_fract_z
Si Si1 0.035339 0.483216 0.421631
Si Si2 0.488606 0.476593 0.165558
Si Si3 0.207246 0.557287 0.775181
Si Si4 0.478626 0.987001 0.074169
Si Si5 0.650675 0.655666 0.373251
Si Si6 0.732539 0.008835 0.330834
Si Si7 0.774012 0.098610 0.767051
Si Si8 0.538742 0.762143 0.481870
O O1 0.127170 0.522089 0.635999
O O2 0.000000 0.500000 0.500000
O O3 0.128599 0.182200 0.257190
O O4 0.886460 0.725783 0.299834
O O5 0.647294 0.240151 0.301302
O O6 0.378253 0.677409 0.252081
O O7 0.488507 0.636322 0.244947
O O8 0.454994 0.346196 0.890993
O O9 0.376578 0.304368 0.884038
O O10 0.201917 0.561645 0.624935
O O11 0.148490 0.827243 0.983926
O O12 0.428793 0.221938 0.300345
O O13 0.352468 0.036652 0.862634
O O14 0.500000 0.000000 0.000000
O O15 0.673288 0.590941 0.491637
O O16 0.584552 0.941739 0.518507
O O17 0.755416 0.087901 0.579788
#
# Coordination Sequence:
#
# PCOD8041397 Si02
#       8
#     2   2   2   2   2   2   2   2
#     4  10  22  38  52  80 117 154 186 223 282 346
#     4  11  19  34  56  89 107 141 191 242 279 321
#     4  10  20  37  57  79 108 150 190 226 272 342
#     4  11  20  34  56  88 117 143 182 234 283 329
#     4   9  19  36  54  83 110 142 197 234 267 337
#     4  11  21  35  51  85 122 137 183 244 275 335
#     4  10  20  35  57  77 115 156 184 216 286 343
#     4  10  19  32  56  82 114 149 179 237 284 321
#
# _framework density 19.273633
#
# number of rings (size 3 to 8) (size 9 to 14) (size 15 to 20)
#    0.000    1.750    3.750    4.500    1.750    2.000 
#    2.250    0.000    0.000    1.500    0.000    0.000 
#    0.000    0.000    0.000    0.000    0.000    0.000 
#
# Total GULP energy -198239.139533 kJ/mol
# GULP energy per Si atom -12389.946221 kJ/mol
# Density = 1.922977 g / cm^3
# Si number density = 19.273633 Si / 1000 Ang^3
#
#
#
# Elastic Constant Matrix: (Units=GPa)
#
#
# Indices 1 2 3 4 5 6 
#
# 1 119.0429 20.2364 53.9959 3.8188 13.0467 7.9755
# 2 20.2364 103.1479 44.8848 9.7335 12.1758 0.0747
# 3 53.9959 44.8848 84.3193 17.9086 21.6688 2.5615
# 4 3.8188 9.7335 17.9086 19.2050 9.0870 9.1059
# 5 13.0467 12.1758 21.6688 9.0870 43.8612 4.3702
# 6 7.9755 0.0747 2.5615 9.1059 4.3702 22.8898
#
#
#
# Elastic Compliance Matrix: (Units=1/GPa)
#
#
# Indices 1 2 3 4 5 6 
#
# 1 0.013566 0.001303 -0.011442 0.011157 -0.000275 -0.007837
# 2 0.001303 0.012762 -0.007658 0.000421 -0.000258 0.000243
# 3 -0.011442 -0.007658 0.029365 -0.024182 -0.005096 0.011318
# 4 0.011157 0.000421 -0.024182 0.093002 -0.007088 -0.036827
# 5 -0.000275 -0.000258 -0.005096 -0.007088 0.027107 -0.001689
# 6 -0.007837 0.000243 0.011318 -0.036827 -0.001689 0.060123
#
#
# Mechanical properties :
#
#
# Convention : Reuss Voigt Hill
#
# Bulk Modulus (GPa) = 49.75466 60.52716 55.14091
# Shear Modulus (GPa) = 17.97144 29.68406 23.82775
#
# Velocity S-wave (km/s) = 3.05690 3.92872 3.51990
# Velocity P-wave (km/s) = 6.19116 7.21471 6.72244
#
# Compressibility (1/GPa) = 0.02009862
#
# Stress axis : x y z
#
# Youngs Moduli (GPa) = 73.71419 78.35554 34.05427
#
# Poissons Ratio (x) = -0.10207 0.38964
# Poissons Ratio (y) = -0.09602 0.26080
# Poissons Ratio (z) = 0.84341 0.60006
#
# Static dielectric constant tensor:
#      x y z
#    x 4.061560 0.002060 -0.168830 
#    y 0.002060 3.652800 0.251950 
#    z -0.168830 0.251950 3.535140 
# 
# 
# High freq. dielectric constant tensor:
#      x y z
#    x 1.762080 0.001250 0.008820 
#    y 0.001250 1.720270 0.033660 
#    z 0.008820 0.033660 1.741650 
# 
# From -- ./inp_files/223832.got.cif
#   From: 2010.06.25/outbox.cif.g09.slc.cpg/sg2_112_cif.got.tgz:223832.got - 2010.06.27 13:26:56.
