data_PCOD8041921
_publ_section_title
;
Structure prediction by ZEFSAII (Michael W. Deem and Ramdas Pophale) SiO2 
 PCOD8041921
Probable space group: P -1
;
_chemical_formula_sum "Si O2"
_cell_formula_units_Z 16
_cell_length_a 9.662064
_cell_length_b 12.501984
_cell_length_c 11.041277
_cell_angle_alpha 114.383302
_cell_angle_beta 53.980978
_cell_angle_gamma 80.382667
_cell_volume 816.442626
_symmetry_space_group_name_H-M "P -1"
_symmetry_group_IT_number 2
_symmetry_cell_setting 'triclinic'
loop_
_space_group_symop_operation_xyz
x,y,z
-x,-y,-z
loop_
_atom_site_type_symbol
_atom_site_label
_atom_site_fract_x
_atom_site_fract_y
_atom_site_fract_z
Si Si1 0.643377 0.710260 0.556452
Si Si2 0.245516 0.230514 0.709510
Si Si3 0.393557 0.929507 0.381536
Si Si4 0.153613 0.725853 0.982553
Si Si5 0.999023 0.019615 0.287020
Si Si6 0.786932 0.206995 0.270742
Si Si7 0.584065 0.497616 0.587080
Si Si8 0.345572 0.050101 0.213553
O O1 0.757499 0.670109 0.348535
O O2 0.400253 0.797310 0.691316
O O3 0.708813 0.572880 0.541112
O O4 0.700253 0.802056 0.647469
O O5 0.402070 0.204600 0.725538
O O6 0.330049 0.076611 0.541763
O O7 0.011581 0.309824 0.912462
O O8 0.202187 0.914100 0.493196
O O9 0.438232 0.932708 0.217724
O O10 0.102604 0.773594 0.890576
O O11 0.386545 0.588343 0.819623
O O12 0.130784 0.849218 0.137328
O O13 0.130462 0.077618 0.294969
O O14 0.936894 0.063152 0.198303
O O15 0.724167 0.330273 0.464037
O O16 0.500000 0.500000 0.500000
O O17 0.500000 0.000000 0.000000
#
# Coordination Sequence:
#
# PCOD8041921 Si02
#       8
#     2   2   2   2   2   2   2   2
#     4   9  17  34  52  71 103 140 165 209 260 299
#     4   9  16  29  52  78  99 133 171 217 252 299
#     4   9  19  32  47  73 111 136 164 208 266 303
#     4   9  18  29  53  79 104 131 171 216 252 299
#     4  11  20  33  52  78 103 141 171 205 259 309
#     4  10  19  34  54  75 106 136 176 207 257 307
#     4   8  17  34  50  74 106 137 167 211 259 307
#     4  11  22  31  49  79 109 135 168 214 256 307
#
# _framework density 19.597214999999998
#
# number of rings (size 3 to 8) (size 9 to 14) (size 15 to 20)
#    0.000    2.750    1.250    2.250    3.500    0.000 
#    0.000    6.250    0.000    0.000    0.000   11.375 
#    0.000    0.000    0.000    0.000    0.000    0.000 
#
# Total GULP energy -198266.649343 kJ/mol
# GULP energy per Si atom -12391.665584 kJ/mol
# Density = 1.955261 g / cm^3
# Si number density = 19.597215 Si / 1000 Ang^3
#
#
#
# Elastic Constant Matrix: (Units=GPa)
#
#
# Indices 1 2 3 4 5 6 
#
# 1 86.9349 20.8006 25.4477 -7.5912 -5.3025 20.1638
# 2 20.8006 29.4635 33.3924 -12.6576 -9.8228 10.3733
# 3 25.4477 33.3924 96.8020 -29.8617 -8.3931 6.2993
# 4 -7.5912 -12.6576 -29.8617 41.4687 4.9588 3.2160
# 5 -5.3025 -9.8228 -8.3931 4.9588 23.7087 -9.4035
# 6 20.1638 10.3733 6.2993 3.2160 -9.4035 26.8076
#
#
#
# Elastic Compliance Matrix: (Units=1/GPa)
#
#
# Indices 1 2 3 4 5 6 
#
# 1 0.015805 -0.007247 -0.000926 0.001338 -0.004246 -0.010516
# 2 -0.007247 0.073701 -0.019266 0.006570 0.015163 -0.014010
# 3 -0.000926 -0.019266 0.019382 0.008038 -0.002282 0.001832
# 4 0.001338 0.006570 0.008038 0.033732 -0.005750 -0.011501
# 5 -0.004246 0.015163 -0.002282 -0.005750 0.054981 0.017839
# 6 -0.010516 -0.014010 0.001832 -0.011501 0.017839 0.057841
#
#
# Mechanical properties :
#
#
# Convention : Reuss Voigt Hill
#
# Bulk Modulus (GPa) = 18.51473 41.38687 29.95080
# Shear Modulus (GPa) = 15.22891 27.30099 21.26495
#
# Velocity S-wave (km/s) = 2.79067 3.73648 3.29766
# Velocity P-wave (km/s) = 4.45555 6.30711 5.46038
#
# Compressibility (1/GPa) = 0.05401105
#
# Stress axis : x y z
#
# Youngs Moduli (GPa) = 63.27201 13.56830 51.59410
#
# Poissons Ratio (x) = 0.09832 0.04779
# Poissons Ratio (y) = 0.45851 0.99399
# Poissons Ratio (z) = 0.05861 0.26140
#
# Static dielectric constant tensor:
#      x y z
#    x 3.350070 0.219330 -0.012830 
#    y 0.219330 4.708680 0.299310 
#    z -0.012830 0.299310 3.926760 
# 
# 
# High freq. dielectric constant tensor:
#      x y z
#    x 1.730580 0.019840 -0.004280 
#    y 0.019840 1.756660 -0.022060 
#    z -0.004280 -0.022060 1.755050 
# 
# From -- ./inp_files/397603.got.cif
#   From: 2010.06.25/outbox.cif.g09.slc.cpg/sg2_199_cif.got.tgz:397603.got - 2010.06.27 13:26:56.
