data_PCOD8041930
_publ_section_title
;
Structure prediction by ZEFSAII (Michael W. Deem and Ramdas Pophale) SiO2 
 PCOD8041930
Probable space group: P -1
;
_chemical_formula_sum "Si O2"
_cell_formula_units_Z 14
_cell_length_a 22.003109
_cell_length_b 11.311491
_cell_length_c 18.226811
_cell_angle_alpha 32.100610
_cell_angle_beta 18.044825
_cell_angle_gamma 39.139829
_cell_volume 734.365146
_symmetry_space_group_name_H-M "P -1"
_symmetry_group_IT_number 2
_symmetry_cell_setting 'triclinic'
loop_
_space_group_symop_operation_xyz
x,y,z
-x,-y,-z
loop_
_atom_site_type_symbol
_atom_site_label
_atom_site_fract_x
_atom_site_fract_y
_atom_site_fract_z
Si Si1 0.427754 0.959657 0.486778
Si Si2 0.727977 0.370853 0.371018
Si Si3 0.471007 0.753851 0.196283
Si Si4 0.867318 0.810472 0.799638
Si Si5 0.373972 0.296637 0.485831
Si Si6 0.641200 0.842264 0.177594
Si Si7 0.045893 0.656168 0.011494
O O1 0.482489 0.808013 0.569998
O O2 0.610060 0.013532 0.189588
O O3 0.387176 0.196989 0.441272
O O4 0.232695 0.823305 0.743146
O O5 0.729725 0.302213 0.491800
O O6 0.660108 0.610874 0.318005
O O7 0.558693 0.184497 0.626599
O O8 0.069114 0.635501 0.905775
O O9 0.445742 0.568807 0.257463
O O10 0.657574 0.722425 0.047840
O O11 0.500000 0.000000 0.000000
O O12 0.972955 0.593870 0.800352
O O13 0.828492 0.918085 0.867738
O O14 0.000000 0.000000 0.500000
O O15 0.146941 0.236829 0.806495
#
# Coordination Sequence:
#
# PCOD8041930 Si02
#       7
#     2   2   2   2   2   2   2
#     4  10  19  36  54  77 114 137 175 221 252 320
#     4   8  15  30  52  76 102 135 174 218 267 302
#     4  11  20  34  51  80 114 137 172 223 268 315
#     4  10  19  34  54  79 108 141 176 219 271 311
#     4  11  21  32  55  83 106 143 175 212 269 310
#     4   8  14  31  55  72 103 140 171 219 261 303
#     4  10  19  35  56  79 107 136 180 223 256 313
#
# _framework density 19.064084999999999
#
# number of rings (size 3 to 8) (size 9 to 14) (size 15 to 20)
#    0.000    2.286    2.857    3.000    0.000    0.571 
#    2.571    0.000    0.000   16.286    0.000    0.000 
#    0.000    0.000    0.000    0.000    0.000    0.000 
#
# Total GULP energy -173483.267852 kJ/mol
# GULP energy per Si atom -12391.661989 kJ/mol
# Density = 1.902069 g / cm^3
# Si number density = 19.064085 Si / 1000 Ang^3
#
#
#
# Elastic Constant Matrix: (Units=GPa)
#
#
# Indices 1 2 3 4 5 6 
#
# 1 77.8622 50.4407 27.9526 -8.6301 18.1117 30.7624
# 2 50.4407 103.6197 39.7732 -0.3204 10.2374 35.5144
# 3 27.9526 39.7732 82.7768 -5.9240 26.6536 18.7209
# 4 -8.6301 -0.3204 -5.9240 30.4707 -3.4891 2.2203
# 5 18.1117 10.2374 26.6536 -3.4891 32.7988 6.9318
# 6 30.7624 35.5144 18.7209 2.2203 6.9318 43.1300
#
#
#
# Elastic Compliance Matrix: (Units=1/GPa)
#
#
# Indices 1 2 3 4 5 6 
#
# 1 0.024527 -0.007965 0.001358 0.006826 -0.009239 -0.010391
# 2 -0.007965 0.017736 -0.006012 -0.002155 0.004999 -0.007006
# 3 0.001358 -0.006012 0.019833 0.002736 -0.014174 -0.002490
# 4 0.006826 -0.002155 0.002736 0.035677 -0.000240 -0.006080
# 5 -0.009239 0.004999 -0.014174 -0.000240 0.045234 0.001368
# 6 -0.010391 -0.007006 -0.002490 -0.006080 0.001368 0.037540
#
#
# Mechanical properties :
#
#
# Convention : Reuss Voigt Hill
#
# Bulk Modulus (GPa) = 27.13031 55.62130 41.37581
# Shear Modulus (GPa) = 22.92825 31.01937 26.97381
#
# Velocity S-wave (km/s) = 3.47175 4.03812 3.76560
# Velocity P-wave (km/s) = 5.50752 7.14011 6.37628
#
# Compressibility (1/GPa) = 0.03685914
#
# Stress axis : x y z
#
# Youngs Moduli (GPa) = 40.77178 56.38095 50.41996
#
# Poissons Ratio (x) = 0.44910 -0.06849
# Poissons Ratio (y) = 0.32477 0.30311
# Poissons Ratio (z) = -0.05539 0.33895
#
# Static dielectric constant tensor:
#      x y z
#    x 3.813620 0.312320 0.043350 
#    y 0.312320 3.504270 0.309010 
#    z 0.043350 0.309010 3.478220 
# 
# 
# High freq. dielectric constant tensor:
#      x y z
#    x 1.747980 0.009130 -0.007060 
#    y 0.009130 1.722790 0.029150 
#    z -0.007060 0.029150 1.724250 
# 
# From -- ./inp_files/454351.got.cif
#   From: 2010.06.25/outbox.cif.g09.slc.cpg/sg2_228_cif.got.tgz:454351.got - 2010.06.27 13:26:56.
