data_PCOD8041169
_publ_section_title
;
Structure prediction by ZEFSAII (Michael W. Deem and Ramdas Pophale) SiO2 
 PCOD8041169
Probable space group: P -1
;
_chemical_formula_sum "Si O2"
_cell_formula_units_Z 16
_cell_length_a 15.054770
_cell_length_b 12.162598
_cell_length_c 24.723276
_cell_angle_alpha 38.380252
_cell_angle_beta 153.790021
_cell_angle_gamma 152.424947
_cell_volume 924.106508
_symmetry_space_group_name_H-M "P -1"
_symmetry_group_IT_number 2
_symmetry_cell_setting 'triclinic'
loop_
_space_group_symop_operation_xyz
x,y,z
-x,-y,-z
loop_
_atom_site_type_symbol
_atom_site_label
_atom_site_fract_x
_atom_site_fract_y
_atom_site_fract_z
Si Si1 0.802194 0.200948 0.859119
Si Si2 0.795820 0.824069 0.385983
Si Si3 0.860210 0.546019 0.161865
Si Si4 0.770448 0.850310 0.046684
Si Si5 0.173093 0.833177 0.654032
Si Si6 0.471072 0.200014 0.847815
Si Si7 0.719959 0.983104 0.078759
Si Si8 0.203137 0.484331 0.186178
O O1 0.877817 0.390867 0.871908
O O2 0.968279 0.336136 0.844039
O O3 0.877277 0.055790 0.982403
O O4 0.488441 0.012798 0.743362
O O5 0.786581 0.877733 0.297051
O O6 0.490333 0.583168 0.329540
O O7 0.004618 0.786966 0.525627
O O8 0.891290 0.056325 0.379425
O O9 0.550634 0.353612 0.050027
O O10 0.940961 0.420234 0.288572
O O11 0.912274 0.747886 0.150092
O O12 0.844758 0.946843 0.111550
O O13 0.746451 0.439774 0.879484
O O14 0.438288 0.233178 0.880306
O O15 0.507727 0.008329 0.933939
O O16 0.962192 0.202992 0.163861
#
# Coordination Sequence:
#
# PCOD8041169 Si02
#       8
#     2   2   2   2   2   2   2   2
#     4  10  19  31  53  76 101 128 162 205 251 294
#     4   8  17  34  49  73 107 125 157 215 246 287
#     4  10  21  34  53  72  98 136 167 201 248 290
#     4  10  21  35  48  75 105 128 167 206 237 298
#     4   9  17  35  51  72 101 130 165 208 246 287
#     4   9  19  30  47  76 102 129 157 199 252 292
#     4  11  19  30  52  74 102 134 159 196 253 300
#     4   9  19  30  47  77 103 126 156 201 247 300
#
# _framework density 17.314021
#
# number of rings (size 3 to 8) (size 9 to 14) (size 15 to 20)
#    0.750    1.750    1.250    1.500    5.250    0.000 
#    2.250    1.875    0.000    1.500    0.000    0.000 
#    0.000    0.000    0.000    0.000    0.000    0.000 
#
# Total GULP energy -198214.563748 kJ/mol
# GULP energy per Si atom -12388.410234 kJ/mol
# Density = 1.727461 g / cm^3
# Si number density = 17.314021 Si / 1000 Ang^3
#
#
#
# Elastic Constant Matrix: (Units=GPa)
#
#
# Indices 1 2 3 4 5 6 
#
# 1 91.0679 37.7140 35.6080 -12.4412 -8.8210 8.5372
# 2 37.7140 66.0741 31.6539 -4.6128 2.6848 -4.9298
# 3 35.6080 31.6539 94.0853 -10.0844 -8.7369 -4.9616
# 4 -12.4412 -4.6128 -10.0844 16.5494 -1.5195 -2.0463
# 5 -8.8210 2.6848 -8.7369 -1.5195 17.0602 -3.7482
# 6 8.5372 -4.9298 -4.9616 -2.0463 -3.7482 25.5831
#
#
#
# Elastic Compliance Matrix: (Units=1/GPa)
#
#
# Indices 1 2 3 4 5 6 
#
# 1 0.018847 -0.009886 -0.002147 0.010208 0.009711 -0.006372
# 2 -0.009886 0.023941 -0.005577 -0.004576 -0.011079 0.004842
# 3 -0.002147 -0.005577 0.015220 0.007516 0.009231 0.004547
# 4 0.010208 -0.004576 0.007516 0.073723 0.017656 0.005653
# 5 0.009711 -0.011079 0.009231 0.017656 0.073571 0.008606
# 6 -0.006372 0.004842 0.004547 0.005653 0.008606 0.044742
#
#
# Mechanical properties :
#
#
# Convention : Reuss Voigt Hill
#
# Bulk Modulus (GPa) = 43.88357 51.24214 47.56286
# Shear Modulus (GPa) = 17.07291 21.58864 19.33078
#
# Velocity S-wave (km/s) = 3.14359 3.53496 3.34500
# Velocity P-wave (km/s) = 6.21103 6.80597 6.51530
#
# Compressibility (1/GPa) = 0.02278757
#
# Stress axis : x y z
#
# Youngs Moduli (GPa) = 53.05889 41.76894 65.70282
#
# Poissons Ratio (x) = 0.41294 0.14106
# Poissons Ratio (y) = 0.52456 0.36643
# Poissons Ratio (z) = 0.11391 0.23295
#
# Static dielectric constant tensor:
#      x y z
#    x 3.127540 0.044200 -0.061760 
#    y 0.044200 3.137680 -0.062520 
#    z -0.061760 -0.062520 3.198450 
# 
# 
# High freq. dielectric constant tensor:
#      x y z
#    x 1.656460 0.013800 -0.011760 
#    y 0.013800 1.657510 0.001050 
#    z -0.011760 0.001050 1.647830 
# 
# From -- ./inp_files/611867.got.cif
#   From: 2010.06.25/outbox.cif.g09.slc.cpg/sg2_306_cif.got.tgz:611867.got - 2010.06.27 13:26:56.
