data_PCOD8041622
_publ_section_title
;
Structure prediction by ZEFSAII (Michael W. Deem and Ramdas Pophale) SiO2 
 PCOD8041622
Probable space group: P -1
;
_chemical_formula_sum "Si O2"
_cell_formula_units_Z 14
_cell_length_a 12.998654
_cell_length_b 11.675526
_cell_length_c 13.907259
_cell_angle_alpha 92.414144
_cell_angle_beta 63.939345
_cell_angle_gamma 36.121343
_cell_volume 739.729952
_symmetry_space_group_name_H-M "P -1"
_symmetry_group_IT_number 2
_symmetry_cell_setting 'triclinic'
loop_
_space_group_symop_operation_xyz
x,y,z
-x,-y,-z
loop_
_atom_site_type_symbol
_atom_site_label
_atom_site_fract_x
_atom_site_fract_y
_atom_site_fract_z
Si Si1 0.069005 0.772446 0.836723
Si Si2 0.453835 0.496144 0.373656
Si Si3 0.361804 0.042273 0.682513
Si Si4 0.527688 0.220058 0.201154
Si Si5 0.033036 0.710982 0.284461
Si Si6 0.590178 0.756973 0.389025
Si Si7 0.935111 0.046021 0.305204
O O1 0.351348 0.580884 0.756253
O O2 0.168673 0.560930 0.742467
O O3 0.917170 0.991108 0.822983
O O4 0.846545 0.957188 0.020822
O O5 0.395133 0.450714 0.320283
O O6 0.631843 0.281178 0.385886
O O7 0.144350 0.829503 0.552514
O O8 0.442961 0.917081 0.748162
O O9 0.616480 0.774867 0.490525
O O10 0.343177 0.196636 0.706416
O O11 0.048718 0.280392 0.780635
O O12 0.301656 0.398553 0.214824
O O13 0.743641 0.980370 0.481889
O O14 0.135173 0.748505 0.222797
#
# Coordination Sequence:
#
# PCOD8041622 Si02
#       7
#     2   2   2   2   2   2   2
#     4  10  19  33  55  84 105 146 170 218 265 324
#     4   9  16  34  55  75 105 148 169 213 256 319
#     4   9  19  39  60  74 101 148 178 221 258 316
#     4  12  22  30  58  82 115 131 174 223 277 298
#     4  10  19  36  56  83 100 141 181 221 253 323
#     4   9  18  40  62  68 105 148 183 210 268 305
#     4   9  16  34  59  69 111 137 186 204 253 317
#
# _framework density 18.925825
#
# number of rings (size 3 to 8) (size 9 to 14) (size 15 to 20)
#    1.714    0.571    2.857    1.286    0.000    2.286 
#    0.000    0.714    3.143    0.000    0.000    0.000 
#    0.000    0.000    0.000    0.000    0.000    0.000 
#
# Total GULP energy -173465.960417 kJ/mol
# GULP energy per Si atom -12390.425744 kJ/mol
# Density = 1.888275 g / cm^3
# Si number density = 18.925825 Si / 1000 Ang^3
#
#
#
# Elastic Constant Matrix: (Units=GPa)
#
#
# Indices 1 2 3 4 5 6 
#
# 1 55.7744 42.1651 5.7047 -4.2936 0.4970 25.0574
# 2 42.1651 115.8710 20.0238 -22.9128 -10.7801 19.7661
# 3 5.7047 20.0238 47.4905 -14.2866 -8.7753 15.9968
# 4 -4.2936 -22.9128 -14.2866 16.3246 6.0042 -8.8510
# 5 0.4970 -10.7801 -8.7753 6.0042 16.0228 -6.0753
# 6 25.0574 19.7661 15.9968 -8.8510 -6.0753 33.5951
#
#
#
# Elastic Compliance Matrix: (Units=1/GPa)
#
#
# Indices 1 2 3 4 5 6 
#
# 1 0.042679 -0.016022 0.003698 -0.020008 -0.014754 -0.032107
# 2 -0.016022 0.018292 -0.000447 0.023198 0.007209 0.008816
# 3 0.003698 -0.000447 0.031565 0.019941 0.005095 -0.011350
# 4 -0.020008 0.023198 0.019941 0.121649 -0.010093 0.022004
# 5 -0.014754 0.007209 0.005095 -0.010093 0.080444 0.016225
# 6 -0.032107 0.008816 -0.011350 0.022004 0.016225 0.062662
#
#
# Mechanical properties :
#
#
# Convention : Reuss Voigt Hill
#
# Bulk Modulus (GPa) = 14.92657 39.43592 27.18124
# Shear Modulus (GPa) = 12.34068 23.27131 17.80600
#
# Velocity S-wave (km/s) = 2.55631 3.51038 3.07062
# Velocity P-wave (km/s) = 4.07639 6.10841 5.19276
#
# Compressibility (1/GPa) = 0.06699463
#
# Stress axis : x y z
#
# Youngs Moduli (GPa) = 23.43061 54.66927 31.68079
#
# Poissons Ratio (x) = 0.87591 -0.11717
# Poissons Ratio (y) = 0.37541 0.01416
# Poissons Ratio (z) = -0.08666 0.02444
#
# Static dielectric constant tensor:
#      x y z
#    x 3.196920 0.232230 -0.012370 
#    y 0.232230 3.204350 -0.148990 
#    z -0.012370 -0.148990 3.119380 
# 
# 
# High freq. dielectric constant tensor:
#      x y z
#    x 1.713360 0.027520 0.000790 
#    y 0.027520 1.717600 -0.013130 
#    z 0.000790 -0.013130 1.707190 
# 
# From -- ./inp_files/452260.got.cif
#   From: 2010.06.25/outbox.cif.g09.slc.cpg/sg2_227_cif.got.tgz:452260.got - 2010.06.27 13:26:56.
