data_PCOD8041176
_publ_section_title
;
Structure prediction by ZEFSAII (Michael W. Deem and Ramdas Pophale) SiO2 
 PCOD8041176
Probable space group: P -1
;
_chemical_formula_sum "Si O2"
_cell_formula_units_Z 16
_cell_length_a 19.487568
_cell_length_b 13.487284
_cell_length_c 8.622069
_cell_angle_alpha 70.638010
_cell_angle_beta 141.510662
_cell_angle_gamma 137.099391
_cell_volume 788.309960
_symmetry_space_group_name_H-M "P -1"
_symmetry_group_IT_number 2
_symmetry_cell_setting 'triclinic'
loop_
_space_group_symop_operation_xyz
x,y,z
-x,-y,-z
loop_
_atom_site_type_symbol
_atom_site_label
_atom_site_fract_x
_atom_site_fract_y
_atom_site_fract_z
Si Si1 0.970344 0.912793 0.227915
Si Si2 0.766169 0.739500 0.651811
Si Si3 0.592185 0.468519 0.249280
Si Si4 0.850771 0.135540 0.239396
Si Si5 0.678863 0.854170 0.863047
Si Si6 0.523429 0.907361 0.009004
Si Si7 0.215398 0.518661 0.666928
Si Si8 0.512273 0.724332 0.312871
O O1 0.031168 0.863658 0.466733
O O2 0.141175 0.122951 0.394292
O O3 0.909554 0.821586 0.999438
O O4 0.807131 0.853116 0.051748
O O5 0.696640 0.577567 0.538198
O O6 0.595124 0.673378 0.453658
O O7 0.438727 0.264097 0.129647
O O8 0.729661 0.528633 0.333789
O O9 0.500000 0.500000 0.000000
O O10 0.989636 0.343724 0.361885
O O11 0.665125 0.029751 0.053898
O O12 0.795685 0.047663 0.017934
O O13 0.544383 0.780055 0.519501
O O14 0.611255 0.889547 0.294208
O O15 0.315559 0.705431 0.694561
O O16 0.500000 0.000000 0.000000
O O17 0.295221 0.552112 0.964580
#
# Coordination Sequence:
#
# PCOD8041176 Si02
#       8
#     2   2   2   2   2   2   2   2
#     4  10  20  32  50  88 118 161 195 224 287 348
#     4  10  19  31  53  80 125 157 192 236 275 351
#     4  12  19  33  54  83 122 165 198 229 281 346
#     4  12  21  39  61  88 118 155 196 245 291 353
#     4  11  22  33  59  84 129 162 191 238 291 343
#     4  10  22  44  67  83 113 153 197 254 305 348
#     4  10  22  38  61  86 118 150 205 237 291 356
#     4   9  20  40  54  88 118 157 201 237 293 352
#
# _framework density 20.296585
#
# number of rings (size 3 to 8) (size 9 to 14) (size 15 to 20)
#    0.750    0.750    3.750    2.625    1.750    1.500 
#    0.000    0.625    0.000    0.750    0.000    0.000 
#    0.000    0.000    0.000    0.000    0.000    0.000 
#
# Total GULP energy -198284.960898 kJ/mol
# GULP energy per Si atom -12392.810056 kJ/mol
# Density = 2.025039 g / cm^3
# Si number density = 20.296585 Si / 1000 Ang^3
#
#
#
# Elastic Constant Matrix: (Units=GPa)
#
#
# Indices 1 2 3 4 5 6 
#
# 1 95.0456 31.8604 38.0674 14.1933 -17.2730 -9.0674
# 2 31.8604 73.8666 26.9790 35.0580 -2.3039 1.0651
# 3 38.0674 26.9790 74.5885 27.8737 -26.3634 -2.1863
# 4 14.1933 35.0580 27.8737 35.2370 0.7770 -1.1083
# 5 -17.2730 -2.3039 -26.3634 0.7770 29.9176 5.5708
# 6 -9.0674 1.0651 -2.1863 -1.1083 5.5708 34.6185
#
#
#
# Elastic Compliance Matrix: (Units=1/GPa)
#
#
# Indices 1 2 3 4 5 6 
#
# 1 0.015429 -0.007309 -0.007433 0.007040 0.000890 0.003879
# 2 -0.007309 0.029837 0.007162 -0.032679 0.006057 -0.004401
# 3 -0.007433 0.007162 0.040079 -0.036775 0.033693 -0.006235
# 4 0.007040 -0.032679 -0.036775 0.088196 -0.034815 0.008953
# 5 0.000890 0.006057 0.033693 -0.034815 0.066804 -0.009690
# 6 0.003879 -0.004401 -0.006235 0.008953 -0.009690 0.031490
#
#
# Mechanical properties :
#
#
# Convention : Reuss Voigt Hill
#
# Bulk Modulus (GPa) = 14.24825 48.59049 31.41937
# Shear Modulus (GPa) = 16.10878 29.72755 22.91816
#
# Velocity S-wave (km/s) = 2.82027 3.83124 3.36395
# Velocity P-wave (km/s) = 4.20006 6.60026 5.53190
#
# Compressibility (1/GPa) = 0.07018408
#
# Stress axis : x y z
#
# Youngs Moduli (GPa) = 64.81267 33.51574 24.95086
#
# Poissons Ratio (x) = 0.24498 0.18546
# Poissons Ratio (y) = 0.47374 -0.17871
# Poissons Ratio (z) = 0.48176 -0.24005
#
# Static dielectric constant tensor:
#      x y z
#    x 3.615700 0.079660 -0.388480 
#    y 0.079660 3.621560 0.400010 
#    z -0.388480 0.400010 3.750110 
# 
# 
# High freq. dielectric constant tensor:
#      x y z
#    x 1.783880 0.013200 -0.027080 
#    y 0.013200 1.774380 0.031940 
#    z -0.027080 0.031940 1.774910 
# 
# From -- ./inp_files/346902.got.cif
#   From: 2010.06.25/outbox.cif.g09.slc.cpg/sg2_174_cif.got.tgz:346902.got - 2010.06.27 13:26:56.
