data_PCOD8041520
_publ_section_title
;
Structure prediction by ZEFSAII (Michael W. Deem and Ramdas Pophale) SiO2 
 PCOD8041520
Probable space group: P -1
;
_chemical_formula_sum "Si O2"
_cell_formula_units_Z 16
_cell_length_a 13.578641
_cell_length_b 9.458474
_cell_length_c 15.063449
_cell_angle_alpha 112.629020
_cell_angle_beta 140.076676
_cell_angle_gamma 96.723280
_cell_volume 823.118654
_symmetry_space_group_name_H-M "P -1"
_symmetry_group_IT_number 2
_symmetry_cell_setting 'triclinic'
loop_
_space_group_symop_operation_xyz
x,y,z
-x,-y,-z
loop_
_atom_site_type_symbol
_atom_site_label
_atom_site_fract_x
_atom_site_fract_y
_atom_site_fract_z
Si Si1 0.256368 0.745533 0.864907
Si Si2 0.165636 0.790959 0.139017
Si Si3 0.097637 0.202610 0.801802
Si Si4 0.701528 0.959694 0.164332
Si Si5 0.540793 0.033305 0.760821
Si Si6 0.112087 0.728946 0.469978
Si Si7 0.748847 0.502163 0.861940
Si Si8 0.328635 0.088735 0.483343
O O1 0.032780 0.501530 0.640911
O O2 0.228563 0.891928 0.836235
O O3 0.444937 0.784338 0.954697
O O4 0.309529 0.800016 0.017881
O O5 0.171280 0.612744 0.084783
O O6 0.303074 0.961086 0.193608
O O7 0.277209 0.913879 0.338752
O O8 0.917004 0.675120 0.943277
O O9 0.232246 0.168784 0.836061
O O10 0.024623 0.281742 0.702045
O O11 0.245064 0.383373 0.021283
O O12 0.889944 0.982323 0.653376
O O13 0.816677 0.099107 0.365901
O O14 0.329569 0.800867 0.597711
O O15 0.447959 0.109770 0.658268
O O16 0.500591 0.325938 0.614865
#
# Coordination Sequence:
#
# PCOD8041520 Si02
#       8
#     2   2   2   2   2   2   2   2
#     4  10  21  36  53  71  97 133 171 202 242 301
#     4   9  16  27  47  76 106 130 159 203 246 287
#     4  10  20  32  50  77 104 127 162 208 250 289
#     4  10  22  37  50  71 101 132 165 207 250 292
#     4   9  17  29  48  75  99 123 163 207 242 282
#     4  10  19  33  53  74  97 128 168 208 246 291
#     4   9  16  27  46  74 104 133 158 190 249 299
#     4   9  17  29  47  76 107 129 159 206 248 288
#
# _framework density 19.438265000000001
#
# number of rings (size 3 to 8) (size 9 to 14) (size 15 to 20)
#    0.000    2.500    0.000    3.750    0.000    4.500 
#    0.000    0.000    0.000    3.000    0.000    7.875 
#    0.000    0.000    0.000    0.000    0.000    0.000 
#
# Total GULP energy -198223.659212 kJ/mol
# GULP energy per Si atom -12388.978701 kJ/mol
# Density = 1.939402 g / cm^3
# Si number density = 19.438265 Si / 1000 Ang^3
#
#
#
# Elastic Constant Matrix: (Units=GPa)
#
#
# Indices 1 2 3 4 5 6 
#
# 1 90.3392 27.2295 31.6379 11.2259 1.7829 25.8123
# 2 27.2295 32.3549 18.2948 10.3714 5.0054 11.7367
# 3 31.6379 18.2948 80.2300 26.6490 12.4943 11.6111
# 4 11.2259 10.3714 26.6490 22.4814 10.0015 7.8628
# 5 1.7829 5.0054 12.4943 10.0015 31.1746 7.3245
# 6 25.8123 11.7367 11.6111 7.8628 7.3245 15.6794
#
#
#
# Elastic Compliance Matrix: (Units=1/GPa)
#
#
# Indices 1 2 3 4 5 6 
#
# 1 0.026356 -0.007461 -0.007184 0.009116 0.009381 -0.041438
# 2 -0.007461 0.047784 -0.002285 -0.010002 0.000922 -0.017209
# 3 -0.007184 -0.002285 0.023098 -0.025085 -0.002864 0.010349
# 4 0.009116 -0.010002 -0.025085 0.089044 -0.010711 -0.028595
# 5 0.009381 0.000922 -0.002864 -0.010711 0.042693 -0.028586
# 6 -0.041438 -0.017209 0.010349 -0.028595 -0.028586 0.164908
#
#
# Mechanical properties :
#
#
# Convention : Reuss Voigt Hill
#
# Bulk Modulus (GPa) = 15.77800 39.69428 27.73614
# Shear Modulus (GPa) = 11.13909 22.25119 16.69514
#
# Velocity S-wave (km/s) = 2.39644 3.38703 2.93385
# Velocity P-wave (km/s) = 3.97390 5.98005 5.07705
#
# Compressibility (1/GPa) = 0.06337940
#
# Stress axis : x y z
#
# Youngs Moduli (GPa) = 37.94182 20.92744 43.29311
#
# Poissons Ratio (x) = 0.15613 0.31101
# Poissons Ratio (y) = 0.28307 0.09892
# Poissons Ratio (z) = 0.27257 0.04782
#
# Static dielectric constant tensor:
#      x y z
#    x 4.030300 0.557810 0.417140 
#    y 0.557810 3.106050 0.304340 
#    z 0.417140 0.304340 3.804620 
# 
# 
# High freq. dielectric constant tensor:
#      x y z
#    x 1.771560 0.032520 0.008930 
#    y 0.032520 1.689060 0.018580 
#    z 0.008930 0.018580 1.770370 
# 
# From -- ./inp_files/348885.got.cif
#   From: 2010.06.25/outbox.cif.g09.slc.cpg/sg2_175_cif.got.tgz:348885.got - 2010.06.27 13:26:56.
