data_PCOD8041623
_publ_section_title
;
Structure prediction by ZEFSAII (Michael W. Deem and Ramdas Pophale) SiO2 
 PCOD8041623
Probable space group: P -1
;
_chemical_formula_sum "Si O2"
_cell_formula_units_Z 14
_cell_length_a 11.387429
_cell_length_b 20.386215
_cell_length_c 18.027828
_cell_angle_alpha 27.074543
_cell_angle_beta 35.831346
_cell_angle_gamma 21.708760
_cell_volume 701.180593
_symmetry_space_group_name_H-M "P -1"
_symmetry_group_IT_number 2
_symmetry_cell_setting 'triclinic'
loop_
_space_group_symop_operation_xyz
x,y,z
-x,-y,-z
loop_
_atom_site_type_symbol
_atom_site_label
_atom_site_fract_x
_atom_site_fract_y
_atom_site_fract_z
Si Si1 0.870419 0.893339 0.255542
Si Si2 0.826484 0.743509 0.003456
Si Si3 0.142918 0.259728 0.303957
Si Si4 0.818519 0.246915 0.904051
Si Si5 0.101827 0.103411 0.051546
Si Si6 0.896318 0.393239 0.146671
Si Si7 0.143692 0.745426 0.415232
O O1 0.983700 0.767775 0.243585
O O2 0.072313 0.718689 0.397267
O O3 0.502416 0.073756 0.278891
O O4 0.970509 0.004446 0.083231
O O5 0.008444 0.489856 0.164664
O O6 0.454084 0.932601 0.012893
O O7 0.978347 0.752834 0.981875
O O8 0.883242 0.791308 0.846957
O O9 0.950958 0.290646 0.302578
O O10 0.111054 0.174840 0.476305
O O11 0.461092 0.430344 0.874442
O O12 0.856125 0.292193 0.922132
O O13 0.077146 0.952238 0.241960
O O14 0.000000 0.500000 0.000000
O O15 0.500000 0.500000 0.500000
#
# Coordination Sequence:
#
# PCOD8041623 Si02
#       7
#     2   2   2   2   2   2   2
#     4  10  20  32  55  83 109 141 184 233 269 317
#     4  10  20  37  56  83 113 144 185 229 277 321
#     4  11  20  36  57  85 112 144 183 230 275 327
#     4  10  19  33  55  84 111 138 190 232 271 322
#     4  10  22  36  56  84 112 150 179 227 280 327
#     4  10  19  33  57  85 109 142 184 234 273 318
#     4  11  21  35  55  83 113 147 185 221 276 334
#
# _framework density 19.966325000000001
#
# number of rings (size 3 to 8) (size 9 to 14) (size 15 to 20)
#    0.000    1.714    4.286    2.143    8.000    0.571 
#    0.000    0.714    0.000    0.857    0.000    0.000 
#    0.000    0.000    0.000    0.000    0.000    0.000 
#
# Total GULP energy -173452.860431 kJ/mol
# GULP energy per Si atom -12389.490031 kJ/mol
# Density = 1.992088 g / cm^3
# Si number density = 19.966325 Si / 1000 Ang^3
#
#
#
# Elastic Constant Matrix: (Units=GPa)
#
#
# Indices 1 2 3 4 5 6 
#
# 1 161.7477 62.8177 61.1444 6.8902 35.7781 10.6353
# 2 62.8177 111.0776 39.6537 16.7186 16.6008 9.6556
# 3 61.1444 39.6537 76.0146 17.6665 33.1622 10.5399
# 4 6.8902 16.7186 17.6665 32.0641 5.9941 13.7855
# 5 35.7781 16.6008 33.1622 5.9941 33.1545 0.1255
# 6 10.6353 9.6556 10.5399 13.7855 0.1255 34.8976
#
#
#
# Elastic Compliance Matrix: (Units=1/GPa)
#
#
# Indices 1 2 3 4 5 6 
#
# 1 0.010776 -0.003993 -0.004867 0.004562 -0.005577 -0.002491
# 2 -0.003993 0.012800 -0.003403 -0.004550 0.002125 0.000493
# 3 -0.004867 -0.003403 0.031261 -0.008639 -0.022737 -0.003522
# 4 0.004562 -0.004550 -0.008639 0.044125 -0.001924 -0.014946
# 5 -0.005577 0.002125 -0.022737 -0.001924 0.058174 0.008530
# 6 -0.002491 0.000493 -0.003522 -0.014946 0.008530 0.036215
#
#
# Mechanical properties :
#
#
# Convention : Reuss Voigt Hill
#
# Bulk Modulus (GPa) = 32.99123 75.11905 54.05514
# Shear Modulus (GPa) = 21.93162 32.37150 27.15156
#
# Velocity S-wave (km/s) = 3.31785 4.03091 3.69164
# Velocity P-wave (km/s) = 5.58899 7.70512 6.73074
#
# Compressibility (1/GPa) = 0.03031109
#
# Stress axis : x y z
#
# Youngs Moduli (GPa) = 92.79737 78.12228 31.98915
#
# Poissons Ratio (x) = 0.31198 0.15568
# Poissons Ratio (y) = 0.37058 0.10886
# Poissons Ratio (z) = 0.45161 0.26585
#
# Static dielectric constant tensor:
#      x y z
#    x 4.197460 0.301490 0.625970 
#    y 0.301490 3.818190 0.401280 
#    z 0.625970 0.401280 3.627210 
# 
# 
# High freq. dielectric constant tensor:
#      x y z
#    x 1.786200 -0.000830 0.044650 
#    y -0.000830 1.789730 0.025430 
#    z 0.044650 0.025430 1.738830 
# 
# From -- ./inp_files/182288.got.cif
#   From: 2010.06.25/outbox.cif.g09.slc.cpg/sg2_92_cif.got.tgz:182288.got - 2010.06.27 13:26:56.
