data_PCOD8041867
_publ_section_title
;
Structure prediction by ZEFSAII (Michael W. Deem and Ramdas Pophale) SiO2 
 PCOD8041867
Probable space group: P -1
;
_chemical_formula_sum "Si O2"
_cell_formula_units_Z 16
_cell_length_a 8.913576
_cell_length_b 14.889966
_cell_length_c 20.641370
_cell_angle_alpha 161.512399
_cell_angle_beta 97.901090
_cell_angle_gamma 89.820117
_cell_volume 786.716022
_symmetry_space_group_name_H-M "P -1"
_symmetry_group_IT_number 2
_symmetry_cell_setting 'triclinic'
loop_
_space_group_symop_operation_xyz
x,y,z
-x,-y,-z
loop_
_atom_site_type_symbol
_atom_site_label
_atom_site_fract_x
_atom_site_fract_y
_atom_site_fract_z
Si Si1 0.396002 0.268086 0.239944
Si Si2 0.501177 0.082124 0.356185
Si Si3 0.326348 0.462075 0.757611
Si Si4 0.718864 0.346288 0.250569
Si Si5 0.239580 0.957826 0.147369
Si Si6 0.345287 0.263600 0.952244
Si Si7 0.372639 0.903431 0.368814
Si Si8 0.003740 0.770941 0.639744
O O1 0.373546 0.568567 0.416927
O O2 0.586848 0.303856 0.271021
O O3 0.351106 0.206104 0.270697
O O4 0.274940 0.980922 0.992065
O O5 0.331920 0.014369 0.260373
O O6 0.585106 0.848777 0.182741
O O7 0.467283 0.038213 0.399929
O O8 0.350577 0.533845 0.732449
O O9 0.252892 0.084560 0.501053
O O10 0.205829 0.607223 0.881779
O O11 0.510632 0.617501 0.904548
O O12 0.899058 0.600234 0.453650
O O13 0.069759 0.001281 0.175345
O O14 0.283789 0.529933 0.107275
O O15 0.191525 0.977017 0.775004
O O16 0.500000 0.000000 0.500000
O O17 0.000000 0.500000 0.500000
#
# Coordination Sequence:
#
# PCOD8041867 Si02
#       8
#     2   2   2   2   2   2   2   2
#     4  10  19  33  63  85 111 152 213 233 275 344
#     4  11  19  37  64  88 114 160 205 243 282 358
#     4   9  19  41  65  84 110 161 208 241 277 357
#     4  10  21  35  59  86 117 157 202 235 287 362
#     4  10  21  36  60  90 120 156 205 235 289 366
#     4  10  24  38  61  89 123 152 195 252 305 337
#     4  10  20  38  62  92 114 150 204 256 289 340
#     4  12  25  38  55  90 131 154 184 252 314 345
#
# _framework density 20.337707000000002
#
# number of rings (size 3 to 8) (size 9 to 14) (size 15 to 20)
#    0.000    1.750    2.500    1.500    7.000    0.000 
#    0.000   13.750    0.000    0.000    0.000    0.000 
#    0.000    0.000    0.000    0.000    0.000    0.000 
#
# Total GULP energy -198285.746237 kJ/mol
# GULP energy per Si atom -12392.859140 kJ/mol
# Density = 2.029142 g / cm^3
# Si number density = 20.337707 Si / 1000 Ang^3
#
#
#
# Elastic Constant Matrix: (Units=GPa)
#
#
# Indices 1 2 3 4 5 6 
#
# 1 83.8978 22.3794 42.2505 -2.5043 -20.7370 -2.7264
# 2 22.3794 117.8064 31.7596 -4.0355 -10.9632 -3.3345
# 3 42.2505 31.7596 122.6017 13.4735 -30.8489 -15.1066
# 4 -2.5043 -4.0355 13.4735 30.3833 -6.8066 -5.7546
# 5 -20.7370 -10.9632 -30.8489 -6.8066 37.1024 6.8134
# 6 -2.7264 -3.3345 -15.1066 -5.7546 6.8134 15.1131
#
#
#
# Elastic Compliance Matrix: (Units=1/GPa)
#
#
# Indices 1 2 3 4 5 6 
#
# 1 0.016042 -0.001219 -0.004476 0.003936 0.006183 -0.003138
# 2 -0.001219 0.009430 -0.002039 0.002294 0.000766 0.000351
# 3 -0.004476 -0.002039 0.013002 -0.003671 0.005598 0.007818
# 4 0.003936 0.002294 -0.003671 0.038153 0.005024 0.009810
# 5 0.006183 0.000766 0.005598 0.005024 0.037718 -0.008212
# 6 -0.003138 0.000351 0.007818 0.009810 -0.008212 0.080931
#
#
# Mechanical properties :
#
#
# Convention : Reuss Voigt Hill
#
# Bulk Modulus (GPa) = 43.46677 57.45387 50.46032
# Shear Modulus (GPa) = 22.89238 31.71420 27.30329
#
# Velocity S-wave (km/s) = 3.35866 3.95318 3.66798
# Velocity P-wave (km/s) = 6.03818 7.01057 6.54247
#
# Compressibility (1/GPa) = 0.02300608
#
# Stress axis : x y z
#
# Youngs Moduli (GPa) = 62.33507 106.04963 76.90952
#
# Poissons Ratio (x) = 0.12932 0.34425
# Poissons Ratio (y) = 0.07601 0.15678
# Poissons Ratio (z) = 0.27902 0.21619
#
# Static dielectric constant tensor:
#      x y z
#    x 3.567610 -0.137090 -0.607590 
#    y -0.137090 3.664580 0.040480 
#    z -0.607590 0.040480 4.426830 
# 
# 
# High freq. dielectric constant tensor:
#      x y z
#    x 1.761690 -0.006480 -0.043740 
#    y -0.006480 1.795400 -0.008360 
#    z -0.043740 -0.008360 1.805720 
# 
# From -- ./inp_files/541813.got.cif
#   From: 2010.06.25/outbox.cif.g09.slc.cpg/sg2_271_cif.got.tgz:541813.got - 2010.06.27 13:26:56.
