data_PCOD8041873
_publ_section_title
;
Structure prediction by ZEFSAII (Michael W. Deem and Ramdas Pophale) SiO2 
 PCOD8041873
Probable space group: P -1
;
_chemical_formula_sum "Si O2"
_cell_formula_units_Z 16
_cell_length_a 8.623834
_cell_length_b 11.089669
_cell_length_c 21.300607
_cell_angle_alpha 152.582729
_cell_angle_beta 110.391267
_cell_angle_gamma 85.650539
_cell_volume 739.520661
_symmetry_space_group_name_H-M "P -1"
_symmetry_group_IT_number 2
_symmetry_cell_setting 'triclinic'
loop_
_space_group_symop_operation_xyz
x,y,z
-x,-y,-z
loop_
_atom_site_type_symbol
_atom_site_label
_atom_site_fract_x
_atom_site_fract_y
_atom_site_fract_z
Si Si1 0.825500 0.667839 0.347131
Si Si2 0.541942 0.324787 0.478175
Si Si3 0.993496 0.693371 0.741316
Si Si4 0.712411 0.212041 0.017731
Si Si5 0.286603 0.746753 0.105793
Si Si6 0.912036 0.772723 0.072091
Si Si7 0.495918 0.502067 0.316133
Si Si8 0.119325 0.306683 0.103580
O O1 0.689298 0.440862 0.166260
O O2 0.679270 0.701835 0.387554
O O3 0.911429 0.504098 0.324927
O O4 0.000000 0.000000 0.500000
O O5 0.500000 0.500000 0.500000
O O6 0.764818 0.473879 0.597172
O O7 0.434494 0.328780 0.528614
O O8 0.470719 0.983648 0.284523
O O9 0.083975 0.907779 0.789765
O O10 0.034560 0.930599 0.915590
O O11 0.944092 0.346866 0.118128
O O12 0.654154 0.244401 0.953824
O O13 0.567426 0.856933 0.854875
O O14 0.135192 0.856802 0.144454
O O15 0.202655 0.401138 0.961331
O O16 0.815807 0.562298 0.898272
O O17 0.307883 0.505390 0.266200
#
# Coordination Sequence:
#
# PCOD8041873 Si02
#       8
#     2   2   2   2   2   2   2   2
#     4  12  29  44  59  94 136 172 220 266 316 381
#     4  12  20  38  67 103 127 157 214 274 321 376
#     4  10  20  42  67  87 134 163 213 272 315 376
#     4  11  19  40  69  94 127 168 213 266 319 387
#     4  10  19  33  64  99 128 156 211 262 320 373
#     4   8  17  34  59  93 123 161 203 263 310 377
#     4  12  22  39  69  91 126 179 209 257 333 385
#     4   9  18  37  69  98 111 163 226 265 316 373
#
# _framework density 21.635636000000002
#
# number of rings (size 3 to 8) (size 9 to 14) (size 15 to 20)
#    0.750    0.750    5.000    1.500    0.000    4.000 
#    0.000    2.500    0.000    2.250    0.000    0.000 
#    0.000    0.000    0.000    0.000    0.000    0.000 
#
# Total GULP energy -198291.438073 kJ/mol
# GULP energy per Si atom -12393.214880 kJ/mol
# Density = 2.158639 g / cm^3
# Si number density = 21.635636 Si / 1000 Ang^3
#
#
#
# Elastic Constant Matrix: (Units=GPa)
#
#
# Indices 1 2 3 4 5 6 
#
# 1 59.2062 31.3826 28.2962 -10.1715 6.1213 8.8060
# 2 31.3826 126.5584 55.3395 -2.4024 5.1448 14.5389
# 3 28.2962 55.3395 89.8958 -11.1263 5.5546 9.1834
# 4 -10.1715 -2.4024 -11.1263 43.2332 -0.2092 -4.0182
# 5 6.1213 5.1448 5.5546 -0.2092 22.1853 1.9607
# 6 8.8060 14.5389 9.1834 -4.0182 1.9607 34.6276
#
#
#
# Elastic Compliance Matrix: (Units=1/GPa)
#
#
# Indices 1 2 3 4 5 6 
#
# 1 0.021900 -0.003166 -0.003978 0.003698 -0.004054 -0.002526
# 2 -0.003166 0.011641 -0.006130 -0.001925 -0.000073 -0.002676
# 3 -0.003978 -0.006130 0.016655 0.002965 -0.001588 -0.000398
# 4 0.003698 -0.001925 0.002965 0.024840 -0.001262 0.002035
# 5 -0.004054 -0.000073 -0.001588 -0.001262 0.046712 -0.001309
# 6 -0.002526 -0.002676 -0.000398 0.002035 -0.001309 0.031060
#
#
# Mechanical properties :
#
#
# Convention : Reuss Voigt Hill
#
# Bulk Modulus (GPa) = 42.28624 56.18857 49.23740
# Shear Modulus (GPa) = 26.70400 30.71869 28.71135
#
# Velocity S-wave (km/s) = 3.51702 3.77214 3.64681
# Velocity P-wave (km/s) = 6.00664 6.70811 6.36704
#
# Compressibility (1/GPa) = 0.02364835
#
# Stress axis : x y z
#
# Youngs Moduli (GPa) = 45.66280 85.90554 60.04050
#
# Poissons Ratio (x) = 0.27195 0.23885
# Poissons Ratio (y) = 0.14455 0.36804
# Poissons Ratio (z) = 0.18165 0.52659
#
# Static dielectric constant tensor:
#      x y z
#    x 3.460060 0.008410 0.111040 
#    y 0.008410 4.193130 -0.155680 
#    z 0.111040 -0.155680 3.882840 
# 
# 
# High freq. dielectric constant tensor:
#      x y z
#    x 1.807920 0.002160 0.016340 
#    y 0.002160 1.871620 -0.009710 
#    z 0.016340 -0.009710 1.833160 
# 
# From -- ./inp_files/589720.got.cif
#   From: 2010.06.25/outbox.cif.g09.slc.cpg/sg2_295_cif.got.tgz:589720.got - 2010.06.27 13:26:56.
