data_PCOD8041516
_publ_section_title
;
Structure prediction by ZEFSAII (Michael W. Deem and Ramdas Pophale) SiO2 
 PCOD8041516
Probable space group: P -1
;
_chemical_formula_sum "Si O2"
_cell_formula_units_Z 14
_cell_length_a 12.972158
_cell_length_b 12.972239
_cell_length_c 12.972156
_cell_angle_alpha 142.407237
_cell_angle_beta 37.592900
_cell_angle_gamma 142.407042
_cell_volume 728.696152
_symmetry_space_group_name_H-M "P -1"
_symmetry_group_IT_number 2
_symmetry_cell_setting 'triclinic'
loop_
_space_group_symop_operation_xyz
x,y,z
-x,-y,-z
loop_
_atom_site_type_symbol
_atom_site_label
_atom_site_fract_x
_atom_site_fract_y
_atom_site_fract_z
Si Si1 0.377445 0.898021 0.305818
Si Si2 0.956344 0.043658 0.456345
Si Si3 0.898010 0.805825 0.122566
Si Si4 0.544318 0.455670 0.044332
Si Si5 0.767823 0.232180 0.267821
Si Si6 0.855193 0.144788 0.355220
Si Si7 0.805834 0.622564 0.601975
O O1 0.217051 0.900546 0.358967
O O2 0.332847 0.931770 0.486031
O O3 0.576972 0.063004 0.244406
O O4 0.374842 0.696102 0.141647
O O5 0.141030 0.217051 0.400549
O O6 0.900549 0.858975 0.282951
O O7 0.000000 0.000000 0.500000
O O8 0.696087 0.641650 0.125178
O O9 0.931746 0.986034 0.167172
O O10 0.062991 0.744414 0.923032
O O11 0.358329 0.374828 0.196102
O O12 0.500000 0.500000 0.000000
O O13 0.811805 0.188175 0.311848
O O14 0.744419 0.423035 0.436994
O O15 0.013943 0.332828 0.431778
#
# Coordination Sequence:
#
# PCOD8041516 Si02
#       7
#     2   2   2   2   2   2   2
#     4  10  21  35  56  85 115 154 196 230 280 348
#     4  10  23  46  63  78 108 148 200 262 294 318
#     4  10  21  35  56  85 115 154 196 230 280 348
#     4  12  21  36  58  92 130 157 179 223 280 353
#     4  12  19  34  55  86 121 150 183 234 286 353
#     4  10  19  33  52  83 121 159 186 225 283 344
#     4  10  21  35  56  85 115 154 196 230 280 348
#
# _framework density 19.212398
#
# number of rings (size 3 to 8) (size 9 to 14) (size 15 to 20)
#    0.000    1.714    0.000    9.000    0.000    0.000 
#    0.000    8.571    0.000    0.000    0.000    0.000 
#    0.000    0.000    0.000    0.000    0.000    0.000 
#
# Total GULP energy -173627.310390 kJ/mol
# GULP energy per Si atom -12401.950742 kJ/mol
# Density = 1.916867 g / cm^3
# Si number density = 19.212398 Si / 1000 Ang^3
#
#
#
# Elastic Constant Matrix: (Units=GPa)
#
#
# Indices 1 2 3 4 5 6 
#
# 1 136.3957 55.3536 52.0775 -0.9924 9.0411 -14.0095
# 2 55.3536 102.9508 31.2776 -2.7552 8.2739 6.3577
# 3 52.0775 31.2776 103.5365 1.2125 -7.8416 -8.0195
# 4 -0.9924 -2.7552 1.2125 41.3045 3.7158 1.1770
# 5 9.0411 8.2739 -7.8416 3.7158 21.4560 0.9071
# 6 -14.0095 6.3577 -8.0195 1.1770 0.9071 22.7276
#
#
#
# Elastic Compliance Matrix: (Units=1/GPa)
#
#
# Indices 1 2 3 4 5 6 
#
# 1 0.012301 -0.005348 -0.004363 0.000305 -0.005095 0.007727
# 2 -0.005348 0.014237 -0.002566 0.001495 -0.004091 -0.008099
# 3 -0.004363 -0.002566 0.013438 -0.001452 0.007883 0.002531
# 4 0.000305 0.001495 -0.001452 0.024904 -0.005472 -0.001814
# 5 -0.005095 -0.004091 0.007883 -0.005472 0.054207 -0.001095
# 6 0.007727 -0.008099 0.002531 -0.001814 -0.001095 0.052058
#
#
# Mechanical properties :
#
#
# Convention : Reuss Voigt Hill
#
# Bulk Modulus (GPa) = 64.83548 68.92228 66.87888
# Shear Modulus (GPa) = 24.89544 30.70924 27.80234
#
# Velocity S-wave (km/s) = 3.60363 4.00235 3.80821
# Velocity P-wave (km/s) = 7.15086 7.57034 7.36359
#
# Compressibility (1/GPa) = 0.01542365
#
# Stress axis : x y z
#
# Youngs Moduli (GPa) = 81.29126 70.23812 74.41600
#
# Poissons Ratio (x) = 0.37565 0.32466
# Poissons Ratio (y) = 0.43476 0.19092
# Poissons Ratio (z) = 0.35466 0.18020
#
# Static dielectric constant tensor:
#      x y z
#    x 3.140030 0.147500 -0.089260 
#    y 0.147500 3.650990 0.023900 
#    z -0.089260 0.023900 3.675990 
# 
# 
# High freq. dielectric constant tensor:
#      x y z
#    x 1.708440 0.014720 -0.008910 
#    y 0.014720 1.759430 0.002390 
#    z -0.008910 0.002390 1.761930 
# 
# From -- ./inp_files/197384.got.cif
#   From: 2010.06.25/outbox.cif.g09.slc.cpg/sg2_99_cif.got.tgz:197384.got - 2010.06.27 13:26:56.
