data_PCOD8041061
_publ_section_title
;
Structure prediction by ZEFSAII (Michael W. Deem and Ramdas Pophale) SiO2 
 PCOD8041061
Probable space group: P -1
;
_chemical_formula_sum "Si O2"
_cell_formula_units_Z 12
_cell_length_a 14.375060
_cell_length_b 13.029396
_cell_length_c 4.860601
_cell_angle_alpha 104.012062
_cell_angle_beta 115.511173
_cell_angle_gamma 55.389412
_cell_volume 676.216425
_symmetry_space_group_name_H-M "P -1"
_symmetry_group_IT_number 2
_symmetry_cell_setting 'triclinic'
loop_
_space_group_symop_operation_xyz
x,y,z
-x,-y,-z
loop_
_atom_site_type_symbol
_atom_site_label
_atom_site_fract_x
_atom_site_fract_y
_atom_site_fract_z
Si Si1 0.504662 0.864595 0.203615
Si Si2 0.360364 0.010305 0.610058
Si Si3 0.363377 0.636671 0.200971
Si Si4 0.135893 0.863553 0.799287
Si Si5 0.503733 0.635413 0.873063
Si Si6 0.128586 0.010916 0.390584
O O1 0.430150 0.890701 0.412783
O O2 0.621066 0.879069 0.405177
O O3 0.412825 0.974442 0.957992
O O4 0.546719 0.732891 0.028084
O O5 0.218603 0.060885 0.500872
O O6 0.387954 0.684360 0.551365
O O7 0.383726 0.498749 0.176494
O O8 0.231256 0.729355 0.963462
O O9 0.467213 0.620915 0.121087
O O10 0.004616 0.877373 0.601804
O O11 0.180319 0.891650 0.586445
O O12 0.116080 0.972065 0.045793
#
# Coordination Sequence:
#
# PCOD8041061 Si02
#       6
#     2   2   2   2   2   2
#     4  10  19  30  46  67  91 119 149 184 225 267
#     4  10  19  30  46  67  91 119 149 184 225 267
#     4  10  19  30  46  67  91 119 149 184 225 267
#     4  10  19  30  46  67  91 119 149 184 225 267
#     4  10  19  30  46  67  91 119 149 184 225 267
#     4  10  19  30  46  67  91 119 149 184 225 267
#
# _framework density 17.745798000000001
#
# number of rings (size 3 to 8) (size 9 to 14) (size 15 to 20)
#    0.000    2.000    0.000    6.000    0.000    0.000 
#    0.000    0.000    0.000    1.000    0.000    0.000 
#    0.000   24.000    0.000    0.000    0.000    8.000 
#
# Total GULP energy -148690.177626 kJ/mol
# GULP energy per Si atom -12390.848135 kJ/mol
# Density = 1.770541 g / cm^3
# Si number density = 17.745798 Si / 1000 Ang^3
#
#
#
# Elastic Constant Matrix: (Units=GPa)
#
#
# Indices 1 2 3 4 5 6 
#
# 1 102.2777 31.0751 28.6584 3.1694 21.8854 4.0287
# 2 31.0751 91.7548 29.7064 3.1674 24.3268 -2.8658
# 3 28.6584 29.7064 77.4034 2.6207 3.4945 3.6456
# 4 3.1694 3.1674 2.6207 34.6460 2.4570 5.2903
# 5 21.8854 24.3268 3.4945 2.4570 32.2530 -1.8417
# 6 4.0287 -2.8658 3.6456 5.2903 -1.8417 17.4965
#
#
#
# Elastic Compliance Matrix: (Units=1/GPa)
#
#
# Indices 1 2 3 4 5 6 
#
# 1 0.012993 -0.001231 -0.003846 0.000260 -0.007678 -0.003279
# 2 -0.001231 0.015897 -0.005301 -0.000680 -0.010351 0.003108
# 3 -0.003846 -0.005301 0.016307 -0.000304 0.004705 -0.002793
# 4 0.000260 -0.000680 -0.000304 0.030571 -0.002508 -0.009616
# 5 -0.007678 -0.010351 0.004705 -0.002508 0.043959 0.004478
# 6 -0.003279 0.003108 -0.002793 -0.009616 0.004478 0.062379
#
#
# Mechanical properties :
#
#
# Convention : Reuss Voigt Hill
#
# Bulk Modulus (GPa) = 40.91502 50.03507 45.47504
# Shear Modulus (GPa) = 23.69557 29.01216 26.35386
#
# Velocity S-wave (km/s) = 3.65811 4.04774 3.85785
# Velocity P-wave (km/s) = 6.39911 7.07830 6.74725
#
# Compressibility (1/GPa) = 0.02444090
#
# Stress axis : x y z
#
# Youngs Moduli (GPa) = 76.96420 62.90590 61.32230
#
# Poissons Ratio (x) = 0.07743 0.23584
# Poissons Ratio (y) = 0.09473 0.32508
# Poissons Ratio (z) = 0.29600 0.33348
#
# Static dielectric constant tensor:
#      x y z
#    x 3.454440 0.056370 -0.058570 
#    y 0.056370 3.223130 0.015930 
#    z -0.058570 0.015930 3.513020 
# 
# 
# High freq. dielectric constant tensor:
#      x y z
#    x 1.673260 0.005560 -0.021550 
#    y 0.005560 1.649860 -0.004140 
#    z -0.021550 -0.004140 1.704210 
# 
# From -- ./inp_files/91891.got.cif
#   From: 2010.06.25/outbox.cif.g09.slc.cpg/sg2_46_cif.got.tgz:91891.got - 2010.06.27 13:26:56.
