data_PCOD8041671
_publ_section_title
;
Structure prediction by ZEFSAII (Michael W. Deem and Ramdas Pophale) SiO2 
 PCOD8041671
Probable space group: P -1
;
_chemical_formula_sum "Si O2"
_cell_formula_units_Z 16
_cell_length_a 8.544764
_cell_length_b 15.015505
_cell_length_c 9.003891
_cell_angle_alpha 127.194283
_cell_angle_beta 76.964096
_cell_angle_gamma 82.389294
_cell_volume 841.038413
_symmetry_space_group_name_H-M "P -1"
_symmetry_group_IT_number 2
_symmetry_cell_setting 'triclinic'
loop_
_space_group_symop_operation_xyz
x,y,z
-x,-y,-z
loop_
_atom_site_type_symbol
_atom_site_label
_atom_site_fract_x
_atom_site_fract_y
_atom_site_fract_z
Si Si1 0.993942 0.300714 0.161717
Si Si2 0.663882 0.518217 0.416735
Si Si3 0.416440 0.573713 0.946777
Si Si4 0.461413 0.045286 0.888533
Si Si5 0.111281 0.078631 0.084663
Si Si6 0.809913 0.961155 0.631410
Si Si7 0.101379 0.805708 0.218639
Si Si8 0.655007 0.683265 0.829181
O O1 0.831431 0.416326 0.338180
O O2 0.005723 0.217444 0.218830
O O3 0.163122 0.336777 0.150888
O O4 0.969736 0.227706 0.951146
O O5 0.500000 0.500000 0.500000
O O6 0.648825 0.512072 0.234101
O O7 0.676558 0.639093 0.606592
O O8 0.560905 0.611407 0.872434
O O9 0.500000 0.500000 0.000000
O O10 0.253118 0.692100 0.139590
O O11 0.608763 0.972714 0.665230
O O12 0.271891 0.040780 0.893922
O O13 0.461137 0.179616 0.015226
O O14 0.500000 0.000000 0.000000
O O15 0.166562 0.061462 0.223264
O O16 0.000000 0.000000 0.000000
O O17 0.937894 0.847332 0.405161
O O18 0.832670 0.084212 0.704417
#
# Coordination Sequence:
#
# PCOD8041671 Si02
#       8
#     2   2   2   2   2   2   2   2
#     4  10  20  36  57  84 113 150 187 237 296 332
#     4   9  20  35  59  81 107 148 188 239 286 335
#     4  10  21  39  59  83 112 154 195 230 289 339
#     4   9  19  34  57  83 111 149 184 238 284 335
#     4  10  19  33  56  85 112 144 193 239 283 341
#     4  10  19  35  55  81 117 151 189 228 289 342
#     4  10  20  36  57  80 117 157 184 233 287 346
#     4  10  19  37  58  83 114 143 190 243 285 341
#
# _framework density 19.024101000000002
#
# number of rings (size 3 to 8) (size 9 to 14) (size 15 to 20)
#    0.000    2.250    2.500    0.375    0.000    2.000 
#    0.000   11.250    0.000    0.000    0.000    0.000 
#    0.000    0.000    0.000    0.000    0.000    0.000 
#
# Total GULP energy -198214.843974 kJ/mol
# GULP energy per Si atom -12388.427748 kJ/mol
# Density = 1.898080 g / cm^3
# Si number density = 19.024101 Si / 1000 Ang^3
#
#
#
# Elastic Constant Matrix: (Units=GPa)
#
#
# Indices 1 2 3 4 5 6 
#
# 1 86.4759 31.9208 32.1615 8.9516 -20.0348 0.3445
# 2 31.9208 97.0895 23.4400 1.1193 -12.5490 -10.5917
# 3 32.1615 23.4400 85.5696 5.9941 -27.6897 -0.3212
# 4 8.9516 1.1193 5.9941 16.9928 0.1401 -3.0842
# 5 -20.0348 -12.5490 -27.6897 0.1401 32.8642 3.9896
# 6 0.3445 -10.5917 -0.3212 -3.0842 3.9896 32.2254
#
#
#
# Elastic Compliance Matrix: (Units=1/GPa)
#
#
# Indices 1 2 3 4 5 6 
#
# 1 0.016422 -0.004227 -0.002190 -0.008246 0.006981 -0.003240
# 2 -0.004227 0.012638 -0.002082 0.002940 -0.000060 0.004467
# 3 -0.002190 -0.002082 0.017708 -0.005543 0.013134 -0.002641
# 4 -0.008246 0.002940 -0.005543 0.066596 -0.009902 0.008599
# 5 0.006981 -0.000060 0.013134 -0.009902 0.046580 -0.006678
# 6 -0.003240 0.004467 -0.002641 0.008599 -0.006678 0.034158
#
#
# Mechanical properties :
#
#
# Convention : Reuss Voigt Hill
#
# Bulk Modulus (GPa) = 33.58952 49.35328 41.47140
# Shear Modulus (GPa) = 22.62203 28.52400 25.57301
#
# Velocity S-wave (km/s) = 3.45211 3.87636 3.67037
# Velocity P-wave (km/s) = 5.79517 6.78481 6.30943
#
# Compressibility (1/GPa) = 0.02977119
#
# Stress axis : x y z
#
# Youngs Moduli (GPa) = 60.89240 79.12847 56.47036
#
# Poissons Ratio (x) = 0.33445 0.12368
# Poissons Ratio (y) = 0.25737 0.11756
# Poissons Ratio (z) = 0.13337 0.16472
#
# Static dielectric constant tensor:
#      x y z
#    x 3.216810 -0.132610 -0.039510 
#    y -0.132610 3.370270 0.079980 
#    z -0.039510 0.079980 3.708110 
# 
# 
# High freq. dielectric constant tensor:
#      x y z
#    x 1.757890 -0.006350 -0.015520 
#    y -0.006350 1.727150 0.009680 
#    z -0.015520 0.009680 1.728750 
# 
# From -- ./inp_files/179356.got.cif
#   From: 2010.06.25/outbox.cif.g09.slc.cpg/sg2_90_cif.got.tgz:179356.got - 2010.06.27 13:26:56.
