data_PCOD8041901
_publ_section_title
;
Structure prediction by ZEFSAII (Michael W. Deem and Ramdas Pophale) SiO2 
 PCOD8041901
Probable space group: P -1
;
_chemical_formula_sum "Si O2"
_cell_formula_units_Z 16
_cell_length_a 15.428577
_cell_length_b 11.803723
_cell_length_c 8.911542
_cell_angle_alpha 63.700198
_cell_angle_beta 44.619176
_cell_angle_gamma 49.652960
_cell_volume 868.302203
_symmetry_space_group_name_H-M "P -1"
_symmetry_group_IT_number 2
_symmetry_cell_setting 'triclinic'
loop_
_space_group_symop_operation_xyz
x,y,z
-x,-y,-z
loop_
_atom_site_type_symbol
_atom_site_label
_atom_site_fract_x
_atom_site_fract_y
_atom_site_fract_z
Si Si1 0.404698 0.328378 0.364873
Si Si2 0.404975 0.037025 0.242718
Si Si3 0.691181 0.649421 0.850898
Si Si4 0.821211 0.721329 0.160257
Si Si5 0.359023 0.958430 0.888852
Si Si6 0.864220 0.492898 0.001846
Si Si7 0.374950 0.816939 0.257370
Si Si8 0.365741 0.553324 0.523849
O O1 0.333659 0.406088 0.245764
O O2 0.302704 0.280015 0.593490
O O3 0.567794 0.183314 0.229724
O O4 0.419702 0.444333 0.378648
O O5 0.338952 0.931168 0.376352
O O6 0.284231 0.213394 0.291166
O O7 0.516576 0.000706 0.262819
O O8 0.500000 0.000000 0.000000
O O9 0.825388 0.522839 0.855150
O O10 0.548601 0.705461 0.095993
O O11 0.969429 0.638754 0.119563
O O12 0.779622 0.892089 0.092186
O O13 0.841891 0.641792 0.020303
O O14 0.311267 0.910398 0.127373
O O15 0.768201 0.439912 0.233326
O O16 0.305233 0.719895 0.439495
O O17 0.500000 0.500000 0.500000
#
# Coordination Sequence:
#
# PCOD8041901 Si02
#       8
#     2   2   2   2   2   2   2   2
#     4   9  21  33  53  82 101 133 170 215 265 297
#     4   7  13  24  48  74  99 122 165 208 249 290
#     4   9  16  32  50  80 103 130 170 214 258 302
#     4  10  19  34  53  78 108 134 170 218 252 304
#     4   9  17  31  54  77 104 130 169 217 256 300
#     4  10  20  33  53  77 107 141 171 205 259 302
#     4   9  16  29  50  77 101 136 166 214 248 301
#     4  11  21  34  52  79 105 135 174 212 251 311
#
# _framework density 18.426763999999999
#
# number of rings (size 3 to 8) (size 9 to 14) (size 15 to 20)
#    0.000    3.250    1.250    2.625    1.750    2.500 
#    0.000    0.625    0.000    0.750    0.000    0.000 
#    0.000    0.000    0.000    0.000    0.000    0.000 
#
# Total GULP energy -198245.623376 kJ/mol
# GULP energy per Si atom -12390.351461 kJ/mol
# Density = 1.838482 g / cm^3
# Si number density = 18.426764 Si / 1000 Ang^3
#
#
#
# Elastic Constant Matrix: (Units=GPa)
#
#
# Indices 1 2 3 4 5 6 
#
# 1 85.5189 57.9170 25.3100 -6.1329 20.7979 2.3421
# 2 57.9170 118.6719 35.5116 -15.4485 8.4234 -0.3385
# 3 25.3100 35.5116 33.4010 -7.7229 11.2175 2.1632
# 4 -6.1329 -15.4485 -7.7229 20.1631 3.4822 3.3009
# 5 20.7979 8.4234 11.2175 3.4822 24.0334 -1.6812
# 6 2.3421 -0.3385 2.1632 3.3009 -1.6812 41.2790
#
#
#
# Elastic Compliance Matrix: (Units=1/GPa)
#
#
# Indices 1 2 3 4 5 6 
#
# 1 0.022362 -0.009112 -0.001104 0.002540 -0.016161 -0.002147
# 2 -0.009112 0.016541 -0.012429 0.003638 0.007454 0.001317
# 3 -0.001104 -0.012429 0.056106 0.016577 -0.023646 -0.005268
# 4 0.002540 0.003638 0.016577 0.064277 -0.021012 -0.006979
# 5 -0.016161 0.007454 -0.023646 -0.021012 0.067528 0.006648
# 6 -0.002147 0.001317 -0.005268 -0.006979 0.006648 0.025463
#
#
# Mechanical properties :
#
#
# Convention : Reuss Voigt Hill
#
# Bulk Modulus (GPa) = 20.11260 52.78545 36.44902
# Shear Modulus (GPa) = 15.91650 25.01864 20.46757
#
# Velocity S-wave (km/s) = 2.94219 3.68874 3.33641
# Velocity P-wave (km/s) = 4.74136 6.84476 5.88775
#
# Compressibility (1/GPa) = 0.04972009
#
# Stress axis : x y z
#
# Youngs Moduli (GPa) = 44.71840 60.45521 17.82352
#
# Poissons Ratio (x) = 0.55085 0.01967
# Poissons Ratio (y) = 0.40746 0.22153
# Poissons Ratio (z) = 0.04935 0.75141
#
# Static dielectric constant tensor:
#      x y z
#    x 3.530230 0.425180 0.186250 
#    y 0.425180 3.804740 -0.117470 
#    z 0.186250 -0.117470 3.177730 
# 
# 
# High freq. dielectric constant tensor:
#      x y z
#    x 1.692570 0.008100 0.026840 
#    y 0.008100 1.710550 -0.011930 
#    z 0.026840 -0.011930 1.687430 
# 
# From -- ./inp_files/331665.got.cif
#   From: 2010.06.25/outbox.cif.g09.slc.cpg/sg2_166_cif.got.tgz:331665.got - 2010.06.27 13:26:56.
