data_PCOD8041428
_publ_section_title
;
Structure prediction by ZEFSAII (Michael W. Deem and Ramdas Pophale) SiO2 
 PCOD8041428
Probable space group: P -1
;
_chemical_formula_sum "Si O2"
_cell_formula_units_Z 16
_cell_length_a 12.142445
_cell_length_b 14.431196
_cell_length_c 16.016868
_cell_angle_alpha 39.375376
_cell_angle_beta 141.654757
_cell_angle_gamma 151.923652
_cell_volume 787.332514
_symmetry_space_group_name_H-M "P -1"
_symmetry_group_IT_number 2
_symmetry_cell_setting 'triclinic'
loop_
_space_group_symop_operation_xyz
x,y,z
-x,-y,-z
loop_
_atom_site_type_symbol
_atom_site_label
_atom_site_fract_x
_atom_site_fract_y
_atom_site_fract_z
Si Si1 0.187535 0.878362 0.878533
Si Si2 0.259322 0.385710 0.104471
Si Si3 0.778936 0.564264 0.274414
Si Si4 0.136072 0.654790 0.843693
Si Si5 0.970902 0.831343 0.051610
Si Si6 0.542088 0.059377 0.720839
Si Si7 0.698896 0.195126 0.535834
Si Si8 0.621723 0.244957 0.802733
O O1 0.201279 0.760016 0.898663
O O2 0.906887 0.768709 0.808461
O O3 0.359757 0.116738 0.787037
O O4 0.284803 0.859804 0.034848
O O5 0.546219 0.518408 0.206111
O O6 0.225324 0.539631 0.968006
O O7 0.175118 0.245856 0.069505
O O8 0.808149 0.624015 0.153484
O O9 0.737466 0.368931 0.391380
O O10 0.043354 0.749834 0.348404
O O11 0.834217 0.490013 0.770569
O O12 0.271578 0.825367 0.732201
O O13 0.250637 0.938200 0.131067
O O14 0.000000 0.000000 0.000000
O O15 0.587599 0.151966 0.592365
O O16 0.562431 0.204222 0.697495
O O17 0.500000 0.000000 0.500000
#
# Coordination Sequence:
#
# PCOD8041428 Si02
#       8
#     2   2   2   2   2   2   2   2
#     4   9  18  32  52  88 123 148 179 224 292 359
#     4  11  20  35  58  84 123 153 178 237 297 351
#     4  10  24  40  57  81 113 154 198 238 287 340
#     4  10  19  32  57  90 121 147 184 227 292 359
#     4  11  22  35  54  88 124 151 184 235 295 355
#     4  10  20  34  57  82 111 152 191 230 287 335
#     4  10  24  42  59  77 110 156 211 249 274 330
#     4   9  16  32  51  81 117 145 178 227 276 346
#
# _framework density 20.321781999999999
#
# number of rings (size 3 to 8) (size 9 to 14) (size 15 to 20)
#    0.000    2.000    2.500    2.625    5.250    1.000 
#    2.250    0.000    0.000    3.000    0.000    7.875 
#    0.000    0.000    0.000    0.000    0.000    0.000 
#
# Total GULP energy -198236.762790 kJ/mol
# GULP energy per Si atom -12389.797674 kJ/mol
# Density = 2.027553 g / cm^3
# Si number density = 20.321782 Si / 1000 Ang^3
#
#
#
# Elastic Constant Matrix: (Units=GPa)
#
#
# Indices 1 2 3 4 5 6 
#
# 1 94.2681 53.0230 33.8757 3.9022 -13.0559 17.5233
# 2 53.0230 153.4174 35.4304 1.8832 -10.3573 27.6918
# 3 33.8757 35.4304 54.9435 -2.1461 -12.9666 5.1753
# 4 3.9022 1.8832 -2.1461 24.2685 3.3702 -6.4971
# 5 -13.0559 -10.3573 -12.9666 3.3702 23.8993 -1.9741
# 6 17.5233 27.6918 5.1753 -6.4971 -1.9741 42.8862
#
#
#
# Elastic Compliance Matrix: (Units=1/GPa)
#
#
# Indices 1 2 3 4 5 6 
#
# 1 0.016367 -0.002880 -0.007005 -0.004821 0.004198 -0.004519
# 2 -0.002880 0.009258 -0.003767 -0.001863 0.000276 -0.004616
# 3 -0.007005 -0.003767 0.026903 0.003355 0.008909 0.002967
# 4 -0.004821 -0.001863 0.003355 0.045954 -0.007325 0.009392
# 5 0.004198 0.000276 0.008909 -0.007325 0.049975 -0.001778
# 6 -0.004519 -0.004616 0.002967 0.009392 -0.001778 0.029128
#
#
# Mechanical properties :
#
#
# Convention : Reuss Voigt Hill
#
# Bulk Modulus (GPa) = 39.64737 60.80969 50.22853
# Shear Modulus (GPa) = 23.44146 30.23080 26.83613
#
# Velocity S-wave (km/s) = 3.40003 3.86113 3.63789
# Velocity P-wave (km/s) = 5.91318 7.06160 6.51275
#
# Compressibility (1/GPa) = 0.02522235
#
# Stress axis : x y z
#
# Youngs Moduli (GPa) = 61.09984 108.01057 37.17062
#
# Poissons Ratio (x) = 0.31111 0.26039
# Poissons Ratio (y) = 0.17599 0.14002
# Poissons Ratio (z) = 0.42803 0.40688
#
# Static dielectric constant tensor:
#      x y z
#    x 7.375730 2.049400 -5.357060 
#    y 2.049400 4.896260 -2.159300 
#    z -5.357060 -2.159300 10.637420 
# 
# 
# High freq. dielectric constant tensor:
#      x y z
#    x 1.786920 0.024710 -0.028320 
#    y 0.024710 1.819340 0.000820 
#    z -0.028320 0.000820 1.740990 
# 
# From -- ./inp_files/503900.got.cif
#   From: 2010.06.25/outbox.cif.g09.slc.cpg/sg2_252_cif.got.tgz:503900.got - 2010.06.27 13:26:56.
