data_PCOD8041371
_publ_section_title
;
Structure prediction by ZEFSAII (Michael W. Deem and Ramdas Pophale) SiO2 
 PCOD8041371
Probable space group: P -1
;
_chemical_formula_sum "Si O2"
_cell_formula_units_Z 14
_cell_length_a 26.914095
_cell_length_b 20.658784
_cell_length_c 11.477169
_cell_angle_alpha 21.542286
_cell_angle_beta 29.790631
_cell_angle_gamma 18.985317
_cell_volume 758.633893
_symmetry_space_group_name_H-M "P -1"
_symmetry_group_IT_number 2
_symmetry_cell_setting 'triclinic'
loop_
_space_group_symop_operation_xyz
x,y,z
-x,-y,-z
loop_
_atom_site_type_symbol
_atom_site_label
_atom_site_fract_x
_atom_site_fract_y
_atom_site_fract_z
Si Si1 0.435599 0.862878 0.971816
Si Si2 0.770646 0.324259 0.950260
Si Si3 0.034825 0.144054 0.835474
Si Si4 0.860343 0.666669 0.593299
Si Si5 0.556818 0.063769 0.420298
Si Si6 0.295194 0.753981 0.558139
Si Si7 0.915514 0.206967 0.221349
O O1 0.374662 0.023270 0.705054
O O2 0.521714 0.906980 0.788973
O O3 0.304887 0.948214 0.176715
O O4 0.541270 0.556595 0.235391
O O5 0.598594 0.616277 0.783408
O O6 0.872358 0.351053 0.750172
O O7 0.785010 0.153334 0.307210
O O8 0.842711 0.153364 0.971815
O O9 0.098597 0.260250 0.503647
O O10 0.021512 0.108608 0.058150
O O11 0.000000 0.500000 0.500000
O O12 0.694160 0.954072 0.403422
O O13 0.846131 0.478244 0.965758
O O14 0.215274 0.751962 0.621532
O O15 0.000000 0.000000 0.500000
#
# Coordination Sequence:
#
# PCOD8041371 Si02
#       7
#     2   2   2   2   2   2   2
#     4   9  18  29  52  80 106 133 174 224 260 303
#     4   9  19  37  57  78 104 145 183 213 257 320
#     4   9  20  37  56  78 109 142 177 218 259 320
#     4  10  21  34  52  80 107 139 175 223 267 312
#     4  10  19  32  55  81 108 138 180 217 262 322
#     4   9  17  32  51  78 106 135 173 220 261 304
#     4  10  20  33  53  79 108 134 173 220 274 311
#
# _framework density 18.454224
#
# number of rings (size 3 to 8) (size 9 to 14) (size 15 to 20)
#    0.000    2.571    1.429    0.000   10.000    0.571 
#    0.000    1.429    0.000    6.857    0.000    0.000 
#    0.000    0.000    0.000    0.000    0.000    0.000 
#
# Total GULP energy -173433.863948 kJ/mol
# GULP energy per Si atom -12388.133139 kJ/mol
# Density = 1.841222 g / cm^3
# Si number density = 18.454224 Si / 1000 Ang^3
#
#
#
# Elastic Constant Matrix: (Units=GPa)
#
#
# Indices 1 2 3 4 5 6 
#
# 1 100.1138 43.4333 48.2207 0.9555 -11.4471 -11.0441
# 2 43.4333 83.5227 37.0273 -4.2699 -3.6424 -15.4938
# 3 48.2207 37.0273 98.8685 15.7858 -8.3434 -8.9899
# 4 0.9555 -4.2699 15.7858 30.6932 -8.8091 -1.6065
# 5 -11.4471 -3.6424 -8.3434 -8.8091 24.0607 1.0653
# 6 -11.0441 -15.4938 -8.9899 -1.6065 1.0653 30.8896
#
#
#
# Elastic Compliance Matrix: (Units=1/GPa)
#
#
# Indices 1 2 3 4 5 6 
#
# 1 0.015695 -0.004895 -0.005757 0.003583 0.005977 0.001461
# 2 -0.004895 0.018033 -0.004638 0.005527 0.000541 0.006214
# 3 -0.005757 -0.004638 0.015987 -0.009041 -0.001200 -0.000161
# 4 0.003583 0.005527 -0.009041 0.042284 0.014749 0.003113
# 5 0.005977 0.000541 -0.001200 0.014749 0.049421 0.001122
# 6 0.001461 0.006214 -0.000161 0.003113 0.001122 0.036089
#
#
# Mechanical properties :
#
#
# Convention : Reuss Voigt Hill
#
# Bulk Modulus (GPa) = 52.25706 59.98527 56.12117
# Shear Modulus (GPa) = 23.31353 27.38362 25.34858
#
# Velocity S-wave (km/s) = 3.55817 3.85628 3.71022
# Velocity P-wave (km/s) = 6.72751 7.23901 6.98794
#
# Compressibility (1/GPa) = 0.01913617
#
# Stress axis : x y z
#
# Youngs Moduli (GPa) = 63.71275 55.45300 62.55188
#
# Poissons Ratio (x) = 0.27144 0.36009
# Poissons Ratio (y) = 0.31187 0.29012
# Poissons Ratio (z) = 0.36677 0.25719
#
# Static dielectric constant tensor:
#      x y z
#    x 3.402530 -0.138540 -0.188510 
#    y -0.138540 3.427120 0.319950 
#    z -0.188510 0.319950 3.638980 
# 
# 
# High freq. dielectric constant tensor:
#      x y z
#    x 1.698270 -0.020550 -0.011510 
#    y -0.020550 1.702700 0.009980 
#    z -0.011510 0.009980 1.709150 
# 
# From -- ./inp_files/167967.got.cif
#   From: 2010.06.25/outbox.cif.g09.slc.cpg/sg2_84_cif.got.tgz:167967.got - 2010.06.27 13:26:56.
