data_PCOD8041313
_publ_section_title
;
Structure prediction by ZEFSAII (Michael W. Deem and Ramdas Pophale) SiO2 
 PCOD8041313
Probable space group: P -1
;
_chemical_formula_sum "Si O2"
_cell_formula_units_Z 16
_cell_length_a 23.205902
_cell_length_b 8.744013
_cell_length_c 9.368174
_cell_angle_alpha 147.356463
_cell_angle_beta 64.352908
_cell_angle_gamma 125.719046
_cell_volume 824.963994
_symmetry_space_group_name_H-M "P -1"
_symmetry_group_IT_number 2
_symmetry_cell_setting 'triclinic'
loop_
_space_group_symop_operation_xyz
x,y,z
-x,-y,-z
loop_
_atom_site_type_symbol
_atom_site_label
_atom_site_fract_x
_atom_site_fract_y
_atom_site_fract_z
Si Si1 0.790756 0.267788 0.432720
Si Si2 0.419943 0.960673 0.896326
Si Si3 0.336073 0.054716 0.484128
Si Si4 0.580111 0.280963 0.976400
Si Si5 0.953286 0.585849 0.508074
Si Si6 0.336134 0.289702 0.351878
Si Si7 0.953278 0.226168 0.943930
Si Si8 0.790750 0.893265 0.856098
O O1 0.872194 0.438991 0.538115
O O2 0.763820 0.526188 0.629550
O O3 0.741823 0.066749 0.457342
O O4 0.782139 0.061549 0.139327
O O5 0.500035 0.120740 0.871302
O O6 0.367399 0.670802 0.624272
O O7 0.391045 0.222181 0.142015
O O8 0.421630 0.843275 0.960815
O O9 0.328409 0.156787 0.414123
O O10 0.367345 0.798740 0.243112
O O11 0.390937 0.341869 0.749024
O O12 0.000000 0.500000 0.500000
O O13 0.982153 0.963589 0.739845
O O14 0.954991 0.408314 0.226338
O O15 0.258283 0.099296 0.215003
O O16 0.872189 0.049536 0.833428
O O17 0.000000 0.500000 0.000000
#
# Coordination Sequence:
#
# PCOD8041313 Si02
#       8
#     2   2   2   2   2   2   2   2
#     4  10  21  37  55  76 109 146 173 209 270 327
#     4   9  17  30  50  76 104 132 169 221 270 307
#     4  10  19  32  53  79 101 132 180 221 256 308
#     4   9  17  30  50  76 104 132 169 221 270 307
#     4  10  21  38  59  84 112 146 185 224 272 326
#     4  10  19  32  53  79 101 132 180 221 256 308
#     4  10  21  38  59  84 112 146 185 224 272 326
#     4  10  21  37  55  76 109 146 173 209 270 327
#
# _framework density 19.394786
#
# number of rings (size 3 to 8) (size 9 to 14) (size 15 to 20)
#    0.000    2.250    0.000    3.000    0.000    4.000 
#    0.000    3.750    0.000   15.000    0.000    0.000 
#    0.000    0.000    0.000    0.000    0.000    0.000 
#
# Total GULP energy -198335.360647 kJ/mol
# GULP energy per Si atom -12395.960040 kJ/mol
# Density = 1.935064 g / cm^3
# Si number density = 19.394786 Si / 1000 Ang^3
#
#
#
# Elastic Constant Matrix: (Units=GPa)
#
#
# Indices 1 2 3 4 5 6 
#
# 1 108.0899 39.0896 41.1859 5.4045 6.3082 9.9281
# 2 39.0896 96.8763 30.4694 -0.5034 -10.9542 21.1440
# 3 41.1859 30.4694 133.0901 14.8996 -10.3330 1.6998
# 4 5.4045 -0.5034 14.8996 29.8517 11.4508 -7.7377
# 5 6.3082 -10.9542 -10.3330 11.4508 44.8925 -0.4954
# 6 9.9281 21.1440 1.6998 -7.7377 -0.4954 19.7947
#
#
#
# Elastic Compliance Matrix: (Units=1/GPa)
#
#
# Indices 1 2 3 4 5 6 
#
# 1 0.012234 -0.003988 -0.003146 0.000208 -0.003487 -0.001611
# 2 -0.003988 0.016809 -0.001419 -0.004924 0.005397 -0.017622
# 3 -0.003146 -0.001419 0.009751 -0.005756 0.003810 0.000101
# 4 0.000208 -0.004924 -0.005756 0.048075 -0.014553 0.024078
# 5 -0.003487 0.005397 0.003810 -0.014553 0.028568 -0.009317
# 6 -0.001611 -0.017622 0.000101 0.024078 -0.009317 0.079321
#
#
# Mechanical properties :
#
#
# Convention : Reuss Voigt Hill
#
# Bulk Modulus (GPa) = 46.10983 62.17180 54.14081
# Shear Modulus (GPa) = 22.82134 34.06186 28.44160
#
# Velocity S-wave (km/s) = 3.43399 4.19530 3.83359
# Velocity P-wave (km/s) = 6.28880 7.45606 6.89717
#
# Compressibility (1/GPa) = 0.02168735
#
# Stress axis : x y z
#
# Youngs Moduli (GPa) = 81.74035 59.49279 102.55308
#
# Poissons Ratio (x) = 0.23728 0.32266
# Poissons Ratio (y) = 0.32601 0.14548
# Poissons Ratio (z) = 0.25718 0.08439
#
# Static dielectric constant tensor:
#      x y z
#    x 3.581550 0.302600 -0.121120 
#    y 0.302600 3.378700 0.138140 
#    z -0.121120 0.138140 3.865070 
# 
# 
# High freq. dielectric constant tensor:
#      x y z
#    x 1.745960 0.018240 -0.007390 
#    y 0.018240 1.734340 0.005110 
#    z -0.007390 0.005110 1.778390 
# 
# From -- ./inp_files/54996.got.cif
#   From: 2010.06.25/outbox.cif.g09.slc.cpg/sg2_28_cif.got.tgz:54996.got - 2010.06.27 13:26:56.
