data_PCOD8041246
_publ_section_title
;
Structure prediction by ZEFSAII (Michael W. Deem and Ramdas Pophale) SiO2 
 PCOD8041246
Probable space group: P -1
;
_chemical_formula_sum "Si O2"
_cell_formula_units_Z 14
_cell_length_a 9.688754
_cell_length_b 21.091499
_cell_length_c 13.258566
_cell_angle_alpha 18.516285
_cell_angle_beta 50.374048
_cell_angle_gamma 43.439560
_cell_volume 575.430732
_symmetry_space_group_name_H-M "P -1"
_symmetry_group_IT_number 2
_symmetry_cell_setting 'triclinic'
loop_
_space_group_symop_operation_xyz
x,y,z
-x,-y,-z
loop_
_atom_site_type_symbol
_atom_site_label
_atom_site_fract_x
_atom_site_fract_y
_atom_site_fract_z
Si Si1 0.818270 0.202912 0.403497
Si Si2 0.219488 0.127857 0.835710
Si Si3 0.257849 0.485227 0.579099
Si Si4 0.141145 0.880885 0.870315
Si Si5 0.455351 0.332186 0.509935
Si Si6 0.651490 0.140495 0.006135
Si Si7 0.949948 0.306801 0.985327
O O1 0.599607 0.371950 0.303176
O O2 0.840922 0.341946 0.090527
O O3 0.849785 0.952226 0.729804
O O4 0.001834 0.132817 0.505810
O O5 0.271496 0.330388 0.531991
O O6 0.391167 0.911897 0.142443
O O7 0.231865 0.091148 0.764567
O O8 0.992035 0.186343 0.889487
O O9 0.355040 0.500564 0.400088
O O10 0.408966 0.256957 0.916136
O O11 0.254895 0.696762 0.321427
O O12 0.039555 0.486073 0.666640
O O13 0.213028 0.686218 0.038319
O O14 0.311365 0.905039 0.821576
#
# Coordination Sequence:
#
# PCOD8041246 Si02
#       7
#     2   2   2   2   2   2   2
#     4   8  16  28  52  74  88 121 161 201 223 270
#     4   9  15  27  48  72  93 118 154 202 231 268
#     4  10  19  32  47  73  94 132 151 188 235 289
#     4   9  16  30  48  74  94 119 157 202 231 266
#     4   9  14  29  51  70  89 120 167 188 225 277
#     4  10  20  28  46  73 105 118 150 197 243 272
#     4   9  16  31  50  73  92 119 168 187 232 276
#
# _framework density 24.329602000000001
#
# number of rings (size 3 to 8) (size 9 to 14) (size 15 to 20)
#    0.857    2.000    1.429    2.143    0.000    0.571 
#    0.000    0.714    0.000   14.571    0.000    0.000 
#    0.000    0.000    0.000    0.000    0.000    0.000 
#
# Total GULP energy -173457.961129 kJ/mol
# GULP energy per Si atom -12389.854366 kJ/mol
# Density = 2.427423 g / cm^3
# Si number density = 24.329602 Si / 1000 Ang^3
#
#
#
# Elastic Constant Matrix: (Units=GPa)
#
#
# Indices 1 2 3 4 5 6 
#
# 1 178.5292 59.1831 21.6829 9.9026 19.0911 5.7496
# 2 59.1831 117.4832 15.4670 2.5893 3.6744 9.8497
# 3 21.6829 15.4670 41.5716 11.3392 5.3806 17.0803
# 4 9.9026 2.5893 11.3392 36.5861 14.1021 3.4648
# 5 19.0911 3.6744 5.3806 14.1021 30.9699 -3.1083
# 6 5.7496 9.8497 17.0803 3.4648 -3.1083 37.7878
#
#
#
# Elastic Compliance Matrix: (Units=1/GPa)
#
#
# Indices 1 2 3 4 5 6 
#
# 1 0.007373 -0.003323 -0.002424 0.000442 -0.003882 0.000480
# 2 -0.003323 0.010512 -0.001860 0.000587 0.000718 -0.001388
# 3 -0.002424 -0.001860 0.034149 -0.007635 -0.002152 -0.014059
# 4 0.000442 0.000587 -0.007635 0.035575 -0.015344 -0.001293
# 5 -0.003882 0.000718 -0.002152 -0.015344 0.042589 0.006287
# 6 0.000480 -0.001388 -0.014059 -0.001293 0.006287 0.033743
#
#
# Mechanical properties :
#
#
# Convention : Reuss Voigt Hill
#
# Bulk Modulus (GPa) = 27.16113 58.91668 43.03891
# Shear Modulus (GPa) = 26.11934 37.15217 31.63575
#
# Velocity S-wave (km/s) = 3.28008 3.91197 3.60988
# Velocity P-wave (km/s) = 5.05305 6.68381 5.92480
#
# Compressibility (1/GPa) = 0.03681732
#
# Stress axis : x y z
#
# Youngs Moduli (GPa) = 135.63570 95.12959 29.28358
#
# Poissons Ratio (x) = 0.31616 0.07100
# Poissons Ratio (y) = 0.45078 0.05447
# Poissons Ratio (z) = 0.32884 0.17696
#
# Static dielectric constant tensor:
#      x y z
#    x 4.860400 -0.109070 0.416840 
#    y -0.109070 4.487730 -0.381060 
#    z 0.416840 -0.381060 3.966060 
# 
# 
# High freq. dielectric constant tensor:
#      x y z
#    x 2.000260 -0.007640 0.039730 
#    y -0.007640 1.958100 -0.043100 
#    z 0.039730 -0.043100 1.938860 
# 
# From -- ./inp_files/344724.got.cif
#   From: 2010.06.25/outbox.cif.g09.slc.cpg/sg2_173_cif.got.tgz:344724.got - 2010.06.27 13:26:56.
