data_PCOD8042514
_publ_section_title
;
Structure prediction by ZEFSAII (Michael W. Deem and Ramdas Pophale) SiO2 
 PCOD8042514
Probable space group: P -1
;
_chemical_formula_sum "Si O2"
_cell_formula_units_Z 16
_cell_length_a 20.290947
_cell_length_b 5.352920
_cell_length_c 8.720405
_cell_angle_alpha 121.978157
_cell_angle_beta 59.267309
_cell_angle_gamma 101.114788
_cell_volume 686.656363
_symmetry_space_group_name_H-M "P -1"
_symmetry_group_IT_number 2
_symmetry_cell_setting 'triclinic'
loop_
_space_group_symop_operation_xyz
x,y,z
-x,-y,-z
loop_
_atom_site_type_symbol
_atom_site_label
_atom_site_fract_x
_atom_site_fract_y
_atom_site_fract_z
Si Si1 0.295196 0.600216 0.140141
Si Si2 0.046378 0.192581 0.394940
Si Si3 0.175352 0.506890 0.491392
Si Si4 0.139130 0.862623 0.930251
Si Si5 0.769926 0.643072 0.144827
Si Si6 0.684038 0.792092 0.582378
Si Si7 0.485512 0.231701 0.229577
Si Si8 0.453400 0.316527 0.876799
O O1 0.212919 0.638023 0.338972
O O2 0.335254 0.898578 0.207920
O O3 0.278406 0.557753 0.968292
O O4 0.361318 0.343009 0.034780
O O5 0.123998 0.252793 0.414169
O O6 0.000000 0.500000 0.500000
O O7 0.000000 0.000000 0.500000
O O8 0.063480 0.005252 0.157163
O O9 0.123053 0.748552 0.738105
O O10 0.249345 0.403359 0.471205
O O11 0.171095 0.582923 0.903969
O O12 0.192654 0.128598 0.937097
O O13 0.713745 0.840627 0.390417
O O14 0.604821 0.641990 0.616601
O O15 0.532919 0.519418 0.249148
O O16 0.514534 0.032861 0.279397
O O17 0.500000 0.000000 0.000000
O O18 0.500000 0.500000 0.000000
#
# Coordination Sequence:
#
# PCOD8042514 Si02
#       8
#     2   2   2   2   2   2   2   2
#     4  12  22  39  70  93 129 179 224 275 332 384
#     4  12  28  47  72 102 141 171 208 268 327 393
#     4  11  25  42  74  98 129 180 222 263 333 386
#     4  11  24  47  68 100 138 164 221 272 314 397
#     4  11  25  40  66 104 130 167 226 282 317 381
#     4  11  23  40  68  95 131 175 227 275 326 387
#     4  10  19  35  57  86 128 169 216 271 324 382
#     4  10  20  34  57  89 125 172 219 267 328 388
#
# _framework density 23.301323
#
# number of rings (size 3 to 8) (size 9 to 14) (size 15 to 20)
#    0.000    1.000    5.000    3.000    1.750    1.000 
#    0.000    1.250    0.000    0.000    0.000    0.000 
#    0.000    0.000    0.000    0.000    0.000    0.000 
#
# Total GULP energy -198270.454021 kJ/mol
# GULP energy per Si atom -12391.903376 kJ/mol
# Density = 2.324829 g / cm^3
# Si number density = 23.301323 Si / 1000 Ang^3
#
#
#
# Elastic Constant Matrix: (Units=GPa)
#
#
# Indices 1 2 3 4 5 6 
#
# 1 45.7944 15.4200 27.0668 4.5973 -4.2038 5.1958
# 2 15.4200 137.8149 22.8642 -7.7387 -9.3770 -4.5296
# 3 27.0668 22.8642 63.7999 9.0131 -3.7383 10.7231
# 4 4.5973 -7.7387 9.0131 27.9351 5.2952 -9.8469
# 5 -4.2038 -9.3770 -3.7383 5.2952 34.6971 0.0280
# 6 5.1958 -4.5296 10.7231 -9.8469 0.0280 30.5468
#
#
#
# Elastic Compliance Matrix: (Units=1/GPa)
#
#
# Indices 1 2 3 4 5 6 
#
# 1 0.029708 -0.001573 -0.011061 -0.003065 0.002452 -0.002394
# 2 -0.001573 0.008593 -0.003897 0.005363 0.000890 0.004638
# 3 -0.011061 -0.003897 0.025517 -0.011966 0.002191 -0.011513
# 4 -0.003065 0.005363 -0.011966 0.050894 -0.007996 0.021930
# 5 0.002452 0.000890 0.002191 -0.007996 0.030818 -0.003660
# 6 -0.002394 0.004638 -0.011513 0.021930 -0.003660 0.044946
#
#
# Mechanical properties :
#
#
# Convention : Reuss Voigt Hill
#
# Bulk Modulus (GPa) = 32.51358 42.01234 37.26296
# Shear Modulus (GPa) = 21.38675 30.77301 26.07988
#
# Velocity S-wave (km/s) = 3.03286 3.63802 3.34914
# Velocity P-wave (km/s) = 5.12330 5.97630 5.56616
#
# Compressibility (1/GPa) = 0.03075638
#
# Stress axis : x y z
#
# Youngs Moduli (GPa) = 33.66066 116.37754 39.18943
#
# Poissons Ratio (x) = 0.18305 0.43347
# Poissons Ratio (y) = 0.05294 0.15272
# Poissons Ratio (z) = 0.37232 0.45353
#
# Static dielectric constant tensor:
#      x y z
#    x 3.814400 0.354690 -0.047610 
#    y 0.354690 2.915460 -0.084170 
#    z -0.047610 -0.084170 4.663090 
# 
# 
# High freq. dielectric constant tensor:
#      x y z
#    x 1.900240 -0.004300 -0.005440 
#    y -0.004300 1.923630 -0.009130 
#    z -0.005440 -0.009130 1.927890 
# 
# From -- ./inp_files/53406.got.cif
#   From: 2010.06.25/outbox.cif.g09.slc.cpg/sg2_27_cif.got.tgz:53406.got - 2010.06.27 13:26:56.
