data_PCOD8042566
_publ_section_title
;
Structure prediction by ZEFSAII (Michael W. Deem and Ramdas Pophale) SiO2 
 PCOD8042566
Probable space group: P -1
;
_chemical_formula_sum "Si O2"
_cell_formula_units_Z 12
_cell_length_a 9.844179
_cell_length_b 9.103725
_cell_length_c 12.010956
_cell_angle_alpha 140.486857
_cell_angle_beta 116.612052
_cell_angle_gamma 86.232642
_cell_volume 533.076551
_symmetry_space_group_name_H-M "P -1"
_symmetry_group_IT_number 2
_symmetry_cell_setting 'triclinic'
loop_
_space_group_symop_operation_xyz
x,y,z
-x,-y,-z
loop_
_atom_site_type_symbol
_atom_site_label
_atom_site_fract_x
_atom_site_fract_y
_atom_site_fract_z
Si Si1 0.777352 0.931902 0.493758
Si Si2 0.189888 0.161471 0.786952
Si Si3 0.751959 0.755831 0.824203
Si Si4 0.359009 0.441018 0.567303
Si Si5 0.182900 0.769298 0.729256
Si Si6 0.831106 0.467172 0.855743
O O1 0.720458 0.778695 0.265683
O O2 0.679969 0.744337 0.449911
O O3 0.721013 0.159347 0.602346
O O4 0.983849 0.053349 0.648791
O O5 0.219836 0.943974 0.734266
O O6 0.277143 0.442863 0.048737
O O7 0.556970 0.550944 0.670822
O O8 0.767306 0.733681 0.683635
O O9 0.874681 0.655325 0.871636
O O10 0.807901 0.057250 0.057098
O O11 0.332019 0.686134 0.737070
O O12 0.000000 0.500000 0.500000
O O13 0.000000 0.500000 0.000000
#
# Coordination Sequence:
#
# PCOD8042566 Si02
#       6
#     2   2   2   2   2   2
#     4  10  19  35  58  85 120 156 200 247 303 360
#     4   9  19  36  55  87 119 151 203 258 291 350
#     4  10  24  42  61  88 132 161 201 255 305 373
#     4  11  23  40  61  94 125 166 199 246 319 370
#     4  11  21  40  63  90 120 165 212 254 302 355
#     4   9  19  38  59  84 119 158 201 253 302 350
#
# _framework density 22.510839000000001
#
# number of rings (size 3 to 8) (size 9 to 14) (size 15 to 20)
#    0.000    2.000    1.667    1.500    0.000    2.667 
#    6.000    3.333    0.000    0.000    0.000    0.000 
#    0.000    0.000    0.000    0.000    0.000    0.000 
#
# Total GULP energy -148722.555815 kJ/mol
# GULP energy per Si atom -12393.546318 kJ/mol
# Density = 2.245960 g / cm^3
# Si number density = 22.510839 Si / 1000 Ang^3
#
#
#
# Elastic Constant Matrix: (Units=GPa)
#
#
# Indices 1 2 3 4 5 6 
#
# 1 47.9880 28.3921 21.1874 16.8473 -11.3920 4.1374
# 2 28.3921 94.3853 38.5082 10.0328 -20.3329 6.0523
# 3 21.1874 38.5082 110.4301 5.0562 -37.6650 7.9632
# 4 16.8473 10.0328 5.0562 32.6108 -11.0736 -9.0077
# 5 -11.3920 -20.3329 -37.6650 -11.0736 33.3569 1.5500
# 6 4.1374 6.0523 7.9632 -9.0077 1.5500 39.9211
#
#
#
# Elastic Compliance Matrix: (Units=1/GPa)
#
#
# Indices 1 2 3 4 5 6 
#
# 1 0.031816 -0.006596 -0.003409 -0.016007 -0.002079 -0.005148
# 2 -0.006596 0.014434 -0.002291 0.000424 0.004151 -0.001113
# 3 -0.003409 -0.002291 0.016565 0.005454 0.018050 -0.002074
# 4 -0.016007 0.000424 0.005454 0.046171 0.015799 0.010311
# 5 -0.002079 0.004151 0.018050 0.015799 0.057551 -0.002684
# 6 -0.005148 -0.001113 -0.002074 0.010311 -0.002684 0.028596
#
#
# Mechanical properties :
#
#
# Convention : Reuss Voigt Hill
#
# Bulk Modulus (GPa) = 26.16223 47.66433 36.91328
# Shear Modulus (GPa) = 21.50848 32.15882 26.83365
#
# Velocity S-wave (km/s) = 3.09442 3.78377 3.45633
# Velocity P-wave (km/s) = 4.94111 6.34895 5.68875
#
# Compressibility (1/GPa) = 0.03822304
#
# Stress axis : x y z
#
# Youngs Moduli (GPa) = 31.43055 69.27914 60.36876
#
# Poissons Ratio (x) = 0.45696 0.20580
# Poissons Ratio (y) = 0.20732 0.13831
# Poissons Ratio (z) = 0.10715 0.15872
#
# Static dielectric constant tensor:
#      x y z
#    x 4.109930 -0.265260 -0.671950 
#    y -0.265260 4.223530 -0.110910 
#    z -0.671950 -0.110910 4.604550 
# 
# 
# High freq. dielectric constant tensor:
#      x y z
#    x 1.871290 -0.014000 -0.028630 
#    y -0.014000 1.892800 -0.006880 
#    z -0.028630 -0.006880 1.890200 
# 
# From -- ./inp_files/152077.got.cif
#   From: 2010.06.25/outbox.cif.g09.slc.cpg/sg2_77_cif.got.tgz:152077.got - 2010.06.27 13:26:56.
