data_PCOD8042221
_publ_section_title
;
Structure prediction by ZEFSAII (Michael W. Deem and Ramdas Pophale) SiO2 
 PCOD8042221
Probable space group: P -1
;
_chemical_formula_sum "Si O2"
_cell_formula_units_Z 16
_cell_length_a 14.657118
_cell_length_b 26.911800
_cell_length_c 21.425099
_cell_angle_alpha 18.696195
_cell_angle_beta 29.166744
_cell_angle_gamma 18.400300
_cell_volume 827.290308
_symmetry_space_group_name_H-M "P -1"
_symmetry_group_IT_number 2
_symmetry_cell_setting 'triclinic'
loop_
_space_group_symop_operation_xyz
x,y,z
-x,-y,-z
loop_
_atom_site_type_symbol
_atom_site_label
_atom_site_fract_x
_atom_site_fract_y
_atom_site_fract_z
Si Si1 0.331094 0.556266 0.594434
Si Si2 0.686431 0.914246 0.550417
Si Si3 0.073804 0.204852 0.236581
Si Si4 0.090790 0.919595 0.756220
Si Si5 0.483522 0.775014 0.917041
Si Si6 0.613364 0.098336 0.040344
Si Si7 0.824691 0.260014 0.945629
Si Si8 0.211827 0.799336 0.693194
O O1 0.500000 0.500000 0.500000
O O2 0.033643 0.651029 0.640906
O O3 0.539367 0.315149 0.798880
O O4 0.222943 0.786309 0.418921
O O5 0.500000 0.000000 0.500000
O O6 0.645771 0.122251 0.343495
O O7 0.582974 0.879994 0.711145
O O8 0.345768 0.148548 0.134244
O O9 0.777250 0.484787 0.103144
O O10 0.018747 0.156566 0.260633
O O11 0.143373 0.026741 0.457871
O O12 0.171268 0.769100 0.825415
O O13 0.071897 0.832537 0.934529
O O14 0.277909 0.831739 0.918788
O O15 0.301116 0.922755 0.913816
O O16 0.899842 0.846126 0.131961
O O17 0.549909 0.556532 0.756459
#
# Coordination Sequence:
#
# PCOD8042221 Si02
#       8
#     2   2   2   2   2   2   2   2
#     4  10  20  35  59  86 116 141 177 235 295 330
#     4  10  19  34  60  86 115 141 182 234 283 336
#     4  10  21  38  60  79 112 141 198 239 266 335
#     4  10  19  36  60  78 113 147 187 226 281 338
#     4  11  20  36  58  89 109 148 188 232 289 339
#     4  12  21  36  59  85 117 147 180 242 292 325
#     4  11  23  36  54  81 121 148 187 234 277 336
#     4  10  22  39  58  79 104 159 196 225 273 332
#
# _framework density 19.340247000000002
#
# number of rings (size 3 to 8) (size 9 to 14) (size 15 to 20)
#    0.750    0.750    3.750    2.625    0.000    0.500 
#    0.000    0.625    2.750    0.000    0.000    0.000 
#    0.000    0.000    0.000    0.000    0.000    0.000 
#
# Total GULP energy -198299.325025 kJ/mol
# GULP energy per Si atom -12393.707814 kJ/mol
# Density = 1.929623 g / cm^3
# Si number density = 19.340247 Si / 1000 Ang^3
#
#
#
# Elastic Constant Matrix: (Units=GPa)
#
#
# Indices 1 2 3 4 5 6 
#
# 1 89.9314 37.1184 14.5814 9.3379 15.2799 21.6235
# 2 37.1184 102.4668 12.0613 8.2499 11.9339 17.5112
# 3 14.5814 12.0613 62.4659 8.1840 13.2389 12.3028
# 4 9.3379 8.2499 8.1840 31.1530 3.3025 5.0469
# 5 15.2799 11.9339 13.2389 3.3025 27.5111 5.7227
# 6 21.6235 17.5112 12.3028 5.0469 5.7227 29.5156
#
#
#
# Elastic Compliance Matrix: (Units=1/GPa)
#
#
# Indices 1 2 3 4 5 6 
#
# 1 0.015577 -0.003515 -0.000032 -0.001883 -0.005226 -0.007978
# 2 -0.003515 0.012075 -0.000098 -0.001246 -0.002279 -0.003893
# 3 -0.000032 -0.000098 0.019231 -0.003256 -0.007574 -0.005909
# 4 -0.001883 -0.001246 -0.003256 0.034272 -0.000484 -0.002290
# 5 -0.005226 -0.002279 -0.007574 -0.000484 0.043965 -0.000104
# 6 -0.007978 -0.003893 -0.005909 -0.002290 -0.000104 0.044910
#
#
# Mechanical properties :
#
#
# Convention : Reuss Voigt Hill
#
# Bulk Modulus (GPa) = 25.25699 42.48736 33.87217
# Shear Modulus (GPa) = 26.24427 30.37613 28.31020
#
# Velocity S-wave (km/s) = 3.68771 3.96740 3.83011
# Velocity P-wave (km/s) = 5.58748 6.55767 6.09192
#
# Compressibility (1/GPa) = 0.03959301
#
# Stress axis : x y z
#
# Youngs Moduli (GPa) = 64.19522 82.81371 52.00011
#
# Poissons Ratio (x) = 0.29113 0.00165
# Poissons Ratio (y) = 0.22568 0.00509
# Poissons Ratio (z) = 0.00204 0.00811
#
# Static dielectric constant tensor:
#      x y z
#    x 2.761980 -0.183950 -0.152540 
#    y -0.183950 3.456630 -0.089680 
#    z -0.152540 -0.089680 3.593100 
# 
# 
# High freq. dielectric constant tensor:
#      x y z
#    x 1.747420 0.007250 0.015470 
#    y 0.007250 1.746450 0.000690 
#    z 0.015470 0.000690 1.747170 
# 
# From -- ./inp_files/598586.got.cif
#   From: 2010.06.25/outbox.cif.g09.slc.cpg/sg2_300_cif.got.tgz:598586.got - 2010.06.27 13:26:56.
