data_PCOD8042247
_publ_section_title
;
Structure prediction by ZEFSAII (Michael W. Deem and Ramdas Pophale) SiO2 
 PCOD8042247
Probable space group: P -1
;
_chemical_formula_sum "Si O2"
_cell_formula_units_Z 14
_cell_length_a 15.106046
_cell_length_b 16.082082
_cell_length_c 16.879671
_cell_angle_alpha 18.061536
_cell_angle_beta 151.376831
_cell_angle_gamma 151.845437
_cell_volume 577.551811
_symmetry_space_group_name_H-M "P -1"
_symmetry_group_IT_number 2
_symmetry_cell_setting 'triclinic'
loop_
_space_group_symop_operation_xyz
x,y,z
-x,-y,-z
loop_
_atom_site_type_symbol
_atom_site_label
_atom_site_fract_x
_atom_site_fract_y
_atom_site_fract_z
Si Si1 0.677816 0.353684 0.095505
Si Si2 0.706772 0.960291 0.610027
Si Si3 0.755534 0.227413 0.567948
Si Si4 0.222791 0.989807 0.918804
Si Si5 0.217565 0.164802 0.920945
Si Si6 0.339694 0.480227 0.456563
Si Si7 0.983464 0.501704 0.078968
O O1 0.446354 0.252987 0.999364
O O2 0.761431 0.675187 0.901315
O O3 0.760672 0.164515 0.391096
O O4 0.767343 0.343733 0.086827
O O5 0.820080 0.126652 0.626037
O O6 0.475958 0.875088 0.518708
O O7 0.841939 0.568804 0.334404
O O8 0.841372 0.081806 0.837055
O O9 0.117316 0.052537 0.859002
O O10 0.359231 0.282467 0.723264
O O11 0.358840 0.792260 0.224009
O O12 0.055309 0.827009 0.872318
O O13 0.500000 0.500000 0.500000
O O14 0.130201 0.346437 0.370594
O O15 0.000000 0.500000 0.000000
#
# Coordination Sequence:
#
# PCOD8042247 Si02
#       7
#     2   2   2   2   2   2   2
#     4  10  21  35  58  88 120 156 196 247 299 346
#     4   9  18  34  56  88 123 153 192 247 295 344
#     4   9  17  32  58  90 119 153 198 241 289 348
#     4  10  23  40  60  87 120 159 191 253 293 358
#     4  10  19  34  60  91 118 155 199 244 289 352
#     4  10  23  41  63  86 112 161 200 252 296 353
#     4  10  26  43  62  89 120 161 200 251 302 359
#
# _framework density 24.24025
#
# number of rings (size 3 to 8) (size 9 to 14) (size 15 to 20)
#    0.857    1.429    0.000    2.143    4.000    4.000 
#    0.000    0.000    0.000    5.143    0.000    0.000 
#    0.000    0.000    0.000    0.000    0.000    0.000 
#
# Total GULP energy -173559.806868 kJ/mol
# GULP energy per Si atom -12397.129062 kJ/mol
# Density = 2.418508 g / cm^3
# Si number density = 24.240250 Si / 1000 Ang^3
#
#
#
# Elastic Constant Matrix: (Units=GPa)
#
#
# Indices 1 2 3 4 5 6 
#
# 1 118.5258 8.4144 31.2518 -5.6357 -8.3340 -27.8836
# 2 8.4144 61.1228 18.7284 -9.4508 -7.4254 -33.6234
# 3 31.2518 18.7284 162.3215 -29.6178 -24.8775 -17.2884
# 4 -5.6357 -9.4508 -29.6178 26.8461 -5.2073 -1.5510
# 5 -8.3340 -7.4254 -24.8775 -5.2073 42.3421 7.7670
# 6 -27.8836 -33.6234 -17.2884 -1.5510 7.7670 44.2990
#
#
#
# Elastic Compliance Matrix: (Units=1/GPa)
#
#
# Indices 1 2 3 4 5 6 
#
# 1 0.011048 0.005444 -0.000581 0.004482 0.001362 0.010778
# 2 0.005444 0.035649 0.002528 0.019344 0.005466 0.031191
# 3 -0.000581 0.002528 0.010005 0.013435 0.006997 0.004702
# 4 0.004482 0.019344 0.013435 0.064207 0.015994 0.022191
# 5 0.001362 0.005466 0.006997 0.015994 0.030377 0.002971
# 6 0.010778 0.031191 0.004702 0.022191 0.002971 0.055123
#
#
# Mechanical properties :
#
#
# Convention : Reuss Voigt Hill
#
# Bulk Modulus (GPa) = 13.98872 50.97323 32.48097
# Shear Modulus (GPa) = 23.20671 41.60246 32.40459
#
# Velocity S-wave (km/s) = 3.09748 4.14727 3.66021
# Velocity P-wave (km/s) = 4.30998 6.63378 5.59388
#
# Compressibility (1/GPa) = 0.07148618
#
# Stress axis : x y z
#
# Youngs Moduli (GPa) = 90.51377 28.05107 99.94600
#
# Poissons Ratio (x) = -0.15272 0.05804
# Poissons Ratio (y) = -0.49280 -0.25266
# Poissons Ratio (z) = 0.05256 -0.07091
#
# Static dielectric constant tensor:
#      x y z
#    x 4.325370 -0.064150 0.046620 
#    y -0.064150 4.145060 -0.081250 
#    z 0.046620 -0.081250 4.382750 
# 
# 
# High freq. dielectric constant tensor:
#      x y z
#    x 1.979870 0.006310 0.002780 
#    y 0.006310 1.950410 -0.004120 
#    z 0.002780 -0.004120 1.962960 
# 
# From -- ./inp_files/135747.got.cif
#   From: 2010.06.25/outbox.cif.g09.slc.cpg/sg2_68_cif.got.tgz:135747.got - 2010.06.27 13:26:56.
