data_PCOD8042436
_publ_section_title
;
Structure prediction by ZEFSAII (Michael W. Deem and Ramdas Pophale) SiO2 
 PCOD8042436
Probable space group: P -1
;
_chemical_formula_sum "Si O2"
_cell_formula_units_Z 16
_cell_length_a 12.866670
_cell_length_b 21.305171
_cell_length_c 14.856805
_cell_angle_alpha 151.416527
_cell_angle_beta 29.593143
_cell_angle_gamma 152.237704
_cell_volume 825.722451
_symmetry_space_group_name_H-M "P -1"
_symmetry_group_IT_number 2
_symmetry_cell_setting 'triclinic'
loop_
_space_group_symop_operation_xyz
x,y,z
-x,-y,-z
loop_
_atom_site_type_symbol
_atom_site_label
_atom_site_fract_x
_atom_site_fract_y
_atom_site_fract_z
Si Si1 0.683430 0.105457 0.070648
Si Si2 0.363241 0.926795 0.245618
Si Si3 0.093392 0.872495 0.640749
Si Si4 0.091220 0.084470 0.351667
Si Si5 0.388763 0.371379 0.229956
Si Si6 0.500103 0.838215 0.215467
Si Si7 0.768982 0.396472 0.108187
Si Si8 0.619496 0.352970 0.358209
O O1 0.761233 0.280022 0.210712
O O2 0.563863 0.064758 0.208537
O O3 0.500000 0.000000 0.000000
O O4 0.907617 0.073522 0.858720
O O5 0.486273 0.919425 0.236632
O O6 0.136014 0.952752 0.460451
O O7 0.264248 0.769789 0.068375
O O8 0.270760 0.803883 0.406932
O O9 0.949554 0.862474 0.646633
O O10 0.891097 0.767136 0.732747
O O11 0.247102 0.045912 0.779064
O O12 0.345277 0.221644 0.372311
O O13 0.529944 0.389128 0.238894
O O14 0.396699 0.531089 0.412731
O O15 0.515357 0.323634 0.995941
O O16 0.782242 0.448654 0.268172
O O17 0.000000 0.500000 0.000000
#
# Coordination Sequence:
#
# PCOD8042436 Si02
#       8
#     2   2   2   2   2   2   2   2
#     4  10  20  37  49  75 112 147 193 213 251 321
#     4  10  19  35  56  80 106 143 182 225 268 316
#     4  10  19  37  59  81 110 136 182 227 278 326
#     4  10  19  35  57  78 106 148 181 222 268 316
#     4  11  21  33  53  79 112 144 170 218 284 324
#     4   9  21  35  57  87 105 137 179 233 275 322
#     4  11  21  33  52  80 114 145 175 223 275 327
#     4  11  22  35  51  79 116 150 176 219 266 330
#
# _framework density 19.376971000000001
#
# number of rings (size 3 to 8) (size 9 to 14) (size 15 to 20)
#    0.000    1.750    3.750    2.250    5.250    2.000 
#    2.250    0.000    0.000    3.000    0.000    5.250 
#    0.000    0.000    0.000    0.000    0.000    0.000 
#
# Total GULP energy -198305.807010 kJ/mol
# GULP energy per Si atom -12394.112938 kJ/mol
# Density = 1.933287 g / cm^3
# Si number density = 19.376971 Si / 1000 Ang^3
#
#
#
# Elastic Constant Matrix: (Units=GPa)
#
#
# Indices 1 2 3 4 5 6 
#
# 1 13.6497 11.1946 9.4359 0.0047 -0.7565 1.5739
# 2 11.1946 46.9858 31.7414 6.8997 -11.0966 -0.9074
# 3 9.4359 31.7414 145.6918 18.0825 -12.9313 -5.1134
# 4 0.0047 6.8997 18.0825 31.9749 -2.2470 0.7550
# 5 -0.7565 -11.0966 -12.9313 -2.2470 27.9760 -1.5285
# 6 1.5739 -0.9074 -5.1134 0.7550 -1.5285 24.3911
#
#
#
# Elastic Compliance Matrix: (Units=1/GPa)
#
#
# Indices 1 2 3 4 5 6 
#
# 1 0.095217 -0.023814 -0.002774 0.006320 -0.008100 -0.008315
# 2 -0.023814 0.032804 -0.004088 -0.004103 0.010295 0.002672
# 3 -0.002774 -0.004088 0.008683 -0.003929 0.002117 0.002102
# 4 0.006320 -0.004103 -0.003929 0.034394 -0.000646 -0.002489
# 5 -0.008100 0.010295 0.002117 -0.000646 0.040750 0.003923
# 6 -0.008315 0.002672 0.002102 -0.002489 0.003923 0.042398
#
#
# Mechanical properties :
#
#
# Convention : Reuss Voigt Hill
#
# Bulk Modulus (GPa) = 13.27074 34.56345 23.91709
# Shear Modulus (GPa) = 14.67502 27.13208 20.90355
#
# Velocity S-wave (km/s) = 2.75497 3.74601 3.28805
# Velocity P-wave (km/s) = 4.12109 6.04866 5.17541
#
# Compressibility (1/GPa) = 0.07535375
#
# Stress axis : x y z
#
# Youngs Moduli (GPa) = 10.50228 30.48450 115.16348
#
# Poissons Ratio (x) = 0.72595 0.31945
# Poissons Ratio (y) = 0.25010 0.47076
# Poissons Ratio (z) = 0.02913 0.12461
#
# Static dielectric constant tensor:
#      x y z
#    x 3.396490 -0.043980 -0.134840 
#    y -0.043980 3.383850 -0.044610 
#    z -0.134840 -0.044610 4.107760 
# 
# 
# High freq. dielectric constant tensor:
#      x y z
#    x 1.718610 0.002350 -0.001460 
#    y 0.002350 1.722600 -0.010890 
#    z -0.001460 -0.010890 1.781130 
# 
# From -- ./inp_files/423410.got.cif
#   From: 2010.06.25/outbox.cif.g09.slc.cpg/sg2_212_cif.got.tgz:423410.got - 2010.06.27 13:26:56.
