data_PCOD8042150
_publ_section_title
;
Structure prediction by ZEFSAII (Michael W. Deem and Ramdas Pophale) SiO2 
 PCOD8042150
Probable space group: P -1
;
_chemical_formula_sum "Si O2"
_cell_formula_units_Z 14
_cell_length_a 8.441226
_cell_length_b 14.332071
_cell_length_c 17.750530
_cell_angle_alpha 158.877130
_cell_angle_beta 54.327919
_cell_angle_gamma 125.761904
_cell_volume 622.643513
_symmetry_space_group_name_H-M "P -1"
_symmetry_group_IT_number 2
_symmetry_cell_setting 'triclinic'
loop_
_space_group_symop_operation_xyz
x,y,z
-x,-y,-z
loop_
_atom_site_type_symbol
_atom_site_label
_atom_site_fract_x
_atom_site_fract_y
_atom_site_fract_z
Si Si1 0.209751 0.933375 0.370424
Si Si2 0.729322 0.816496 0.851072
Si Si3 0.489933 0.213244 0.256807
Si Si4 0.882985 0.019426 0.727112
Si Si5 0.608251 0.259335 0.530443
Si Si6 0.181357 0.656359 0.317203
Si Si7 0.094698 0.087544 0.867006
O O1 0.178324 0.817867 0.206622
O O2 0.262442 0.728433 0.264365
O O3 0.376480 0.191650 0.523492
O O4 0.000000 0.000000 0.500000
O O5 0.549007 0.765690 0.804912
O O6 0.714618 0.550535 0.701843
O O7 0.935091 0.880096 0.798091
O O8 0.685345 0.067327 0.103022
O O9 0.500000 0.500000 0.500000
O O10 0.318042 0.046702 0.223769
O O11 0.028178 0.168651 0.862042
O O12 0.980132 0.770928 0.481540
O O13 0.645331 0.233221 0.589911
O O14 0.710672 0.049604 0.296613
O O15 0.136174 0.344153 0.099521
#
# Coordination Sequence:
#
# PCOD8042150 Si02
#       7
#     2   2   2   2   2   2   2
#     4  10  22  41  64  87 118 161 206 256 302 349
#     4  10  22  37  60  91 124 159 196 245 300 362
#     4  10  19  34  58  89 122 154 197 247 298 353
#     4   9  20  38  60  88 118 156 202 250 298 353
#     4  11  23  40  61  90 125 161 202 245 301 365
#     4  10  22  40  62  87 124 162 201 251 300 354
#     4  10  22  40  61  91 125 160 201 245 302 364
#
# _framework density 22.484776
#
# number of rings (size 3 to 8) (size 9 to 14) (size 15 to 20)
#    0.000    2.000    0.000    2.571    0.000    9.714 
#    0.000    2.857    0.000    0.000    0.000    0.000 
#    0.000    0.000    0.000    0.000    0.000    0.000 
#
# Total GULP energy -173439.883362 kJ/mol
# GULP energy per Si atom -12388.563097 kJ/mol
# Density = 2.243360 g / cm^3
# Si number density = 22.484776 Si / 1000 Ang^3
#
#
#
# Elastic Constant Matrix: (Units=GPa)
#
#
# Indices 1 2 3 4 5 6 
#
# 1 92.8674 41.2467 20.4230 -10.4949 2.8967 7.9450
# 2 41.2467 90.9956 17.6078 -4.6927 0.0585 -3.7254
# 3 20.4230 17.6078 107.4563 -9.8766 -1.7331 9.2861
# 4 -10.4949 -4.6927 -9.8766 29.5613 0.7062 3.2333
# 5 2.8967 0.0585 -1.7331 0.7062 21.9883 3.0634
# 6 7.9450 -3.7254 9.2861 3.2333 3.0634 31.9370
#
#
#
# Elastic Compliance Matrix: (Units=1/GPa)
#
#
# Indices 1 2 3 4 5 6 
#
# 1 0.014782 -0.006463 -0.000985 0.004416 -0.001530 -0.004445
# 2 -0.006463 0.014322 -0.001531 -0.000953 0.000194 0.003802
# 3 -0.000985 -0.001531 0.010354 0.003206 0.001320 -0.003395
# 4 0.004416 -0.000953 0.003206 0.036969 -0.000703 -0.005817
# 5 -0.001530 0.000194 0.001320 -0.000703 0.046414 -0.004361
# 6 -0.004445 0.003802 -0.003395 -0.005817 -0.004361 0.034855
#
#
# Mechanical properties :
#
#
# Convention : Reuss Voigt Hill
#
# Bulk Modulus (GPa) = 46.51518 49.98604 48.25061
# Shear Modulus (GPa) = 27.34904 30.83344 29.09124
#
# Velocity S-wave (km/s) = 3.49138 3.70713 3.60087
# Velocity P-wave (km/s) = 6.08156 6.37205 6.22850
#
# Compressibility (1/GPa) = 0.02149836
#
# Stress axis : x y z
#
# Youngs Moduli (GPa) = 67.64817 69.82306 96.58415
#
# Poissons Ratio (x) = 0.45128 0.09515
# Poissons Ratio (y) = 0.43723 0.14791
# Poissons Ratio (z) = 0.06664 0.10693
#
# Static dielectric constant tensor:
#      x y z
#    x 4.368350 -0.562030 0.124730 
#    y -0.562030 4.278820 -0.221430 
#    z 0.124730 -0.221430 3.969180 
# 
# 
# High freq. dielectric constant tensor:
#      x y z
#    x 1.886350 -0.010100 0.004100 
#    y -0.010100 1.890130 -0.018110 
#    z 0.004100 -0.018110 1.868860 
# 
# From -- ./inp_files/47133.got.cif
#   From: 2010.06.25/outbox.cif.g09.slc.cpg/sg2_24_cif.got.tgz:47133.got - 2010.06.27 13:26:56.
