data_PCOD8042898
_publ_section_title
;
Structure prediction by ZEFSAII (Michael W. Deem and Ramdas Pophale) SiO2 
 PCOD8042898
Probable space group: P -1
;
_chemical_formula_sum "Si O2"
_cell_formula_units_Z 16
_cell_length_a 18.014532
_cell_length_b 9.596845
_cell_length_c 21.159819
_cell_angle_alpha 143.322943
_cell_angle_beta 160.079875
_cell_angle_gamma 37.191528
_cell_volume 727.977950
_symmetry_space_group_name_H-M "P -1"
_symmetry_group_IT_number 2
_symmetry_cell_setting 'triclinic'
loop_
_space_group_symop_operation_xyz
x,y,z
-x,-y,-z
loop_
_atom_site_type_symbol
_atom_site_label
_atom_site_fract_x
_atom_site_fract_y
_atom_site_fract_z
Si Si1 0.122538 0.720003 0.111270
Si Si2 0.039452 0.218935 0.268766
Si Si3 0.295693 0.463914 0.277850
Si Si4 0.367592 0.362503 0.890018
Si Si5 0.369474 0.869306 0.645429
Si Si6 0.407306 0.485429 0.638055
Si Si7 0.308587 0.592799 0.735316
Si Si8 0.872997 0.837938 0.540704
O O1 0.215017 0.681263 0.243561
O O2 0.330060 0.631309 0.198600
O O3 0.014782 0.003554 0.124036
O O4 0.926692 0.584556 0.883729
O O5 0.277553 0.271111 0.458940
O O6 0.023826 0.134574 0.298295
O O7 0.858022 0.463240 0.203667
O O8 0.500000 0.500000 0.500000
O O9 0.379469 0.231773 0.214956
O O10 0.328614 0.122644 0.739539
O O11 0.500000 0.500000 0.000000
O O12 0.519384 0.286486 0.044950
O O13 0.308410 0.667115 0.568400
O O14 0.225029 0.905846 0.477519
O O15 0.362423 0.633786 0.720743
O O16 0.323691 0.313174 0.664112
O O17 0.054888 0.712816 0.590309
#
# Coordination Sequence:
#
# PCOD8042898 Si02
#       8
#     2   2   2   2   2   2   2   2
#     4  10  22  43  68  93 130 175 216 266 329 383
#     4  11  22  40  69  93 130 173 214 269 319 384
#     4  10  22  42  68  99 126 165 224 274 319 384
#     4  12  21  37  64  96 126 163 224 271 316 382
#     4  11  22  39  65  94 126 167 209 269 330 382
#     4  10  24  43  60  92 138 172 213 260 327 390
#     4  10  21  38  57  92 128 168 215 263 317 387
#     4  10  19  35  64  90 122 168 218 262 317 378
#
# _framework density 21.978687999999998
#
# number of rings (size 3 to 8) (size 9 to 14) (size 15 to 20)
#    0.000    1.500    2.500    3.375    0.000    2.500 
#    6.750    0.625    0.000    0.000    0.000    0.000 
#    0.000    0.000    0.000    0.000    0.000    0.000 
#
# Total GULP energy -198248.266040 kJ/mol
# GULP energy per Si atom -12390.516627 kJ/mol
# Density = 2.192866 g / cm^3
# Si number density = 21.978688 Si / 1000 Ang^3
#
#
#
# Elastic Constant Matrix: (Units=GPa)
#
#
# Indices 1 2 3 4 5 6 
#
# 1 97.8534 26.3754 27.0968 -5.4598 26.0517 7.0783
# 2 26.3754 97.4453 10.5891 -4.2635 9.5525 -11.8170
# 3 27.0968 10.5891 102.9799 -5.1894 11.2297 -0.9212
# 4 -5.4598 -4.2635 -5.1894 22.3861 0.2585 -2.6169
# 5 26.0517 9.5525 11.2297 0.2585 36.1855 -13.4127
# 6 7.0783 -11.8170 -0.9212 -2.6169 -13.4127 28.6459
#
#
#
# Elastic Compliance Matrix: (Units=1/GPa)
#
#
# Indices 1 2 3 4 5 6 
#
# 1 0.017225 -0.004431 -0.002445 0.001420 -0.015390 -0.013239
# 2 -0.004431 0.012225 -0.000231 0.002056 0.002858 0.007657
# 3 -0.002445 -0.000231 0.010623 0.001884 -0.001343 0.000394
# 4 0.001420 0.002056 0.001884 0.046369 -0.000852 0.004395
# 5 -0.015390 0.002858 -0.001343 -0.000852 0.048624 0.027628
# 6 -0.013239 0.007657 0.000394 0.004395 0.027628 0.054689
#
#
# Mechanical properties :
#
#
# Convention : Reuss Voigt Hill
#
# Bulk Modulus (GPa) = 38.67236 47.37791 43.02514
# Shear Modulus (GPa) = 23.51961 33.05799 28.28880
#
# Velocity S-wave (km/s) = 3.27480 3.88247 3.59151
# Velocity P-wave (km/s) = 5.65090 6.45765 6.06770
#
# Compressibility (1/GPa) = 0.02585826
#
# Stress axis : x y z
#
# Youngs Moduli (GPa) = 58.05477 81.80015 94.13862
#
# Poissons Ratio (x) = 0.36248 0.23020
# Poissons Ratio (y) = 0.25725 0.02171
# Poissons Ratio (z) = 0.14196 0.01886
#
# Static dielectric constant tensor:
#      x y z
#    x 4.088650 -0.059980 -0.091830 
#    y -0.059980 4.102430 -0.133790 
#    z -0.091830 -0.133790 3.945110 
# 
# 
# High freq. dielectric constant tensor:
#      x y z
#    x 1.860850 -0.012800 0.004000 
#    y -0.012800 1.865410 -0.010290 
#    z 0.004000 -0.010290 1.848810 
# 
# From -- ./inp_files/594242.got.cif
#   From: 2010.06.25/outbox.cif.g09.slc.cpg/sg2_298_cif.got.tgz:594242.got - 2010.06.27 13:26:56.
