data_PCOD8042567
_publ_section_title
;
Structure prediction by ZEFSAII (Michael W. Deem and Ramdas Pophale) SiO2 
 PCOD8042567
Probable space group: P -1
;
_chemical_formula_sum "Si O2"
_cell_formula_units_Z 16
_cell_length_a 11.855667
_cell_length_b 8.394491
_cell_length_c 11.610785
_cell_angle_alpha 53.025675
_cell_angle_beta 131.310966
_cell_angle_gamma 113.631933
_cell_volume 693.406654
_symmetry_space_group_name_H-M "P -1"
_symmetry_group_IT_number 2
_symmetry_cell_setting 'triclinic'
loop_
_space_group_symop_operation_xyz
x,y,z
-x,-y,-z
loop_
_atom_site_type_symbol
_atom_site_label
_atom_site_fract_x
_atom_site_fract_y
_atom_site_fract_z
Si Si1 0.825895 0.932527 0.768573
Si Si2 0.251538 0.508277 0.060381
Si Si3 0.333215 0.042208 0.132153
Si Si4 0.782428 0.886834 0.409537
Si Si5 0.951438 0.128350 0.236095
Si Si6 0.329647 0.449793 0.884100
Si Si7 0.639393 0.169596 0.369523
Si Si8 0.507593 0.348978 0.676622
O O1 0.800463 0.698640 0.828280
O O2 0.815257 0.987533 0.873564
O O3 0.983604 0.979001 0.789661
O O4 0.695014 0.064637 0.567015
O O5 0.419319 0.551376 0.204432
O O6 0.139800 0.681101 0.951156
O O7 0.240264 0.501858 0.917957
O O8 0.457491 0.150549 0.252942
O O9 0.387313 0.838411 0.203132
O O10 0.301302 0.213740 0.938539
O O11 0.661938 0.712361 0.378828
O O12 0.915014 0.805305 0.616002
O O13 0.845188 0.965605 0.296392
O O14 0.696806 0.064989 0.337346
O O15 0.290281 0.603864 0.687093
O O16 0.500000 0.500000 0.000000
O O17 0.500000 0.500000 0.500000
#
# Coordination Sequence:
#
# PCOD8042567 Si02
#       8
#     2   2   2   2   2   2   2   2
#     4  10  20  33  59  87 114 152 200 238 283 344
#     4  11  21  36  60  91 117 153 198 240 292 345
#     4   9  19  34  53  82 116 149 195 240 288 340
#     4   9  19  35  57  87 118 150 194 242 290 340
#     4  10  19  35  58  86 119 154 200 237 279 351
#     4   9  18  33  54  85 114 146 192 244 290 335
#     4   9  15  31  53  80 112 142 191 246 285 325
#     4  11  23  39  60  89 122 153 189 246 303 341
#
# _framework density 23.074482
#
# number of rings (size 3 to 8) (size 9 to 14) (size 15 to 20)
#    0.000    2.250    1.250    3.000    0.000    2.500 
#    0.000    0.625    0.000    0.750    0.000    0.000 
#    0.000    0.000    0.000    0.000    0.000    0.000 
#
# Total GULP energy -198263.900294 kJ/mol
# GULP energy per Si atom -12391.493768 kJ/mol
# Density = 2.302196 g / cm^3
# Si number density = 23.074482 Si / 1000 Ang^3
#
#
#
# Elastic Constant Matrix: (Units=GPa)
#
#
# Indices 1 2 3 4 5 6 
#
# 1 97.7559 17.0063 4.8709 -4.1304 -8.5845 22.5081
# 2 17.0063 65.3483 30.2445 -14.3624 -10.3729 10.9091
# 3 4.8709 30.2445 96.8038 -30.3344 -6.1542 7.7661
# 4 -4.1304 -14.3624 -30.3344 36.2182 8.8030 -4.4494
# 5 -8.5845 -10.3729 -6.1542 8.8030 28.3000 -5.1590
# 6 22.5081 10.9091 7.7661 -4.4494 -5.1590 23.6920
#
#
#
# Elastic Compliance Matrix: (Units=1/GPa)
#
#
# Indices 1 2 3 4 5 6 
#
# 1 0.013341 -0.001686 0.000813 -0.000299 0.001532 -0.011887
# 2 -0.001686 0.019882 -0.004848 0.002028 0.004241 -0.004659
# 3 0.000813 -0.004848 0.015369 0.011308 -0.002052 -0.001901
# 4 -0.000299 0.002028 0.011308 0.040231 -0.009184 0.001199
# 5 0.001532 0.004241 -0.002052 -0.009184 0.040563 0.004373
# 6 -0.011887 -0.004659 -0.001901 0.001199 0.004373 0.057447
#
#
# Mechanical properties :
#
#
# Convention : Reuss Voigt Hill
#
# Bulk Modulus (GPa) = 26.91785 40.46127 33.68956
# Shear Modulus (GPa) = 23.73495 31.49446 27.61471
#
# Velocity S-wave (km/s) = 3.21070 3.69847 3.46318
# Velocity P-wave (km/s) = 5.04338 5.98426 5.53385
#
# Compressibility (1/GPa) = 0.03715006
#
# Stress axis : x y z
#
# Youngs Moduli (GPa) = 74.95523 50.29680 65.06413
#
# Poissons Ratio (x) = 0.08482 -0.05289
# Poissons Ratio (y) = 0.12640 0.31542
# Poissons Ratio (z) = -0.06093 0.24383
#
# Static dielectric constant tensor:
#      x y z
#    x 4.365840 0.219200 -0.002710 
#    y 0.219200 4.045890 -0.532190 
#    z -0.002710 -0.532190 4.316120 
# 
# 
# High freq. dielectric constant tensor:
#      x y z
#    x 1.922460 0.009400 -0.003330 
#    y 0.009400 1.878930 -0.033340 
#    z -0.003330 -0.033340 1.908430 
# 
# From -- ./inp_files/419016.got.cif
#   From: 2010.06.25/outbox.cif.g09.slc.cpg/sg2_210_cif.got.tgz:419016.got - 2010.06.27 13:26:56.
