data_PCOD8042011
_publ_section_title
;
Structure prediction by ZEFSAII (Michael W. Deem and Ramdas Pophale) SiO2 
 PCOD8042011
Probable space group: P -1
;
_chemical_formula_sum "Si O2"
_cell_formula_units_Z 16
_cell_length_a 5.056805
_cell_length_b 10.057826
_cell_length_c 27.390619
_cell_angle_alpha 34.267335
_cell_angle_beta 90.015144
_cell_angle_gamma 88.278396
_cell_volume 783.257960
_symmetry_space_group_name_H-M "P -1"
_symmetry_group_IT_number 2
_symmetry_cell_setting 'triclinic'
loop_
_space_group_symop_operation_xyz
x,y,z
-x,-y,-z
loop_
_atom_site_type_symbol
_atom_site_label
_atom_site_fract_x
_atom_site_fract_y
_atom_site_fract_z
Si Si1 0.220222 0.523260 0.429717
Si Si2 0.233720 0.128657 0.134085
Si Si3 0.737646 0.112763 0.075925
Si Si4 0.808759 0.568653 0.246649
Si Si5 0.294369 0.220720 0.611769
Si Si6 0.213001 0.475145 0.117876
Si Si7 0.694915 0.415899 0.695260
Si Si8 0.716601 0.331960 0.218233
O O1 0.261106 0.289153 0.533965
O O2 0.415268 0.721935 0.387169
O O3 0.275750 0.444295 0.397918
O O4 0.920358 0.629796 0.401295
O O5 0.445382 0.170779 0.079020
O O6 0.285562 0.295423 0.128748
O O7 0.943943 0.190696 0.093321
O O8 0.259040 0.860252 0.234180
O O9 0.785349 0.837863 0.145755
O O10 0.773536 0.257395 0.982415
O O11 0.595420 0.525520 0.301556
O O12 0.772140 0.394869 0.254758
O O13 0.095489 0.505324 0.288743
O O14 0.253453 0.947897 0.702316
O O15 0.422686 0.431309 0.174594
O O16 0.921294 0.445764 0.147245
#
# Coordination Sequence:
#
# PCOD8042011 Si02
#       8
#     2   2   2   2   2   2   2   2
#     4  10  20  37  63  88 110 139 177 220 279 335
#     4  10  19  34  56  82 109 133 178 238 281 318
#     4  10  21  37  55  79 110 144 184 230 272 317
#     4  10  23  38  54  77 112 150 187 228 260 312
#     4  10  21  37  58  88 118 137 169 229 278 324
#     4  12  23  35  58  81 108 148 184 227 278 327
#     4  10  19  36  58  79 105 145 186 222 272 324
#     4  12  24  38  54  80 114 148 185 222 270 321
#
# _framework density 20.427499000000001
#
# number of rings (size 3 to 8) (size 9 to 14) (size 15 to 20)
#    0.000    1.500    0.000    6.000    0.000    3.000 
#    0.000    1.250    0.000    0.000    0.000    0.000 
#    0.000    0.000    0.000    0.000    0.000    0.000 
#
# Total GULP energy -198518.387860 kJ/mol
# GULP energy per Si atom -12407.399241 kJ/mol
# Density = 2.038101 g / cm^3
# Si number density = 20.427499 Si / 1000 Ang^3
#
#
#
# Elastic Constant Matrix: (Units=GPa)
#
#
# Indices 1 2 3 4 5 6 
#
# 1 79.1212 -5.4523 16.8244 -6.7418 -8.1129 5.9568
# 2 -5.4523 34.4312 6.8747 9.9748 -1.5594 5.0679
# 3 16.8244 6.8747 83.3904 19.5749 -13.5230 -4.8854
# 4 -6.7418 9.9748 19.5749 13.1469 -1.7944 -0.6642
# 5 -8.1129 -1.5594 -13.5230 -1.7944 25.3049 2.1610
# 6 5.9568 5.0679 -4.8854 -0.6642 2.1610 19.1526
#
#
#
# Elastic Compliance Matrix: (Units=1/GPa)
#
#
# Indices 1 2 3 4 5 6 
#
# 1 0.017090 -0.000863 -0.008470 0.022102 0.003050 -0.006825
# 2 -0.000863 0.041428 0.006481 -0.041568 0.003723 -0.010902
# 3 -0.008470 0.006481 0.025462 -0.045883 0.007613 0.004964
# 4 0.022102 -0.041568 -0.045883 0.186314 -0.006754 -0.000355
# 5 0.003050 0.003723 0.007613 -0.006754 0.044766 -0.005277
# 6 -0.006825 -0.010902 0.004964 -0.000355 -0.005277 0.059069
#
#
# Mechanical properties :
#
#
# Convention : Reuss Voigt Hill
#
# Bulk Modulus (GPa) = 12.77504 25.93738 19.35621
# Shear Modulus (GPa) = 12.31753 23.43394 17.87574
#
# Velocity S-wave (km/s) = 2.45825 3.39067 2.96139
# Velocity P-wave (km/s) = 3.78480 5.29658 4.60318
#
# Compressibility (1/GPa) = 0.07827767
#
# Stress axis : x y z
#
# Youngs Moduli (GPa) = 58.51249 24.13803 39.27365
#
# Poissons Ratio (x) = 0.02082 0.33266
# Poissons Ratio (y) = 0.05048 -0.25455
# Poissons Ratio (z) = 0.49562 -0.15645
#
# Static dielectric constant tensor:
#      x y z
#    x 3.898550 0.083330 -0.083510 
#    y 0.083330 3.386260 0.049010 
#    z -0.083510 0.049010 3.763740 
# 
# 
# High freq. dielectric constant tensor:
#      x y z
#    x 1.818840 0.006070 -0.006200 
#    y 0.006070 1.773740 0.011960 
#    z -0.006200 0.011960 1.800020 
# 
# From -- ./inp_files/80774.got.cif
#   From: 2010.06.25/outbox.cif.g09.slc.cpg/sg2_41_cif.got.tgz:80774.got - 2010.06.27 13:26:56.
