data_PCOD8042187
_publ_section_title
;
Structure prediction by ZEFSAII (Michael W. Deem and Ramdas Pophale) SiO2 
 PCOD8042187
Probable space group: P -1
;
_chemical_formula_sum "Si O2"
_cell_formula_units_Z 16
_cell_length_a 13.774555
_cell_length_b 8.441445
_cell_length_c 11.402885
_cell_angle_alpha 104.246806
_cell_angle_beta 148.185440
_cell_angle_gamma 90.424123
_cell_volume 613.639332
_symmetry_space_group_name_H-M "P -1"
_symmetry_group_IT_number 2
_symmetry_cell_setting 'triclinic'
loop_
_space_group_symop_operation_xyz
x,y,z
-x,-y,-z
loop_
_atom_site_type_symbol
_atom_site_label
_atom_site_fract_x
_atom_site_fract_y
_atom_site_fract_z
Si Si1 0.280094 0.822529 0.634906
Si Si2 0.182746 0.346948 0.879913
Si Si3 0.487895 0.961206 0.625813
Si Si4 0.169733 0.374367 0.236964
Si Si5 0.258387 0.639065 0.176169
Si Si6 0.889633 0.933130 0.048588
Si Si7 0.335205 0.239735 0.575682
Si Si8 0.599408 0.774470 0.104310
O O1 0.370704 0.851482 0.601152
O O2 0.048448 0.679226 0.371370
O O3 0.290039 0.008300 0.732483
O O4 0.390519 0.729979 0.813069
O O5 0.199244 0.209297 0.965098
O O6 0.264505 0.309663 0.835288
O O7 0.312971 0.555512 0.097456
O O8 0.392278 0.846752 0.388097
O O9 0.468312 0.150079 0.631905
O O10 0.729444 0.020423 0.887424
O O11 0.295533 0.525614 0.299959
O O12 0.317730 0.393346 0.502964
O O13 0.095670 0.171063 0.073115
O O14 0.976366 0.403420 0.085470
O O15 0.107495 0.084488 0.335094
O O16 0.435304 0.316978 0.818905
#
# Coordination Sequence:
#
# PCOD8042187 Si02
#       8
#     2   2   2   2   2   2   2   2
#     4  10  19  34  59  88 123 155 200 257 286 357
#     4  11  20  37  60  91 119 160 206 245 299 357
#     4  11  21  38  63  97 119 154 210 248 306 357
#     4  10  21  41  62  88 124 163 197 248 317 355
#     4  10  22  41  66  88 120 165 203 248 301 371
#     4  11  21  35  64  94 120 158 197 254 306 359
#     4  11  23  40  62  90 130 156 196 260 309 351
#     4  10  21  34  58  89 121 160 203 246 298 356
#
# _framework density 26.07395
#
# number of rings (size 3 to 8) (size 9 to 14) (size 15 to 20)
#    0.000    1.500    5.000    2.250    0.000    2.500 
#    2.250    0.625    0.000    3.000    0.000    0.000 
#    0.000    0.000    0.000    0.000    0.000    0.000 
#
# Total GULP energy -198443.052317 kJ/mol
# GULP energy per Si atom -12402.690770 kJ/mol
# Density = 2.601460 g / cm^3
# Si number density = 26.073950 Si / 1000 Ang^3
#
#
#
# Elastic Constant Matrix: (Units=GPa)
#
#
# Indices 1 2 3 4 5 6 
#
# 1 159.6992 55.5795 51.2911 -10.6026 -34.0193 -36.7516
# 2 55.5795 94.1810 53.8237 -11.5170 -8.4156 -6.3215
# 3 51.2911 53.8237 123.2976 -25.9142 -13.8457 -14.1725
# 4 -10.6026 -11.5170 -25.9142 59.5990 2.3195 -5.7794
# 5 -34.0193 -8.4156 -13.8457 2.3195 45.3749 -9.2794
# 6 -36.7516 -6.3215 -14.1725 -5.7794 -9.2794 43.6073
#
#
#
# Elastic Compliance Matrix: (Units=1/GPa)
#
#
# Indices 1 2 3 4 5 6 
#
# 1 0.014573 -0.006383 0.000318 0.002408 0.012676 0.014476
# 2 -0.006383 0.016972 -0.006178 -0.000946 -0.004712 -0.006055
# 3 0.000318 -0.006178 0.012639 0.004688 0.003710 0.004891
# 4 0.002408 -0.000946 0.004688 0.019583 0.003438 0.006743
# 5 0.012676 -0.004712 0.003710 0.003438 0.035557 0.019228
# 6 0.014476 -0.006055 0.004891 0.006743 0.019228 0.040829
#
#
# Mechanical properties :
#
#
# Convention : Reuss Voigt Hill
#
# Bulk Modulus (GPa) = 50.76562 77.61850 64.19206
# Shear Modulus (GPa) = 29.20502 44.14847 36.67674
#
# Velocity S-wave (km/s) = 3.35040 4.11932 3.75459
# Velocity P-wave (km/s) = 5.87188 7.24281 6.59307
#
# Compressibility (1/GPa) = 0.01969837
#
# Stress axis : x y z
#
# Youngs Moduli (GPa) = 68.62196 58.92155 79.11940
#
# Poissons Ratio (x) = 0.37607 -0.02512
# Poissons Ratio (y) = 0.43798 0.48876
# Poissons Ratio (z) = -0.02179 0.36399
#
# Static dielectric constant tensor:
#      x y z
#    x 4.721550 -0.113830 -0.213580 
#    y -0.113830 4.777030 -0.178780 
#    z -0.213580 -0.178780 4.799920 
# 
# 
# High freq. dielectric constant tensor:
#      x y z
#    x 2.058480 -0.002400 0.000740 
#    y -0.002400 2.055720 -0.006970 
#    z 0.000740 -0.006970 2.048740 
# 
# From -- ./inp_files/447965.got.cif
#   From: 2010.06.25/outbox.cif.g09.slc.cpg/sg2_224_cif.got.tgz:447965.got - 2010.06.27 13:26:56.
