data_PCOD8042241
_publ_section_title
;
Structure prediction by ZEFSAII (Michael W. Deem and Ramdas Pophale) SiO2 
 PCOD8042241
Probable space group: P -1
;
_chemical_formula_sum "Si O2"
_cell_formula_units_Z 16
_cell_length_a 8.518905
_cell_length_b 12.499709
_cell_length_c 12.114174
_cell_angle_alpha 58.206381
_cell_angle_beta 128.999865
_cell_angle_gamma 132.900333
_cell_volume 723.295873
_symmetry_space_group_name_H-M "P -1"
_symmetry_group_IT_number 2
_symmetry_cell_setting 'triclinic'
loop_
_space_group_symop_operation_xyz
x,y,z
-x,-y,-z
loop_
_atom_site_type_symbol
_atom_site_label
_atom_site_fract_x
_atom_site_fract_y
_atom_site_fract_z
Si Si1 0.673491 0.486031 0.407345
Si Si2 0.799757 0.482134 0.006458
Si Si3 0.765355 0.045041 0.085259
Si Si4 0.102838 0.897784 0.120943
Si Si5 0.308471 0.260494 0.828634
Si Si6 0.477258 0.098312 0.343501
Si Si7 0.873477 0.419813 0.316375
Si Si8 0.233910 0.261151 0.243774
O O1 0.659984 0.632761 0.316942
O O2 0.752051 0.463142 0.333570
O O3 0.405007 0.339415 0.384606
O O4 0.847302 0.504049 0.572256
O O5 0.879284 0.489141 0.163560
O O6 0.556873 0.322187 0.969168
O O7 0.730583 0.604862 0.891071
O O8 0.000000 0.500000 0.000000
O O9 0.779532 0.899764 0.171916
O O10 0.949673 0.154541 0.202766
O O11 0.500000 0.000000 0.000000
O O12 0.856839 0.145037 0.959593
O O13 0.903228 0.754062 0.178225
O O14 0.356891 0.988664 0.246055
O O15 0.000000 0.000000 0.000000
O O16 0.737209 0.239939 0.350115
O O17 0.305923 0.157136 0.269599
O O18 0.500000 0.000000 0.500000
#
# Coordination Sequence:
#
# PCOD8042241 Si02
#       8
#     2   2   2   2   2   2   2   2
#     4   9  21  37  60  92 122 158 204 266 316 371
#     4  11  24  40  64  90 129 171 213 262 316 378
#     4  11  22  36  61  91 128 161 210 264 313 376
#     4  10  19  34  60  90 116 159 209 258 314 360
#     4  10  20  37  62  86 121 162 211 261 316 371
#     4  11  21  37  64  97 127 160 207 270 318 370
#     4  10  21  37  63  93 127 161 213 259 317 374
#     4  10  22  39  59  93 125 162 212 262 311 374
#
# _framework density 22.120958999999999
#
# number of rings (size 3 to 8) (size 9 to 14) (size 15 to 20)
#    0.000    1.750    2.500    3.000    3.500    2.500 
#    0.000    2.500    2.750    3.000    0.000    0.000 
#    0.000    0.000    0.000    0.000    0.000    0.000 
#
# Total GULP energy -198239.425838 kJ/mol
# GULP energy per Si atom -12389.964115 kJ/mol
# Density = 2.207061 g / cm^3
# Si number density = 22.120959 Si / 1000 Ang^3
#
#
#
# Elastic Constant Matrix: (Units=GPa)
#
#
# Indices 1 2 3 4 5 6 
#
# 1 54.2324 20.2826 18.7306 4.2787 9.1782 17.8903
# 2 20.2826 153.8168 45.2661 34.2599 19.0825 28.3470
# 3 18.7306 45.2661 122.1576 22.6134 16.8857 0.9913
# 4 4.2787 34.2599 22.6134 47.2311 5.1581 18.0497
# 5 9.1782 19.0825 16.8857 5.1581 23.3746 4.7731
# 6 17.8903 28.3470 0.9913 18.0497 4.7731 28.8471
#
#
#
# Elastic Compliance Matrix: (Units=1/GPa)
#
#
# Indices 1 2 3 4 5 6 
#
# 1 0.027359 0.000687 -0.005138 0.008394 -0.004973 -0.021895
# 2 0.000687 0.009632 -0.002579 -0.002466 -0.004181 -0.007568
# 3 -0.005138 -0.002579 0.011782 -0.006710 -0.005020 0.010345
# 4 0.008394 -0.002466 -0.006710 0.034627 0.000899 -0.024367
# 5 -0.004973 -0.004181 -0.005020 0.000899 0.051941 -0.001792
# 6 -0.021895 -0.007568 0.010345 -0.024367 -0.001792 0.070869
#
#
# Mechanical properties :
#
#
# Convention : Reuss Voigt Hill
#
# Bulk Modulus (GPa) = 28.80805 55.41837 42.11321
# Shear Modulus (GPa) = 21.56649 36.28574 28.92611
#
# Velocity S-wave (km/s) = 3.12578 4.05450 3.62004
# Velocity P-wave (km/s) = 5.10672 6.85751 6.04582
#
# Compressibility (1/GPa) = 0.03471252
#
# Stress axis : x y z
#
# Youngs Moduli (GPa) = 36.55085 103.81926 84.87739
#
# Poissons Ratio (x) = -0.07132 0.43613
# Poissons Ratio (y) = -0.02511 0.21888
# Poissons Ratio (z) = 0.18781 0.26773
#
# Static dielectric constant tensor:
#      x y z
#    x 4.392080 0.605370 -0.056020 
#    y 0.605370 4.613150 0.008370 
#    z -0.056020 0.008370 4.033800 
# 
# 
# High freq. dielectric constant tensor:
#      x y z
#    x 1.825810 0.005730 0.027550 
#    y 0.005730 1.901210 0.015580 
#    z 0.027550 0.015580 1.859990 
# 
# From -- ./inp_files/398670.got.cif
#   From: 2010.06.25/outbox.cif.g09.slc.cpg/sg2_200_cif.got.tgz:398670.got - 2010.06.27 13:26:56.
