data_PCOD8043140
_publ_section_title
;
Structure prediction by ZEFSAII (Michael W. Deem and Ramdas Pophale) SiO2 
 PCOD8043140
Probable space group: P -1
;
_chemical_formula_sum "Si O2"
_cell_formula_units_Z 16
_cell_length_a 9.043415
_cell_length_b 9.437571
_cell_length_c 12.568444
_cell_angle_alpha 74.287298
_cell_angle_beta 125.486460
_cell_angle_gamma 114.455796
_cell_volume 794.403539
_symmetry_space_group_name_H-M "P -1"
_symmetry_group_IT_number 2
_symmetry_cell_setting 'triclinic'
loop_
_space_group_symop_operation_xyz
x,y,z
-x,-y,-z
loop_
_atom_site_type_symbol
_atom_site_label
_atom_site_fract_x
_atom_site_fract_y
_atom_site_fract_z
Si Si1 0.187156 0.493822 0.142784
Si Si2 0.738264 0.654541 0.163544
Si Si3 0.468815 0.795141 0.107159
Si Si4 0.911396 0.351316 0.564596
Si Si5 0.031218 0.834840 0.557648
Si Si6 0.396117 0.339130 0.119069
Si Si7 0.604260 0.134528 0.167197
Si Si8 0.725145 0.531045 0.578103
O O1 0.346591 0.660991 0.160558
O O2 0.264647 0.356281 0.159168
O O3 0.162777 0.463807 0.264616
O O4 0.000000 0.500000 0.000000
O O5 0.683122 0.784790 0.183384
O O6 0.579178 0.491304 0.154676
O O7 0.946640 0.654981 0.280381
O O8 0.744925 0.691039 0.034526
O O9 0.478691 0.955948 0.132399
O O10 0.373159 0.771861 0.953919
O O11 0.870570 0.199306 0.503985
O O12 0.731501 0.380996 0.542036
O O13 0.000000 0.500000 0.500000
O O14 0.181678 0.845266 0.711823
O O15 0.832264 0.695424 0.528994
O O16 0.000000 0.000000 0.500000
O O17 0.485296 0.198214 0.192304
O O18 0.500000 0.500000 0.500000
#
# Coordination Sequence:
#
# PCOD8043140 Si02
#       8
#     2   2   2   2   2   2   2   2
#     4  11  22  38  61  84 123 155 198 240 316 350
#     4   9  16  32  54  83 112 144 212 234 292 335
#     4   9  20  34  62  87 115 154 188 260 291 361
#     4  10  21  36  59  82 118 163 201 243 286 364
#     4  11  24  40  65  87 119 162 208 248 290 364
#     4   9  18  30  58  83 108 154 191 258 279 360
#     4  10  19  36  58  90 116 144 211 242 299 338
#     4  11  26  40  60  91 128 157 202 249 309 364
#
# _framework density 20.140896999999999
#
# number of rings (size 3 to 8) (size 9 to 14) (size 15 to 20)
#    0.000    2.000    0.000    4.500   10.500    0.000 
#    0.000    2.500    0.000    0.000    0.000    0.000 
#    0.000    0.000    0.000    0.000    0.000    0.000 
#
# Total GULP energy -198291.709889 kJ/mol
# GULP energy per Si atom -12393.231868 kJ/mol
# Density = 2.009506 g / cm^3
# Si number density = 20.140897 Si / 1000 Ang^3
#
#
#
# Elastic Constant Matrix: (Units=GPa)
#
#
# Indices 1 2 3 4 5 6 
#
# 1 105.7387 49.6865 34.6133 -1.7156 4.4008 -28.7264
# 2 49.6865 113.3149 24.2410 -7.9602 -5.4491 -35.3190
# 3 34.6133 24.2410 81.4547 -4.1525 13.5516 -7.6405
# 4 -1.7156 -7.9602 -4.1525 22.2588 -5.5932 1.4362
# 5 4.4008 -5.4491 13.5516 -5.5932 36.7830 1.0601
# 6 -28.7264 -35.3190 -7.6405 1.4362 1.0601 37.4701
#
#
#
# Elastic Compliance Matrix: (Units=1/GPa)
#
#
# Indices 1 2 3 4 5 6 
#
# 1 0.014399 -0.003331 -0.004368 -0.001620 -0.001058 0.007101
# 2 -0.003331 0.014545 -0.002333 0.004805 0.003844 0.010387
# 3 -0.004368 -0.002333 0.015542 0.000515 -0.005406 -0.002246
# 4 -0.001620 0.004805 0.000515 0.048558 0.008062 0.001303
# 5 -0.001058 0.003844 -0.005406 0.008062 0.031085 0.000522
# 6 0.007101 0.010387 -0.002246 0.001303 0.000522 0.041400
#
#
# Mechanical properties :
#
#
# Convention : Reuss Voigt Hill
#
# Bulk Modulus (GPa) = 40.94699 57.50998 49.22848
# Shear Modulus (GPa) = 25.80857 32.10020 28.95438
#
# Velocity S-wave (km/s) = 3.58355 3.99655 3.79567
# Velocity P-wave (km/s) = 6.12347 7.06487 6.61095
#
# Compressibility (1/GPa) = 0.02442182
#
# Stress axis : x y z
#
# Youngs Moduli (GPa) = 69.44874 68.75366 64.34030
#
# Poissons Ratio (x) = 0.22900 0.28104
# Poissons Ratio (y) = 0.23132 0.15013
# Poissons Ratio (z) = 0.30335 0.16043
#
# Static dielectric constant tensor:
#      x y z
#    x 3.704800 -0.576200 -0.049760 
#    y -0.576200 3.799890 0.028490 
#    z -0.049760 0.028490 3.776110 
# 
# 
# High freq. dielectric constant tensor:
#      x y z
#    x 1.768280 -0.038310 0.007090 
#    y -0.038310 1.776400 0.003010 
#    z 0.007090 0.003010 1.796180 
# 
# From -- ./inp_files/200289.got.cif
#   From: 2010.06.25/outbox.cif.g09.slc.cpg/sg2_101_cif.got.tgz:200289.got - 2010.06.27 13:26:56.
