data_PCOD8043051
_publ_section_title
;
Structure prediction by ZEFSAII (Michael W. Deem and Ramdas Pophale) SiO2 
 PCOD8043051
Probable space group: P -1
;
_chemical_formula_sum "Si O2"
_cell_formula_units_Z 14
_cell_length_a 20.303550
_cell_length_b 14.435264
_cell_length_c 9.199680
_cell_angle_alpha 68.046949
_cell_angle_beta 100.181788
_cell_angle_gamma 159.263943
_cell_volume 752.847430
_symmetry_space_group_name_H-M "P -1"
_symmetry_group_IT_number 2
_symmetry_cell_setting 'triclinic'
loop_
_space_group_symop_operation_xyz
x,y,z
-x,-y,-z
loop_
_atom_site_type_symbol
_atom_site_label
_atom_site_fract_x
_atom_site_fract_y
_atom_site_fract_z
Si Si1 0.367517 0.419606 0.125696
Si Si2 0.603571 0.814765 0.246092
Si Si3 0.192832 0.328839 0.297503
Si Si4 0.976287 0.572623 0.122565
Si Si5 0.883195 0.222268 0.368865
Si Si6 0.215908 0.997899 0.232719
Si Si7 0.241290 0.625989 0.100398
O O1 0.503225 0.587175 0.231371
O O2 0.226568 0.319709 0.160260
O O3 0.204754 0.098701 0.211527
O O4 0.538105 0.681338 0.908404
O O5 0.417235 0.635154 0.299852
O O6 0.691693 0.897191 0.386303
O O7 0.812493 0.161182 0.044175
O O8 0.147853 0.380639 0.221173
O O9 0.000000 0.000000 0.500000
O O10 0.856378 0.301816 0.283250
O O11 0.040346 0.727671 0.198040
O O12 0.817481 0.416086 0.056811
O O13 0.121725 0.519570 0.242681
O O14 0.843967 0.152227 0.563595
O O15 0.500000 0.000000 0.000000
#
# Coordination Sequence:
#
# PCOD8043051 Si02
#       7
#     2   2   2   2   2   2   2
#     4   8  19  36  56  77 117 144 184 229 284 329
#     4   8  18  35  58  79 114 135 194 231 272 318
#     4  10  19  37  59  87 113 144 187 239 280 334
#     4  10  20  37  56  85 113 149 191 227 278 341
#     4  11  20  34  61  88 105 147 197 236 268 335
#     4  10  19  36  57  82 112 150 188 230 277 332
#     4  11  22  37  62  82 117 150 184 239 296 325
#
# _framework density 18.596063999999998
#
# number of rings (size 3 to 8) (size 9 to 14) (size 15 to 20)
#    0.857    1.429    0.000    4.714    0.000    0.571 
#    7.714    1.429    3.143    0.000    0.000    0.000 
#    0.000    0.000    0.000    0.000    0.000    0.000 
#
# Total GULP energy -173468.319283 kJ/mol
# GULP energy per Si atom -12390.594234 kJ/mol
# Density = 1.855374 g / cm^3
# Si number density = 18.596064 Si / 1000 Ang^3
#
#
#
# Elastic Constant Matrix: (Units=GPa)
#
#
# Indices 1 2 3 4 5 6 
#
# 1 104.9294 42.1455 49.2874 -3.6869 12.9722 -2.9571
# 2 42.1455 113.0259 59.5650 8.3904 4.0032 4.1943
# 3 49.2874 59.5650 111.4608 9.6086 13.8410 4.0511
# 4 -3.6869 8.3904 9.6086 23.0972 -1.3318 -1.4883
# 5 12.9722 4.0032 13.8410 -1.3318 24.5171 -0.9817
# 6 -2.9571 4.1943 4.0511 -1.4883 -0.9817 31.1409
#
#
#
# Elastic Compliance Matrix: (Units=1/GPa)
#
#
# Indices 1 2 3 4 5 6 
#
# 1 0.013541 -0.003057 -0.004402 0.005038 -0.003811 0.002391
# 2 -0.003057 0.013163 -0.005694 -0.002847 0.002473 -0.001381
# 3 -0.004402 -0.005694 0.015213 -0.005425 -0.005707 -0.002069
# 4 0.005038 -0.002847 -0.005425 0.047855 0.003621 0.003969
# 5 -0.003811 0.002473 -0.005707 0.003621 0.045886 0.001667
# 6 0.002391 -0.001381 -0.002069 0.003969 0.001667 0.033037
#
#
# Mechanical properties :
#
#
# Convention : Reuss Voigt Hill
#
# Bulk Modulus (GPa) = 64.05782 70.15686 67.10734
# Shear Modulus (GPa) = 24.97430 27.64559 26.30994
#
# Velocity S-wave (km/s) = 3.66866 3.85988 3.76548
# Velocity P-wave (km/s) = 7.24342 7.59431 7.42094
#
# Compressibility (1/GPa) = 0.01561090
#
# Stress axis : x y z
#
# Youngs Moduli (GPa) = 73.84728 75.96863 65.73361
#
# Poissons Ratio (x) = 0.23225 0.28937
# Poissons Ratio (y) = 0.22576 0.37429
# Poissons Ratio (z) = 0.32509 0.43257
#
# Static dielectric constant tensor:
#      x y z
#    x 3.300890 -0.131840 -0.104330 
#    y -0.131840 3.487250 0.039940 
#    z -0.104330 0.039940 3.316680 
# 
# 
# High freq. dielectric constant tensor:
#      x y z
#    x 1.708250 -0.014940 -0.004990 
#    y -0.014940 1.717290 -0.005740 
#    z -0.004990 -0.005740 1.714820 
# 
# From -- ./inp_files/346900.got.cif
#   From: 2010.06.25/outbox.cif.g09.slc.cpg/sg2_174_cif.got.tgz:346900.got - 2010.06.27 13:26:56.
