data_PCOD8043577
_publ_section_title
;
Structure prediction by ZEFSAII (Michael W. Deem and Ramdas Pophale) SiO2 
 PCOD8043577
Probable space group: P -1
;
_chemical_formula_sum "Si O2"
_cell_formula_units_Z 14
_cell_length_a 14.501931
_cell_length_b 23.093304
_cell_length_c 11.282232
_cell_angle_alpha 151.624192
_cell_angle_beta 30.508306
_cell_angle_gamma 159.778249
_cell_volume 605.652866
_symmetry_space_group_name_H-M "P -1"
_symmetry_group_IT_number 2
_symmetry_cell_setting 'triclinic'
loop_
_space_group_symop_operation_xyz
x,y,z
-x,-y,-z
loop_
_atom_site_type_symbol
_atom_site_label
_atom_site_fract_x
_atom_site_fract_y
_atom_site_fract_z
Si Si1 0.627171 0.343101 0.245946
Si Si2 0.206121 0.584663 0.066500
Si Si3 0.708215 0.700015 0.074036
Si Si4 0.793384 0.697858 0.465895
Si Si5 0.315632 0.042171 0.400602
Si Si6 0.734705 0.786114 0.934653
Si Si7 0.270938 0.951170 0.029238
O O1 0.694096 0.320146 0.001335
O O2 0.436228 0.366678 0.488244
O O3 0.926632 0.517512 0.290342
O O4 0.469987 0.163914 0.171639
O O5 0.131775 0.403720 0.823306
O O6 0.460156 0.734353 0.145315
O O7 0.600785 0.775472 0.377183
O O8 0.500000 0.500000 0.000000
O O9 0.735659 0.712026 0.922481
O O10 0.008735 0.822388 0.006648
O O11 0.687769 0.666511 0.661782
O O12 0.071953 0.915541 0.538420
O O13 0.579670 0.100972 0.257643
O O14 0.190233 0.919614 0.199757
O O15 0.000000 0.000000 0.000000
#
# Coordination Sequence:
#
# PCOD8043577 Si02
#       7
#     2   2   2   2   2   2   2
#     4  10  19  36  64  98 121 158 223 275 315 377
#     4  10  22  37  65  97 127 165 226 274 316 383
#     4  12  27  44  67  99 138 175 218 269 337 407
#     4  11  21  41  68  94 127 170 225 275 324 378
#     4  11  24  43  70  94 127 176 225 279 324 384
#     4  11  22  42  66  93 138 175 205 267 337 396
#     4  11  24  44  70  93 129 176 228 271 328 391
#
# _framework density 23.115551
#
# number of rings (size 3 to 8) (size 9 to 14) (size 15 to 20)
#    0.000    1.143    4.286    3.000    2.000    1.714 
#    0.000    6.429    0.000    0.000    0.000    0.000 
#    0.000    0.000    0.000    0.000    0.000    0.000 
#
# Total GULP energy -173555.878863 kJ/mol
# GULP energy per Si atom -12396.848490 kJ/mol
# Density = 2.306294 g / cm^3
# Si number density = 23.115551 Si / 1000 Ang^3
#
#
#
# Elastic Constant Matrix: (Units=GPa)
#
#
# Indices 1 2 3 4 5 6 
#
# 1 143.2091 47.9580 40.8032 -13.9893 -15.8348 11.6392
# 2 47.9580 111.5434 23.9825 -6.3241 -9.7085 -9.0030
# 3 40.8032 23.9825 88.7710 -11.3560 -26.9894 8.4669
# 4 -13.9893 -6.3241 -11.3560 29.3860 -1.0830 -5.7698
# 5 -15.8348 -9.7085 -26.9894 -1.0830 29.2943 -2.0357
# 6 11.6392 -9.0030 8.4669 -5.7698 -2.0357 45.2518
#
#
#
# Elastic Compliance Matrix: (Units=1/GPa)
#
#
# Indices 1 2 3 4 5 6 
#
# 1 0.009418 -0.003440 -0.002345 0.002453 0.001723 -0.002278
# 2 -0.003440 0.011154 -0.001394 0.000947 0.000833 0.003523
# 3 -0.002345 -0.001394 0.018243 0.005868 0.015180 -0.001657
# 4 0.002453 0.000947 0.005868 0.038736 0.008742 0.003792
# 5 0.001723 0.000833 0.015180 0.008742 0.049669 0.000231
# 6 -0.002278 0.003523 -0.001657 0.003792 0.000231 0.024189
#
#
# Mechanical properties :
#
#
# Convention : Reuss Voigt Hill
#
# Bulk Modulus (GPa) = 40.88592 63.22343 52.05468
# Shear Modulus (GPa) = 28.74890 36.17174 32.46032
#
# Velocity S-wave (km/s) = 3.53044 3.96008 3.75142
# Velocity P-wave (km/s) = 5.86044 6.95126 6.42903
#
# Compressibility (1/GPa) = 0.02445830
#
# Stress axis : x y z
#
# Youngs Moduli (GPa) = 106.17818 89.65103 54.81475
#
# Poissons Ratio (x) = 0.30840 0.12852
# Poissons Ratio (y) = 0.36525 0.07642
# Poissons Ratio (z) = 0.24895 0.12498
#
# Static dielectric constant tensor:
#      x y z
#    x 4.417190 0.117920 -0.231970 
#    y 0.117920 4.862990 -0.323780 
#    z -0.231970 -0.323780 3.880950 
# 
# 
# High freq. dielectric constant tensor:
#      x y z
#    x 1.924790 -0.003220 -0.021570 
#    y -0.003220 1.931530 -0.015010 
#    z -0.021570 -0.015010 1.881980 
# 
# From -- ./inp_files/450970.got.cif
#   From: 2010.06.25/outbox.cif.g09.slc.cpg/sg2_226_cif.got.tgz:450970.got - 2010.06.27 13:26:56.
