data_PCOD8043322
_publ_section_title
;
Structure prediction by ZEFSAII (Michael W. Deem and Ramdas Pophale) SiO2 
 PCOD8043322
Probable space group: P -1
;
_chemical_formula_sum "Si O2"
_cell_formula_units_Z 16
_cell_length_a 10.048143
_cell_length_b 9.117613
_cell_length_c 10.887606
_cell_angle_alpha 81.152501
_cell_angle_beta 125.374980
_cell_angle_gamma 118.088287
_cell_volume 707.679058
_symmetry_space_group_name_H-M "P -1"
_symmetry_group_IT_number 2
_symmetry_cell_setting 'triclinic'
loop_
_space_group_symop_operation_xyz
x,y,z
-x,-y,-z
loop_
_atom_site_type_symbol
_atom_site_label
_atom_site_fract_x
_atom_site_fract_y
_atom_site_fract_z
Si Si1 0.938081 0.835896 0.070632
Si Si2 0.709415 0.552016 0.577357
Si Si3 0.755368 0.513336 0.871923
Si Si4 0.419368 0.158573 0.058078
Si Si5 0.620240 0.466010 0.284052
Si Si6 0.056676 0.190265 0.662656
Si Si7 0.941780 0.141314 0.345396
Si Si8 0.697985 0.196149 0.013497
O O1 0.052067 0.849182 0.256623
O O2 0.919495 0.688230 0.989884
O O3 0.742449 0.790672 0.036593
O O4 0.000000 0.000000 0.000000
O O5 0.500000 0.500000 0.500000
O O6 0.789787 0.505021 0.746086
O O7 0.706625 0.453789 0.463645
O O8 0.840775 0.751111 0.592562
O O9 0.557277 0.502522 0.796504
O O10 0.790225 0.366665 0.964450
O O11 0.572202 0.289396 0.216470
O O12 0.503663 0.174764 0.965059
O O13 0.340471 0.960519 0.078560
O O14 0.771871 0.620408 0.266117
O O15 0.921503 0.168121 0.477479
O O16 0.130480 0.053990 0.698036
O O17 0.822942 0.207408 0.196106
#
# Coordination Sequence:
#
# PCOD8043322 Si02
#       8
#     2   2   2   2   2   2   2   2
#     4  11  21  38  62  88 119 155 205 249 286 351
#     4   9  19  39  60  87 119 157 202 244 294 354
#     4  10  21  34  61  90 117 161 198 243 301 355
#     4  10  22  39  60  86 125 156 194 249 297 351
#     4   9  19  38  64  86 114 158 211 246 283 351
#     4  10  19  36  61  87 112 155 208 242 295 344
#     4  10  21  36  59  88 120 155 197 252 289 357
#     4  11  22  38  60  90 126 155 194 250 306 354
#
# _framework density 22.609119
#
# number of rings (size 3 to 8) (size 9 to 14) (size 15 to 20)
#    0.000    2.000    1.250    2.250    1.750    2.500 
#    0.000    6.250    0.000    0.000    0.000    0.000 
#    0.000    0.000    0.000    0.000    0.000    0.000 
#
# Total GULP energy -198210.437932 kJ/mol
# GULP energy per Si atom -12388.152371 kJ/mol
# Density = 2.255766 g / cm^3
# Si number density = 22.609119 Si / 1000 Ang^3
#
#
#
# Elastic Constant Matrix: (Units=GPa)
#
#
# Indices 1 2 3 4 5 6 
#
# 1 29.1957 13.4317 19.9479 -2.6839 -5.8424 -0.3874
# 2 13.4317 170.2472 89.0732 1.3971 -21.8615 -3.6390
# 3 19.9479 89.0732 167.5367 -13.0618 -38.1217 -3.7423
# 4 -2.6839 1.3971 -13.0618 46.2521 3.6740 -6.8341
# 5 -5.8424 -21.8615 -38.1217 3.6740 30.7126 0.3823
# 6 -0.3874 -3.6390 -3.7423 -6.8341 0.3823 31.4820
#
#
#
# Elastic Compliance Matrix: (Units=1/GPa)
#
#
# Indices 1 2 3 4 5 6 
#
# 1 0.037529 -0.000908 -0.003414 0.001097 0.002122 0.000163
# 2 -0.000908 0.008272 -0.004272 -0.001542 0.000596 0.000095
# 3 -0.003414 -0.004272 0.011087 0.002464 0.009761 0.001198
# 4 0.001097 -0.001542 0.002464 0.023246 -0.000677 0.005183
# 5 0.002122 0.000596 0.009761 -0.000677 0.045578 0.000555
# 6 0.000163 0.000095 0.001198 0.005183 0.000555 0.033038
#
#
# Mechanical properties :
#
#
# Convention : Reuss Voigt Hill
#
# Bulk Modulus (GPa) = 25.18878 67.98725 46.58802
# Shear Modulus (GPa) = 26.43114 37.99113 32.21113
#
# Velocity S-wave (km/s) = 3.42284 4.10365 3.77861
# Velocity P-wave (km/s) = 5.17555 7.25184 6.29982
#
# Compressibility (1/GPa) = 0.03970022
#
# Stress axis : x y z
#
# Youngs Moduli (GPa) = 26.64573 120.89107 90.19838
#
# Poissons Ratio (x) = 0.10974 0.30791
# Poissons Ratio (y) = 0.02419 0.38536
# Poissons Ratio (z) = 0.09096 0.51649
#
# Static dielectric constant tensor:
#      x y z
#    x 3.820600 0.215630 -0.353480 
#    y 0.215630 4.089610 0.115400 
#    z -0.353480 0.115400 4.627970 
# 
# 
# High freq. dielectric constant tensor:
#      x y z
#    x 1.856930 0.016400 -0.020330 
#    y 0.016400 1.891810 0.010980 
#    z -0.020330 0.010980 1.904220 
# 
# From -- ./inp_files/417193.got.cif
#   From: 2010.06.25/outbox.cif.g09.slc.cpg/sg2_209_cif.got.tgz:417193.got - 2010.06.27 13:26:56.
