data_PCOD8043773
_publ_section_title
;
Structure prediction by ZEFSAII (Michael W. Deem and Ramdas Pophale) SiO2 
 PCOD8043773
Probable space group: P -1
;
_chemical_formula_sum "Si O2"
_cell_formula_units_Z 16
_cell_length_a 25.063651
_cell_length_b 9.287513
_cell_length_c 10.631763
_cell_angle_alpha 123.489581
_cell_angle_beta 22.136861
_cell_angle_gamma 124.520880
_cell_volume 765.486772
_symmetry_space_group_name_H-M "P -1"
_symmetry_group_IT_number 2
_symmetry_cell_setting 'triclinic'
loop_
_space_group_symop_operation_xyz
x,y,z
-x,-y,-z
loop_
_atom_site_type_symbol
_atom_site_label
_atom_site_fract_x
_atom_site_fract_y
_atom_site_fract_z
Si Si1 0.262655 0.070465 0.668715
Si Si2 0.019111 0.131728 0.408908
Si Si3 0.290338 0.683434 0.343957
Si Si4 0.048451 0.507285 0.603663
Si Si5 0.152037 0.101117 0.670180
Si Si6 0.469805 0.677917 0.709629
Si Si7 0.199535 0.796609 0.259912
Si Si8 0.867891 0.540899 0.225263
O O1 0.246721 0.170896 0.619918
O O2 0.386417 0.176674 0.537502
O O3 0.300265 0.880673 0.465901
O O4 0.111052 0.054491 0.064640
O O5 0.097908 0.324032 0.375717
O O6 0.857088 0.142466 0.719842
O O7 0.000000 0.000000 0.500000
O O8 0.149868 0.624804 0.539070
O O9 0.278169 0.559843 0.436709
O O10 0.421760 0.660547 0.953511
O O11 0.065020 0.637770 0.510965
O O12 0.890507 0.474568 0.999797
O O13 0.139448 0.253451 0.670798
O O14 0.231098 0.959568 0.363535
O O15 0.000000 0.000000 0.000000
O O16 0.500000 0.500000 0.500000
O O17 0.350069 0.727977 0.899095
O O18 0.000000 0.500000 0.000000
#
# Coordination Sequence:
#
# PCOD8043773 Si02
#       8
#     2   2   2   2   2   2   2   2
#     4  12  22  43  71  95 128 174 224 261 324 396
#     4  12  26  38  66 104 137 169 209 273 338 386
#     4  10  21  38  64  94 126 169 218 266 322 381
#     4  10  19  37  58  94 133 166 210 262 321 384
#     4  12  20  38  67 105 125 168 220 275 316 388
#     4  11  25  46  68  92 130 177 222 269 323 394
#     4  11  23  41  67  96 129 171 228 261 324 388
#     4  10  20  33  61  93 137 164 204 267 329 376
#
# _framework density 20.901734999999999
#
# number of rings (size 3 to 8) (size 9 to 14) (size 15 to 20)
#    0.000    1.000    5.000    3.750    3.500    1.000 
#    0.000    1.250    0.000    0.000    0.000    0.000 
#    0.000    0.000    0.000    0.000    0.000    0.000 
#
# Total GULP energy -198238.110166 kJ/mol
# GULP energy per Si atom -12389.881885 kJ/mol
# Density = 2.085416 g / cm^3
# Si number density = 20.901735 Si / 1000 Ang^3
#
#
#
# Elastic Constant Matrix: (Units=GPa)
#
#
# Indices 1 2 3 4 5 6 
#
# 1 98.3984 61.7623 39.2328 4.9621 -14.2913 -11.1111
# 2 61.7623 145.0825 47.3316 25.9078 1.8200 -3.4323
# 3 39.2328 47.3316 94.1878 23.4476 -4.3550 -0.1520
# 4 4.9621 25.9078 23.4476 36.1164 8.2378 4.8230
# 5 -14.2913 1.8200 -4.3550 8.2378 29.0485 3.5430
# 6 -11.1111 -3.4323 -0.1520 4.8230 3.5430 45.8040
#
#
#
# Elastic Compliance Matrix: (Units=1/GPa)
#
#
# Indices 1 2 3 4 5 6 
#
# 1 0.017104 -0.006447 -0.004341 0.003138 0.006938 0.002784
# 2 -0.006447 0.011201 -0.001704 -0.005459 -0.002586 0.000045
# 3 -0.004341 -0.001704 0.015641 -0.008943 0.002903 -0.000412
# 4 0.003138 -0.005459 -0.008943 0.039750 -0.010354 -0.003062
# 5 0.006938 -0.002586 0.002903 -0.010354 0.041447 -0.000617
# 6 0.002784 0.000045 -0.000412 -0.003062 -0.000617 0.022880
#
#
# Mechanical properties :
#
#
# Convention : Reuss Voigt Hill
#
# Bulk Modulus (GPa) = 52.73289 70.48025 61.60657
# Shear Modulus (GPa) = 27.88199 34.81657 31.34928
#
# Velocity S-wave (km/s) = 3.65630 4.08576 3.87698
# Velocity P-wave (km/s) = 6.56570 7.48672 7.04128
#
# Compressibility (1/GPa) = 0.01896350
#
# Stress axis : x y z
#
# Youngs Moduli (GPa) = 58.46687 89.27545 63.93298
#
# Poissons Ratio (x) = 0.57552 0.27752
# Poissons Ratio (y) = 0.37691 0.10895
# Poissons Ratio (z) = 0.25379 0.15214
#
# Static dielectric constant tensor:
#      x y z
#    x 4.135010 -0.312620 0.473800 
#    y -0.312620 4.112740 -0.112740 
#    z 0.473800 -0.112740 4.013970 
# 
# 
# High freq. dielectric constant tensor:
#      x y z
#    x 1.812850 -0.000490 0.015920 
#    y -0.000490 1.824880 0.018800 
#    z 0.015920 0.018800 1.796850 
# 
# From -- ./inp_files/354538.got.cif
#   From: 2010.06.25/outbox.cif.g09.slc.cpg/sg2_178_cif.got.tgz:354538.got - 2010.06.27 13:26:56.
