data_PCOD8043047
_publ_section_title
;
Structure prediction by ZEFSAII (Michael W. Deem and Ramdas Pophale) SiO2 
 PCOD8043047
Probable space group: P -1
;
_chemical_formula_sum "Si O2"
_cell_formula_units_Z 16
_cell_length_a 11.226102
_cell_length_b 13.772083
_cell_length_c 6.720155
_cell_angle_alpha 74.866340
_cell_angle_beta 127.321766
_cell_angle_gamma 103.177226
_cell_volume 794.296246
_symmetry_space_group_name_H-M "P -1"
_symmetry_group_IT_number 2
_symmetry_cell_setting 'triclinic'
loop_
_space_group_symop_operation_xyz
x,y,z
-x,-y,-z
loop_
_atom_site_type_symbol
_atom_site_label
_atom_site_fract_x
_atom_site_fract_y
_atom_site_fract_z
Si Si1 0.279864 0.230921 0.343268
Si Si2 0.419337 0.328354 0.051617
Si Si3 0.037505 0.051222 0.217235
Si Si4 0.312929 0.528807 0.674890
Si Si5 0.525050 0.845434 0.095433
Si Si6 0.245527 0.967495 0.790484
Si Si7 0.096916 0.535705 0.768257
Si Si8 0.857315 0.587486 0.747927
O O1 0.313369 0.265662 0.134270
O O2 0.125287 0.160078 0.215091
O O3 0.420413 0.181042 0.611725
O O4 0.247607 0.321873 0.410842
O O5 0.545903 0.393511 0.276768
O O6 0.338013 0.411614 0.803861
O O7 0.483886 0.249913 0.008140
O O8 0.876147 0.063969 0.146550
O O9 0.147119 0.983097 0.485809
O O10 0.000000 0.000000 0.000000
O O11 0.251039 0.576839 0.792256
O O12 0.210365 0.515581 0.380399
O O13 0.649134 0.931999 0.091922
O O14 0.357001 0.880225 0.915966
O O15 0.000000 0.500000 0.500000
O O16 0.016190 0.617833 0.775395
O O17 0.120306 0.440582 0.984777
#
# Coordination Sequence:
#
# PCOD8043047 Si02
#       8
#     2   2   2   2   2   2   2   2
#     4  11  22  36  61  88 114 155 201 239 292 351
#     4  11  22  35  56  86 114 155 193 236 288 342
#     4  10  21  40  63  89 118 149 189 242 295 353
#     4  10  21  36  55  80 118 153 195 238 286 339
#     4  10  21  40  62  87 122 152 192 241 292 354
#     4   9  21  41  64  89 117 154 188 236 302 354
#     4   9  19  36  56  77 110 152 194 242 290 332
#     4  10  19  36  57  81 111 151 197 241 285 341
#
# _framework density 20.143618
#
# number of rings (size 3 to 8) (size 9 to 14) (size 15 to 20)
#    0.000    2.000    2.500    0.750    0.000    3.500 
#    0.000   10.000    0.000    0.000    0.000    0.000 
#    0.000    0.000    0.000    0.000    0.000    0.000 
#
# Total GULP energy -198223.477480 kJ/mol
# GULP energy per Si atom -12388.967343 kJ/mol
# Density = 2.009777 g / cm^3
# Si number density = 20.143618 Si / 1000 Ang^3
#
#
#
# Elastic Constant Matrix: (Units=GPa)
#
#
# Indices 1 2 3 4 5 6 
#
# 1 126.5678 37.5136 54.2072 -2.5891 4.0221 4.9698
# 2 37.5136 57.5910 46.4714 1.8062 -5.4453 10.9303
# 3 54.2072 46.4714 91.0043 8.5386 -4.4164 2.0515
# 4 -2.5891 1.8062 8.5386 26.0792 -3.8082 -0.6218
# 5 4.0221 -5.4453 -4.4164 -3.8082 34.5794 -4.1304
# 6 4.9698 10.9303 2.0515 -0.6218 -4.1304 29.0407
#
#
#
# Elastic Compliance Matrix: (Units=1/GPa)
#
#
# Indices 1 2 3 4 5 6 
#
# 1 0.011346 -0.003110 -0.005530 0.002803 -0.002284 -0.000645
# 2 -0.003110 0.034020 -0.015380 0.002516 0.002749 -0.010741
# 3 -0.005530 -0.015380 0.022692 -0.006645 0.001001 0.005132
# 4 0.002803 0.002516 -0.006645 0.041192 0.003814 0.000467
# 5 -0.002284 0.002749 0.001001 0.003814 0.030610 0.003721
# 6 -0.000645 -0.010741 0.005132 0.000467 0.003721 0.038764
#
#
# Mechanical properties :
#
#
# Convention : Reuss Voigt Hill
#
# Bulk Modulus (GPa) = 49.95341 61.28304 55.61823
# Shear Modulus (GPa) = 21.42819 27.07126 24.24972
#
# Velocity S-wave (km/s) = 3.26509 3.66992 3.47341
# Velocity P-wave (km/s) = 6.25035 6.96038 6.61490
#
# Compressibility (1/GPa) = 0.02001865
#
# Stress axis : x y z
#
# Youngs Moduli (GPa) = 88.13492 29.39460 44.06755
#
# Poissons Ratio (x) = 0.09142 0.24367
# Poissons Ratio (y) = 0.27412 0.67777
# Poissons Ratio (z) = 0.48735 0.45209
#
# Static dielectric constant tensor:
#      x y z
#    x 4.344060 0.062830 0.011670 
#    y 0.062830 3.532740 -0.021890 
#    z 0.011670 -0.021890 3.632030 
# 
# 
# High freq. dielectric constant tensor:
#      x y z
#    x 1.799700 -0.002190 0.002350 
#    y -0.002190 1.762940 0.003660 
#    z 0.002350 0.003660 1.792280 
# 
# From -- ./inp_files/75865.got.cif
#   From: 2010.06.25/outbox.cif.g09.slc.cpg/sg2_38_cif.got.tgz:75865.got - 2010.06.27 13:26:56.
