data_PCOD8043387
_publ_section_title
;
Structure prediction by ZEFSAII (Michael W. Deem and Ramdas Pophale) SiO2 
 PCOD8043387
Probable space group: P -1
;
_chemical_formula_sum "Si O2"
_cell_formula_units_Z 16
_cell_length_a 15.177610
_cell_length_b 26.361001
_cell_length_c 8.430691
_cell_angle_alpha 132.212512
_cell_angle_beta 147.796202
_cell_angle_gamma 26.093631
_cell_volume 732.791600
_symmetry_space_group_name_H-M "P -1"
_symmetry_group_IT_number 2
_symmetry_cell_setting 'triclinic'
loop_
_space_group_symop_operation_xyz
x,y,z
-x,-y,-z
loop_
_atom_site_type_symbol
_atom_site_label
_atom_site_fract_x
_atom_site_fract_y
_atom_site_fract_z
Si Si1 0.605575 0.498317 0.927120
Si Si2 0.817156 0.121403 0.881156
Si Si3 0.268347 0.238220 0.401547
Si Si4 0.339878 0.296141 0.932764
Si Si5 0.342766 0.457510 0.558541
Si Si6 0.791939 0.175065 0.606621
Si Si7 0.296672 0.720050 0.735288
Si Si8 0.774304 0.889911 0.069849
O O1 0.440065 0.482752 0.638057
O O2 0.452964 0.598744 0.779103
O O3 0.587370 0.541743 0.158139
O O4 0.944946 0.370203 0.123653
O O5 0.476355 0.213658 0.557705
O O6 0.901355 0.102201 0.784080
O O7 0.857919 0.180134 0.153549
O O8 0.000000 0.000000 0.000000
O O9 0.313910 0.238482 0.658731
O O10 0.326290 0.137459 0.254939
O O11 0.011628 0.432296 0.782057
O O12 0.591551 0.191090 0.229887
O O13 0.456185 0.320935 0.064320
O O14 0.553153 0.319230 0.564826
O O15 0.100235 0.091119 0.809761
O O16 0.047638 0.774920 0.356787
O O17 0.500000 0.000000 0.000000
#
# Coordination Sequence:
#
# PCOD8043387 Si02
#       8
#     2   2   2   2   2   2   2   2
#     4  10  20  36  65  99 136 167 207 274 333 400
#     4  11  24  43  67  95 132 179 227 270 319 386
#     4  10  22  42  64  95 132 170 219 269 333 391
#     4   9  22  37  64  99 136 168 211 262 334 403
#     4  10  19  36  62 102 137 164 214 261 336 403
#     4  11  22  43  66  98 130 177 221 272 324 390
#     4  10  22  41  64  95 134 174 217 266 331 390
#     4  11  24  46  67  93 131 177 229 275 323 389
#
# _framework density 21.834311
#
# number of rings (size 3 to 8) (size 9 to 14) (size 15 to 20)
#    0.000    1.750    2.500    1.125    1.750    3.000 
#    0.000   17.500    0.000    0.000    0.000    0.000 
#    0.000    0.000    0.000    0.000    0.000    0.000 
#
# Total GULP energy -198314.273927 kJ/mol
# GULP energy per Si atom -12394.642120 kJ/mol
# Density = 2.178461 g / cm^3
# Si number density = 21.834311 Si / 1000 Ang^3
#
#
#
# Elastic Constant Matrix: (Units=GPa)
#
#
# Indices 1 2 3 4 5 6 
#
# 1 137.3692 49.3693 55.7184 -22.1268 -2.9398 2.1285
# 2 49.3693 97.5430 36.4825 -0.5006 -1.5032 -4.1076
# 3 55.7184 36.4825 89.3798 8.3571 3.3371 -2.5506
# 4 -22.1268 -0.5006 8.3571 30.8197 -5.7500 -2.0425
# 5 -2.9398 -1.5032 3.3371 -5.7500 34.8084 -13.7614
# 6 2.1285 -4.1076 -2.5506 -2.0425 -13.7614 31.7808
#
#
#
# Elastic Compliance Matrix: (Units=1/GPa)
#
#
# Indices 1 2 3 4 5 6 
#
# 1 0.014594 -0.003877 -0.008945 0.013705 0.004424 0.000600
# 2 -0.003877 0.013401 -0.002901 -0.001421 0.001151 0.002166
# 3 -0.008945 -0.002901 0.019307 -0.012803 -0.005394 -0.001385
# 4 0.013705 -0.001421 -0.012803 0.048591 0.012962 0.006607
# 5 0.004424 0.001151 -0.005394 0.012962 0.038501 0.016924
# 6 0.000600 0.002166 -0.001385 0.006607 0.016924 0.039347
#
#
# Mechanical properties :
#
#
# Convention : Reuss Voigt Hill
#
# Bulk Modulus (GPa) = 63.06712 67.49250 65.27981
# Shear Modulus (GPa) = 23.75590 31.66324 27.70957
#
# Velocity S-wave (km/s) = 3.30207 3.81223 3.56628
# Velocity P-wave (km/s) = 6.59434 7.09618 6.84986
#
# Compressibility (1/GPa) = 0.01585612
#
# Stress axis : x y z
#
# Youngs Moduli (GPa) = 68.52037 74.62113 51.79352
#
# Poissons Ratio (x) = 0.28933 0.46328
# Poissons Ratio (y) = 0.26567 0.15026
# Poissons Ratio (z) = 0.61290 0.21649
#
# Static dielectric constant tensor:
#      x y z
#    x 4.075240 -0.299100 0.046880 
#    y -0.299100 3.817090 0.178550 
#    z 0.046880 0.178550 4.467150 
# 
# 
# High freq. dielectric constant tensor:
#      x y z
#    x 1.853730 -0.018440 0.002810 
#    y -0.018440 1.848950 0.006060 
#    z 0.002810 0.006060 1.872930 
# 
# From -- ./inp_files/237159.got.cif
#   From: 2010.06.25/outbox.cif.g09.slc.cpg/sg2_119_cif.got.tgz:237159.got - 2010.06.27 13:26:56.
