data_PCOD8043101
_publ_section_title
;
Structure prediction by ZEFSAII (Michael W. Deem and Ramdas Pophale) SiO2 
 PCOD8043101
Probable space group: P -1
;
_chemical_formula_sum "Si O2"
_cell_formula_units_Z 14
_cell_length_a 14.479563
_cell_length_b 11.565996
_cell_length_c 7.080826
_cell_angle_alpha 70.720188
_cell_angle_beta 107.698791
_cell_angle_gamma 47.669293
_cell_volume 543.265055
_symmetry_space_group_name_H-M "P -1"
_symmetry_group_IT_number 2
_symmetry_cell_setting 'triclinic'
loop_
_space_group_symop_operation_xyz
x,y,z
-x,-y,-z
loop_
_atom_site_type_symbol
_atom_site_label
_atom_site_fract_x
_atom_site_fract_y
_atom_site_fract_z
Si Si1 0.532469 0.098977 0.092587
Si Si2 0.894161 0.974542 0.167530
Si Si3 0.587587 0.184970 0.431440
Si Si4 0.965242 0.638846 0.561359
Si Si5 0.331243 0.146736 0.177975
Si Si6 0.471704 0.374454 0.645278
Si Si7 0.152206 0.893654 0.332758
O O1 0.758087 0.840951 0.412217
O O2 0.467996 0.255189 0.149022
O O3 0.412993 0.099993 0.042647
O O4 0.471804 0.232693 0.791656
O O5 0.986944 0.751384 0.430947
O O6 0.997250 0.985901 0.310543
O O7 0.667692 0.223668 0.920780
O O8 0.943866 0.930011 0.998180
O O9 0.456254 0.394608 0.395148
O O10 0.738257 0.120081 0.470811
O O11 0.702295 0.961229 0.757201
O O12 0.000000 0.500000 0.500000
O O13 0.131571 0.435515 0.930515
O O14 0.500000 0.000000 0.500000
O O15 0.300719 0.633420 0.486426
#
# Coordination Sequence:
#
# PCOD8043101 Si02
#       7
#     2   2   2   2   2   2   2
#     4  10  23  40  60  88 122 155 199 253 300 354
#     4   9  19  34  57  88 114 150 202 243 293 359
#     4  10  21  38  58  85 118 154 198 242 294 357
#     4  11  22  39  63  90 120 158 204 250 301 362
#     4  10  22  40  59  88 124 157 201 249 302 364
#     4  10  20  38  60  84 118 154 197 247 296 355
#     4  10  19  36  58  83 120 155 193 248 297 348
#
# _framework density 25.770108
#
# number of rings (size 3 to 8) (size 9 to 14) (size 15 to 20)
#    0.000    2.000    0.000    5.143    0.000    6.286 
#    0.000   15.714    0.000    0.000    0.000    0.000 
#    0.000    0.000    0.000    0.000    0.000    0.000 
#
# Total GULP energy -173438.682869 kJ/mol
# GULP energy per Si atom -12388.477348 kJ/mol
# Density = 2.571145 g / cm^3
# Si number density = 25.770108 Si / 1000 Ang^3
#
#
#
# Elastic Constant Matrix: (Units=GPa)
#
#
# Indices 1 2 3 4 5 6 
#
# 1 156.7460 16.8638 3.5339 -10.5166 -0.2592 26.4221
# 2 16.8638 33.2209 14.4114 -7.4047 7.0581 2.5985
# 3 3.5339 14.4114 89.7608 -12.1030 5.5515 4.1636
# 4 -10.5166 -7.4047 -12.1030 26.8340 -2.1320 -2.3290
# 5 -0.2592 7.0581 5.5515 -2.1320 30.0686 -5.3591
# 6 26.4221 2.5985 4.1636 -2.3290 -5.3591 31.1494
#
#
#
# Elastic Compliance Matrix: (Units=1/GPa)
#
#
# Indices 1 2 3 4 5 6 
#
# 1 0.007947 -0.003379 0.000813 0.001963 -0.000303 -0.006473
# 2 -0.003379 0.036745 -0.004452 0.006177 -0.007471 -0.000428
# 3 0.000813 -0.004452 0.012598 0.004506 -0.001291 -0.001888
# 4 0.001963 0.006177 0.004506 0.041877 0.000791 0.000484
# 5 -0.000303 -0.007471 -0.001291 0.000791 0.036624 0.007413
# 6 -0.006473 -0.000428 -0.001888 0.000484 0.007413 0.039194
#
#
# Mechanical properties :
#
#
# Convention : Reuss Voigt Hill
#
# Bulk Modulus (GPa) = 23.11779 38.81622 30.96701
# Shear Modulus (GPa) = 24.57727 33.93830 29.25779
#
# Velocity S-wave (km/s) = 3.09157 3.63294 3.37313
# Velocity P-wave (km/s) = 4.66198 5.71776 5.21665
#
# Compressibility (1/GPa) = 0.04325673
#
# Stress axis : x y z
#
# Youngs Moduli (GPa) = 125.82817 27.21426 79.37478
#
# Poissons Ratio (x) = 0.09195 -0.06456
# Poissons Ratio (y) = 0.42514 0.35336
# Poissons Ratio (z) = -0.10234 0.12115
#
# Static dielectric constant tensor:
#      x y z
#    x 5.846940 0.145230 -0.302450 
#    y 0.145230 4.418230 -0.142420 
#    z -0.302450 -0.142420 5.102380 
# 
# 
# High freq. dielectric constant tensor:
#      x y z
#    x 2.063520 0.014810 -0.010890 
#    y 0.014810 2.001090 -0.004480 
#    z -0.010890 -0.004480 2.016650 
# 
# From -- ./inp_files/306761.got.cif
#   From: 2010.06.25/outbox.cif.g09.slc.cpg/sg2_154_cif.got.tgz:306761.got - 2010.06.27 13:26:56.
