data_PCOD8043626
_publ_section_title
;
Structure prediction by ZEFSAII (Michael W. Deem and Ramdas Pophale) SiO2 
 PCOD8043626
Probable space group: P -1
;
_chemical_formula_sum "Si O2"
_cell_formula_units_Z 16
_cell_length_a 8.662415
_cell_length_b 18.882562
_cell_length_c 16.108678
_cell_angle_alpha 157.515871
_cell_angle_beta 47.216880
_cell_angle_gamma 135.626081
_cell_volume 702.949345
_symmetry_space_group_name_H-M "P -1"
_symmetry_group_IT_number 2
_symmetry_cell_setting 'triclinic'
loop_
_space_group_symop_operation_xyz
x,y,z
-x,-y,-z
loop_
_atom_site_type_symbol
_atom_site_label
_atom_site_fract_x
_atom_site_fract_y
_atom_site_fract_z
Si Si1 0.603249 0.039447 0.730944
Si Si2 0.024601 0.770966 0.065262
Si Si3 0.754711 0.309038 0.439892
Si Si4 0.913194 0.624553 0.348322
Si Si5 0.455681 0.378255 0.192577
Si Si6 0.268436 0.983666 0.524980
Si Si7 0.296108 0.811700 0.855944
Si Si8 0.780689 0.614891 0.560694
O O1 0.780525 0.106670 0.812492
O O2 0.726455 0.031945 0.592483
O O3 0.435601 0.827605 0.580941
O O4 0.461641 0.190299 0.934996
O O5 0.972563 0.539913 0.848133
O O6 0.096633 0.825442 0.002728
O O7 0.801343 0.825528 0.221251
O O8 0.709414 0.515696 0.669983
O O9 0.769889 0.202676 0.232294
O O10 0.987571 0.363471 0.457341
O O11 0.699974 0.533612 0.270816
O O12 0.832164 0.711501 0.555543
O O13 0.083458 0.793414 0.418903
O O14 0.369740 0.297622 0.229872
O O15 0.500000 0.000000 0.500000
O O16 0.356498 0.616367 0.648726
O O17 0.500000 0.000000 0.000000
#
# Coordination Sequence:
#
# PCOD8043626 Si02
#       8
#     2   2   2   2   2   2   2   2
#     4  11  24  41  64  92 123 169 222 254 312 378
#     4  10  23  43  65  92 122 166 214 262 313 379
#     4  11  22  40  65  96 136 167 202 267 322 373
#     4  10  23  42  64  90 126 165 212 263 316 376
#     4  10  22  39  66  95 124 164 215 260 317 386
#     4  12  27  42  62  91 124 169 219 264 316 368
#     4  10  19  36  66  96 125 163 207 250 319 386
#     4  10  22  39  63  99 133 166 206 259 329 382
#
# _framework density 22.761240000000001
#
# number of rings (size 3 to 8) (size 9 to 14) (size 15 to 20)
#    0.000    1.500    1.250    3.750    1.750    9.000 
#    0.000    0.000    0.000    0.000    0.000    0.000 
#    0.000    0.000    0.000    0.000    0.000    0.000 
#
# Total GULP energy -198406.945280 kJ/mol
# GULP energy per Si atom -12400.434080 kJ/mol
# Density = 2.270943 g / cm^3
# Si number density = 22.761240 Si / 1000 Ang^3
#
#
#
# Elastic Constant Matrix: (Units=GPa)
#
#
# Indices 1 2 3 4 5 6 
#
# 1 35.1578 1.8745 -7.4398 -3.1193 -0.5827 -5.7424
# 2 1.8745 145.6887 27.4223 -11.6601 7.4381 -27.1280
# 3 -7.4398 27.4223 74.4666 -23.0714 3.2148 -13.6812
# 4 -3.1193 -11.6601 -23.0714 39.1177 -0.2896 2.0518
# 5 -0.5827 7.4381 3.2148 -0.2896 19.0097 -9.1285
# 6 -5.7424 -27.1280 -13.6812 2.0518 -9.1285 32.3803
#
#
#
# Elastic Compliance Matrix: (Units=1/GPa)
#
#
# Indices 1 2 3 4 5 6 
#
# 1 0.031974 0.000417 0.006486 0.006027 0.004436 0.009628
# 2 0.000417 0.008442 -0.001466 0.001347 0.000083 0.006465
# 3 0.006486 -0.001466 0.019449 0.011151 0.001414 0.007832
# 4 0.006027 0.001347 0.011151 0.032764 0.000684 0.005025
# 5 0.004436 0.000083 0.001414 0.000684 0.061480 0.018742
# 6 0.009628 0.006465 0.007832 0.005025 0.018742 0.046281
#
#
# Mechanical properties :
#
#
# Convention : Reuss Voigt Hill
#
# Bulk Modulus (GPa) = 14.13647 33.22524 23.68086
# Shear Modulus (GPa) = 23.46352 33.66527 28.56440
#
# Velocity S-wave (km/s) = 3.21418 3.85003 3.54638
# Velocity P-wave (km/s) = 4.47200 5.86452 5.21495
#
# Compressibility (1/GPa) = 0.07073899
#
# Stress axis : x y z
#
# Youngs Moduli (GPa) = 31.27509 118.45732 51.41576
#
# Poissons Ratio (x) = -0.04935 -0.33347
# Poissons Ratio (y) = -0.01303 0.07536
# Poissons Ratio (z) = -0.20285 0.17362
#
# Static dielectric constant tensor:
#      x y z
#    x 4.021950 -0.103620 0.006320 
#    y -0.103620 4.195760 -0.138030 
#    z 0.006320 -0.138030 4.425620 
# 
# 
# High freq. dielectric constant tensor:
#      x y z
#    x 1.893470 -0.000600 0.001520 
#    y -0.000600 1.904010 -0.005140 
#    z 0.001520 -0.005140 1.897460 
# 
# From -- ./inp_files/245892.got.cif
#   From: 2010.06.25/outbox.cif.g09.slc.cpg/sg2_123_cif.got.tgz:245892.got - 2010.06.27 13:26:56.
