data_PCOD8043403
_publ_section_title
;
Structure prediction by ZEFSAII (Michael W. Deem and Ramdas Pophale) SiO2 
 PCOD8043403
Probable space group: P -1
;
_chemical_formula_sum "Si O2"
_cell_formula_units_Z 16
_cell_length_a 17.382239
_cell_length_b 5.263714
_cell_length_c 18.440128
_cell_angle_alpha 120.430710
_cell_angle_beta 149.719425
_cell_angle_gamma 66.722008
_cell_volume 730.076987
_symmetry_space_group_name_H-M "P -1"
_symmetry_group_IT_number 2
_symmetry_cell_setting 'triclinic'
loop_
_space_group_symop_operation_xyz
x,y,z
-x,-y,-z
loop_
_atom_site_type_symbol
_atom_site_label
_atom_site_fract_x
_atom_site_fract_y
_atom_site_fract_z
Si Si1 0.084490 0.312837 0.941363
Si Si2 0.591629 0.962620 0.417127
Si Si3 0.323078 0.362969 0.428873
Si Si4 0.341963 0.057771 0.915631
Si Si5 0.134098 0.246241 0.127678
Si Si6 0.319915 0.589848 0.066119
Si Si7 0.900676 0.762567 0.651765
Si Si8 0.182902 0.556946 0.802827
O O1 0.180917 0.222326 0.077802
O O2 0.191900 0.556266 0.019771
O O3 0.928100 0.436396 0.860764
O O4 0.028233 0.039265 0.805608
O O5 0.574470 0.846290 0.470337
O O6 0.460106 0.814059 0.237842
O O7 0.753805 0.865181 0.503774
O O8 0.587021 0.314499 0.461064
O O9 0.283282 0.219639 0.296386
O O10 0.159801 0.381339 0.341237
O O11 0.374933 0.266433 0.043833
O O12 0.238778 0.226425 0.798402
O O13 0.250509 0.744755 0.816599
O O14 0.500000 0.000000 0.000000
O O15 0.000000 0.000000 0.000000
O O16 0.246525 0.719455 0.952894
O O17 0.995636 0.536179 0.650075
#
# Coordination Sequence:
#
# PCOD8043403 Si02
#       8
#     2   2   2   2   2   2   2   2
#     4  11  21  36  59  88 116 155 212 256 293 348
#     4  10  23  36  60  81 129 153 203 240 309 353
#     4  10  21  36  56  82 117 162 196 245 296 354
#     4  10  22  38  63  95 123 151 192 249 300 350
#     4  11  20  34  57  85 118 156 206 261 298 339
#     4  10  24  38  63  91 119 160 199 247 297 365
#     4  10  19  36  62  88 114 154 208 248 295 345
#     4  10  21  34  67  89 117 150 203 243 289 350
#
# _framework density 21.915497999999999
#
# number of rings (size 3 to 8) (size 9 to 14) (size 15 to 20)
#    1.500    0.250    3.750    1.125    5.250    0.000 
#    0.000    1.250    0.000    1.500    0.000    0.000 
#    0.000    0.000    0.000    0.000    0.000    0.000 
#
# Total GULP energy -198275.879451 kJ/mol
# GULP energy per Si atom -12392.242466 kJ/mol
# Density = 2.186562 g / cm^3
# Si number density = 21.915498 Si / 1000 Ang^3
#
#
#
# Elastic Constant Matrix: (Units=GPa)
#
#
# Indices 1 2 3 4 5 6 
#
# 1 41.4248 -3.9027 4.5388 6.1697 13.9127 14.0431
# 2 -3.9027 74.3812 15.7070 19.4431 4.0478 31.4486
# 3 4.5388 15.7070 78.3537 5.3144 2.8655 7.5213
# 4 6.1697 19.4431 5.3144 23.2876 3.7313 6.2991
# 5 13.9127 4.0478 2.8655 3.7313 20.9819 2.4472
# 6 14.0431 31.4486 7.5213 6.2991 2.4472 31.5985
#
#
#
# Elastic Compliance Matrix: (Units=1/GPa)
#
#
# Indices 1 2 3 4 5 6 
#
# 1 0.062298 0.035269 -0.002423 -0.024747 -0.037035 -0.054410
# 2 0.035269 0.048762 -0.003640 -0.030932 -0.020311 -0.055599
# 3 -0.002423 -0.003640 0.013473 0.000174 0.000270 0.001437
# 4 -0.024747 -0.030932 0.000174 0.066571 0.007259 0.027909
# 5 -0.037035 -0.020311 0.000270 0.007259 0.071351 0.029636
# 6 -0.054410 -0.055599 0.001437 0.027909 0.029636 0.102963
#
#
# Mechanical properties :
#
#
# Convention : Reuss Voigt Hill
#
# Bulk Modulus (GPa) = 5.46612 25.20510 15.33561
# Shear Modulus (GPa) = 13.58744 27.02803 20.30773
#
# Velocity S-wave (km/s) = 2.49267 3.51562 3.04738
# Velocity P-wave (km/s) = 3.28392 5.29202 4.40395
#
# Compressibility (1/GPa) = 0.18294528
#
# Stress axis : x y z
#
# Youngs Moduli (GPa) = 16.05197 20.50782 74.22231
#
# Poissons Ratio (x) = -0.72330 0.17984
# Poissons Ratio (y) = -0.56615 0.27018
# Poissons Ratio (z) = 0.03889 0.07465
#
# Static dielectric constant tensor:
#      x y z
#    x 3.668350 0.071130 0.124440 
#    y 0.071130 4.047760 -0.156730 
#    z 0.124440 -0.156730 3.612910 
# 
# 
# High freq. dielectric constant tensor:
#      x y z
#    x 1.827970 0.012710 0.021950 
#    y 0.012710 1.870010 -0.006440 
#    z 0.021950 -0.006440 1.838820 
# 
# From -- ./inp_files/612542.got.cif
#   From: 2010.06.25/outbox.cif.g09.slc.cpg/sg2_307_cif.got.tgz:612542.got - 2010.06.27 13:26:56.
