data_PCOD8043583
_publ_section_title
;
Structure prediction by ZEFSAII (Michael W. Deem and Ramdas Pophale) SiO2 
 PCOD8043583
Probable space group: P -1
;
_chemical_formula_sum "Si O2"
_cell_formula_units_Z 16
_cell_length_a 15.081764
_cell_length_b 11.384403
_cell_length_c 9.061212
_cell_angle_alpha 39.810146
_cell_angle_beta 72.497707
_cell_angle_gamma 55.537947
_cell_volume 794.398051
_symmetry_space_group_name_H-M "P -1"
_symmetry_group_IT_number 2
_symmetry_cell_setting 'triclinic'
loop_
_space_group_symop_operation_xyz
x,y,z
-x,-y,-z
loop_
_atom_site_type_symbol
_atom_site_label
_atom_site_fract_x
_atom_site_fract_y
_atom_site_fract_z
Si Si1 0.460847 0.574691 0.113590
Si Si2 0.964755 0.841831 0.234665
Si Si3 0.741060 0.109633 0.250761
Si Si4 0.855661 0.633707 0.339696
Si Si5 0.323262 0.240576 0.918581
Si Si6 0.326333 0.481684 0.937535
Si Si7 0.520170 0.823220 0.357721
Si Si8 0.684136 0.782724 0.540634
O O1 0.542750 0.650616 0.050949
O O2 0.481455 0.385131 0.394131
O O3 0.500000 0.500000 0.000000
O O4 0.329676 0.763295 0.986461
O O5 0.923144 0.750842 0.212613
O O6 0.065486 0.628264 0.472857
O O7 0.869973 0.975851 0.274864
O O8 0.000000 0.000000 0.000000
O O9 0.721156 0.262601 0.254195
O O10 0.694224 0.958005 0.462721
O O11 0.778012 0.748372 0.125299
O O12 0.786989 0.663084 0.492887
O O13 0.267998 0.446490 0.861983
O O14 0.401704 0.255702 0.747706
O O15 0.394990 0.018836 0.192552
O O16 0.307719 0.397393 0.181458
O O17 0.568853 0.895997 0.396645
#
# Coordination Sequence:
#
# PCOD8043583 Si02
#       8
#     2   2   2   2   2   2   2   2
#     4  10  20  34  57  91 121 152 207 239 275 352
#     4  10  20  38  70  85 110 148 203 260 296 338
#     4  10  21  35  57  96 111 151 205 247 288 336
#     4   9  21  42  60  94 111 149 205 246 299 352
#     4  10  23  37  58  86 129 162 186 242 305 352
#     4  11  22  36  56  93 123 163 194 231 297 354
#     4  10  20  39  58  85 123 168 199 233 292 352
#     4  10  19  36  65  80 126 157 203 245 271 354
#
# _framework density 20.141037000000001
#
# number of rings (size 3 to 8) (size 9 to 14) (size 15 to 20)
#    0.000    2.000    2.500    1.500    5.250    2.500 
#    2.250    0.625    0.000   10.500    0.000    0.000 
#    0.000    0.000    0.000    0.000    0.000    0.000 
#
# Total GULP energy -198304.927930 kJ/mol
# GULP energy per Si atom -12394.057996 kJ/mol
# Density = 2.009519 g / cm^3
# Si number density = 20.141037 Si / 1000 Ang^3
#
#
#
# Elastic Constant Matrix: (Units=GPa)
#
#
# Indices 1 2 3 4 5 6 
#
# 1 100.6078 25.0764 41.6696 -6.4775 0.5400 0.8589
# 2 25.0764 71.7023 24.1516 -12.0784 10.1006 13.9859
# 3 41.6696 24.1516 77.1864 -7.6186 -6.7110 -4.8351
# 4 -6.4775 -12.0784 -7.6186 29.2301 1.3596 4.7768
# 5 0.5400 10.1006 -6.7110 1.3596 35.3516 -1.0801
# 6 0.8589 13.9859 -4.8351 4.7768 -1.0801 23.8227
#
#
#
# Elastic Compliance Matrix: (Units=1/GPa)
#
#
# Indices 1 2 3 4 5 6 
#
# 1 0.013215 -0.002042 -0.006569 0.000539 -0.000909 -0.000760
# 2 -0.002042 0.023624 -0.007126 0.010783 -0.009031 -0.017814
# 3 -0.006569 -0.007126 0.019729 -0.001002 0.006192 0.008907
# 4 0.000539 0.010783 -0.001002 0.041235 -0.005326 -0.015063
# 5 -0.000909 -0.009031 0.006192 -0.005326 0.032541 0.009135
# 6 -0.000760 -0.017814 0.008907 -0.015063 0.009135 0.057704
#
#
# Mechanical properties :
#
#
# Convention : Reuss Voigt Hill
#
# Bulk Modulus (GPa) = 39.84960 47.92130 43.88545
# Shear Modulus (GPa) = 21.94056 28.25413 25.09734
#
# Velocity S-wave (km/s) = 3.30410 3.74948 3.53382
# Velocity P-wave (km/s) = 5.86382 6.52605 6.20378
#
# Compressibility (1/GPa) = 0.02509435
#
# Stress axis : x y z
#
# Youngs Moduli (GPa) = 75.66960 42.32924 50.68616
#
# Poissons Ratio (x) = 0.08643 0.33295
# Poissons Ratio (y) = 0.15451 0.36121
# Poissons Ratio (z) = 0.49707 0.30166
#
# Static dielectric constant tensor:
#      x y z
#    x 4.064360 -0.002450 0.087960 
#    y -0.002450 3.620700 -0.188440 
#    z 0.087960 -0.188440 3.624690 
# 
# 
# High freq. dielectric constant tensor:
#      x y z
#    x 1.786850 0.002570 -0.012620 
#    y 0.002570 1.776930 -0.012030 
#    z -0.012620 -0.012030 1.772500 
# 
# From -- ./inp_files/304542.got.cif
#   From: 2010.06.25/outbox.cif.g09.slc.cpg/sg2_153_cif.got.tgz:304542.got - 2010.06.27 13:26:56.
