data_PCOD8043857
_publ_section_title
;
Structure prediction by ZEFSAII (Michael W. Deem and Ramdas Pophale) SiO2 
 PCOD8043857
Probable space group: P -1
;
_chemical_formula_sum "Si O2"
_cell_formula_units_Z 16
_cell_length_a 13.066474
_cell_length_b 8.822523
_cell_length_c 8.897403
_cell_angle_alpha 132.946944
_cell_angle_beta 69.716085
_cell_angle_gamma 112.696000
_cell_volume 687.297126
_symmetry_space_group_name_H-M "P -1"
_symmetry_group_IT_number 2
_symmetry_cell_setting 'triclinic'
loop_
_space_group_symop_operation_xyz
x,y,z
-x,-y,-z
loop_
_atom_site_type_symbol
_atom_site_label
_atom_site_fract_x
_atom_site_fract_y
_atom_site_fract_z
Si Si1 0.155520 0.081389 0.295924
Si Si2 0.912511 0.513522 0.277339
Si Si3 0.139613 0.641680 0.117932
Si Si4 0.623829 0.763281 0.546532
Si Si5 0.382105 0.647896 0.097893
Si Si6 0.599995 0.809625 0.241328
Si Si7 0.414741 0.713663 0.792620
Si Si8 0.762753 0.095800 0.133776
O O1 0.092579 0.268426 0.487827
O O2 0.265477 0.101666 0.351078
O O3 0.091960 0.847105 0.226016
O O4 0.178996 0.072794 0.097695
O O5 0.854936 0.310871 0.273489
O O6 0.043465 0.511685 0.188130
O O7 0.851001 0.495998 0.131851
O O8 0.257286 0.691132 0.181918
O O9 0.619942 0.820856 0.414269
O O10 0.523813 0.840537 0.735620
O O11 0.621981 0.518984 0.420194
O O12 0.467537 0.806648 0.273982
O O13 0.374243 0.405363 0.988284
O O14 0.443735 0.687486 0.933053
O O15 0.690484 0.003382 0.253063
O O16 0.317479 0.839628 0.908910
#
# Coordination Sequence:
#
# PCOD8043857 Si02
#       8
#     2   2   2   2   2   2   2   2
#     4  11  20  37  65  94 118 161 209 254 307 358
#     4  10  20  40  61  96 121 152 215 263 298 357
#     4  10  21  37  67  89 122 161 205 263 306 350
#     4  10  21  36  59  92 123 164 198 255 299 373
#     4  10  19  41  58  91 125 165 201 251 305 367
#     4  10  23  37  60  92 135 162 198 247 318 368
#     4  10  19  37  60  86 123 159 207 247 305 358
#     4  11  22  39  62  94 124 166 196 258 311 364
#
# _framework density 23.279595
#
# number of rings (size 3 to 8) (size 9 to 14) (size 15 to 20)
#    0.000    1.750    3.750    1.875    1.750    2.500 
#    0.000    0.625    0.000    1.500    0.000    0.000 
#    0.000    0.000    0.000    0.000    0.000    0.000 
#
# Total GULP energy -198312.913122 kJ/mol
# GULP energy per Si atom -12394.557070 kJ/mol
# Density = 2.322661 g / cm^3
# Si number density = 23.279595 Si / 1000 Ang^3
#
#
#
# Elastic Constant Matrix: (Units=GPa)
#
#
# Indices 1 2 3 4 5 6 
#
# 1 73.1816 40.6852 20.4676 -12.2358 -8.6781 20.6094
# 2 40.6852 114.0741 13.5393 -14.2919 -8.0000 19.9034
# 3 20.4676 13.5393 58.9509 4.1424 -14.7419 1.8470
# 4 -12.2358 -14.2919 4.1424 31.3288 -2.0879 -8.2186
# 5 -8.6781 -8.0000 -14.7419 -2.0879 28.3858 -2.3125
# 6 20.6094 19.9034 1.8470 -8.2186 -2.3125 30.6144
#
#
#
# Elastic Compliance Matrix: (Units=1/GPa)
#
#
# Indices 1 2 3 4 5 6 
#
# 1 0.021674 -0.004580 -0.006062 0.004708 0.001730 -0.009852
# 2 -0.004580 0.011552 -0.000808 0.002750 0.001350 -0.003538
# 3 -0.006062 -0.000808 0.021747 -0.004258 0.009131 0.002841
# 4 0.004708 0.002750 -0.004258 0.037241 0.003193 0.005539
# 5 0.001730 0.001350 0.009131 0.003193 0.041228 0.001378
# 6 -0.009852 -0.003538 0.002841 0.005539 0.001378 0.043017
#
#
# Mechanical properties :
#
#
# Convention : Reuss Voigt Hill
#
# Bulk Modulus (GPa) = 31.17962 43.95451 37.56707
# Shear Modulus (GPa) = 23.80376 29.50010 26.65193
#
# Velocity S-wave (km/s) = 3.20115 3.56365 3.38725
# Velocity P-wave (km/s) = 5.20440 5.98790 5.60984
#
# Compressibility (1/GPa) = 0.03207223
#
# Stress axis : x y z
#
# Youngs Moduli (GPa) = 46.13918 86.56369 45.98266
#
# Poissons Ratio (x) = 0.39649 0.27877
# Poissons Ratio (y) = 0.21133 0.03714
# Poissons Ratio (z) = 0.27972 0.06992
#
# Static dielectric constant tensor:
#      x y z
#    x 3.948240 0.323600 -0.073590 
#    y 0.323600 4.303230 0.262900 
#    z -0.073590 0.262900 4.119400 
# 
# 
# High freq. dielectric constant tensor:
#      x y z
#    x 1.897100 0.024640 -0.006060 
#    y 0.024640 1.921130 0.014690 
#    z -0.006060 0.014690 1.917800 
# 
# From -- ./inp_files/296715.got.cif
#   From: 2010.06.25/outbox.cif.g09.slc.cpg/sg2_149_cif.got.tgz:296715.got - 2010.06.27 13:26:56.
