data_PCOD8043727
_publ_section_title
;
Structure prediction by ZEFSAII (Michael W. Deem and Ramdas Pophale) SiO2 
 PCOD8043727
Probable space group: P -1
;
_chemical_formula_sum "Si O2"
_cell_formula_units_Z 16
_cell_length_a 21.765058
_cell_length_b 11.282163
_cell_length_c 9.787617
_cell_angle_alpha 121.371979
_cell_angle_beta 28.518160
_cell_angle_gamma 133.489105
_cell_volume 807.580841
_symmetry_space_group_name_H-M "P -1"
_symmetry_group_IT_number 2
_symmetry_cell_setting 'triclinic'
loop_
_space_group_symop_operation_xyz
x,y,z
-x,-y,-z
loop_
_atom_site_type_symbol
_atom_site_label
_atom_site_fract_x
_atom_site_fract_y
_atom_site_fract_z
Si Si1 0.846779 0.973144 0.715257
Si Si2 0.109238 0.456334 0.184658
Si Si3 0.568966 0.613832 0.063535
Si Si4 0.357620 0.719430 0.651839
Si Si5 0.805547 0.949313 0.213696
Si Si6 0.667600 0.042591 0.325126
Si Si7 0.082258 0.932390 0.663674
Si Si8 0.653982 0.586278 0.165717
O O1 0.872653 0.073235 0.583764
O O2 0.724189 0.779609 0.803562
O O3 0.000000 0.000000 0.500000
O O4 0.766228 0.030631 0.007206
O O5 0.000000 0.500000 0.500000
O O6 0.012221 0.260248 0.209599
O O7 0.197687 0.587074 0.965203
O O8 0.243050 0.484285 0.042304
O O9 0.433778 0.625057 0.397051
O O10 0.621041 0.546329 0.045594
O O11 0.500000 0.500000 0.000000
O O12 0.321077 0.787189 0.627644
O O13 0.486298 0.881959 0.588803
O O14 0.731090 0.780182 0.169415
O O15 0.753395 0.061057 0.311539
O O16 0.773403 0.950788 0.441356
O O17 0.988999 0.022865 0.894943
O O18 0.500000 0.500000 0.500000
#
# Coordination Sequence:
#
# PCOD8043727 Si02
#       8
#     2   2   2   2   2   2   2   2
#     4  11  19  38  61  89 121 160 209 254 310 373
#     4  11  22  40  63  92 127 163 206 257 320 371
#     4  11  24  39  61  95 124 164 213 261 314 377
#     4  10  21  39  61  87 118 165 204 252 312 375
#     4  10  19  37  57  88 114 160 201 249 306 363
#     4  10  19  38  65  81 118 162 203 247 312 372
#     4  10  22  33  60  90 120 153 206 256 303 367
#     4  11  20  40  67  85 121 165 206 253 314 374
#
# _framework density 19.812259000000001
#
# number of rings (size 3 to 8) (size 9 to 14) (size 15 to 20)
#    0.000    1.500    5.000    1.500    1.750    1.000 
#    2.250    0.625    0.000    3.750    0.000    0.000 
#    0.000    0.000    0.000    0.000    0.000    0.000 
#
# Total GULP energy -198211.784139 kJ/mol
# GULP energy per Si atom -12388.236509 kJ/mol
# Density = 1.976717 g / cm^3
# Si number density = 19.812259 Si / 1000 Ang^3
#
#
#
# Elastic Constant Matrix: (Units=GPa)
#
#
# Indices 1 2 3 4 5 6 
#
# 1 162.9148 35.1312 28.9631 -0.5411 6.0084 -1.6853
# 2 35.1312 56.2162 23.9068 -7.4305 2.7932 -4.9820
# 3 28.9631 23.9068 87.6300 -14.0418 -5.2254 -3.3027
# 4 -0.5411 -7.4305 -14.0418 25.9609 -9.6037 1.1830
# 5 6.0084 2.7932 -5.2254 -9.6037 34.2004 6.3363
# 6 -1.6853 -4.9820 -3.3027 1.1830 6.3363 36.1343
#
#
#
# Elastic Compliance Matrix: (Units=1/GPa)
#
#
# Indices 1 2 3 4 5 6 
#
# 1 0.007428 -0.004094 -0.001910 -0.002817 -0.002065 0.000062
# 2 -0.004094 0.022956 -0.004320 0.003536 -0.001322 0.002695
# 3 -0.001910 -0.004320 0.014960 0.008908 0.005585 -0.000588
# 4 -0.002817 0.003536 0.008908 0.050499 0.016369 -0.003353
# 5 -0.002065 -0.001322 0.005585 0.016369 0.036399 -0.006687
# 6 0.000062 0.002695 -0.000588 -0.003353 -0.006687 0.029278
#
#
# Mechanical properties :
#
#
# Convention : Reuss Voigt Hill
#
# Bulk Modulus (GPa) = 40.49401 53.64037 47.06719
# Shear Modulus (GPa) = 26.26046 33.84310 30.05178
#
# Velocity S-wave (km/s) = 3.64464 4.13751 3.89887
# Velocity P-wave (km/s) = 6.18017 7.06813 6.63901
#
# Compressibility (1/GPa) = 0.02469501
#
# Stress axis : x y z
#
# Youngs Moduli (GPa) = 134.62467 43.56142 66.84539
#
# Poissons Ratio (x) = 0.17833 0.12770
# Poissons Ratio (y) = 0.55113 0.28879
# Poissons Ratio (z) = 0.25719 0.18820
#
# Static dielectric constant tensor:
#      x y z
#    x 6.038310 -0.184220 0.809850 
#    y -0.184220 3.455060 -0.323190 
#    z 0.809850 -0.323190 3.674210 
# 
# 
# High freq. dielectric constant tensor:
#      x y z
#    x 1.785520 -0.012290 -0.005430 
#    y -0.012290 1.752200 -0.009110 
#    z -0.005430 -0.009110 1.765320 
# 
# From -- ./inp_files/255102.got.cif
#   From: 2010.06.25/outbox.cif.g09.slc.cpg/sg2_128_cif.got.tgz:255102.got - 2010.06.27 13:26:56.
