data_PCOD8043167
_publ_section_title
;
Structure prediction by ZEFSAII (Michael W. Deem and Ramdas Pophale) SiO2 
 PCOD8043167
Probable space group: P -1
;
_chemical_formula_sum "Si O2"
_cell_formula_units_Z 16
_cell_length_a 15.487706
_cell_length_b 11.800091
_cell_length_c 9.294723
_cell_angle_alpha 35.399555
_cell_angle_beta 56.322823
_cell_angle_gamma 72.470423
_cell_volume 777.757596
_symmetry_space_group_name_H-M "P -1"
_symmetry_group_IT_number 2
_symmetry_cell_setting 'triclinic'
loop_
_space_group_symop_operation_xyz
x,y,z
-x,-y,-z
loop_
_atom_site_type_symbol
_atom_site_label
_atom_site_fract_x
_atom_site_fract_y
_atom_site_fract_z
Si Si1 0.655947 0.127142 0.717347
Si Si2 0.844287 0.522163 0.187138
Si Si3 0.566908 0.741147 0.701554
Si Si4 0.207000 0.105664 0.051283
Si Si5 0.494079 0.983247 0.766294
Si Si6 0.188724 0.103067 0.752437
Si Si7 0.986677 0.262697 0.409786
Si Si8 0.003009 0.273028 0.709110
O O1 0.755184 0.332154 0.395870
O O2 0.592872 0.114739 0.639250
O O3 0.697036 0.927090 0.904286
O O4 0.593414 0.147897 0.901135
O O5 0.930486 0.445182 0.277999
O O6 0.789522 0.657665 0.194294
O O7 0.902348 0.668882 0.851816
O O8 0.545146 0.858007 0.458660
O O9 0.698407 0.783209 0.554047
O O10 0.526779 0.824348 0.796926
O O11 0.500000 0.500000 0.000000
O O12 0.091569 0.945874 0.374458
O O13 0.225949 0.042597 0.935749
O O14 0.112456 0.248553 0.704889
O O15 0.111723 0.894797 0.958091
O O16 0.017635 0.220978 0.584179
O O17 0.000000 0.500000 0.500000
#
# Coordination Sequence:
#
# PCOD8043167 Si02
#       8
#     2   2   2   2   2   2   2   2
#     4  10  22  39  63  88 121 159 204 250 308 359
#     4  10  20  34  60  83 117 160 194 248 303 366
#     4  11  25  43  66  90 126 167 207 255 313 364
#     4  10  19  36  59  84 119 156 197 253 298 361
#     4  10  24  44  60  91 125 158 206 263 300 362
#     4  10  22  38  57  91 117 153 213 244 297 377
#     4   9  20  35  51  88 118 149 204 239 308 358
#     4  10  21  37  61  84 120 160 193 253 303 362
#
# _framework density 20.571964999999999
#
# number of rings (size 3 to 8) (size 9 to 14) (size 15 to 20)
#    0.000    2.000    1.250    1.125    1.750    6.000 
#    0.000    5.000    0.000    0.000    0.000    0.000 
#    0.000    0.000    0.000    0.000    0.000    0.000 
#
# Total GULP energy -198302.081824 kJ/mol
# GULP energy per Si atom -12393.880114 kJ/mol
# Density = 2.052514 g / cm^3
# Si number density = 20.571965 Si / 1000 Ang^3
#
#
#
# Elastic Constant Matrix: (Units=GPa)
#
#
# Indices 1 2 3 4 5 6 
#
# 1 99.9458 36.8609 32.9336 -1.6892 -10.2767 -1.4642
# 2 36.8609 85.4378 35.1973 -10.6493 -1.3728 -6.1626
# 3 32.9336 35.1973 94.5069 -8.8943 -16.2363 -5.8097
# 4 -1.6892 -10.6493 -8.8943 33.8268 -2.4886 14.2260
# 5 -10.2767 -1.3728 -16.2363 -2.4886 30.7299 2.3404
# 6 -1.4642 -6.1626 -5.8097 14.2260 2.3404 26.9083
#
#
#
# Elastic Compliance Matrix: (Units=1/GPa)
#
#
# Indices 1 2 3 4 5 6 
#
# 1 0.012761 -0.004653 -0.002368 -0.000995 0.002774 -0.000598
# 2 -0.004653 0.015965 -0.004510 0.002889 -0.003081 0.001170
# 3 -0.002368 -0.004510 0.014536 0.002849 0.006928 -0.000132
# 4 -0.000995 0.002889 0.002849 0.040291 0.006135 -0.020612
# 5 0.002774 -0.003081 0.006928 0.006135 0.037915 -0.005600
# 6 -0.000598 0.001170 -0.000132 -0.020612 -0.005600 0.048755
#
#
# Mechanical properties :
#
#
# Convention : Reuss Voigt Hill
#
# Bulk Modulus (GPa) = 49.50228 54.43045 51.96636
# Shear Modulus (GPa) = 24.99774 29.95289 27.47532
#
# Velocity S-wave (km/s) = 3.48966 3.81990 3.65851
# Velocity P-wave (km/s) = 6.35234 6.78023 6.56977
#
# Compressibility (1/GPa) = 0.02020109
#
# Stress axis : x y z
#
# Youngs Moduli (GPa) = 78.36188 62.63856 68.79335
#
# Poissons Ratio (x) = 0.29143 0.16291
# Poissons Ratio (y) = 0.36459 0.31024
# Poissons Ratio (z) = 0.18557 0.28249
#
# Static dielectric constant tensor:
#      x y z
#    x 3.872460 -0.009470 -0.050760 
#    y -0.009470 3.460580 0.040090 
#    z -0.050760 0.040090 3.761170 
# 
# 
# High freq. dielectric constant tensor:
#      x y z
#    x 1.811520 -0.002130 0.000600 
#    y -0.002130 1.786980 -0.000710 
#    z 0.000600 -0.000710 1.807260 
# 
# From -- ./inp_files/306231.got.cif
#   From: 2010.06.25/outbox.cif.g09.slc.cpg/sg2_154_cif.got.tgz:306231.got - 2010.06.27 13:26:56.
