data_PCOD8043900
_publ_section_title
;
Structure prediction by ZEFSAII (Michael W. Deem and Ramdas Pophale) SiO2 
 PCOD8043900
Probable space group: P -1
;
_chemical_formula_sum "Si O2"
_cell_formula_units_Z 16
_cell_length_a 8.611733
_cell_length_b 14.986866
_cell_length_c 14.605533
_cell_angle_alpha 29.309458
_cell_angle_beta 109.317067
_cell_angle_gamma 90.574863
_cell_volume 694.904425
_symmetry_space_group_name_H-M "P -1"
_symmetry_group_IT_number 2
_symmetry_cell_setting 'triclinic'
loop_
_space_group_symop_operation_xyz
x,y,z
-x,-y,-z
loop_
_atom_site_type_symbol
_atom_site_label
_atom_site_fract_x
_atom_site_fract_y
_atom_site_fract_z
Si Si1 0.978217 0.166848 0.573286
Si Si2 0.451158 0.934057 0.164488
Si Si3 0.612102 0.748649 0.706969
Si Si4 0.333432 0.829932 0.723463
Si Si5 0.852785 0.715268 0.342581
Si Si6 0.589508 0.269640 0.484154
Si Si7 0.432019 0.765487 0.997562
Si Si8 0.047540 0.696656 0.756255
O O1 0.993992 0.299228 0.540774
O O2 0.803532 0.134109 0.591044
O O3 0.929790 0.310834 0.342312
O O4 0.187525 0.915788 0.828416
O O5 0.671207 0.722583 0.353436
O O6 0.382495 0.852374 0.306377
O O7 0.267948 0.049402 0.950605
O O8 0.468486 0.132748 0.021155
O O9 0.477449 0.686440 0.793407
O O10 0.578663 0.728476 0.611157
O O11 0.500000 0.000000 0.500000
O O12 0.850644 0.556964 0.955989
O O13 0.165518 0.786071 0.747522
O O14 0.478946 0.753059 0.909453
O O15 0.198069 0.115983 0.431633
O O16 0.000000 0.500000 0.500000
O O17 0.523820 0.517498 0.275431
#
# Coordination Sequence:
#
# PCOD8043900 Si02
#       8
#     2   2   2   2   2   2   2   2
#     4  10  22  39  66  93 121 165 216 253 309 374
#     4  10  24  43  65  95 124 158 210 259 317 378
#     4  12  24  35  55  92 130 164 206 252 306 367
#     4  10  19  37  61  82 120 166 209 240 296 364
#     4  10  22  45  68  89 123 164 204 261 322 376
#     4  12  23  39  64  95 128 163 207 261 311 369
#     4  10  21  41  64  91 129 170 207 255 308 367
#     4  10  20  38  61  84 119 168 203 248 296 361
#
# _framework density 23.024750000000001
#
# number of rings (size 3 to 8) (size 9 to 14) (size 15 to 20)
#    0.000    1.500    2.500    2.625    0.000    3.000 
#    0.000   11.250    0.000    0.000    0.000    0.000 
#    0.000    0.000    0.000    0.000    0.000    0.000 
#
# Total GULP energy -198363.228791 kJ/mol
# GULP energy per Si atom -12397.701799 kJ/mol
# Density = 2.297234 g / cm^3
# Si number density = 23.024750 Si / 1000 Ang^3
#
#
#
# Elastic Constant Matrix: (Units=GPa)
#
#
# Indices 1 2 3 4 5 6 
#
# 1 56.0392 9.1018 26.3860 1.8154 17.9400 -15.8505
# 2 9.1018 108.7289 19.5954 13.1724 3.9621 -5.0933
# 3 26.3860 19.5954 98.7378 2.5112 -3.8580 -0.5508
# 4 1.8154 13.1724 2.5112 45.3609 -3.3057 -0.6432
# 5 17.9400 3.9621 -3.8580 -3.3057 29.6463 -4.7993
# 6 -15.8505 -5.0933 -0.5508 -0.6432 -4.7993 37.6004
#
#
#
# Elastic Compliance Matrix: (Units=1/GPa)
#
#
# Indices 1 2 3 4 5 6 
#
# 1 0.030984 0.000446 -0.008979 -0.002070 -0.018493 0.010594
# 2 0.000446 0.010026 -0.002106 -0.002942 -0.002016 0.001207
# 3 -0.008979 -0.002106 0.013185 0.000711 0.007030 -0.002968
# 4 -0.002070 -0.002942 0.000711 0.023251 0.004280 -0.000317
# 5 -0.018493 -0.002016 0.007030 0.004280 0.046262 -0.001988
# 6 0.010594 0.001207 -0.002968 -0.000317 -0.001988 0.030922
#
#
# Mechanical properties :
#
#
# Convention : Reuss Voigt Hill
#
# Bulk Modulus (GPa) = 30.38039 41.51911 35.94975
# Shear Modulus (GPa) = 26.75489 36.41639 31.58564
#
# Velocity S-wave (km/s) = 3.41252 3.98127 3.70782
# Velocity P-wave (km/s) = 5.36194 6.26144 5.82906
#
# Compressibility (1/GPa) = 0.03291597
#
# Stress axis : x y z
#
# Youngs Moduli (GPa) = 32.27458 99.74118 75.84158
#
# Poissons Ratio (x) = -0.04444 0.68100
# Poissons Ratio (y) = -0.01438 0.15972
# Poissons Ratio (z) = 0.28980 0.21005
#
# Static dielectric constant tensor:
#      x y z
#    x 4.682070 -0.218170 0.188740 
#    y -0.218170 4.232110 0.090490 
#    z 0.188740 0.090490 4.322510 
# 
# 
# High freq. dielectric constant tensor:
#      x y z
#    x 1.910390 -0.012800 0.016460 
#    y -0.012800 1.913580 0.004050 
#    z 0.016460 0.004050 1.915120 
# 
# From -- ./inp_files/505088.got.cif
#   From: 2010.06.25/outbox.cif.g09.slc.cpg/sg2_253_cif.got.tgz:505088.got - 2010.06.27 13:26:56.
