data_PCOD8043756
_publ_section_title
;
Structure prediction by ZEFSAII (Michael W. Deem and Ramdas Pophale) SiO2 
 PCOD8043756
Probable space group: P -1
;
_chemical_formula_sum "Si O2"
_cell_formula_units_Z 16
_cell_length_a 9.347548
_cell_length_b 16.984951
_cell_length_c 9.937958
_cell_angle_alpha 70.170664
_cell_angle_beta 42.032458
_cell_angle_gamma 95.611847
_cell_volume 826.499062
_symmetry_space_group_name_H-M "P -1"
_symmetry_group_IT_number 2
_symmetry_cell_setting 'triclinic'
loop_
_space_group_symop_operation_xyz
x,y,z
-x,-y,-z
loop_
_atom_site_type_symbol
_atom_site_label
_atom_site_fract_x
_atom_site_fract_y
_atom_site_fract_z
Si Si1 0.925259 0.426655 0.405701
Si Si2 0.682603 0.751517 0.689122
Si Si3 0.055378 0.297615 0.250870
Si Si4 0.475121 0.864580 0.170214
Si Si5 0.186510 0.912616 0.141870
Si Si6 0.632183 0.715818 0.180470
Si Si7 0.158247 0.260238 0.690742
Si Si8 0.865633 0.354658 0.783658
O O1 0.637624 0.391383 0.585515
O O2 0.908350 0.364783 0.587334
O O3 0.048681 0.396791 0.218411
O O4 0.099069 0.545179 0.238222
O O5 0.740059 0.691522 0.790916
O O6 0.645047 0.703732 0.593672
O O7 0.932664 0.867814 0.442044
O O8 0.421347 0.739447 0.925177
O O9 0.767722 0.199834 0.525112
O O10 0.148971 0.291140 0.041460
O O11 0.385912 0.888532 0.079741
O O12 0.609277 0.804366 0.082243
O O13 0.680112 0.969101 0.041233
O O14 0.090471 0.853403 0.100770
O O15 0.701351 0.739549 0.274349
O O16 0.066159 0.335980 0.723928
#
# Coordination Sequence:
#
# PCOD8043756 Si02
#       8
#     2   2   2   2   2   2   2   2
#     4  10  22  36  60  85 111 144 196 238 269 332
#     4   9  19  36  59  79 111 149 184 229 277 328
#     4  10  19  37  58  85 110 148 191 230 274 336
#     4   9  18  38  61  83 112 146 194 231 270 331
#     4   8  18  39  59  84 113 145 187 241 266 327
#     4  11  22  37  58  84 119 150 179 232 292 328
#     4  10  22  38  55  85 121 144 182 238 280 332
#     4  11  20  37  61  84 107 152 193 231 279 331
#
# _framework density 19.358764000000001
#
# number of rings (size 3 to 8) (size 9 to 14) (size 15 to 20)
#    0.750    1.500    2.500    0.750    0.000    4.500 
#    2.250    3.750    0.000    0.000    0.000    0.000 
#    0.000    0.000    0.000    0.000    0.000    0.000 
#
# Total GULP energy -198299.144751 kJ/mol
# GULP energy per Si atom -12393.696547 kJ/mol
# Density = 1.931470 g / cm^3
# Si number density = 19.358764 Si / 1000 Ang^3
#
#
#
# Elastic Constant Matrix: (Units=GPa)
#
#
# Indices 1 2 3 4 5 6 
#
# 1 73.4113 18.3407 17.8109 -4.2618 -1.2227 11.6591
# 2 18.3407 67.4678 23.2672 5.2809 -4.6174 0.7802
# 3 17.8109 23.2672 48.2137 11.2185 -6.9175 0.7703
# 4 -4.2618 5.2809 11.2185 24.8570 1.3051 -4.7227
# 5 -1.2227 -4.6174 -6.9175 1.3051 21.6825 6.4069
# 6 11.6591 0.7802 0.7703 -4.7227 6.4069 29.3455
#
#
#
# Elastic Compliance Matrix: (Units=1/GPa)
#
#
# Indices 1 2 3 4 5 6 
#
# 1 0.017003 -0.002898 -0.006035 0.005196 -0.000232 -0.005633
# 2 -0.002898 0.018309 -0.007327 -0.001076 0.001348 0.000390
# 3 -0.006035 -0.007327 0.031369 -0.014669 0.009797 -0.002731
# 4 0.005196 -0.001076 -0.014669 0.050147 -0.010189 0.008644
# 5 -0.000232 0.001348 0.009797 -0.010189 0.054171 -0.013668
# 6 -0.005633 0.000390 -0.002731 0.008644 -0.013668 0.040751
#
#
# Mechanical properties :
#
#
# Convention : Reuss Voigt Hill
#
# Bulk Modulus (GPa) = 29.27466 34.21448 31.74457
# Shear Modulus (GPa) = 19.55746 23.82191 21.68969
#
# Velocity S-wave (km/s) = 3.18191 3.51172 3.35088
# Velocity P-wave (km/s) = 5.35298 5.84425 5.60400
#
# Compressibility (1/GPa) = 0.03415924
#
# Stress axis : x y z
#
# Youngs Moduli (GPa) = 58.81478 54.61900 31.87894
#
# Poissons Ratio (x) = 0.15831 0.19238
# Poissons Ratio (y) = 0.17047 0.23358
# Poissons Ratio (z) = 0.35493 0.40020
#
# Static dielectric constant tensor:
#      x y z
#    x 3.373660 0.054380 -0.190130 
#    y 0.054380 3.403710 0.008910 
#    z -0.190130 0.008910 3.322430 
# 
# 
# High freq. dielectric constant tensor:
#      x y z
#    x 1.743210 0.004190 -0.018030 
#    y 0.004190 1.746290 0.004690 
#    z -0.018030 0.004690 1.729250 
# 
# From -- ./inp_files/216959.got.cif
#   From: 2010.06.25/outbox.cif.g09.slc.cpg/sg2_109_cif.got.tgz:216959.got - 2010.06.27 13:26:56.
