data_PCOD8043121
_publ_section_title
;
Structure prediction by ZEFSAII (Michael W. Deem and Ramdas Pophale) SiO2 
 PCOD8043121
Probable space group: P -1
;
_chemical_formula_sum "Si O2"
_cell_formula_units_Z 14
_cell_length_a 9.193853
_cell_length_b 7.445785
_cell_length_c 10.302831
_cell_angle_alpha 120.413111
_cell_angle_beta 110.082896
_cell_angle_gamma 92.215791
_cell_volume 551.244265
_symmetry_space_group_name_H-M "P -1"
_symmetry_group_IT_number 2
_symmetry_cell_setting 'triclinic'
loop_
_space_group_symop_operation_xyz
x,y,z
-x,-y,-z
loop_
_atom_site_type_symbol
_atom_site_label
_atom_site_fract_x
_atom_site_fract_y
_atom_site_fract_z
Si Si1 0.523327 0.931896 0.128122
Si Si2 0.300639 0.477264 0.906572
Si Si3 0.649930 0.614807 0.386236
Si Si4 0.713291 0.498385 0.808641
Si Si5 0.991307 0.561370 0.736940
Si Si6 0.640540 0.019161 0.653501
Si Si7 0.831301 0.253580 0.376528
O O1 0.422392 0.032716 0.237171
O O2 0.711861 0.015164 0.254879
O O3 0.467256 0.672424 0.029375
O O4 0.500000 0.000000 0.000000
O O5 0.315943 0.324117 0.734100
O O6 0.148158 0.574739 0.875090
O O7 0.279596 0.369336 0.004465
O O8 0.458426 0.532025 0.324054
O O9 0.727441 0.833171 0.572105
O O10 0.726638 0.424320 0.379072
O O11 0.854987 0.626928 0.804856
O O12 0.748805 0.265762 0.768143
O O13 0.920758 0.318859 0.565443
O O14 0.037835 0.727854 0.691124
O O15 0.500000 0.000000 0.500000
#
# Coordination Sequence:
#
# PCOD8043121 Si02
#       7
#     2   2   2   2   2   2   2
#     4  11  19  37  59  84 113 151 193 235 280 339
#     4  10  21  38  61  85 114 150 193 238 285 335
#     4  10  19  36  58  87 113 147 197 239 272 341
#     4  10  20  35  58  85 114 149 190 240 288 333
#     4  10  20  36  57  85 116 154 186 230 290 353
#     4   9  20  34  56  83 113 148 189 234 284 334
#     4  10  21  36  60  85 115 154 191 230 287 345
#
# _framework density 25.397089999999999
#
# number of rings (size 3 to 8) (size 9 to 14) (size 15 to 20)
#    0.000    2.000    2.857    2.571    0.000    2.286 
#    0.000    2.857    0.000   24.000    0.000    0.000 
#    0.000    0.000    0.000    0.000    0.000    0.000 
#
# Total GULP energy -173508.813277 kJ/mol
# GULP energy per Si atom -12393.486663 kJ/mol
# Density = 2.533928 g / cm^3
# Si number density = 25.397090 Si / 1000 Ang^3
#
#
#
# Elastic Constant Matrix: (Units=GPa)
#
#
# Indices 1 2 3 4 5 6 
#
# 1 137.0571 24.0236 34.8295 1.0998 -21.9449 28.0878
# 2 24.0236 62.4643 26.0336 -3.0173 -14.0461 10.0278
# 3 34.8295 26.0336 130.8672 -5.9107 -20.6413 19.9389
# 4 1.0998 -3.0173 -5.9107 36.0303 6.8761 -3.8236
# 5 -21.9449 -14.0461 -20.6413 6.8761 55.8924 -7.4472
# 6 28.0878 10.0278 19.9389 -3.8236 -7.4472 34.3065
#
#
#
# Elastic Compliance Matrix: (Units=1/GPa)
#
#
# Indices 1 2 3 4 5 6 
#
# 1 0.009552 -0.001823 -0.000911 -0.001719 0.002308 -0.006449
# 2 -0.001823 0.018692 -0.002492 0.000488 0.002752 -0.001871
# 3 -0.000911 -0.002492 0.009225 0.000609 0.001894 -0.003409
# 4 -0.001719 0.000488 0.000609 0.028964 -0.003438 0.003392
# 5 0.002308 0.002752 0.001894 -0.003438 0.020652 0.000305
# 6 -0.006449 -0.001871 -0.003409 0.003392 0.000305 0.037401
#
#
# Mechanical properties :
#
#
# Convention : Reuss Voigt Hill
#
# Bulk Modulus (GPa) = 37.01273 55.57353 46.29313
# Shear Modulus (GPa) = 34.73590 41.61263 38.17427
#
# Velocity S-wave (km/s) = 3.70227 4.05221 3.88118
# Velocity P-wave (km/s) = 5.73420 6.61991 6.19291
#
# Compressibility (1/GPa) = 0.02701773
#
# Stress axis : x y z
#
# Youngs Moduli (GPa) = 104.68834 53.49994 108.40118
#
# Poissons Ratio (x) = 0.09752 0.09871
# Poissons Ratio (y) = 0.19083 0.27014
# Poissons Ratio (z) = 0.09533 0.13332
#
# Static dielectric constant tensor:
#      x y z
#    x 4.707630 0.125120 -0.164280 
#    y 0.125120 4.351060 0.052120 
#    z -0.164280 0.052120 5.351720 
# 
# 
# High freq. dielectric constant tensor:
#      x y z
#    x 2.009470 0.008350 -0.010940 
#    y 0.008350 1.978220 -0.020520 
#    z -0.010940 -0.020520 2.027320 
# 
# From -- ./inp_files/380662.got.cif
#   From: 2010.06.25/outbox.cif.g09.slc.cpg/sg2_191_cif.got.tgz:380662.got - 2010.06.27 13:26:56.
