data_PCOD8043672
_publ_section_title
;
Structure prediction by ZEFSAII (Michael W. Deem and Ramdas Pophale) SiO2 
 PCOD8043672
Probable space group: P -1
;
_chemical_formula_sum "Si O2"
_cell_formula_units_Z 16
_cell_length_a 12.915670
_cell_length_b 24.995110
_cell_length_c 9.400525
_cell_angle_alpha 143.027519
_cell_angle_beta 133.594073
_cell_angle_gamma 27.311267
_cell_volume 835.171726
_symmetry_space_group_name_H-M "P -1"
_symmetry_group_IT_number 2
_symmetry_cell_setting 'triclinic'
loop_
_space_group_symop_operation_xyz
x,y,z
-x,-y,-z
loop_
_atom_site_type_symbol
_atom_site_label
_atom_site_fract_x
_atom_site_fract_y
_atom_site_fract_z
Si Si1 0.045317 0.786767 0.795576
Si Si2 0.548813 0.297218 0.043113
Si Si3 0.276961 0.147334 0.172095
Si Si4 0.377331 0.479074 0.533280
Si Si5 0.913793 0.443409 0.330153
Si Si6 0.531092 0.869290 0.402848
Si Si7 0.832141 0.833023 0.416809
Si Si8 0.719571 0.458873 0.904077
O O1 0.203890 0.796513 0.984017
O O2 0.206131 0.622299 0.583558
O O3 0.878692 0.858204 0.925407
O O4 0.903126 0.862813 0.677785
O O5 0.522915 0.349279 0.287891
O O6 0.352614 0.429648 0.037597
O O7 0.541482 0.195974 0.827119
O O8 0.339497 0.182712 0.436038
O O9 0.132006 0.273508 0.189223
O O10 0.500000 0.000000 0.000000
O O11 0.232529 0.485437 0.512585
O O12 0.539965 0.464952 0.749267
O O13 0.000000 0.500000 0.500000
O O14 0.742465 0.491674 0.149810
O O15 0.688686 0.819684 0.313922
O O16 0.312184 0.038491 0.556858
O O17 0.037658 0.695284 0.232476
#
# Coordination Sequence:
#
# PCOD8043672 Si02
#       8
#     2   2   2   2   2   2   2   2
#     4   9  18  37  60  83 111 150 187 229 277 345
#     4  11  20  37  61  89 114 142 190 239 282 327
#     4  10  21  42  58  76 114 160 187 221 290 342
#     4  10  20  38  58  86 117 151 181 231 294 335
#     4  11  24  37  56  87 117 145 195 238 273 331
#     4  10  23  34  56  84 116 145 190 237 275 329
#     4  10  19  37  54  82 112 150 187 224 285 335
#     4  11  20  37  62  81 113 152 190 227 287 339
#
# _framework density 19.157737000000001
#
# number of rings (size 3 to 8) (size 9 to 14) (size 15 to 20)
#    0.000    1.750    2.500    2.625    1.750    1.000 
#    0.000    0.625    0.000    0.000    0.000    0.000 
#    0.000    0.000    0.000    0.000    0.000    0.000 
#
# Total GULP energy -198436.421572 kJ/mol
# GULP energy per Si atom -12402.276348 kJ/mol
# Density = 1.911413 g / cm^3
# Si number density = 19.157737 Si / 1000 Ang^3
#
#
#
# Elastic Constant Matrix: (Units=GPa)
#
#
# Indices 1 2 3 4 5 6 
#
# 1 116.2977 44.7644 52.8681 4.9311 18.4587 -12.1634
# 2 44.7644 81.4015 23.0435 -11.0050 3.9178 -10.1745
# 3 52.8681 23.0435 76.5896 -10.8250 13.1912 -4.6973
# 4 4.9311 -11.0050 -10.8250 29.7627 -5.1032 -10.5947
# 5 18.4587 3.9178 13.1912 -5.1032 29.8099 -0.5912
# 6 -12.1634 -10.1745 -4.6973 -10.5947 -0.5912 32.6804
#
#
#
# Elastic Compliance Matrix: (Units=1/GPa)
#
#
# Indices 1 2 3 4 5 6 
#
# 1 0.018108 -0.008381 -0.010403 -0.011625 -0.007523 -0.001270
# 2 -0.008381 0.018752 0.001545 0.012081 0.004247 0.006934
# 3 -0.010403 0.001545 0.021802 0.011167 -0.001431 0.003337
# 4 -0.011625 0.012081 0.011167 0.052224 0.009969 0.018150
# 5 -0.007523 0.004247 -0.001431 0.009969 0.040031 0.002273
# 6 -0.001270 0.006934 0.003337 0.018150 0.002273 0.038691
#
#
# Mechanical properties :
#
#
# Convention : Reuss Voigt Hill
#
# Bulk Modulus (GPa) = 41.35123 57.29343 49.32233
# Shear Modulus (GPa) = 21.53796 28.69144 25.11470
#
# Velocity S-wave (km/s) = 3.35661 3.87414 3.62462
# Velocity P-wave (km/s) = 6.05425 7.06987 6.58168
#
# Compressibility (1/GPa) = 0.02418308
#
# Stress axis : x y z
#
# Youngs Moduli (GPa) = 55.22431 53.32756 45.86663
#
# Poissons Ratio (x) = 0.44695 0.47715
# Poissons Ratio (y) = 0.46285 -0.07085
# Poissons Ratio (z) = 0.57450 -0.08237
#
# Static dielectric constant tensor:
#      x y z
#    x 3.589560 -0.105170 -0.030810 
#    y -0.105170 3.728680 -0.185660 
#    z -0.030810 -0.185660 3.150560 
# 
# 
# High freq. dielectric constant tensor:
#      x y z
#    x 1.749740 -0.007570 -0.003260 
#    y -0.007570 1.757970 -0.014340 
#    z -0.003260 -0.014340 1.717880 
# 
# From -- ./inp_files/175358.got.cif
#   From: 2010.06.25/outbox.cif.g09.slc.cpg/sg2_88_cif.got.tgz:175358.got - 2010.06.27 13:26:56.
