data_PCOD8043891
_publ_section_title
;
Structure prediction by ZEFSAII (Michael W. Deem and Ramdas Pophale) SiO2 
 PCOD8043891
Probable space group: P -1
;
_chemical_formula_sum "Si O2"
_cell_formula_units_Z 16
_cell_length_a 5.066693
_cell_length_b 20.687061
_cell_length_c 9.668820
_cell_angle_alpha 48.292096
_cell_angle_beta 106.765756
_cell_angle_gamma 101.572130
_cell_volume 724.363966
_symmetry_space_group_name_H-M "P -1"
_symmetry_group_IT_number 2
_symmetry_cell_setting 'triclinic'
loop_
_space_group_symop_operation_xyz
x,y,z
-x,-y,-z
loop_
_atom_site_type_symbol
_atom_site_label
_atom_site_fract_x
_atom_site_fract_y
_atom_site_fract_z
Si Si1 0.819087 0.398430 0.719170
Si Si2 0.786006 0.588828 0.490349
Si Si3 0.485715 0.176659 0.520205
Si Si4 0.262983 0.782173 0.950819
Si Si5 0.816122 0.022817 0.811101
Si Si6 0.839412 0.834449 0.038751
Si Si7 0.989840 0.910375 0.543135
Si Si8 0.954333 0.746442 0.461795
O O1 0.837234 0.488028 0.679969
O O2 0.539641 0.394079 0.592182
O O3 0.074916 0.389605 0.666398
O O4 0.838618 0.317490 0.943504
O O5 0.925707 0.647637 0.546425
O O6 0.573347 0.085522 0.736440
O O7 0.304552 0.141691 0.410358
O O8 0.302133 0.236048 0.504403
O O9 0.754425 0.236306 0.439211
O O10 0.584985 0.772095 0.050341
O O11 0.098160 0.825614 0.989856
O O12 0.221652 0.843371 0.724665
O O13 0.969778 0.074960 0.635720
O O14 0.711732 0.930681 0.867976
O O15 0.000000 0.000000 0.000000
O O16 0.949556 0.813557 0.237829
O O17 0.000000 0.000000 0.500000
#
# Coordination Sequence:
#
# PCOD8043891 Si02
#       8
#     2   2   2   2   2   2   2   2
#     4  10  19  37  61 101 132 168 211 269 332 394
#     4  10  20  35  65  97 136 163 211 275 334 384
#     4  12  26  43  63  92 125 179 220 269 323 397
#     4  12  24  40  65  93 134 173 214 266 330 399
#     4  12  26  44  65  95 129 171 225 280 320 384
#     4  12  24  38  64  95 128 172 217 267 328 382
#     4  12  27  46  67  94 134 181 224 273 331 391
#     4  12  22  41  65  95 133 167 218 271 336 382
#
# _framework density 22.088343999999999
#
# number of rings (size 3 to 8) (size 9 to 14) (size 15 to 20)
#    0.000    0.500    6.250    2.250    1.750    2.000 
#    0.000    0.000    0.000    1.500    0.000    0.000 
#    0.000    0.000    0.000    0.000    0.000    0.000 
#
# Total GULP energy -198318.967684 kJ/mol
# GULP energy per Si atom -12394.935480 kJ/mol
# Density = 2.203807 g / cm^3
# Si number density = 22.088344 Si / 1000 Ang^3
#
#
#
# Elastic Constant Matrix: (Units=GPa)
#
#
# Indices 1 2 3 4 5 6 
#
# 1 106.9462 31.0251 11.0980 6.0032 6.1043 1.6702
# 2 31.0251 144.9885 23.2666 -26.2788 5.1711 6.8898
# 3 11.0980 23.2666 76.3741 -9.9609 -4.9722 -1.8685
# 4 6.0032 -26.2788 -9.9609 40.1183 3.5388 0.9055
# 5 6.1043 5.1711 -4.9722 3.5388 24.6265 0.1902
# 6 1.6702 6.8898 -1.8685 0.9055 0.1902 37.6118
#
#
#
# Elastic Compliance Matrix: (Units=1/GPa)
#
#
# Indices 1 2 3 4 5 6 
#
# 1 0.010540 -0.002607 -0.001305 -0.003448 -0.001833 0.000037
# 2 -0.002607 0.009020 -0.001775 0.006115 -0.002471 -0.001759
# 3 -0.001305 -0.001775 0.014360 0.002287 0.003259 0.001025
# 4 -0.003448 0.006115 0.002287 0.030433 -0.004329 -0.001564
# 5 -0.001833 -0.002471 0.003259 -0.004329 0.042856 0.000584
# 6 0.000037 -0.001759 0.001025 -0.001564 0.000584 0.026994
#
#
# Mechanical properties :
#
#
# Convention : Reuss Voigt Hill
#
# Bulk Modulus (GPa) = 44.35888 51.00980 47.68434
# Shear Modulus (GPa) = 32.66000 37.99929 35.32964
#
# Velocity S-wave (km/s) = 3.84944 4.15219 4.00368
# Velocity P-wave (km/s) = 6.31535 6.79200 6.55801
#
# Compressibility (1/GPa) = 0.02254340
#
# Stress axis : x y z
#
# Youngs Moduli (GPa) = 94.87704 110.86395 69.64015
#
# Poissons Ratio (x) = 0.28905 0.09091
# Poissons Ratio (y) = 0.24737 0.12364
# Poissons Ratio (z) = 0.12386 0.19682
#
# Static dielectric constant tensor:
#      x y z
#    x 4.110720 0.056510 0.133390 
#    y 0.056510 4.364600 -0.349790 
#    z 0.133390 -0.349790 3.837770 
# 
# 
# High freq. dielectric constant tensor:
#      x y z
#    x 1.883250 0.003100 0.006620 
#    y 0.003100 1.881780 -0.022010 
#    z 0.006620 -0.022010 1.828430 
# 
# From -- ./inp_files/140522.got.cif
#   From: 2010.06.25/outbox.cif.g09.slc.cpg/sg2_71_cif.got.tgz:140522.got - 2010.06.27 13:26:56.
