data_PCOD8043785
_publ_section_title
;
Structure prediction by ZEFSAII (Michael W. Deem and Ramdas Pophale) SiO2 
 PCOD8043785
Probable space group: P -1
;
_chemical_formula_sum "Si O2"
_cell_formula_units_Z 16
_cell_length_a 10.074811
_cell_length_b 9.468843
_cell_length_c 14.073207
_cell_angle_alpha 98.548499
_cell_angle_beta 71.847719
_cell_angle_gamma 139.133443
_cell_volume 826.501473
_symmetry_space_group_name_H-M "P -1"
_symmetry_group_IT_number 2
_symmetry_cell_setting 'triclinic'
loop_
_space_group_symop_operation_xyz
x,y,z
-x,-y,-z
loop_
_atom_site_type_symbol
_atom_site_label
_atom_site_fract_x
_atom_site_fract_y
_atom_site_fract_z
Si Si1 0.998737 0.614285 0.207111
Si Si2 0.372995 0.244526 0.598745
Si Si3 0.272647 0.469898 0.902655
Si Si4 0.666518 0.912004 0.778092
Si Si5 0.524010 0.394932 0.770313
Si Si6 0.845022 0.576688 0.862971
Si Si7 0.067211 0.140912 0.278322
Si Si8 0.413679 0.615860 0.625572
O O1 0.924381 0.630117 0.127254
O O2 0.820681 0.499983 0.316941
O O3 0.019403 0.462126 0.169926
O O4 0.232243 0.851761 0.211710
O O5 0.434910 0.228305 0.687705
O O6 0.400422 0.435645 0.619712
O O7 0.509927 0.282689 0.487270
O O8 0.126073 0.008260 0.618016
O O9 0.468410 0.733931 0.876014
O O10 0.346375 0.370403 0.842106
O O11 0.199692 0.403375 0.019925
O O12 0.584191 0.815164 0.680318
O O13 0.869384 0.972820 0.771123
O O14 0.618140 0.379571 0.837557
O O15 0.721206 0.629815 0.697702
O O16 0.981348 0.806714 0.802601
#
# Coordination Sequence:
#
# PCOD8043785 Si02
#       8
#     2   2   2   2   2   2   2   2
#     4  11  21  40  56  87 118 145 188 238 279 334
#     4  11  18  37  60  86 107 150 192 236 278 328
#     4  10  19  39  60  83 114 149 194 229 271 338
#     4  10  19  37  59  82 116 146 190 235 272 338
#     4   9  19  37  56  84 116 143 186 236 267 340
#     4  10  22  38  59  83 120 150 182 236 285 327
#     4   9  19  35  55  83 113 147 187 231 272 339
#     4  10  21  33  62  85 111 144 194 238 278 326
#
# _framework density 19.358708
#
# number of rings (size 3 to 8) (size 9 to 14) (size 15 to 20)
#    0.750    1.250    5.000    0.750    0.000    2.000 
#    6.750    2.500    0.000    0.000    0.000    0.000 
#    0.000    0.000    0.000    0.000    0.000    0.000 
#
# Total GULP energy -198209.216341 kJ/mol
# GULP energy per Si atom -12388.076021 kJ/mol
# Density = 1.931465 g / cm^3
# Si number density = 19.358708 Si / 1000 Ang^3
#
#
#
# Elastic Constant Matrix: (Units=GPa)
#
#
# Indices 1 2 3 4 5 6 
#
# 1 76.7963 9.6283 27.5276 8.7017 6.9041 4.4287
# 2 9.6283 57.9980 30.3866 -5.8052 0.7236 11.0794
# 3 27.5276 30.3866 128.5980 -2.2507 4.6825 1.3174
# 4 8.7017 -5.8052 -2.2507 17.5840 6.8168 -0.5334
# 5 6.9041 0.7236 4.6825 6.8168 15.0804 -1.4953
# 6 4.4287 11.0794 1.3174 -0.5334 -1.4953 15.2810
#
#
#
# Elastic Compliance Matrix: (Units=1/GPa)
#
#
# Indices 1 2 3 4 5 6 
#
# 1 0.015599 -0.000843 -0.003104 -0.007253 -0.003277 -0.004216
# 2 -0.000843 0.024273 -0.005033 0.009240 -0.005088 -0.017096
# 3 -0.003104 -0.005033 0.009695 0.001951 -0.001873 0.003598
# 4 -0.007253 0.009240 0.001951 0.076291 -0.032741 -0.005307
# 5 -0.003277 -0.005088 -0.001873 -0.032741 0.084621 0.011938
# 6 -0.004216 -0.017096 0.003598 -0.005307 0.011938 0.079731
#
#
# Mechanical properties :
#
#
# Convention : Reuss Voigt Hill
#
# Bulk Modulus (GPa) = 31.63815 44.27527 37.95671
# Shear Modulus (GPa) = 15.68837 22.64574 19.16705
#
# Velocity S-wave (km/s) = 2.84985 3.42394 3.15000
# Velocity P-wave (km/s) = 5.21607 6.20901 5.73407
#
# Compressibility (1/GPa) = 0.03160741
#
# Stress axis : x y z
#
# Youngs Moduli (GPa) = 64.10477 41.19789 103.14131
#
# Poissons Ratio (x) = 0.03472 0.32020
# Poissons Ratio (y) = 0.05403 0.51911
# Poissons Ratio (z) = 0.19901 0.20735
#
# Static dielectric constant tensor:
#      x y z
#    x 3.376910 0.144220 0.035210 
#    y 0.144220 3.326900 -0.071120 
#    z 0.035210 -0.071120 3.500190 
# 
# 
# High freq. dielectric constant tensor:
#      x y z
#    x 1.739570 0.019140 0.000820 
#    y 0.019140 1.737430 -0.005850 
#    z 0.000820 -0.005850 1.744290 
# 
# From -- ./inp_files/492960.got.cif
#   From: 2010.06.25/outbox.cif.g09.slc.cpg/sg2_247_cif.got.tgz:492960.got - 2010.06.27 13:26:56.
