data_PCOD8043418
_publ_section_title
;
Structure prediction by ZEFSAII (Michael W. Deem and Ramdas Pophale) SiO2 
 PCOD8043418
Probable space group: P -1
;
_chemical_formula_sum "Si O2"
_cell_formula_units_Z 16
_cell_length_a 14.126917
_cell_length_b 13.349911
_cell_length_c 7.695978
_cell_angle_alpha 77.215929
_cell_angle_beta 118.540876
_cell_angle_gamma 144.556783
_cell_volume 698.034924
_symmetry_space_group_name_H-M "P -1"
_symmetry_group_IT_number 2
_symmetry_cell_setting 'triclinic'
loop_
_space_group_symop_operation_xyz
x,y,z
-x,-y,-z
loop_
_atom_site_type_symbol
_atom_site_label
_atom_site_fract_x
_atom_site_fract_y
_atom_site_fract_z
Si Si1 0.727312 0.601968 0.634031
Si Si2 0.315948 0.073416 0.246108
Si Si3 0.102208 0.594322 0.819789
Si Si4 0.332470 0.221342 0.530892
Si Si5 0.746829 0.379987 0.380958
Si Si6 0.951589 0.291500 0.004267
Si Si7 0.285809 0.206423 0.878847
Si Si8 0.298172 0.436365 0.770766
O O1 0.559489 0.424502 0.676930
O O2 0.767667 0.754834 0.644558
O O3 0.924861 0.699198 0.798955
O O4 0.644490 0.523439 0.397205
O O5 0.295977 0.097794 0.416023
O O6 0.535099 0.222149 0.333329
O O7 0.222722 0.080235 0.024213
O O8 0.195130 0.873441 0.199627
O O9 0.247717 0.694402 0.748363
O O10 0.885309 0.447338 0.625000
O O11 0.170966 0.743494 0.942786
O O12 0.096028 0.484460 0.965362
O O13 0.244067 0.125713 0.681045
O O14 0.821366 0.551859 0.313458
O O15 0.184861 0.240869 0.796847
O O16 0.512629 0.406239 0.007603
#
# Coordination Sequence:
#
# PCOD8043418 Si02
#       8
#     2   2   2   2   2   2   2   2
#     4  10  19  36  62  89 124 163 201 245 288 369
#     4  11  23  41  60  95 130 155 195 258 308 359
#     4  10  23  42  64  85 111 162 219 251 300 362
#     4  10  20  36  63  92 124 163 204 235 296 375
#     4  10  20  41  64  87 117 157 209 259 295 353
#     4  11  24  41  61  90 123 159 202 259 310 352
#     4   9  19  33  59  95 119 156 200 235 298 368
#     4   9  16  34  60  90 117 156 199 246 287 360
#
# _framework density 22.921488
#
# number of rings (size 3 to 8) (size 9 to 14) (size 15 to 20)
#    0.000    2.000    3.750    0.000    5.250    1.500 
#    4.500    2.500    0.000    0.000    0.000    0.000 
#    0.000    0.000    0.000    0.000    0.000    0.000 
#
# Total GULP energy -198296.141346 kJ/mol
# GULP energy per Si atom -12393.508834 kJ/mol
# Density = 2.286932 g / cm^3
# Si number density = 22.921488 Si / 1000 Ang^3
#
#
#
# Elastic Constant Matrix: (Units=GPa)
#
#
# Indices 1 2 3 4 5 6 
#
# 1 109.8598 18.5759 40.1877 13.5737 -10.5380 -28.4913
# 2 18.5759 34.5312 14.5899 7.9445 -3.3638 -20.1977
# 3 40.1877 14.5899 84.9165 3.0808 -15.3339 -13.5746
# 4 13.5737 7.9445 3.0808 22.9735 -13.3384 -9.3508
# 5 -10.5380 -3.3638 -15.3339 -13.3384 39.6391 2.7842
# 6 -28.4913 -20.1977 -13.5746 -9.3508 2.7842 24.1864
#
#
#
# Elastic Compliance Matrix: (Units=1/GPa)
#
#
# Indices 1 2 3 4 5 6 
#
# 1 0.015174 0.005441 -0.004954 -0.002283 0.000498 0.018697
# 2 0.005441 0.059024 -0.004076 -0.001084 0.000798 0.052900
# 3 -0.004954 -0.004076 0.016040 0.006717 0.006690 0.001589
# 4 -0.002283 -0.001084 0.006717 0.067198 0.022859 0.023523
# 5 0.000498 0.000798 0.006690 0.022859 0.035018 0.009814
# 6 0.018697 0.052900 0.001589 0.023523 0.009814 0.116403
#
#
# Mechanical properties :
#
#
# Convention : Reuss Voigt Hill
#
# Bulk Modulus (GPa) = 12.03985 41.77939 26.90962
# Shear Modulus (GPa) = 14.54665 27.75674 21.15170
#
# Velocity S-wave (km/s) = 2.52192 3.48364 3.04104
# Velocity P-wave (km/s) = 3.70731 5.86922 4.90876
#
# Compressibility (1/GPa) = 0.08305752
#
# Stress axis : x y z
#
# Youngs Moduli (GPa) = 65.90343 16.94235 62.34516
#
# Poissons Ratio (x) = -0.09218 0.30888
# Poissons Ratio (y) = -0.35855 0.25412
# Poissons Ratio (z) = 0.32651 0.06906
#
# Static dielectric constant tensor:
#      x y z
#    x 4.323520 -0.556950 -0.109440 
#    y -0.556950 3.845330 -0.177480 
#    z -0.109440 -0.177480 4.040660 
# 
# 
# High freq. dielectric constant tensor:
#      x y z
#    x 1.908280 -0.029970 -0.012230 
#    y -0.029970 1.865360 -0.011050 
#    z -0.012230 -0.011050 1.905550 
# 
# From -- ./inp_files/305170.got.cif
#   From: 2010.06.25/outbox.cif.g09.slc.cpg/sg2_153_cif.got.tgz:305170.got - 2010.06.27 13:26:56.
