data_PCOD8043115
_publ_section_title
;
Structure prediction by ZEFSAII (Michael W. Deem and Ramdas Pophale) SiO2 
 PCOD8043115
Probable space group: P -1
;
_chemical_formula_sum "Si O2"
_cell_formula_units_Z 16
_cell_length_a 11.857271
_cell_length_b 21.544008
_cell_length_c 9.614562
_cell_angle_alpha 42.978214
_cell_angle_beta 42.909102
_cell_angle_gamma 26.373845
_cell_volume 719.365182
_symmetry_space_group_name_H-M "P -1"
_symmetry_group_IT_number 2
_symmetry_cell_setting 'triclinic'
loop_
_space_group_symop_operation_xyz
x,y,z
-x,-y,-z
loop_
_atom_site_type_symbol
_atom_site_label
_atom_site_fract_x
_atom_site_fract_y
_atom_site_fract_z
Si Si1 0.302387 0.882700 0.890680
Si Si2 0.600370 0.750173 0.320422
Si Si3 0.143613 0.252085 0.672953
Si Si4 0.667844 0.022402 0.031606
Si Si5 0.235481 0.856031 0.710842
Si Si6 0.087374 0.518320 0.692081
Si Si7 0.313909 0.444599 0.888099
Si Si8 0.582470 0.409875 0.940758
O O1 0.319330 0.896166 0.686371
O O2 0.445687 0.728344 0.055894
O O3 0.399765 0.921391 0.840300
O O4 0.000000 0.000000 0.000000
O O5 0.822063 0.699093 0.303449
O O6 0.321779 0.856047 0.481447
O O7 0.703496 0.608137 0.404499
O O8 0.558886 0.840143 0.086392
O O9 0.144999 0.318015 0.428645
O O10 0.864812 0.324448 0.785024
O O11 0.346785 0.081327 0.781330
O O12 0.935701 0.951322 0.842031
O O13 0.425847 0.690970 0.841297
O O14 0.243827 0.505698 0.693570
O O15 0.950207 0.486893 0.925628
O O16 0.395059 0.495228 0.832292
O O17 0.500000 0.500000 0.000000
#
# Coordination Sequence:
#
# PCOD8043115 Si02
#       8
#     2   2   2   2   2   2   2   2
#     4   9  17  37  62  86 113 160 202 245 294 355
#     4  12  21  39  62  91 119 162 208 248 299 366
#     4  11  23  36  57  90 124 158 194 255 310 350
#     4  10  21  38  61  87 124 157 204 254 305 350
#     4   9  20  35  62  88 118 157 208 247 293 365
#     4  11  23  39  64  89 123 160 206 249 301 365
#     4  10  21  40  63  89 119 163 209 247 292 371
#     4  10  19  36  58  85 123 157 193 247 311 357
#
# _framework density 22.241831999999999
#
# number of rings (size 3 to 8) (size 9 to 14) (size 15 to 20)
#    0.000    1.750    1.250    4.875    0.000    0.500 
#    0.000    2.500    8.250    0.000    0.000    0.000 
#    0.000    0.000    0.000    0.000    0.000    0.000 
#
# Total GULP energy -198213.831363 kJ/mol
# GULP energy per Si atom -12388.364460 kJ/mol
# Density = 2.219121 g / cm^3
# Si number density = 22.241832 Si / 1000 Ang^3
#
#
#
# Elastic Constant Matrix: (Units=GPa)
#
#
# Indices 1 2 3 4 5 6 
#
# 1 160.1397 22.6612 29.9073 -4.9120 27.5016 17.0729
# 2 22.6612 66.2815 12.2667 -3.4086 15.0112 7.9979
# 3 29.9073 12.2667 64.6369 -12.4215 16.9856 10.3357
# 4 -4.9120 -3.4086 -12.4215 32.4762 -4.9187 7.3359
# 5 27.5016 15.0112 16.9856 -4.9187 33.7719 2.7546
# 6 17.0729 7.9979 10.3357 7.3359 2.7546 36.2598
#
#
#
# Elastic Compliance Matrix: (Units=1/GPa)
#
#
# Indices 1 2 3 4 5 6 
#
# 1 0.007818 -0.000923 -0.001676 0.000319 -0.004847 -0.002696
# 2 -0.000923 0.017345 -0.000495 0.001222 -0.006284 -0.003020
# 3 -0.001676 -0.000495 0.020716 0.007898 -0.007190 -0.006058
# 4 0.000319 0.001222 0.007898 0.036491 0.001368 -0.010158
# 5 -0.004847 -0.006284 -0.007190 0.001368 0.039970 0.002404
# 6 -0.002696 -0.003020 -0.006058 -0.010158 0.002404 0.033114
#
#
# Mechanical properties :
#
#
# Convention : Reuss Voigt Hill
#
# Bulk Modulus (GPa) = 25.19540 46.74762 35.97151
# Shear Modulus (GPa) = 28.59228 35.58309 32.08769
#
# Velocity S-wave (km/s) = 3.58930 4.00412 3.80237
# Velocity P-wave (km/s) = 5.34135 6.51466 5.95696
#
# Compressibility (1/GPa) = 0.03968979
#
# Stress axis : x y z
#
# Youngs Moduli (GPa) = 127.91410 57.65354 48.27092
#
# Poissons Ratio (x) = 0.05323 0.08090
# Poissons Ratio (y) = 0.11810 0.02392
# Poissons Ratio (z) = 0.21437 0.02857
#
# Static dielectric constant tensor:
#      x y z
#    x 4.457630 0.318660 0.324600 
#    y 0.318660 3.874860 0.097360 
#    z 0.324600 0.097360 3.982010 
# 
# 
# High freq. dielectric constant tensor:
#      x y z
#    x 1.891000 -0.001240 0.022140 
#    y -0.001240 1.868690 0.006540 
#    z 0.022140 0.006540 1.849940 
# 
# From -- ./inp_files/282867.got.cif
#   From: 2010.06.25/outbox.cif.g09.slc.cpg/sg2_142_cif.got.tgz:282867.got - 2010.06.27 13:26:56.
