data_PCOD8043570
_publ_section_title
;
Structure prediction by ZEFSAII (Michael W. Deem and Ramdas Pophale) SiO2 
 PCOD8043570
Probable space group: P -1
;
_chemical_formula_sum "Si O2"
_cell_formula_units_Z 16
_cell_length_a 8.500636
_cell_length_b 23.061411
_cell_length_c 8.086196
_cell_angle_alpha 126.350253
_cell_angle_beta 33.431790
_cell_angle_gamma 127.094072
_cell_volume 682.062827
_symmetry_space_group_name_H-M "P -1"
_symmetry_group_IT_number 2
_symmetry_cell_setting 'triclinic'
loop_
_space_group_symop_operation_xyz
x,y,z
-x,-y,-z
loop_
_atom_site_type_symbol
_atom_site_label
_atom_site_fract_x
_atom_site_fract_y
_atom_site_fract_z
Si Si1 0.582911 0.294292 0.575068
Si Si2 0.258209 0.553531 0.470428
Si Si3 0.251895 0.915210 0.693621
Si Si4 0.884043 0.710584 0.444874
Si Si5 0.675329 0.923011 0.052338
Si Si6 0.407613 0.778069 0.873152
Si Si7 0.051634 0.236059 0.175066
Si Si8 0.847927 0.553018 0.114005
O O1 0.575190 0.377243 0.669929
O O2 0.714514 0.242197 0.238527
O O3 0.845541 0.295292 0.475994
O O4 0.275794 0.253459 0.856260
O O5 0.519398 0.517468 0.258808
O O6 0.000000 0.500000 0.500000
O O7 0.084933 0.584891 0.818499
O O8 0.526458 0.900220 0.324437
O O9 0.135537 0.849622 0.816092
O O10 0.345715 0.994112 0.840874
O O11 0.012784 0.920139 0.770489
O O12 0.662611 0.732993 0.546915
O O13 0.798613 0.750096 0.751843
O O14 0.815825 0.621502 0.371689
O O15 0.207069 0.744732 0.148025
O O16 0.528417 0.866176 0.940771
O O17 0.000000 0.500000 0.000000
#
# Coordination Sequence:
#
# PCOD8043570 Si02
#       8
#     2   2   2   2   2   2   2   2
#     4  12  26  43  67  95 142 175 221 275 348 417
#     4  12  27  51  71 100 142 185 223 276 366 434
#     4  10  20  36  61  98 134 167 225 282 330 395
#     4  12  23  43  71  94 135 168 240 282 323 397
#     4  10  19  36  64  95 130 176 220 279 339 389
#     4  12  21  43  68  96 127 187 225 277 331 410
#     4  12  24  41  66 102 132 178 226 285 333 400
#     4  12  26  49  74 105 134 174 236 298 338 407
#
# _framework density 23.458251000000001
#
# number of rings (size 3 to 8) (size 9 to 14) (size 15 to 20)
#    0.000    0.500    5.000    3.750    1.750    0.000 
#    0.000    1.250    0.000    0.000    0.000    0.000 
#    0.000    0.000    0.000    0.000    0.000    0.000 
#
# Total GULP energy -198247.732226 kJ/mol
# GULP energy per Si atom -12390.483264 kJ/mol
# Density = 2.340486 g / cm^3
# Si number density = 23.458251 Si / 1000 Ang^3
#
#
#
# Elastic Constant Matrix: (Units=GPa)
#
#
# Indices 1 2 3 4 5 6 
#
# 1 58.3243 47.7715 28.4230 -6.1613 -11.1837 2.0758
# 2 47.7715 149.0645 44.2584 -7.2193 16.7590 4.3194
# 3 28.4230 44.2584 109.8595 -12.0380 -1.0682 -3.7315
# 4 -6.1613 -7.2193 -12.0380 36.8471 -0.8961 2.4504
# 5 -11.1837 16.7590 -1.0682 -0.8961 43.0101 -2.2491
# 6 2.0758 4.3194 -3.7315 2.4504 -2.2491 31.7163
#
#
#
# Elastic Compliance Matrix: (Units=1/GPa)
#
#
# Indices 1 2 3 4 5 6 
#
# 1 0.028826 -0.009374 -0.003347 0.002185 0.011090 -0.000386
# 2 -0.009374 0.011194 -0.002226 -0.000160 -0.006944 -0.001653
# 3 -0.003347 -0.002226 0.011207 0.002565 0.000416 0.001672
# 4 0.002185 -0.000160 0.002565 0.028469 0.001186 -0.001935
# 5 0.011090 -0.006944 0.000416 0.001186 0.028992 0.002233
# 6 -0.000386 -0.001653 0.001672 -0.001935 0.002233 0.032285
#
#
# Mechanical properties :
#
#
# Convention : Reuss Voigt Hill
#
# Bulk Modulus (GPa) = 46.87526 62.01713 54.44619
# Shear Modulus (GPa) = 28.09353 35.43439 31.76396
#
# Velocity S-wave (km/s) = 3.46439 3.89077 3.68375
# Velocity P-wave (km/s) = 6.00237 6.83218 6.43068
#
# Compressibility (1/GPa) = 0.02133321
#
# Stress axis : x y z
#
# Youngs Moduli (GPa) = 34.69128 89.33073 89.22930
#
# Poissons Ratio (x) = 0.83738 0.29867
# Poissons Ratio (y) = 0.32519 0.19861
# Poissons Ratio (z) = 0.11612 0.19883
#
# Static dielectric constant tensor:
#      x y z
#    x 4.153830 0.112050 -0.215950 
#    y 0.112050 4.132540 -0.000010 
#    z -0.215950 -0.000010 4.228800 
# 
# 
# High freq. dielectric constant tensor:
#      x y z
#    x 1.920120 0.007830 -0.016410 
#    y 0.007830 1.925480 -0.000650 
#    z -0.016410 -0.000650 1.943100 
# 
# From -- ./inp_files/217773.got.cif
#   From: 2010.06.25/outbox.cif.g09.slc.cpg/sg2_109_cif.got.tgz:217773.got - 2010.06.27 13:26:56.
