data_PCOD8043220
_publ_section_title
;
Structure prediction by ZEFSAII (Michael W. Deem and Ramdas Pophale) SiO2 
 PCOD8043220
Probable space group: P -1
;
_chemical_formula_sum "Si O2"
_cell_formula_units_Z 16
_cell_length_a 10.152424
_cell_length_b 20.907598
_cell_length_c 11.695042
_cell_angle_alpha 146.198709
_cell_angle_beta 134.921806
_cell_angle_gamma 34.345588
_cell_volume 777.549685
_symmetry_space_group_name_H-M "P -1"
_symmetry_group_IT_number 2
_symmetry_cell_setting 'triclinic'
loop_
_space_group_symop_operation_xyz
x,y,z
-x,-y,-z
loop_
_atom_site_type_symbol
_atom_site_label
_atom_site_fract_x
_atom_site_fract_y
_atom_site_fract_z
Si Si1 0.401489 0.353310 0.813937
Si Si2 0.197979 0.190881 0.428043
Si Si3 0.063026 0.848802 0.626297
Si Si4 0.882441 0.155930 0.909955
Si Si5 0.372707 0.556845 0.277521
Si Si6 0.321119 0.131428 0.165949
Si Si7 0.731202 0.591043 0.439705
Si Si8 0.291486 0.687895 0.736215
O O1 0.307024 0.263434 0.658280
O O2 0.303756 0.426167 0.739889
O O3 0.685386 0.238910 0.814292
O O4 0.306928 0.482495 0.037374
O O5 0.341789 0.093495 0.258932
O O6 0.177526 0.100422 0.380430
O O7 0.929250 0.318622 0.413560
O O8 0.143707 0.721764 0.395505
O O9 0.278464 0.771904 0.737712
O O10 0.024558 0.982346 0.735974
O O11 0.062274 0.192973 0.055671
O O12 0.748096 0.213079 0.033056
O O13 0.601453 0.540806 0.354673
O O14 0.458939 0.470092 0.324284
O O15 0.378153 0.244100 0.352998
O O16 0.500000 0.000000 0.000000
O O17 0.000000 0.500000 0.500000
#
# Coordination Sequence:
#
# PCOD8043220 Si02
#       8
#     2   2   2   2   2   2   2   2
#     4  10  21  38  56  81 114 152 187 231 288 335
#     4   8  19  35  55  75 117 148 183 226 285 330
#     4  10  20  34  59  85 115 148 191 227 280 338
#     4  10  19  36  60  82 112 152 188 232 286 333
#     4  11  20  34  59  87 111 148 193 236 274 334
#     4  10  20  37  58  85 113 147 192 237 276 333
#     4  11  22  40  61  81 113 151 189 235 290 342
#     4   8  18  35  55  82 112 149 183 227 280 329
#
# _framework density 20.577463000000002
#
# number of rings (size 3 to 8) (size 9 to 14) (size 15 to 20)
#    0.750    1.500    0.000    4.875    0.000    1.000 
#    0.000    8.125    0.000    0.000    0.000    0.000 
#    0.000    0.000    0.000    0.000    0.000    0.000 
#
# Total GULP energy -198221.918108 kJ/mol
# GULP energy per Si atom -12388.869882 kJ/mol
# Density = 2.053063 g / cm^3
# Si number density = 20.577463 Si / 1000 Ang^3
#
#
#
# Elastic Constant Matrix: (Units=GPa)
#
#
# Indices 1 2 3 4 5 6 
#
# 1 46.0665 -5.2988 14.7719 -15.7394 1.7645 -2.1338
# 2 -5.2988 61.3291 21.7032 -18.8838 -2.1986 4.8234
# 3 14.7719 21.7032 107.1621 -14.7654 4.4351 -5.1089
# 4 -15.7394 -18.8838 -14.7654 29.9130 -2.0419 -1.2747
# 5 1.7645 -2.1986 4.4351 -2.0419 23.1707 0.1027
# 6 -2.1338 4.8234 -5.1089 -1.2747 0.1027 24.2285
#
#
#
# Elastic Compliance Matrix: (Units=1/GPa)
#
#
# Indices 1 2 3 4 5 6 
#
# 1 0.031429 0.010563 -0.003493 0.021607 0.001177 0.001060
# 2 0.010563 0.025171 -0.004231 0.019473 0.004127 -0.003966
# 3 -0.003493 -0.004231 0.011024 0.000909 -0.002179 0.002916
# 4 0.021607 0.019473 0.000909 0.057944 0.005129 0.001245
# 5 0.001177 0.004127 -0.002179 0.005129 0.044334 -0.001095
# 6 0.001060 -0.003966 0.002916 0.001245 -0.001095 0.042842
#
#
# Mechanical properties :
#
#
# Convention : Reuss Voigt Hill
#
# Bulk Modulus (GPa) = 13.64173 30.76782 22.20478
# Shear Modulus (GPa) = 21.59833 27.68787 24.64310
#
# Velocity S-wave (km/s) = 3.24328 3.67214 3.46436
# Velocity P-wave (km/s) = 4.54632 5.74144 5.17848
#
# Compressibility (1/GPa) = 0.07330447
#
# Stress axis : x y z
#
# Youngs Moduli (GPa) = 31.81742 39.72815 90.70818
#
# Poissons Ratio (x) = -0.41966 0.31682
# Poissons Ratio (y) = -0.33610 0.38376
# Poissons Ratio (z) = 0.11113 0.16808
#
# Static dielectric constant tensor:
#      x y z
#    x 3.657260 0.088970 0.098060 
#    y 0.088970 3.570010 -0.012210 
#    z 0.098060 -0.012210 3.811610 
# 
# 
# High freq. dielectric constant tensor:
#      x y z
#    x 1.785750 0.003430 0.000940 
#    y 0.003430 1.781930 -0.000190 
#    z 0.000940 -0.000190 1.811680 
# 
# From -- ./inp_files/439180.got.cif
#   From: 2010.06.25/outbox.cif.g09.slc.cpg/sg2_220_cif.got.tgz:439180.got - 2010.06.27 13:26:56.
