data_PCOD8044188
_publ_section_title
;
Structure prediction by ZEFSAII (Michael W. Deem and Ramdas Pophale) SiO2 
 PCOD8044188
Probable space group: P -1
;
_chemical_formula_sum "Si O2"
_cell_formula_units_Z 16
_cell_length_a 15.517411
_cell_length_b 11.612901
_cell_length_c 13.667763
_cell_angle_alpha 131.162228
_cell_angle_beta 29.418919
_cell_angle_gamma 142.410037
_cell_volume 733.749188
_symmetry_space_group_name_H-M "P -1"
_symmetry_group_IT_number 2
_symmetry_cell_setting 'triclinic'
loop_
_space_group_symop_operation_xyz
x,y,z
-x,-y,-z
loop_
_atom_site_type_symbol
_atom_site_label
_atom_site_fract_x
_atom_site_fract_y
_atom_site_fract_z
Si Si1 0.849370 0.669019 0.209903
Si Si2 0.550165 0.738775 0.637608
Si Si3 0.759686 0.847778 0.693567
Si Si4 0.326143 0.939618 0.960408
Si Si5 0.789290 0.703016 0.078437
Si Si6 0.424191 0.481884 0.175884
Si Si7 0.231123 0.976922 0.705807
Si Si8 0.518734 0.145679 0.695027
O O1 0.763136 0.794993 0.396038
O O2 0.661949 0.453505 0.306930
O O3 0.875610 0.654664 0.059198
O O4 0.080207 0.752093 0.078540
O O5 0.599977 0.716691 0.688850
O O6 0.501797 0.894145 0.766819
O O7 0.770358 0.724496 0.702613
O O8 0.671693 0.962767 0.887690
O O9 0.000000 0.000000 0.500000
O O10 0.405225 0.097085 0.885603
O O11 0.613054 0.524633 0.087735
O O12 0.694635 0.813501 0.278608
O O13 0.972562 0.836152 0.892097
O O14 0.375731 0.637962 0.320781
O O15 0.500000 0.500000 0.000000
O O16 0.294973 0.887990 0.509429
O O17 0.335515 0.990222 0.714912
#
# Coordination Sequence:
#
# PCOD8044188 Si02
#       8
#     2   2   2   2   2   2   2   2
#     4  11  22  42  67  99 133 173 224 279 331 394
#     4  11  25  43  65 100 135 176 223 277 331 399
#     4  12  25  47  68  95 135 184 225 270 340 401
#     4  12  23  42  70  96 136 175 227 270 336 398
#     4  10  19  37  65  89 132 168 211 274 338 387
#     4  11  23  43  67  89 129 177 220 273 330 396
#     4   9  19  34  59  96 124 160 208 266 337 382
#     4  10  20  38  61  96 125 163 212 273 322 396
#
# _framework density 21.805816
#
# number of rings (size 3 to 8) (size 9 to 14) (size 15 to 20)
#    0.000    1.250    5.000    1.500    0.000    0.000 
#    4.500    0.625    0.000    0.000    0.000    0.000 
#    0.000    0.000    0.000    0.000    0.000    0.000 
#
# Total GULP energy -198257.582373 kJ/mol
# GULP energy per Si atom -12391.098898 kJ/mol
# Density = 2.175619 g / cm^3
# Si number density = 21.805816 Si / 1000 Ang^3
#
#
#
# Elastic Constant Matrix: (Units=GPa)
#
#
# Indices 1 2 3 4 5 6 
#
# 1 85.4431 16.5781 19.9922 -4.1823 16.6418 2.1046
# 2 16.5781 77.3593 28.0082 0.0263 6.6253 -7.0039
# 3 19.9922 28.0082 93.1776 9.4213 8.0650 -2.8817
# 4 -4.1823 0.0263 9.4213 29.0760 -3.0499 7.4201
# 5 16.6418 6.6253 8.0650 -3.0499 32.1726 1.4450
# 6 2.1046 -7.0039 -2.8817 7.4201 1.4450 33.2588
#
#
#
# Elastic Compliance Matrix: (Units=1/GPa)
#
#
# Indices 1 2 3 4 5 6 
#
# 1 0.013905 -0.001824 -0.002235 0.002555 -0.005935 -0.001770
# 2 -0.001824 0.015135 -0.003964 0.000108 -0.001304 0.002992
# 3 -0.002235 -0.003964 0.013146 -0.005207 -0.001893 0.001690
# 4 0.002555 0.000108 -0.005207 0.039314 0.004117 -0.009540
# 5 -0.005935 -0.001304 -0.001893 0.004117 0.035399 -0.002519
# 6 -0.001770 0.002992 0.001690 -0.009540 -0.002519 0.033194
#
#
# Mechanical properties :
#
#
# Convention : Reuss Voigt Hill
#
# Bulk Modulus (GPa) = 38.25275 42.79302 40.52288
# Shear Modulus (GPa) = 28.59600 31.66157 30.12879
#
# Velocity S-wave (km/s) = 3.62525 3.81462 3.72114
# Velocity P-wave (km/s) = 5.92484 6.25051 6.08986
#
# Compressibility (1/GPa) = 0.02614191
#
# Stress axis : x y z
#
# Youngs Moduli (GPa) = 71.91635 66.07172 76.07061
#
# Poissons Ratio (x) = 0.12049 0.16999
# Poissons Ratio (y) = 0.13114 0.30152
# Poissons Ratio (z) = 0.16071 0.26189
#
# Static dielectric constant tensor:
#      x y z
#    x 3.824490 0.058190 0.114150 
#    y 0.058190 3.820360 0.089090 
#    z 0.114150 0.089090 3.950790 
# 
# 
# High freq. dielectric constant tensor:
#      x y z
#    x 1.850850 0.001280 0.014280 
#    y 0.001280 1.847560 0.004130 
#    z 0.014280 0.004130 1.850150 
# 
# From -- ./inp_files/532662.got.cif
#   From: 2010.06.25/outbox.cif.g09.slc.cpg/sg2_267_cif.got.tgz:532662.got - 2010.06.27 13:26:56.
