data_PCOD8044002
_publ_section_title
;
Structure prediction by ZEFSAII (Michael W. Deem and Ramdas Pophale) SiO2 
 PCOD8044002
Probable space group: P -1
;
_chemical_formula_sum "Si O2"
_cell_formula_units_Z 16
_cell_length_a 21.663836
_cell_length_b 12.632686
_cell_length_c 12.100229
_cell_angle_alpha 35.414877
_cell_angle_beta 26.136445
_cell_angle_gamma 29.492555
_cell_volume 709.506510
_symmetry_space_group_name_H-M "P -1"
_symmetry_group_IT_number 2
_symmetry_cell_setting 'triclinic'
loop_
_space_group_symop_operation_xyz
x,y,z
-x,-y,-z
loop_
_atom_site_type_symbol
_atom_site_label
_atom_site_fract_x
_atom_site_fract_y
_atom_site_fract_z
Si Si1 0.635619 0.330299 0.346093
Si Si2 0.843308 0.461660 0.380378
Si Si3 0.577609 0.056468 0.990760
Si Si4 0.796792 0.864279 0.008280
Si Si5 0.934406 0.207118 0.852298
Si Si6 0.557583 0.490647 0.694002
Si Si7 0.262824 0.111677 0.350368
Si Si8 0.752006 0.263811 0.876951
O O1 0.500000 0.500000 0.500000
O O2 0.531718 0.323402 0.414697
O O3 0.730058 0.108608 0.449628
O O4 0.767392 0.390736 0.033546
O O5 0.740964 0.433857 0.471813
O O6 0.793038 0.424550 0.612676
O O7 0.035226 0.276478 0.211858
O O8 0.798021 0.709154 0.234101
O O9 0.646144 0.941738 0.097065
O O10 0.689583 0.888699 0.854250
O O11 0.579772 0.272160 0.796740
O O12 0.384982 0.132424 0.219172
O O13 0.782479 0.072450 0.909203
O O14 0.873348 0.162190 0.873256
O O15 0.065175 0.281453 0.554244
O O16 0.000000 0.000000 0.000000
O O17 0.443268 0.584612 0.907124
#
# Coordination Sequence:
#
# PCOD8044002 Si02
#       8
#     2   2   2   2   2   2   2   2
#     4  10  19  37  62  88 124 165 215 267 321 386
#     4  11  24  42  65  98 129 167 219 267 325 395
#     4  11  22  39  66  92 132 176 219 271 321 387
#     4  11  25  42  68  99 129 169 220 269 328 386
#     4   9  21  39  64  94 123 168 218 261 325 389
#     4  11  23  40  64  94 130 171 219 262 332 389
#     4  10  21  39  64  90 129 173 220 264 329 377
#     4  11  23  43  67  94 133 171 209 271 328 385
#
# _framework density 22.550884
#
# number of rings (size 3 to 8) (size 9 to 14) (size 15 to 20)
#    0.000    1.500    2.500    2.250    1.750    0.500 
#    6.750    2.500    2.750    0.000    0.000    0.000 
#    0.000    0.000    0.000    0.000    0.000    0.000 
#
# Total GULP energy -198255.623954 kJ/mol
# GULP energy per Si atom -12390.976497 kJ/mol
# Density = 2.249956 g / cm^3
# Si number density = 22.550884 Si / 1000 Ang^3
#
#
#
# Elastic Constant Matrix: (Units=GPa)
#
#
# Indices 1 2 3 4 5 6 
#
# 1 115.7838 16.8094 41.5252 11.2718 3.4807 -17.1026
# 2 16.8094 55.4700 13.2148 1.9237 5.9426 -0.3182
# 3 41.5252 13.2148 103.5206 12.0485 -6.7801 2.4260
# 4 11.2718 1.9237 12.0485 28.7986 -9.7152 0.8582
# 5 3.4807 5.9426 -6.7801 -9.7152 46.1400 1.3950
# 6 -17.1026 -0.3182 2.4260 0.8582 1.3950 22.8055
#
#
#
# Elastic Compliance Matrix: (Units=1/GPa)
#
#
# Indices 1 2 3 4 5 6 
#
# 1 0.012631 -0.002238 -0.004723 -0.003968 -0.002504 0.010246
# 2 -0.002238 0.019402 -0.001660 -0.000594 -0.002668 -0.001045
# 3 -0.004723 -0.001660 0.012288 -0.002351 0.002029 -0.004908
# 4 -0.003968 -0.000594 -0.002351 0.040369 0.008675 -0.004784
# 5 -0.002504 -0.002668 0.002029 0.008675 0.024450 -0.003953
# 6 0.010246 -0.001045 -0.004908 -0.004784 -0.003953 0.052462
#
#
# Mechanical properties :
#
#
# Convention : Reuss Voigt Hill
#
# Bulk Modulus (GPa) = 36.92981 46.43035 41.68008
# Shear Modulus (GPa) = 26.61420 33.09716 29.85568
#
# Velocity S-wave (km/s) = 3.43911 3.83517 3.64253
# Velocity P-wave (km/s) = 5.67289 6.34391 6.01776
#
# Compressibility (1/GPa) = 0.02707839
#
# Stress axis : x y z
#
# Youngs Moduli (GPa) = 79.17301 51.54172 81.38072
#
# Poissons Ratio (x) = 0.11533 0.38437
# Poissons Ratio (y) = 0.17716 0.13511
# Poissons Ratio (z) = 0.37394 0.08557
#
# Static dielectric constant tensor:
#      x y z
#    x 3.771970 -0.136520 0.131150 
#    y -0.136520 4.184450 0.400570 
#    z 0.131150 0.400570 4.561040 
# 
# 
# High freq. dielectric constant tensor:
#      x y z
#    x 1.892740 -0.025440 0.004590 
#    y -0.025440 1.875100 0.013370 
#    z 0.004590 0.013370 1.900840 
# 
# From -- ./inp_files/471134.got.cif
#   From: 2010.06.25/outbox.cif.g09.slc.cpg/sg2_236_cif.got.tgz:471134.got - 2010.06.27 13:26:56.
