data_PCOD8044043
_publ_section_title
;
Structure prediction by ZEFSAII (Michael W. Deem and Ramdas Pophale) SiO2 
 PCOD8044043
Probable space group: P -1
;
_chemical_formula_sum "Si O2"
_cell_formula_units_Z 12
_cell_length_a 11.819037
_cell_length_b 30.760384
_cell_length_c 15.418979
_cell_angle_alpha 163.574340
_cell_angle_beta 154.208924
_cell_angle_gamma 21.010755
_cell_volume 567.652992
_symmetry_space_group_name_H-M "P -1"
_symmetry_group_IT_number 2
_symmetry_cell_setting 'triclinic'
loop_
_space_group_symop_operation_xyz
x,y,z
-x,-y,-z
loop_
_atom_site_type_symbol
_atom_site_label
_atom_site_fract_x
_atom_site_fract_y
_atom_site_fract_z
Si Si1 0.835177 0.762523 0.649917
Si Si2 0.863592 0.032906 0.715196
Si Si3 0.249906 0.132445 0.390711
Si Si4 0.854003 0.970160 0.259903
Si Si5 0.881410 0.445048 0.394764
Si Si6 0.234549 0.799771 0.679807
O O1 0.788730 0.735002 0.463661
O O2 0.934773 0.587454 0.447584
O O3 0.513518 0.944291 0.815283
O O4 0.110916 0.798685 0.913051
O O5 0.506764 0.110933 0.593187
O O6 0.094712 0.931476 0.597590
O O7 0.973276 0.888350 0.593024
O O8 0.917553 0.229061 0.395958
O O9 0.353882 0.931648 0.038903
O O10 0.000000 0.000000 0.500000
O O11 0.063194 0.750245 0.964437
O O12 0.518157 0.602100 0.461957
O O13 0.000000 0.500000 0.500000
#
# Coordination Sequence:
#
# PCOD8044043 Si02
#       6
#     2   2   2   2   2   2
#     4  10  21  39  62  85 118 160 197 242 296 358
#     4  10  19  37  63  84 117 162 197 239 297 354
#     4  10  20  39  63  86 118 166 200 229 300 370
#     4  11  21  39  65  85 117 162 200 234 301 364
#     4  11  22  39  61  90 125 150 194 260 295 334
#     4  10  22  38  59  92 124 151 198 253 292 343
#
# _framework density 21.139676000000001
#
# number of rings (size 3 to 8) (size 9 to 14) (size 15 to 20)
#    0.000    1.667    1.667    5.500    0.000    0.667 
#    3.000    5.000    0.000    0.000    0.000    0.000 
#    0.000    0.000    0.000    0.000    0.000    0.000 
#
# Total GULP energy -148708.958082 kJ/mol
# GULP energy per Si atom -12392.413173 kJ/mol
# Density = 2.109156 g / cm^3
# Si number density = 21.139676 Si / 1000 Ang^3
#
#
#
# Elastic Constant Matrix: (Units=GPa)
#
#
# Indices 1 2 3 4 5 6 
#
# 1 155.2065 49.6853 18.0327 20.9102 -2.8724 15.1859
# 2 49.6853 122.9205 36.8632 1.3051 0.6133 11.3492
# 3 18.0327 36.8632 42.5276 2.6528 -4.3286 -2.5207
# 4 20.9102 1.3051 2.6528 30.4300 -0.3809 1.4773
# 5 -2.8724 0.6133 -4.3286 -0.3809 22.7021 -0.5143
# 6 15.1859 11.3492 -2.5207 1.4773 -0.5143 45.0406
#
#
#
# Elastic Compliance Matrix: (Units=1/GPa)
#
#
# Indices 1 2 3 4 5 6 
#
# 1 0.008417 -0.002965 -0.000682 -0.005492 0.000879 -0.001939
# 2 -0.002965 0.012690 -0.010347 0.002501 -0.002714 -0.002890
# 3 -0.000682 -0.010347 0.033883 -0.002194 0.006727 0.004882
# 4 -0.005492 0.002501 -0.002194 0.036719 -0.000567 -0.000112
# 5 0.000879 -0.002714 0.006727 -0.000567 0.045536 0.001303
# 6 -0.001939 -0.002890 0.004882 -0.000112 0.001303 0.023876
#
#
# Mechanical properties :
#
#
# Convention : Reuss Voigt Hill
#
# Bulk Modulus (GPa) = 37.03209 58.86853 47.95031
# Shear Modulus (GPa) = 25.23857 34.03944 29.63900
#
# Velocity S-wave (km/s) = 3.45903 4.01710 3.74847
# Velocity P-wave (km/s) = 5.78870 7.03022 6.43945
#
# Compressibility (1/GPa) = 0.02700360
#
# Stress axis : x y z
#
# Youngs Moduli (GPa) = 118.80284 78.79929 29.51348
#
# Poissons Ratio (x) = 0.23363 0.02013
# Poissons Ratio (y) = 0.35223 0.30536
# Poissons Ratio (z) = 0.08103 0.81531
#
# Static dielectric constant tensor:
#      x y z
#    x 4.529840 0.395370 0.015890 
#    y 0.395370 3.999760 -0.050910 
#    z 0.015890 -0.050910 3.405930 
# 
# 
# High freq. dielectric constant tensor:
#      x y z
#    x 1.861200 0.015910 -0.007130 
#    y 0.015910 1.828850 -0.015220 
#    z -0.007130 -0.015220 1.777980 
# 
# From -- ./inp_files/187114.got.cif
#   From: 2010.06.25/outbox.cif.g09.slc.cpg/sg2_94_cif.got.tgz:187114.got - 2010.06.27 13:26:56.
