data_PCOD8044927
_publ_section_title
;
Structure prediction by ZEFSAII (Michael W. Deem and Ramdas Pophale) SiO2 
 PCOD8044927
Probable space group: P 2
;
_chemical_formula_sum "Si O2"
_cell_formula_units_Z 14
_cell_length_a 8.177866
_cell_length_b 16.726131
_cell_length_c 9.403071
_cell_angle_alpha 90.000000
_cell_angle_beta 147.863086
_cell_angle_gamma 90.000000
_cell_volume 684.181480
_symmetry_space_group_name_H-M "P 2"
_symmetry_group_IT_number 3
_symmetry_cell_setting 'monoclinic'
loop_
_space_group_symop_operation_xyz
x,y,z
-x,y,-z
loop_
_atom_site_type_symbol
_atom_site_label
_atom_site_fract_x
_atom_site_fract_y
_atom_site_fract_z
Si Si1 0.143851 0.437690 0.759862
Si Si2 0.725297 0.015391 0.408458
Si Si3 0.905963 0.931424 0.092563
Si Si4 0.858603 0.607275 0.243567
Si Si5 0.382711 0.185693 0.571238
Si Si6 0.858751 0.779990 0.242346
Si Si7 0.239638 0.272380 0.927812
O O1 0.033977 0.522817 0.751962
O O2 0.090225 0.361726 0.824161
O O3 0.000000 0.418645 0.500000
O O4 0.500000 0.449741 0.000000
O O5 0.594741 0.105165 0.319263
O O6 0.000000 0.005143 0.500000
O O7 0.447923 0.958548 0.153307
O O8 0.860285 0.993736 0.662599
O O9 0.963802 0.845940 0.207683
O O10 0.000000 0.924404 0.000000
O O11 0.967841 0.692700 0.258342
O O12 0.000000 0.599236 0.500000
O O13 0.500000 0.612525 0.000000
O O14 0.500000 0.170018 0.500000
O O15 0.028714 0.211434 0.309724
O O16 0.606390 0.251321 0.807794
O O17 0.000000 0.798422 0.500000
O O18 0.500000 0.781916 0.000000
O O19 0.500000 0.267432 0.000000
#
# Coordination Sequence:
#
# PCOD8044927 Si02
#       7
#     2   2   2   2   2   2   2
#     4   9  16  29  51  82 113 140 181 235 278 314
#     4  12  25  43  63  83 108 146 194 236 277 331
#     4  12  24  39  59  86 118 149 183 229 287 338
#     4   8  15  27  48  79 110 140 179 230 275 313
#     4  12  25  41  58  82 116 149 184 231 288 339
#     4  10  19  34  56  82 112 147 189 229 271 327
#     4  11  21  37  60  86 112 147 191 234 277 330
#
# _framework density 20.462408
#
# number of rings (size 3 to 8) (size 9 to 14) (size 15 to 20)
#    0.000    1.429    0.000    8.143    0.000    0.000 
#    0.000    0.000    0.000    1.714    0.000    0.000 
#    0.000    0.000    0.000    0.000    0.000    0.000 
#
# Total GULP energy -173480.888182 kJ/mol
# GULP energy per Si atom -12391.492013 kJ/mol
# Density = 2.041583 g / cm^3
# Si number density = 20.462408 Si / 1000 Ang^3
#
#
#
# Elastic Constant Matrix: (Units=GPa)
#
#
# Indices 1 2 3 4 5 6 
#
# 1 53.2015 48.8299 21.1724 0.0000 -4.9376 0.0000
# 2 48.8299 154.5181 40.0364 0.0000 -4.1128 0.0000
# 3 21.1724 40.0364 139.6087 0.0000 -0.4940 0.0000
# 4 0.0000 0.0000 0.0000 34.1019 0.0000 -2.9694
# 5 -4.9376 -4.1128 -0.4940 0.0000 23.9268 0.0000
# 6 0.0000 0.0000 0.0000 -2.9694 0.0000 7.4074
#
#
#
# Elastic Compliance Matrix: (Units=1/GPa)
#
#
# Indices 1 2 3 4 5 6 
#
# 1 0.027291 -0.008041 -0.001818 0.000000 0.004212 0.000000
# 2 -0.008041 0.009393 -0.001474 0.000000 -0.000075 0.000000
# 3 -0.001818 -0.001474 0.007860 0.000000 -0.000466 0.000000
# 4 0.000000 0.000000 0.000000 0.030384 0.000000 0.012180
# 5 0.004212 -0.000075 -0.000466 0.000000 0.042641 0.000000
# 6 0.000000 0.000000 0.000000 0.012180 0.000000 0.139883
#
#
# Mechanical properties :
#
#
# Convention : Reuss Voigt Hill
#
# Bulk Modulus (GPa) = 45.71060 63.04507 54.37783
# Shear Modulus (GPa) = 17.39663 28.90654 23.15158
#
# Velocity S-wave (km/s) = 2.91894 3.76262 3.36731
# Velocity P-wave (km/s) = 5.80927 7.05362 6.46147
#
# Compressibility (1/GPa) = 0.02187676
#
# Stress axis : x y z
#
# Youngs Moduli (GPa) = 36.64156 106.46303 127.23047
#
# Poissons Ratio (x) = 0.85610 0.23129
# Poissons Ratio (y) = 0.29465 0.18759
# Poissons Ratio (z) = 0.06661 0.15697
#
# Static dielectric constant tensor:
#      x y z
#    x 3.162380 0.000000 0.047990 
#    y 0.000000 4.898440 0.000000 
#    z 0.047990 0.000000 3.976180 
# 
# 
# High freq. dielectric constant tensor:
#      x y z
#    x 1.736640 0.000000 0.007650 
#    y 0.000000 1.831100 0.000000 
#    z 0.007650 0.000000 1.829970 
# 
# From -- ./inp_files/6164.got.cif
#   From: 2010.03.12/outbox.cif.g09.slc.cpg/sg3_4_cif.got.tgz:6164.got - 2010.03.31 09:20:49.
