data_PCOD8044815
_publ_section_title
;
Structure prediction by ZEFSAII (Michael W. Deem and Ramdas Pophale) SiO2 
 PCOD8044815
Probable space group: P -1
;
_chemical_formula_sum "Si O2"
_cell_formula_units_Z 16
_cell_length_a 7.712982
_cell_length_b 8.973484
_cell_length_c 15.298549
_cell_angle_alpha 78.915466
_cell_angle_beta 80.280674
_cell_angle_gamma 131.919079
_cell_volume 706.210385
_symmetry_space_group_name_H-M "P -1"
_symmetry_group_IT_number 2
_symmetry_cell_setting 'triclinic'
loop_
_space_group_symop_operation_xyz
x,y,z
-x,-y,-z
loop_
_atom_site_type_symbol
_atom_site_label
_atom_site_fract_x
_atom_site_fract_y
_atom_site_fract_z
Si Si1 0.310067 0.500482 0.754806
Si Si2 0.654893 0.978799 0.607842
Si Si3 0.248143 0.644518 0.903239
Si Si4 0.856050 0.325355 0.695780
Si Si5 0.044642 0.773843 0.803652
Si Si6 0.521390 0.352853 0.969113
Si Si7 0.633425 0.801281 0.181942
Si Si8 0.151979 0.802508 0.601562
O O1 0.264363 0.500055 0.862014
O O2 0.397033 0.381152 0.748937
O O3 0.041250 0.371182 0.747928
O O4 0.547623 0.747943 0.670599
O O5 0.803643 0.156056 0.652771
O O6 0.843192 0.080463 0.495220
O O7 0.435285 0.952628 0.596379
O O8 0.270711 0.796460 0.813716
O O9 0.478663 0.777673 0.940249
O O10 0.000000 0.500000 0.000000
O O11 0.598935 0.232846 0.770141
O O12 0.009746 0.559440 0.610553
O O13 0.021039 0.793036 0.700103
O O14 0.789390 0.527135 0.876180
O O15 0.100621 0.963521 0.829874
O O16 0.323098 0.185815 0.928325
O O17 0.500000 0.500000 0.000000
#
# Coordination Sequence:
#
# PCOD8044815 Si02
#       8
#     2   2   2   2   2   2   2   2
#     4  11  23  42  61  96 133 165 219 271 310 386
#     4  10  21  38  67  95 128 174 213 260 327 378
#     4  10  19  40  63  84 127 166 206 268 317 371
#     4  11  20  41  67  94 127 174 213 260 325 383
#     4  11  22  42  65  95 129 166 215 266 319 387
#     4  11  23  41  64  90 128 168 210 268 325 376
#     4  12  24  41  67  95 128 174 212 265 327 378
#     4  10  19  38  68  95 129 169 214 265 317 387
#
# _framework density 22.656137999999999
#
# number of rings (size 3 to 8) (size 9 to 14) (size 15 to 20)
#    0.000    1.250    6.250    1.125    0.000    2.000 
#    2.250    1.250    0.000    0.000    0.000    0.000 
#    0.000    0.000    0.000    0.000    0.000    0.000 
#
# Total GULP energy -198214.859696 kJ/mol
# GULP energy per Si atom -12388.428731 kJ/mol
# Density = 2.260457 g / cm^3
# Si number density = 22.656138 Si / 1000 Ang^3
#
#
#
# Elastic Constant Matrix: (Units=GPa)
#
#
# Indices 1 2 3 4 5 6 
#
# 1 44.4733 4.1198 9.7127 3.1330 8.4524 -11.4030
# 2 4.1198 119.6708 25.3714 16.5541 9.9897 -5.2649
# 3 9.7127 25.3714 99.8932 23.2863 7.9452 -5.7836
# 4 3.1330 16.5541 23.2863 26.7370 -0.7794 -2.4879
# 5 8.4524 9.9897 7.9452 -0.7794 19.0134 -3.1198
# 6 -11.4030 -5.2649 -5.7836 -2.4879 -3.1198 25.7082
#
#
#
# Elastic Compliance Matrix: (Units=1/GPa)
#
#
# Indices 1 2 3 4 5 6 
#
# 1 0.027530 0.000928 -0.000899 -0.002336 -0.010695 0.010675
# 2 0.000928 0.009739 -0.000805 -0.005492 -0.005245 0.001057
# 3 -0.000899 -0.000805 0.013335 -0.011089 -0.005082 0.000746
# 4 -0.002336 -0.005492 -0.011089 0.051202 0.010923 0.001625
# 5 -0.010695 -0.005245 -0.005082 0.010923 0.062961 0.001737
# 6 0.010675 0.001057 0.000746 0.001625 0.001737 0.044385
#
#
# Mechanical properties :
#
#
# Convention : Reuss Voigt Hill
#
# Bulk Modulus (GPa) = 20.38672 38.04947 29.21809
# Shear Modulus (GPa) = 22.02107 29.28063 25.65085
#
# Velocity S-wave (km/s) = 3.12102 3.59889 3.36844
# Velocity P-wave (km/s) = 4.69101 5.83953 5.29649
#
# Compressibility (1/GPa) = 0.04905155
#
# Stress axis : x y z
#
# Youngs Moduli (GPa) = 36.32403 102.67959 74.99102
#
# Poissons Ratio (x) = -0.09533 0.06744
# Poissons Ratio (y) = -0.03372 0.06039
# Poissons Ratio (z) = 0.03267 0.08268
#
# Static dielectric constant tensor:
#      x y z
#    x 4.046200 0.182130 0.277890 
#    y 0.182130 4.010660 1.066590 
#    z 0.277890 1.066590 -0.716320 
# 
# 
# High freq. dielectric constant tensor:
#      x y z
#    x 1.872480 0.007690 0.008700 
#    y 0.007690 1.891270 0.012740 
#    z 0.008700 0.012740 1.899690 
# 
# From -- ./inp_files/218474.got.cif
#   From: 2010.06.25/outbox.cif.g09.slc.cpg/sg2_110_cif.got.tgz:218474.got - 2010.06.27 13:26:56.
