data_PCOD8044660
_publ_section_title
;
Structure prediction by ZEFSAII (Michael W. Deem and Ramdas Pophale) SiO2 
 PCOD8044660
Probable space group: P -1
;
_chemical_formula_sum "Si O2"
_cell_formula_units_Z 14
_cell_length_a 9.311430
_cell_length_b 11.551286
_cell_length_c 8.266572
_cell_angle_alpha 51.819396
_cell_angle_beta 73.347046
_cell_angle_gamma 82.683038
_cell_volume 668.147116
_symmetry_space_group_name_H-M "P -1"
_symmetry_group_IT_number 2
_symmetry_cell_setting 'triclinic'
loop_
_space_group_symop_operation_xyz
x,y,z
-x,-y,-z
loop_
_atom_site_type_symbol
_atom_site_label
_atom_site_fract_x
_atom_site_fract_y
_atom_site_fract_z
Si Si1 0.376543 0.003436 0.894975
Si Si2 0.971219 0.598096 0.079466
Si Si3 0.714242 0.262491 0.061744
Si Si4 0.292635 0.596401 0.554625
Si Si5 0.654676 0.112508 0.549501
Si Si6 0.498178 0.594621 0.187337
Si Si7 0.250081 0.158279 0.068407
O O1 0.472157 0.086248 0.646941
O O2 0.302489 0.846684 0.993462
O O3 0.242294 0.090941 0.944792
O O4 0.500000 0.000000 0.000000
O O5 0.867717 0.495953 0.321506
O O6 0.891057 0.746966 0.929227
O O7 0.000000 0.500000 0.000000
O O8 0.125480 0.648075 0.074275
O O9 0.693103 0.166004 0.311765
O O10 0.588421 0.383958 0.974120
O O11 0.277391 0.768013 0.445317
O O12 0.371067 0.563960 0.390260
O O13 0.390694 0.538851 0.726645
O O14 0.741127 0.965955 0.687734
O O15 0.593439 0.745628 0.062167
#
# Coordination Sequence:
#
# PCOD8044660 Si02
#       7
#     2   2   2   2   2   2   2
#     4  10  19  38  64  95 120 156 208 262 304 357
#     4  11  25  45  60  92 132 170 203 255 314 380
#     4  12  23  38  65  96 131 160 211 258 309 370
#     4  10  21  41  67  86 128 167 206 255 319 370
#     4  11  20  37  67  99 123 158 211 263 313 359
#     4  10  20  39  65  95 116 168 214 257 307 368
#     4  10  21  41  70  87 129 168 205 256 318 366
#
# _framework density 20.953471
#
# number of rings (size 3 to 8) (size 9 to 14) (size 15 to 20)
#    0.000    1.429    5.714    1.286    0.000    2.286 
#    0.000    0.000    0.000    0.000    0.000    0.000 
#    0.000    0.000    0.000    0.000    0.000    0.000 
#
# Total GULP energy -173490.412698 kJ/mol
# GULP energy per Si atom -12392.172336 kJ/mol
# Density = 2.090578 g / cm^3
# Si number density = 20.953471 Si / 1000 Ang^3
#
#
#
# Elastic Constant Matrix: (Units=GPa)
#
#
# Indices 1 2 3 4 5 6 
#
# 1 97.4684 34.5917 21.3131 -8.6999 -15.7838 10.0401
# 2 34.5917 80.3875 -2.4137 -13.6694 -5.0355 -0.1999
# 3 21.3131 -2.4137 63.0451 -14.9100 -13.6696 2.2820
# 4 -8.6999 -13.6694 -14.9100 30.3006 -0.0034 -0.4326
# 5 -15.7838 -5.0355 -13.6696 -0.0034 27.8268 -10.9031
# 6 10.0401 -0.1999 2.2820 -0.4326 -10.9031 37.4935
#
#
#
# Elastic Compliance Matrix: (Units=1/GPa)
#
#
# Indices 1 2 3 4 5 6 
#
# 1 0.014182 -0.006142 -0.004307 -0.000852 0.003855 -0.002457
# 2 -0.006142 0.016894 0.005331 0.008516 0.003142 0.002422
# 3 -0.004307 0.005331 0.022700 0.012384 0.010893 0.003111
# 4 -0.000852 0.008516 0.012384 0.042728 0.008071 0.002360
# 5 0.003855 0.003142 0.010893 0.008071 0.049006 0.012666
# 6 -0.002457 0.002422 0.003111 0.002360 0.012666 0.030863
#
#
# Mechanical properties :
#
#
# Convention : Reuss Voigt Hill
#
# Bulk Modulus (GPa) = 22.96739 38.65370 30.81055
# Shear Modulus (GPa) = 24.86058 31.61818 28.23938
#
# Velocity S-wave (km/s) = 3.44825 3.88876 3.67511
# Velocity P-wave (km/s) = 5.18062 6.21697 5.72231
#
# Compressibility (1/GPa) = 0.04353998
#
# Stress axis : x y z
#
# Youngs Moduli (GPa) = 70.50990 59.19419 44.05366
#
# Poissons Ratio (x) = 0.36356 0.18972
# Poissons Ratio (y) = 0.43306 -0.23483
# Poissons Ratio (z) = 0.30366 -0.31554
#
# Static dielectric constant tensor:
#      x y z
#    x 3.828750 -0.174810 -0.120710 
#    y -0.174810 4.024990 -0.141940 
#    z -0.120710 -0.141940 4.021490 
# 
# 
# High freq. dielectric constant tensor:
#      x y z
#    x 1.794450 -0.003620 -0.010740 
#    y -0.003620 1.820310 -0.015150 
#    z -0.010740 -0.015150 1.827770 
# 
# From -- ./inp_files/155573.got.cif
#   From: 2010.06.25/outbox.cif.g09.slc.cpg/sg2_78_cif.got.tgz:155573.got - 2010.06.27 13:26:56.
