data_PCOD8044441
_publ_section_title
;
Structure prediction by ZEFSAII (Michael W. Deem and Ramdas Pophale) SiO2 
 PCOD8044441
Probable space group: P -1
;
_chemical_formula_sum "Si O2"
_cell_formula_units_Z 16
_cell_length_a 9.339356
_cell_length_b 7.809599
_cell_length_c 13.783654
_cell_angle_alpha 74.417545
_cell_angle_beta 50.211338
_cell_angle_gamma 74.483749
_cell_volume 737.881335
_symmetry_space_group_name_H-M "P -1"
_symmetry_group_IT_number 2
_symmetry_cell_setting 'triclinic'
loop_
_space_group_symop_operation_xyz
x,y,z
-x,-y,-z
loop_
_atom_site_type_symbol
_atom_site_label
_atom_site_fract_x
_atom_site_fract_y
_atom_site_fract_z
Si Si1 0.639233 0.546488 0.246740
Si Si2 0.295007 0.729915 0.482786
Si Si3 0.574364 0.179420 0.380419
Si Si4 0.816482 0.875318 0.388434
Si Si5 0.936052 0.536056 0.272718
Si Si6 0.314726 0.330935 0.155987
Si Si7 0.449076 0.663232 0.130837
Si Si8 0.819960 0.044076 0.686491
O O1 0.453267 0.593236 0.383861
O O2 0.655492 0.331653 0.260235
O O3 0.819140 0.597398 0.217691
O O4 0.620283 0.647494 0.136885
O O5 0.393162 0.815789 0.516940
O O6 0.139690 0.615085 0.606657
O O7 0.200018 0.876578 0.425124
O O8 0.350793 0.180531 0.460472
O O9 0.712151 0.995087 0.326760
O O10 0.943343 0.706346 0.312490
O O11 0.959608 0.982029 0.372971
O O12 0.140815 0.451562 0.160802
O O13 0.380017 0.464890 0.189456
O O14 0.261053 0.146580 0.251567
O O15 0.478096 0.282448 0.013470
O O16 0.290436 0.820800 0.208633
#
# Coordination Sequence:
#
# PCOD8044441 Si02
#       8
#     2   2   2   2   2   2   2   2
#     4  10  19  38  61  86 118 158 198 242 295 351
#     4  10  20  36  58  90 121 160 191 238 299 355
#     4  10  20  35  57  86 129 154 191 240 291 362
#     4  11  21  34  56  91 122 162 192 237 295 355
#     4  11  20  38  61  86 128 158 193 243 295 356
#     4  11  24  43  64  85 119 157 202 253 294 347
#     4  10  24  43  65  87 112 160 204 250 299 340
#     4  11  23  40  63  91 121 153 202 244 295 359
#
# _framework density 21.683703999999999
#
# number of rings (size 3 to 8) (size 9 to 14) (size 15 to 20)
#    0.000    1.500    3.750    2.625    0.000    6.000 
#    0.000    0.000    0.000    1.500    0.000    0.000 
#    0.000    0.000    0.000    0.000    0.000    0.000 
#
# Total GULP energy -198298.033734 kJ/mol
# GULP energy per Si atom -12393.627108 kJ/mol
# Density = 2.163435 g / cm^3
# Si number density = 21.683704 Si / 1000 Ang^3
#
#
#
# Elastic Constant Matrix: (Units=GPa)
#
#
# Indices 1 2 3 4 5 6 
#
# 1 98.4829 24.7441 25.9342 -8.4972 -9.5459 -8.2872
# 2 24.7441 90.8368 17.5650 -0.1933 -5.5018 5.1167
# 3 25.9342 17.5650 37.3704 5.8523 -3.4448 3.5435
# 4 -8.4972 -0.1933 5.8523 30.0310 0.8869 -4.4976
# 5 -9.5459 -5.5018 -3.4448 0.8869 21.8304 -2.9712
# 6 -8.2872 5.1167 3.5435 -4.4976 -2.9712 36.0667
#
#
#
# Elastic Compliance Matrix: (Units=1/GPa)
#
#
# Indices 1 2 3 4 5 6 
#
# 1 0.015116 -0.002067 -0.010760 0.007131 0.004934 0.006119
# 2 -0.002067 0.012561 -0.004181 0.000011 0.001366 -0.001732
# 3 -0.010760 -0.004181 0.038684 -0.011676 -0.000153 -0.007149
# 4 0.007131 0.000011 -0.011676 0.038719 0.000750 0.007674
# 5 0.004934 0.001366 -0.000153 0.000750 0.048946 0.005081
# 6 0.006119 -0.001732 -0.007149 0.007674 0.005081 0.031456
#
#
# Mechanical properties :
#
#
# Convention : Reuss Voigt Hill
#
# Bulk Modulus (GPa) = 30.91839 40.35298 35.63569
# Shear Modulus (GPa) = 21.71277 28.14877 24.93077
#
# Velocity S-wave (km/s) = 3.16783 3.60690 3.39447
# Velocity P-wave (km/s) = 5.26022 5.99971 5.64209
#
# Compressibility (1/GPa) = 0.03234321
#
# Stress axis : x y z
#
# Youngs Moduli (GPa) = 66.15696 79.61375 25.85068
#
# Poissons Ratio (x) = 0.16460 0.27816
# Poissons Ratio (y) = 0.13678 0.10807
# Poissons Ratio (z) = 0.71187 0.33283
#
# Static dielectric constant tensor:
#      x y z
#    x 3.958940 -0.005670 -0.140730 
#    y -0.005670 4.209610 0.137590 
#    z -0.140730 0.137590 3.438690 
# 
# 
# High freq. dielectric constant tensor:
#      x y z
#    x 1.854730 -0.001090 -0.014380 
#    y -0.001090 1.875780 0.010040 
#    z -0.014380 0.010040 1.809860 
# 
# From -- ./inp_files/494591.got.cif
#   From: 2010.06.25/outbox.cif.g09.slc.cpg/sg2_248_cif.got.tgz:494591.got - 2010.06.27 13:26:56.
