data_PCOD8044251
_publ_section_title
;
Structure prediction by ZEFSAII (Michael W. Deem and Ramdas Pophale) SiO2 
 PCOD8044251
Probable space group: P -1
;
_chemical_formula_sum "Si O2"
_cell_formula_units_Z 16
_cell_length_a 13.674369
_cell_length_b 19.268773
_cell_length_c 9.477794
_cell_angle_alpha 74.847088
_cell_angle_beta 131.667582
_cell_angle_gamma 145.537220
_cell_volume 775.649834
_symmetry_space_group_name_H-M "P -1"
_symmetry_group_IT_number 2
_symmetry_cell_setting 'triclinic'
loop_
_space_group_symop_operation_xyz
x,y,z
-x,-y,-z
loop_
_atom_site_type_symbol
_atom_site_label
_atom_site_fract_x
_atom_site_fract_y
_atom_site_fract_z
Si Si1 0.852918 0.656776 0.748845
Si Si2 0.145995 0.335909 0.734847
Si Si3 0.792137 0.895359 0.992950
Si Si4 0.200287 0.969486 0.859368
Si Si5 0.893718 0.304843 0.282719
Si Si6 0.132619 0.567875 0.437431
Si Si7 0.132906 0.419679 0.923555
Si Si8 0.165770 0.203073 0.680339
O O1 0.500000 0.500000 0.500000
O O2 0.922718 0.630462 0.943549
O O3 0.046012 0.824821 0.863149
O O4 0.946513 0.669460 0.684914
O O5 0.012072 0.198864 0.602872
O O6 0.054528 0.363409 0.551974
O O7 0.500000 0.500000 0.000000
O O8 0.028021 0.296755 0.799561
O O9 0.481906 0.723100 0.708923
O O10 0.885457 0.882116 0.204563
O O11 0.781180 0.963770 0.033002
O O12 0.000000 0.000000 0.000000
O O13 0.008585 0.902571 0.575830
O O14 0.533390 0.114473 0.044870
O O15 0.971817 0.426894 0.262093
O O16 0.000000 0.500000 0.500000
O O17 0.082949 0.619331 0.287318
O O18 0.480398 0.612634 0.117075
#
# Coordination Sequence:
#
# PCOD8044251 Si02
#       8
#     2   2   2   2   2   2   2   2
#     4  12  26  43  68 105 139 177 226 282 334 400
#     4  10  19  37  66  96 125 179 223 265 331 400
#     4  12  28  44  70 104 136 175 230 287 336 401
#     4  12  25  46  68 100 143 179 221 279 346 401
#     4  12  24  45  73  96 137 182 227 278 338 408
#     4  12  22  46  71  94 132 180 228 274 337 403
#     4  11  22  41  69 100 131 181 230 277 333 403
#     4  11  22  42  69  96 139 181 223 271 351 404
#
# _framework density 20.627863999999999
#
# number of rings (size 3 to 8) (size 9 to 14) (size 15 to 20)
#    0.000    0.500    6.250    2.250    3.500    1.500 
#    0.000    1.250    0.000    0.000    0.000    0.000 
#    0.000    0.000    0.000    0.000    0.000    0.000 
#
# Total GULP energy -198326.283026 kJ/mol
# GULP energy per Si atom -12395.392689 kJ/mol
# Density = 2.058091 g / cm^3
# Si number density = 20.627864 Si / 1000 Ang^3
#
#
#
# Elastic Constant Matrix: (Units=GPa)
#
#
# Indices 1 2 3 4 5 6 
#
# 1 89.8621 29.2652 16.3359 15.5643 6.4587 -2.4242
# 2 29.2652 121.1831 42.2440 -6.1144 5.2776 2.1361
# 3 16.3359 42.2440 102.4960 -10.4312 6.8011 10.1922
# 4 15.5643 -6.1144 -10.4312 42.1545 -2.1454 2.2895
# 5 6.4587 5.2776 6.8011 -2.1454 29.5886 0.0013
# 6 -2.4242 2.1361 10.1922 2.2895 0.0013 40.0555
#
#
#
# Elastic Compliance Matrix: (Units=1/GPa)
#
#
# Indices 1 2 3 4 5 6 
#
# 1 0.013669 -0.002980 -0.001575 -0.006092 -0.002532 0.001735
# 2 -0.002980 0.010321 -0.003600 0.001689 -0.000241 0.000089
# 3 -0.001575 -0.003600 0.012239 0.003180 -0.001597 -0.003199
# 4 -0.006092 0.001689 0.003180 0.027273 0.002275 -0.002827
# 5 -0.002532 -0.000241 -0.001597 0.002275 0.034924 0.000135
# 6 0.001735 0.000089 -0.003199 -0.002827 0.000135 0.026041
#
#
# Mechanical properties :
#
#
# Convention : Reuss Voigt Hill
#
# Bulk Modulus (GPa) = 50.20182 54.35904 52.28043
# Shear Modulus (GPa) = 33.91788 37.40613 35.66201
#
# Velocity S-wave (km/s) = 4.05936 4.26300 4.16243
# Velocity P-wave (km/s) = 6.80889 7.11620 6.96424
#
# Compressibility (1/GPa) = 0.01991960
#
# Stress axis : x y z
#
# Youngs Moduli (GPa) = 73.15969 96.89433 81.70683
#
# Poissons Ratio (x) = 0.28871 0.12869
# Poissons Ratio (y) = 0.21799 0.29412
# Poissons Ratio (z) = 0.11523 0.34879
#
# Static dielectric constant tensor:
#      x y z
#    x -0.228060 0.752410 0.524240 
#    y 0.752410 3.788440 -0.310890 
#    z 0.524240 -0.310890 3.754360 
# 
# 
# High freq. dielectric constant tensor:
#      x y z
#    x 1.820750 -0.010510 -0.001440 
#    y -0.010510 1.798990 -0.008420 
#    z -0.001440 -0.008420 1.816820 
# 
# From -- ./inp_files/226670.got.cif
#   From: 2010.06.25/outbox.cif.g09.slc.cpg/sg2_114_cif.got.tgz:226670.got - 2010.06.27 13:26:56.
