data_PCOD8044247
_publ_section_title
;
Structure prediction by ZEFSAII (Michael W. Deem and Ramdas Pophale) SiO2 
 PCOD8044247
Probable space group: P -1
;
_chemical_formula_sum "Si O2"
_cell_formula_units_Z 14
_cell_length_a 9.629687
_cell_length_b 14.413623
_cell_length_c 8.370880
_cell_angle_alpha 43.285381
_cell_angle_beta 117.305597
_cell_angle_gamma 97.388693
_cell_volume 666.433251
_symmetry_space_group_name_H-M "P -1"
_symmetry_group_IT_number 2
_symmetry_cell_setting 'triclinic'
loop_
_space_group_symop_operation_xyz
x,y,z
-x,-y,-z
loop_
_atom_site_type_symbol
_atom_site_label
_atom_site_fract_x
_atom_site_fract_y
_atom_site_fract_z
Si Si1 0.859259 0.710447 0.077605
Si Si2 0.603095 0.926416 0.296886
Si Si3 0.486373 0.207838 0.058013
Si Si4 0.662505 0.649884 0.527470
Si Si5 0.009372 0.596971 0.622969
Si Si6 0.948808 0.863035 0.658629
Si Si7 0.749926 0.348454 0.077960
O O1 0.929009 0.568384 0.187154
O O2 0.951858 0.697792 0.311129
O O3 0.664225 0.743755 0.959053
O O4 0.883602 0.841839 0.827369
O O5 0.593202 0.764474 0.494410
O O6 0.798714 0.895747 0.411756
O O7 0.537384 0.034005 0.277621
O O8 0.500000 0.000000 0.000000
O O9 0.636381 0.248600 0.165978
O O10 0.441649 0.292527 0.760316
O O11 0.857942 0.623390 0.634133
O O12 0.638336 0.502993 0.755061
O O13 0.163314 0.634682 0.731173
O O14 0.104219 0.722851 0.880463
O O15 0.000000 0.000000 0.500000
#
# Coordination Sequence:
#
# PCOD8044247 Si02
#       7
#     2   2   2   2   2   2   2
#     4  10  23  42  62  90 130 167 199 256 325 370
#     4  10  21  39  62  92 125 166 205 250 309 376
#     4  10  23  39  61  93 136 160 200 259 324 364
#     4  10  19  37  66  95 123 168 212 252 304 374
#     4  10  20  38  66  92 125 163 210 258 311 367
#     4  12  23  41  67  92 123 165 215 258 303 373
#     4  12  21  38  67 100 118 162 219 262 295 366
#
# _framework density 21.007356000000001
#
# number of rings (size 3 to 8) (size 9 to 14) (size 15 to 20)
#    0.000    1.429    4.286    1.714    0.000    1.143 
#    0.000    2.143    0.000    0.000    0.000    0.000 
#    0.000    0.000    0.000    0.000    0.000    0.000 
#
# Total GULP energy -173499.686006 kJ/mol
# GULP energy per Si atom -12392.834715 kJ/mol
# Density = 2.095954 g / cm^3
# Si number density = 21.007356 Si / 1000 Ang^3
#
#
#
# Elastic Constant Matrix: (Units=GPa)
#
#
# Indices 1 2 3 4 5 6 
#
# 1 88.6780 33.1063 40.6368 3.8779 -3.8917 2.5268
# 2 33.1063 100.2106 36.6601 -9.1974 -6.4600 2.8722
# 3 40.6368 36.6601 92.4634 -12.1743 1.7712 0.1526
# 4 3.8779 -9.1974 -12.1743 35.3981 0.0673 11.0423
# 5 -3.8917 -6.4600 1.7712 0.0673 30.9002 -3.2098
# 6 2.5268 2.8722 0.1526 11.0423 -3.2098 24.8611
#
#
#
# Elastic Compliance Matrix: (Units=1/GPa)
#
#
# Indices 1 2 3 4 5 6 
#
# 1 0.015646 -0.003260 -0.006299 -0.005150 0.001801 0.001345
# 2 -0.003260 0.012744 -0.003228 0.003268 0.002194 -0.002289
# 3 -0.006299 -0.003228 0.015691 0.005887 -0.002592 -0.002033
# 4 -0.005150 0.003268 0.005887 0.036848 -0.002100 -0.016528
# 5 0.001801 0.002194 -0.002592 -0.002100 0.033706 0.004864
# 6 0.001345 -0.002289 -0.002033 -0.016528 0.004864 0.048333
#
#
# Mechanical properties :
#
#
# Convention : Reuss Voigt Hill
#
# Bulk Modulus (GPa) = 54.03033 55.79539 54.91286
# Shear Modulus (GPa) = 25.67920 29.62846 27.65383
#
# Velocity S-wave (km/s) = 3.50006 3.75958 3.63214
# Velocity P-wave (km/s) = 6.48918 6.74267 6.61714
#
# Compressibility (1/GPa) = 0.01850812
#
# Stress axis : x y z
#
# Youngs Moduli (GPa) = 63.91377 78.46945 63.72986
#
# Poissons Ratio (x) = 0.25580 0.40141
# Poissons Ratio (y) = 0.20835 0.20572
# Poissons Ratio (z) = 0.40257 0.25330
#
# Static dielectric constant tensor:
#      x y z
#    x 3.563700 -0.159190 0.333430 
#    y -0.159190 4.134440 -0.138390 
#    z 0.333430 -0.138390 4.061190 
# 
# 
# High freq. dielectric constant tensor:
#      x y z
#    x 1.792020 -0.000850 0.024950 
#    y -0.000850 1.830110 -0.008180 
#    z 0.024950 -0.008180 1.838640 
# 
# From -- ./inp_files/159121.got.cif
#   From: 2010.06.25/outbox.cif.g09.slc.cpg/sg2_80_cif.got.tgz:159121.got - 2010.06.27 13:26:56.
