data_PCOD8044150
_publ_section_title
;
Structure prediction by ZEFSAII (Michael W. Deem and Ramdas Pophale) SiO2 
 PCOD8044150
Probable space group: P -1
;
_chemical_formula_sum "Si O2"
_cell_formula_units_Z 14
_cell_length_a 10.575140
_cell_length_b 11.979280
_cell_length_c 14.127004
_cell_angle_alpha 34.491578
_cell_angle_beta 138.524413
_cell_angle_gamma 123.561564
_cell_volume 661.146620
_symmetry_space_group_name_H-M "P -1"
_symmetry_group_IT_number 2
_symmetry_cell_setting 'triclinic'
loop_
_space_group_symop_operation_xyz
x,y,z
-x,-y,-z
loop_
_atom_site_type_symbol
_atom_site_label
_atom_site_fract_x
_atom_site_fract_y
_atom_site_fract_z
Si Si1 0.943414 0.717538 0.129974
Si Si2 0.896977 0.283723 0.430668
Si Si3 0.803850 0.128373 0.687429
Si Si4 0.712701 0.003892 0.156308
Si Si5 0.221902 0.942969 0.641880
Si Si6 0.546049 0.720074 0.488825
Si Si7 0.275228 0.688663 0.194377
O O1 0.007790 0.815176 0.194011
O O2 0.121088 0.632340 0.220855
O O3 0.851247 0.525225 0.243100
O O4 0.799051 0.891883 0.870630
O O5 0.817304 0.182958 0.547664
O O6 0.762432 0.232768 0.303923
O O7 0.130623 0.203685 0.602361
O O8 0.610017 0.257344 0.530854
O O9 0.675323 0.117018 0.157691
O O10 0.500000 0.000000 0.000000
O O11 0.817877 0.130729 0.052081
O O12 0.306074 0.129033 0.515099
O O13 0.000000 0.000000 0.500000
O O14 0.452110 0.755466 0.306207
O O15 0.657140 0.493764 0.711364
#
# Coordination Sequence:
#
# PCOD8044150 Si02
#       7
#     2   2   2   2   2   2   2
#     4  10  21  40  65  92 124 163 207 254 306 365
#     4  11  23  42  62  90 132 165 197 254 320 365
#     4  10  22  40  63  92 124 163 209 253 303 371
#     4  11  21  36  65  95 122 158 216 257 299 363
#     4  10  22  40  59  91 128 161 201 258 309 367
#     4  10  21  38  61  91 125 158 206 261 302 358
#     4  10  19  37  64  93 119 157 214 259 299 352
#
# _framework density 21.175333999999999
#
# number of rings (size 3 to 8) (size 9 to 14) (size 15 to 20)
#    0.000    1.714    2.857    2.143    4.000    0.571 
#    5.143    2.857    0.000    0.000    0.000    0.000 
#    0.000    0.000    0.000    0.000    0.000    0.000 
#
# Total GULP energy -173507.932199 kJ/mol
# GULP energy per Si atom -12393.423729 kJ/mol
# Density = 2.112714 g / cm^3
# Si number density = 21.175334 Si / 1000 Ang^3
#
#
#
# Elastic Constant Matrix: (Units=GPa)
#
#
# Indices 1 2 3 4 5 6 
#
# 1 70.8510 23.2403 21.4787 4.9241 -10.4415 -14.9016
# 2 23.2403 107.1003 32.9237 -2.5717 -11.7627 -6.9525
# 3 21.4787 32.9237 82.9389 -16.1249 -16.8201 -12.6787
# 4 4.9241 -2.5717 -16.1249 33.2927 -2.8943 -2.9084
# 5 -10.4415 -11.7627 -16.8201 -2.8943 40.0802 1.9129
# 6 -14.9016 -6.9525 -12.6787 -2.9084 1.9129 31.4367
#
#
#
# Elastic Compliance Matrix: (Units=1/GPa)
#
#
# Indices 1 2 3 4 5 6 
#
# 1 0.017640 -0.002377 -0.002922 -0.003481 0.002124 0.006206
# 2 -0.002377 0.011079 -0.003716 -0.000526 0.001048 -0.000288
# 3 -0.002922 -0.003716 0.018425 0.010124 0.006336 0.005775
# 4 -0.003481 -0.000526 0.010124 0.036364 0.005558 0.005343
# 5 0.002124 0.001048 0.006336 0.005558 0.028749 0.002559
# 6 0.006206 -0.000288 0.005775 0.005343 0.002559 0.037356
#
#
# Mechanical properties :
#
#
# Convention : Reuss Voigt Hill
#
# Bulk Modulus (GPa) = 34.34773 46.24172 40.29473
# Shear Modulus (GPa) = 28.19312 33.17841 30.68577
#
# Velocity S-wave (km/s) = 3.65281 3.96263 3.81087
# Velocity P-wave (km/s) = 5.83494 6.54382 6.19952
#
# Compressibility (1/GPa) = 0.02911400
#
# Stress axis : x y z
#
# Youngs Moduli (GPa) = 56.68972 90.26052 54.27390
#
# Poissons Ratio (x) = 0.21455 0.15858
# Poissons Ratio (y) = 0.13475 0.20169
# Poissons Ratio (z) = 0.16564 0.33542
#
# Static dielectric constant tensor:
#      x y z
#    x 3.414510 0.325280 0.145800 
#    y 0.325280 3.171590 -0.362170 
#    z 0.145800 -0.362170 3.488220 
# 
# 
# High freq. dielectric constant tensor:
#      x y z
#    x 1.836620 -0.008540 -0.011400 
#    y -0.008540 1.816730 -0.008690 
#    z -0.011400 -0.008690 1.812530 
# 
# From -- ./inp_files/205704.got.cif
#   From: 2010.06.25/outbox.cif.g09.slc.cpg/sg2_103_cif.got.tgz:205704.got - 2010.06.27 13:26:56.
