data_PCOD8044656
_publ_section_title
;
Structure prediction by ZEFSAII (Michael W. Deem and Ramdas Pophale) SiO2 
 PCOD8044656
Probable space group: P -1
;
_chemical_formula_sum "Si O2"
_cell_formula_units_Z 14
_cell_length_a 11.992776
_cell_length_b 10.792649
_cell_length_c 20.227016
_cell_angle_alpha 45.809499
_cell_angle_beta 158.787890
_cell_angle_gamma 124.602332
_cell_volume 644.448547
_symmetry_space_group_name_H-M "P -1"
_symmetry_group_IT_number 2
_symmetry_cell_setting 'triclinic'
loop_
_space_group_symop_operation_xyz
x,y,z
-x,-y,-z
loop_
_atom_site_type_symbol
_atom_site_label
_atom_site_fract_x
_atom_site_fract_y
_atom_site_fract_z
Si Si1 0.098251 0.984440 0.157612
Si Si2 0.705731 0.445559 0.387436
Si Si3 0.032037 0.468304 0.257211
Si Si4 0.930370 0.691099 0.243919
Si Si5 0.671733 0.272976 0.736479
Si Si6 0.319357 0.959454 0.479549
Si Si7 0.308427 0.703572 0.970339
O O1 0.105766 0.854362 0.148744
O O2 0.020695 0.878480 0.217713
O O3 0.440319 0.023963 0.335071
O O4 0.798362 0.173335 0.913230
O O5 0.726489 0.236593 0.464061
O O6 0.000000 0.500000 0.500000
O O7 0.754065 0.456356 0.490353
O O8 0.379836 0.580800 0.123125
O O9 0.290490 0.304083 0.501562
O O10 0.244414 0.538426 0.294677
O O11 0.848566 0.614215 0.157599
O O12 0.776617 0.405431 0.097687
O O13 0.627608 0.745911 0.106113
O O14 0.500000 0.000000 0.500000
O O15 0.972115 0.111884 0.237937
#
# Coordination Sequence:
#
# PCOD8044656 Si02
#       7
#     2   2   2   2   2   2   2
#     4  10  19  39  58  93 126 160 214 264 317 373
#     4  10  24  45  65  94 133 173 212 264 330 387
#     4  10  19  38  64  94 124 166 219 259 325 383
#     4  10  22  41  62  91 130 170 214 261 323 393
#     4   9  19  33  64  88 125 164 202 271 319 371
#     4  12  24  41  68  96 126 167 224 265 316 391
#     4  11  24  43  66  92 135 170 212 273 325 375
#
# _framework density 21.723998999999999
#
# number of rings (size 3 to 8) (size 9 to 14) (size 15 to 20)
#    0.000    1.714    2.857    1.286    0.000    4.000 
#    5.143    0.714    0.000    0.000    0.000    0.000 
#    0.000    0.000    0.000    0.000    0.000    0.000 
#
# Total GULP energy -173437.228195 kJ/mol
# GULP energy per Si atom -12388.373443 kJ/mol
# Density = 2.167455 g / cm^3
# Si number density = 21.723999 Si / 1000 Ang^3
#
#
#
# Elastic Constant Matrix: (Units=GPa)
#
#
# Indices 1 2 3 4 5 6 
#
# 1 62.3007 24.8122 24.7884 -1.4141 -9.0302 13.0307
# 2 24.8122 118.7142 37.9910 2.1547 -9.8786 15.6497
# 3 24.7884 37.9910 143.2380 -7.4806 -20.5104 17.0542
# 4 -1.4141 2.1547 -7.4806 30.7579 1.1817 -6.0678
# 5 -9.0302 -9.8786 -20.5104 1.1817 35.4489 -2.6091
# 6 13.0307 15.6497 17.0542 -6.0678 -2.6091 30.9139
#
#
#
# Elastic Compliance Matrix: (Units=1/GPa)
#
#
# Indices 1 2 3 4 5 6 
#
# 1 0.019315 -0.002501 -0.001598 -0.000594 0.002886 -0.005867
# 2 -0.002501 0.010082 -0.001809 -0.001960 0.000944 -0.003357
# 3 -0.001598 -0.001809 0.008677 0.001507 0.003870 -0.002575
# 4 -0.000594 -0.001960 0.001507 0.034412 -0.000448 0.007127
# 5 0.002886 0.000944 0.003870 -0.000448 0.031368 -0.001270
# 6 -0.005867 -0.003357 -0.002575 0.007127 -0.001270 0.039233
#
#
# Mechanical properties :
#
#
# Convention : Reuss Voigt Hill
#
# Bulk Modulus (GPa) = 38.08421 55.49293 46.78857
# Shear Modulus (GPa) = 30.55193 35.20156 32.87674
#
# Velocity S-wave (km/s) = 3.75423 4.02979 3.89444
# Velocity P-wave (km/s) = 6.03003 6.87402 6.46581
#
# Compressibility (1/GPa) = 0.02625760
#
# Stress axis : x y z
#
# Youngs Moduli (GPa) = 51.77255 99.18876 115.24595
#
# Poissons Ratio (x) = 0.24809 0.18422
# Poissons Ratio (y) = 0.12949 0.20844
# Poissons Ratio (z) = 0.08276 0.17940
#
# Static dielectric constant tensor:
#      x y z
#    x 3.871220 0.162560 -0.562300 
#    y 0.162560 4.061330 -0.012600 
#    z -0.562300 -0.012600 4.279060 
# 
# 
# High freq. dielectric constant tensor:
#      x y z
#    x 1.839030 0.001090 -0.025670 
#    y 0.001090 1.852750 0.004000 
#    z -0.025670 0.004000 1.862000 
# 
# From -- ./inp_files/445863.got.cif
#   From: 2010.06.25/outbox.cif.g09.slc.cpg/sg2_223_cif.got.tgz:445863.got - 2010.06.27 13:26:56.
