data_PCOD8044654
_publ_section_title
;
Structure prediction by ZEFSAII (Michael W. Deem and Ramdas Pophale) SiO2 
 PCOD8044654
Probable space group: P -1
;
_chemical_formula_sum "Si O2"
_cell_formula_units_Z 16
_cell_length_a 24.152024
_cell_length_b 9.120321
_cell_length_c 9.356931
_cell_angle_alpha 46.718747
_cell_angle_beta 29.926464
_cell_angle_gamma 53.569045
_cell_volume 748.565342
_symmetry_space_group_name_H-M "P -1"
_symmetry_group_IT_number 2
_symmetry_cell_setting 'triclinic'
loop_
_space_group_symop_operation_xyz
x,y,z
-x,-y,-z
loop_
_atom_site_type_symbol
_atom_site_label
_atom_site_fract_x
_atom_site_fract_y
_atom_site_fract_z
Si Si1 0.461911 0.106661 0.710437
Si Si2 0.456330 0.678200 0.877699
Si Si3 0.859576 0.225800 0.333123
Si Si4 0.907820 0.599902 0.346809
Si Si5 0.100369 0.845814 0.381004
Si Si6 0.258605 0.119346 0.347866
Si Si7 0.255233 0.440227 0.510498
Si Si8 0.303453 0.014930 0.642824
O O1 0.460743 0.263250 0.475629
O O2 0.427491 0.880932 0.893540
O O3 0.584821 0.111052 0.499474
O O4 0.372183 0.184194 0.972902
O O5 0.500000 0.500000 0.000000
O O6 0.340453 0.587713 0.135770
O O7 0.854085 0.168006 0.551161
O O8 0.789836 0.436084 0.333079
O O9 0.805491 0.055551 0.473209
O O10 0.985088 0.257956 0.979864
O O11 0.941579 0.367541 0.447059
O O12 0.820351 0.683357 0.603667
O O13 0.851700 0.620996 0.302742
O O14 0.000000 0.000000 0.500000
O O15 0.198300 0.905534 0.016413
O O16 0.287409 0.044019 0.491355
O O17 0.316974 0.230712 0.551713
#
# Coordination Sequence:
#
# PCOD8044654 Si02
#       8
#     2   2   2   2   2   2   2   2
#     4  11  23  41  66  97 134 174 216 268 332 389
#     4  11  22  40  68 101 128 165 225 281 313 384
#     4  11  21  40  67  91 123 172 223 270 326 383
#     4  10  22  40  61  91 129 169 212 270 332 387
#     4  11  22  41  66  95 122 171 226 270 321 390
#     4  11  24  42  62  95 133 173 211 273 335 389
#     4  10  19  38  64  94 122 165 213 265 325 379
#     4  11  23  41  66  94 135 169 215 272 331 392
#
# _framework density 21.374220000000001
#
# number of rings (size 3 to 8) (size 9 to 14) (size 15 to 20)
#    0.000    1.250    2.500    6.000    1.750    0.000 
#    2.250    6.875    0.000    0.000    0.000    0.000 
#    0.000    0.000    0.000    0.000    0.000    0.000 
#
# Total GULP energy -198332.535968 kJ/mol
# GULP energy per Si atom -12395.783498 kJ/mol
# Density = 2.132557 g / cm^3
# Si number density = 21.374220 Si / 1000 Ang^3
#
#
#
# Elastic Constant Matrix: (Units=GPa)
#
#
# Indices 1 2 3 4 5 6 
#
# 1 83.0327 45.8830 44.3952 2.4013 5.1332 -0.2550
# 2 45.8830 144.5261 50.1813 17.7289 3.2394 -5.2386
# 3 44.3952 50.1813 145.1332 19.0613 2.4255 -13.5585
# 4 2.4013 17.7289 19.0613 40.6652 1.4767 -1.3816
# 5 5.1332 3.2394 2.4255 1.4767 35.8457 -3.1881
# 6 -0.2550 -5.2386 -13.5585 -1.3816 -3.1881 29.2841
#
#
#
# Elastic Compliance Matrix: (Units=1/GPa)
#
#
# Indices 1 2 3 4 5 6 
#
# 1 0.016674 -0.004223 -0.004225 0.002822 -0.002073 -0.002659
# 2 -0.004223 0.009147 -0.001394 -0.003060 0.000071 0.000818
# 3 -0.004225 -0.001394 0.009485 -0.003474 0.000589 0.004006
# 4 0.002822 -0.003060 -0.003474 0.027395 -0.001106 -0.000959
# 5 -0.002073 0.000071 0.000589 -0.001106 0.028489 0.003316
# 6 -0.002659 0.000818 0.004006 -0.000959 0.003316 0.036442
#
#
# Mechanical properties :
#
#
# Convention : Reuss Voigt Hill
#
# Bulk Modulus (GPa) = 64.00580 72.62343 68.31462
# Shear Modulus (GPa) = 32.78216 36.64117 34.71166
#
# Velocity S-wave (km/s) = 3.92053 4.14487 4.03426
# Velocity P-wave (km/s) = 7.10664 7.54701 7.33014
#
# Compressibility (1/GPa) = 0.01562358
#
# Stress axis : x y z
#
# Youngs Moduli (GPa) = 59.97311 109.32354 105.42764
#
# Poissons Ratio (x) = 0.46164 0.44541
# Poissons Ratio (y) = 0.25325 0.14696
# Poissons Ratio (z) = 0.25337 0.15239
#
# Static dielectric constant tensor:
#      x y z
#    x 3.678650 -0.090490 -0.187110 
#    y -0.090490 4.330340 0.090230 
#    z -0.187110 0.090230 4.053450 
# 
# 
# High freq. dielectric constant tensor:
#      x y z
#    x 1.815920 -0.005190 -0.022490 
#    y -0.005190 1.849010 0.003200 
#    z -0.022490 0.003200 1.851890 
# 
# From -- ./inp_files/352016.got.cif
#   From: 2010.06.25/outbox.cif.g09.slc.cpg/sg2_177_cif.got.tgz:352016.got - 2010.06.27 13:26:56.
