data_PCOD8044219
_publ_section_title
;
Structure prediction by ZEFSAII (Michael W. Deem and Ramdas Pophale) SiO2 
 PCOD8044219
Probable space group: P -1
;
_chemical_formula_sum "Si O2"
_cell_formula_units_Z 16
_cell_length_a 11.747407
_cell_length_b 8.743946
_cell_length_c 18.769618
_cell_angle_alpha 80.378722
_cell_angle_beta 145.100715
_cell_angle_gamma 124.233877
_cell_volume 714.005465
_symmetry_space_group_name_H-M "P -1"
_symmetry_group_IT_number 2
_symmetry_cell_setting 'triclinic'
loop_
_space_group_symop_operation_xyz
x,y,z
-x,-y,-z
loop_
_atom_site_type_symbol
_atom_site_label
_atom_site_fract_x
_atom_site_fract_y
_atom_site_fract_z
Si Si1 0.201181 0.946610 0.148848
Si Si2 0.132958 0.332066 0.255661
Si Si3 0.788124 0.941706 0.002431
Si Si4 0.727941 0.523074 0.154921
Si Si5 0.768548 0.485219 0.416571
Si Si6 0.892927 0.512400 0.095479
Si Si7 0.252765 0.259694 0.728599
Si Si8 0.833070 0.727448 0.562429
O O1 0.465698 0.208857 0.295605
O O2 0.884895 0.839629 0.020173
O O3 0.180751 0.762321 0.184878
O O4 0.225319 0.938184 0.076536
O O5 0.483498 0.571307 0.402127
O O6 0.052138 0.259347 0.302413
O O7 0.025413 0.119338 0.172716
O O8 0.929314 0.350672 0.118225
O O9 0.454062 0.722009 0.879922
O O10 0.942022 0.578318 0.199888
O O11 0.898529 0.727193 0.286062
O O12 0.500000 0.500000 0.000000
O O13 0.704763 0.600344 0.327371
O O14 0.881555 0.613659 0.541247
O O15 0.000000 0.500000 0.500000
O O16 0.572929 0.374239 0.908085
O O17 0.022372 0.986799 0.611963
#
# Coordination Sequence:
#
# PCOD8044219 Si02
#       8
#     2   2   2   2   2   2   2   2
#     4  11  22  42  69 100 133 177 234 292 336 406
#     4  11  26  44  69 103 138 188 224 291 348 416
#     4  11  20  42  71  94 138 178 229 293 344 393
#     4  10  19  37  66 101 131 171 227 286 344 394
#     4  12  27  46  71 101 140 190 232 279 350 429
#     4  11  25  41  73 105 135 178 241 291 342 404
#     4  11  23  45  69 100 137 182 228 292 342 403
#     4  11  27  47  66  99 150 183 225 279 359 424
#
# _framework density 22.408791000000001
#
# number of rings (size 3 to 8) (size 9 to 14) (size 15 to 20)
#    0.000    1.000    5.000    2.625    3.500    3.500 
#    0.000    1.250    0.000    0.000    0.000    0.000 
#    0.000    0.000    0.000    0.000    0.000    0.000 
#
# Total GULP energy -198353.724698 kJ/mol
# GULP energy per Si atom -12397.107794 kJ/mol
# Density = 2.235779 g / cm^3
# Si number density = 22.408791 Si / 1000 Ang^3
#
#
#
# Elastic Constant Matrix: (Units=GPa)
#
#
# Indices 1 2 3 4 5 6 
#
# 1 104.3862 36.2940 35.8732 -8.1978 -21.7254 13.5515
# 2 36.2940 113.2897 40.9080 1.9828 3.1565 15.7930
# 3 35.8732 40.9080 82.6102 10.5490 -20.5939 -0.2190
# 4 -8.1978 1.9828 10.5490 36.7398 -2.1830 -0.3954
# 5 -21.7254 3.1565 -20.5939 -2.1830 41.4211 -2.8541
# 6 13.5515 15.7930 -0.2190 -0.3954 -2.8541 32.7657
#
#
#
# Elastic Compliance Matrix: (Units=1/GPa)
#
#
# Indices 1 2 3 4 5 6 
#
# 1 0.013898 -0.002729 -0.003911 0.004658 0.005529 -0.003921
# 2 -0.002729 0.013199 -0.006965 0.000242 -0.006289 -0.005825
# 3 -0.003911 -0.006965 0.020138 -0.005706 0.008590 0.005789
# 4 0.004658 0.000242 -0.005706 0.029928 0.001053 -0.001628
# 5 0.005529 -0.006289 0.008590 0.001053 0.032096 0.003611
# 6 -0.003921 -0.005825 0.005789 -0.001628 0.003611 0.035282
#
#
# Mechanical properties :
#
#
# Convention : Reuss Voigt Hill
#
# Bulk Modulus (GPa) = 49.93768 58.49295 54.21531
# Shear Modulus (GPa) = 28.02267 34.66604 31.34435
#
# Velocity S-wave (km/s) = 3.54011 3.93744 3.74405
# Velocity P-wave (km/s) = 6.24844 6.84329 6.55262
#
# Compressibility (1/GPa) = 0.02002496
#
# Stress axis : x y z
#
# Youngs Moduli (GPa) = 71.95227 75.76137 49.65825
#
# Poissons Ratio (x) = 0.20678 0.19419
# Poissons Ratio (y) = 0.19638 0.34588
# Poissons Ratio (z) = 0.28137 0.52769
#
# Static dielectric constant tensor:
#      x y z
#    x 6.906460 2.252140 -0.989870 
#    y 2.252140 5.696500 -0.537150 
#    z -0.989870 -0.537150 4.076300 
# 
# 
# High freq. dielectric constant tensor:
#      x y z
#    x 1.884370 0.013130 -0.019000 
#    y 0.013130 1.891750 0.007550 
#    z -0.019000 0.007550 1.864240 
# 
# From -- ./inp_files/205179.got.cif
#   From: 2010.06.25/outbox.cif.g09.slc.cpg/sg2_103_cif.got.tgz:205179.got - 2010.06.27 13:26:56.
