data_PCOD8044088
_publ_section_title
;
Structure prediction by ZEFSAII (Michael W. Deem and Ramdas Pophale) SiO2 
 PCOD8044088
Probable space group: P -1
;
_chemical_formula_sum "Si O2"
_cell_formula_units_Z 16
_cell_length_a 12.059320
_cell_length_b 13.373668
_cell_length_c 9.351412
_cell_angle_alpha 81.092378
_cell_angle_beta 126.994826
_cell_angle_gamma 134.847337
_cell_volume 751.080730
_symmetry_space_group_name_H-M "P -1"
_symmetry_group_IT_number 2
_symmetry_cell_setting 'triclinic'
loop_
_space_group_symop_operation_xyz
x,y,z
-x,-y,-z
loop_
_atom_site_type_symbol
_atom_site_label
_atom_site_fract_x
_atom_site_fract_y
_atom_site_fract_z
Si Si1 0.279573 0.163165 0.287277
Si Si2 0.831354 0.852627 0.105033
Si Si3 0.184664 0.686241 0.628877
Si Si4 0.674310 0.379257 0.741203
Si Si5 0.568695 0.311813 0.996923
Si Si6 0.424430 0.040992 0.321205
Si Si7 0.909097 0.666648 0.257840
Si Si8 0.106421 0.709820 0.102516
O O1 0.495461 0.323152 0.504765
O O2 0.284198 0.045349 0.293476
O O3 0.268790 0.216880 0.117270
O O4 0.053966 0.046357 0.228704
O O5 0.862118 0.758274 0.213689
O O6 0.673629 0.827857 0.092160
O O7 0.296856 0.717741 0.859698
O O8 0.381623 0.790645 0.644548
O O9 0.000000 0.500000 0.500000
O O10 0.060367 0.723736 0.503455
O O11 0.751819 0.312361 0.768017
O O12 0.555952 0.311195 0.817492
O O13 0.889422 0.573067 0.867236
O O14 0.683856 0.474749 0.123337
O O15 0.500000 0.000000 0.500000
O O16 0.260060 0.886650 0.118954
O O17 0.043868 0.708554 0.213975
#
# Coordination Sequence:
#
# PCOD8044088 Si02
#       8
#     2   2   2   2   2   2   2   2
#     4  11  22  37  65  92 120 166 213 264 305 371
#     4  11  22  38  64  93 120 164 224 254 301 375
#     4  10  20  35  61  95 123 158 207 262 315 361
#     4  10  22  40  60  94 132 165 196 265 338 364
#     4  10  22  38  60  88 132 166 199 255 325 384
#     4  12  18  35  68  94 115 159 221 264 295 364
#     4  10  19  37  63  92 120 162 213 266 300 366
#     4  10  20  36  65  91 122 160 212 258 317 370
#
# _framework density 21.302637000000001
#
# number of rings (size 3 to 8) (size 9 to 14) (size 15 to 20)
#    0.000    1.500    5.000    0.375    0.000    0.500 
#    0.000    3.125    2.750    0.000    0.000    0.000 
#    0.000    0.000    0.000    0.000    0.000    0.000 
#
# Total GULP energy -198245.064349 kJ/mol
# GULP energy per Si atom -12390.316522 kJ/mol
# Density = 2.125415 g / cm^3
# Si number density = 21.302637 Si / 1000 Ang^3
#
#
#
# Elastic Constant Matrix: (Units=GPa)
#
#
# Indices 1 2 3 4 5 6 
#
# 1 65.9738 26.7947 25.4482 5.5211 15.4317 8.7824
# 2 26.7947 100.3266 36.8638 10.9073 9.9566 12.4141
# 3 25.4482 36.8638 124.8606 3.0545 24.1389 -1.4492
# 4 5.5211 10.9073 3.0545 38.0221 -3.7410 14.0677
# 5 15.4317 9.9566 24.1389 -3.7410 25.8646 -0.2888
# 6 8.7824 12.4141 -1.4492 14.0677 -0.2888 35.9615
#
#
#
# Elastic Compliance Matrix: (Units=1/GPa)
#
#
# Indices 1 2 3 4 5 6 
#
# 1 0.019786 -0.003322 -0.001175 -0.001602 -0.009697 -0.003184
# 2 -0.003322 0.012534 -0.002934 -0.001837 -0.000402 -0.002918
# 3 -0.001175 -0.002934 0.010813 -0.001526 -0.008457 0.002265
# 4 -0.001602 -0.001837 -0.001526 0.032216 0.007618 -0.011577
# 5 -0.009697 -0.000402 -0.008457 0.007618 0.053593 -0.000383
# 6 -0.003184 -0.002918 0.002265 -0.011577 -0.000383 0.034210
#
#
# Mechanical properties :
#
#
# Convention : Reuss Voigt Hill
#
# Bulk Modulus (GPa) = 35.37329 52.15270 43.76300
# Shear Modulus (GPa) = 26.67544 33.43991 30.05768
#
# Velocity S-wave (km/s) = 3.54250 3.96631 3.76038
# Velocity P-wave (km/s) = 5.77699 6.74614 6.28029
#
# Compressibility (1/GPa) = 0.02826992
#
# Stress axis : x y z
#
# Youngs Moduli (GPa) = 50.54056 79.78470 92.47866
#
# Poissons Ratio (x) = 0.26506 0.10865
# Poissons Ratio (y) = 0.16791 0.27138
# Poissons Ratio (z) = 0.05938 0.23413
#
# Static dielectric constant tensor:
#      x y z
#    x 3.672190 0.122790 0.391740 
#    y 0.122790 4.294940 0.170560 
#    z 0.391740 0.170560 4.109690 
# 
# 
# High freq. dielectric constant tensor:
#      x y z
#    x 1.812130 0.018000 0.035340 
#    y 0.018000 1.838660 0.004810 
#    z 0.035340 0.004810 1.827230 
# 
# From -- ./inp_files/270365.got.cif
#   From: 2010.06.25/outbox.cif.g09.slc.cpg/sg2_136_cif.got.tgz:270365.got - 2010.06.27 13:26:56.
