data_PCOD8044827
_publ_section_title
;
Structure prediction by ZEFSAII (Michael W. Deem and Ramdas Pophale) SiO2 
 PCOD8044827
Probable space group: P -1
;
_chemical_formula_sum "Si O2"
_cell_formula_units_Z 16
_cell_length_a 8.558306
_cell_length_b 9.710911
_cell_length_c 11.994033
_cell_angle_alpha 77.450958
_cell_angle_beta 131.324610
_cell_angle_gamma 103.327274
_cell_volume 725.533210
_symmetry_space_group_name_H-M "P -1"
_symmetry_group_IT_number 2
_symmetry_cell_setting 'triclinic'
loop_
_space_group_symop_operation_xyz
x,y,z
-x,-y,-z
loop_
_atom_site_type_symbol
_atom_site_label
_atom_site_fract_x
_atom_site_fract_y
_atom_site_fract_z
Si Si1 0.916533 0.289513 0.323619
Si Si2 0.241320 0.246917 0.662199
Si Si3 0.074981 0.358395 0.013870
Si Si4 0.395213 0.687872 0.356212
Si Si5 0.273834 0.434823 0.862272
Si Si6 0.724044 0.627277 0.682349
Si Si7 0.407258 0.971466 0.839600
Si Si8 0.191456 0.907294 0.111590
O O1 0.848331 0.444980 0.269212
O O2 0.712503 0.183199 0.212305
O O3 0.016886 0.262666 0.496870
O O4 0.089743 0.279292 0.311794
O O5 0.430648 0.304351 0.660138
O O6 0.281181 0.321652 0.787318
O O7 0.242694 0.080240 0.713869
O O8 0.266672 0.329713 0.190723
O O9 0.149621 0.358344 0.921821
O O10 0.000000 0.500000 0.000000
O O11 0.883850 0.234226 0.970749
O O12 0.501853 0.669810 0.529186
O O13 0.245906 0.540457 0.290258
O O14 0.266227 0.826871 0.273949
O O15 0.500000 0.500000 0.000000
O O16 0.609954 0.991087 0.853351
O O17 0.500000 0.000000 0.000000
O O18 0.000000 0.000000 0.000000
#
# Coordination Sequence:
#
# PCOD8044827 Si02
#       8
#     2   2   2   2   2   2   2   2
#     4  11  22  41  66  96 130 174 220 268 331 388
#     4  10  23  41  65  97 132 173 219 270 328 391
#     4  12  23  42  67  94 126 168 221 266 328 386
#     4   9  19  40  67  95 130 167 212 265 332 385
#     4  12  25  38  67  99 134 165 218 281 319 386
#     4  10  19  38  69  96 122 168 218 268 316 392
#     4  11  24  42  68  92 131 178 217 264 327 401
#     4  11  25  42  65  94 133 167 214 272 325 389
#
# _framework density 22.052745999999999
#
# number of rings (size 3 to 8) (size 9 to 14) (size 15 to 20)
#    0.000    1.250    2.500    3.000    5.250    0.000 
#    0.000    1.875    0.000    0.000    0.000    0.000 
#    0.000    0.000    0.000    0.000    0.000    0.000 
#
# Total GULP energy -198242.396199 kJ/mol
# GULP energy per Si atom -12390.149762 kJ/mol
# Density = 2.200255 g / cm^3
# Si number density = 22.052746 Si / 1000 Ang^3
#
#
#
# Elastic Constant Matrix: (Units=GPa)
#
#
# Indices 1 2 3 4 5 6 
#
# 1 63.0852 33.4490 36.7024 3.3727 2.5514 5.9731
# 2 33.4490 94.9873 27.6358 -2.5270 5.9906 11.2269
# 3 36.7024 27.6358 131.0613 -3.8361 0.2746 -0.6738
# 4 3.3727 -2.5270 -3.8361 50.3880 -2.8675 11.1925
# 5 2.5514 5.9906 0.2746 -2.8675 36.8501 1.6452
# 6 5.9731 11.2269 -0.6738 11.1925 1.6452 36.9028
#
#
#
# Elastic Compliance Matrix: (Units=1/GPa)
#
#
# Indices 1 2 3 4 5 6 
#
# 1 0.022328 -0.006288 -0.004989 -0.001963 -0.000587 -0.001171
# 2 -0.006288 0.013621 -0.001076 0.001739 -0.001474 -0.003607
# 3 -0.004989 -0.001076 0.009281 0.000781 0.000465 0.001047
# 4 -0.001963 0.001739 0.000781 0.021757 0.001847 -0.006878
# 5 -0.000587 -0.001474 0.000465 0.001847 0.027613 -0.001239
# 6 -0.001171 -0.003607 0.001047 -0.006878 -0.001239 0.030546
#
#
# Mechanical properties :
#
#
# Convention : Reuss Voigt Hill
#
# Bulk Modulus (GPa) = 48.72294 53.85647 51.28970
# Shear Modulus (GPa) = 31.90978 37.58461 34.74719
#
# Velocity S-wave (km/s) = 3.80804 4.13280 3.97374
# Velocity P-wave (km/s) = 6.44024 6.87372 6.66051
#
# Compressibility (1/GPa) = 0.02052421
#
# Stress axis : x y z
#
# Youngs Moduli (GPa) = 44.78757 73.41836 107.74439
#
# Poissons Ratio (x) = 0.46164 0.53754
# Poissons Ratio (y) = 0.28162 0.11591
# Poissons Ratio (z) = 0.22345 0.07898
#
# Static dielectric constant tensor:
#      x y z
#    x 3.769160 0.311360 0.010580 
#    y 0.311360 4.066420 -0.340110 
#    z 0.010580 -0.340110 4.706260 
# 
# 
# High freq. dielectric constant tensor:
#      x y z
#    x 1.839790 0.023040 0.015260 
#    y 0.023040 1.865020 -0.012340 
#    z 0.015260 -0.012340 1.900600 
# 
# From -- ./inp_files/382128.got.cif
#   From: 2010.06.25/outbox.cif.g09.slc.cpg/sg2_192_cif.got.tgz:382128.got - 2010.06.27 13:26:56.
