data_PCOD8044123
_publ_section_title
;
Structure prediction by ZEFSAII (Michael W. Deem and Ramdas Pophale) SiO2 
 PCOD8044123
Probable space group: P -1
;
_chemical_formula_sum "Si O2"
_cell_formula_units_Z 12
_cell_length_a 9.581031
_cell_length_b 10.242051
_cell_length_c 16.702212
_cell_angle_alpha 67.682919
_cell_angle_beta 143.412822
_cell_angle_gamma 137.184204
_cell_volume 568.496514
_symmetry_space_group_name_H-M "P -1"
_symmetry_group_IT_number 2
_symmetry_cell_setting 'triclinic'
loop_
_space_group_symop_operation_xyz
x,y,z
-x,-y,-z
loop_
_atom_site_type_symbol
_atom_site_label
_atom_site_fract_x
_atom_site_fract_y
_atom_site_fract_z
Si Si1 0.026563 0.854618 0.278489
Si Si2 0.674362 0.320641 0.829310
Si Si3 0.697472 0.228535 0.692380
Si Si4 0.752585 0.008400 0.159722
Si Si5 0.087171 0.277499 0.571330
Si Si6 0.440733 0.667811 0.541902
O O1 0.031301 0.765740 0.220353
O O2 0.924674 0.706961 0.341662
O O3 0.440006 0.119760 0.419406
O O4 0.728248 0.844013 0.140734
O O5 0.847666 0.338530 0.823484
O O6 0.448233 0.355398 0.695749
O O7 0.394404 0.076694 0.797643
O O8 0.000000 0.500000 0.000000
O O9 0.713636 0.374975 0.608605
O O10 0.277416 0.975265 0.567513
O O11 0.186674 0.256393 0.307055
O O12 0.500000 0.000000 0.000000
O O13 0.132848 0.449418 0.507186
#
# Coordination Sequence:
#
# PCOD8044123 Si02
#       6
#     2   2   2   2   2   2
#     4   8  20  35  61  90 122 152 188 249 290 350
#     4  11  23  39  60  82 121 165 196 247 294 343
#     4  11  21  39  57  95 121 146 204 247 289 346
#     4   9  19  39  59  82 121 157 192 235 295 354
#     4  10  19  37  64  87 119 157 193 235 301 350
#     4   9  19  34  66  88 117 154 195 236 294 354
#
# _framework density 21.108308999999998
#
# number of rings (size 3 to 8) (size 9 to 14) (size 15 to 20)
#    1.000    1.333    1.667    3.500    0.000    3.333 
#    3.000    4.167    0.000    0.000    0.000    0.000 
#    0.000    0.000    0.000    0.000    0.000    0.000 
#
# Total GULP energy -148678.523973 kJ/mol
# GULP energy per Si atom -12389.876998 kJ/mol
# Density = 2.106027 g / cm^3
# Si number density = 21.108309 Si / 1000 Ang^3
#
#
#
# Elastic Constant Matrix: (Units=GPa)
#
#
# Indices 1 2 3 4 5 6 
#
# 1 144.0668 29.1688 64.5630 -21.3887 -25.6502 5.9923
# 2 29.1688 139.5404 31.3472 -35.3971 -8.0578 12.3448
# 3 64.5630 31.3472 94.7035 -20.1880 -9.7354 -4.7955
# 4 -21.3887 -35.3971 -20.1880 31.6913 -0.9441 -0.2247
# 5 -25.6502 -8.0578 -9.7354 -0.9441 36.4964 -1.3858
# 6 5.9923 12.3448 -4.7955 -0.2247 -1.3858 12.1137
#
#
#
# Elastic Compliance Matrix: (Units=1/GPa)
#
#
# Indices 1 2 3 4 5 6 
#
# 1 0.012561 0.001901 -0.007770 0.005785 0.006933 -0.010326
# 2 0.001901 0.012110 -0.002938 0.012930 0.003034 -0.013857
# 3 -0.007770 -0.002938 0.018131 0.003104 -0.000661 0.013997
# 4 0.005785 0.012930 0.003104 0.052043 0.008606 -0.012859
# 5 0.006933 0.003034 -0.000661 0.008606 0.032880 -0.002862
# 6 -0.010326 -0.013857 0.013997 -0.012859 -0.002862 0.106756
#
#
# Mechanical properties :
#
#
# Convention : Reuss Voigt Hill
#
# Bulk Modulus (GPa) = 39.70014 69.82983 54.76499
# Shear Modulus (GPa) = 19.19463 32.94240 26.06851
#
# Velocity S-wave (km/s) = 3.01880 3.95478 3.51805
# Velocity P-wave (km/s) = 5.56772 7.34896 6.51946
#
# Compressibility (1/GPa) = 0.02518883
#
# Stress axis : x y z
#
# Youngs Moduli (GPa) = 79.61239 82.57634 55.15385
#
# Poissons Ratio (x) = -0.15697 0.42852
# Poissons Ratio (y) = -0.15134 0.16204
# Poissons Ratio (z) = 0.61855 0.24261
#
# Static dielectric constant tensor:
#      x y z
#    x 3.809170 0.257280 0.107090 
#    y 0.257280 3.775020 -0.209910 
#    z 0.107090 -0.209910 3.403420 
# 
# 
# High freq. dielectric constant tensor:
#      x y z
#    x 1.825180 0.018380 0.014460 
#    y 0.018380 1.821250 -0.021920 
#    z 0.014460 -0.021920 1.793610 
# 
# From -- ./inp_files/384709.got.cif
#   From: 2010.06.25/outbox.cif.g09.slc.cpg/sg2_193_cif.got.tgz:384709.got - 2010.06.27 13:26:56.
