data_PCOD8044023
_publ_section_title
;
Structure prediction by ZEFSAII (Michael W. Deem and Ramdas Pophale) SiO2 
 PCOD8044023
Probable space group: P -1
;
_chemical_formula_sum "Si O2"
_cell_formula_units_Z 16
_cell_length_a 11.763556
_cell_length_b 9.505913
_cell_length_c 12.939283
_cell_angle_alpha 137.090507
_cell_angle_beta 97.457510
_cell_angle_gamma 112.991245
_cell_volume 678.475049
_symmetry_space_group_name_H-M "P -1"
_symmetry_group_IT_number 2
_symmetry_cell_setting 'triclinic'
loop_
_space_group_symop_operation_xyz
x,y,z
-x,-y,-z
loop_
_atom_site_type_symbol
_atom_site_label
_atom_site_fract_x
_atom_site_fract_y
_atom_site_fract_z
Si Si1 0.578886 0.499650 0.611810
Si Si2 0.715945 0.374042 0.050129
Si Si3 0.161811 0.309336 0.551946
Si Si4 0.877460 0.163718 0.013095
Si Si5 0.353716 0.793248 0.664847
Si Si6 0.887236 0.260276 0.513456
Si Si7 0.279121 0.041913 0.461520
Si Si8 0.885647 0.530512 0.961763
O O1 0.500000 0.500000 0.500000
O O2 0.619386 0.315162 0.490522
O O3 0.460223 0.357216 0.621223
O O4 0.746059 0.821892 0.847338
O O5 0.802874 0.571757 0.060709
O O6 0.518587 0.133672 0.894733
O O7 0.783947 0.593069 0.270429
O O8 0.769254 0.203349 0.968486
O O9 0.302791 0.587709 0.645697
O O10 0.150796 0.044653 0.394760
O O11 0.986911 0.190266 0.445943
O O12 0.981573 0.400469 0.245699
O O13 0.004046 0.211945 0.974257
O O14 0.210004 0.770968 0.611425
O O15 0.755147 0.010496 0.448350
O O16 0.262717 0.789263 0.281708
O O17 0.000000 0.500000 0.000000
#
# Coordination Sequence:
#
# PCOD8044023 Si02
#       8
#     2   2   2   2   2   2   2   2
#     4  12  20  36  67  99 122 158 220 261 305 359
#     4  10  19  37  62  94 120 166 214 251 311 369
#     4  11  23  39  66  92 125 167 216 256 302 378
#     4   9  19  37  60  91 128 164 206 256 303 384
#     4  12  23  39  65  94 130 166 204 266 316 372
#     4  10  25  42  61  93 133 167 204 252 332 369
#     4  11  21  41  65  96 121 164 214 263 299 377
#     4   9  17  33  61  90 126 152 205 260 305 355
#
# _framework density 23.582297000000001
#
# number of rings (size 3 to 8) (size 9 to 14) (size 15 to 20)
#    0.000    1.500    3.750    2.625    0.000    2.000 
#    0.000    0.625    0.000    0.000    0.000    0.000 
#    0.000    0.000    0.000    0.000    0.000    0.000 
#
# Total GULP energy -198306.754690 kJ/mol
# GULP energy per Si atom -12394.172168 kJ/mol
# Density = 2.352862 g / cm^3
# Si number density = 23.582297 Si / 1000 Ang^3
#
#
#
# Elastic Constant Matrix: (Units=GPa)
#
#
# Indices 1 2 3 4 5 6 
#
# 1 79.9060 12.3682 30.3859 -0.9794 5.5256 8.3514
# 2 12.3682 90.2577 24.1566 19.6317 2.9425 26.6704
# 3 30.3859 24.1566 72.7840 18.7435 18.2167 3.5930
# 4 -0.9794 19.6317 18.7435 32.9184 2.2906 5.9267
# 5 5.5256 2.9425 18.2167 2.2906 25.8974 -0.6038
# 6 8.3514 26.6704 3.5930 5.9267 -0.6038 35.4588
#
#
#
# Elastic Compliance Matrix: (Units=1/GPa)
#
#
# Indices 1 2 3 4 5 6 
#
# 1 0.016108 -0.000183 -0.008505 0.005972 0.001950 -0.003760
# 2 -0.000183 0.016596 -0.003596 -0.005928 0.000949 -0.011068
# 3 -0.008505 -0.003596 0.024929 -0.012029 -0.014156 0.003952
# 4 0.005972 -0.005928 -0.012029 0.041106 0.004166 -0.002528
# 5 0.001950 0.000949 -0.014156 0.004166 0.047688 0.000377
# 6 -0.003760 -0.011068 0.003952 -0.002528 0.000377 0.037441
#
#
# Mechanical properties :
#
#
# Convention : Reuss Voigt Hill
#
# Bulk Modulus (GPa) = 30.24251 41.86323 36.05287
# Shear Modulus (GPa) = 22.78337 30.59072 26.68705
#
# Velocity S-wave (km/s) = 3.11162 3.60556 3.36766
# Velocity P-wave (km/s) = 5.07560 5.92654 5.51750
#
# Compressibility (1/GPa) = 0.03306604
#
# Stress axis : x y z
#
# Youngs Moduli (GPa) = 62.07953 60.25522 40.11347
#
# Poissons Ratio (x) = 0.01101 0.34115
# Poissons Ratio (y) = 0.01134 0.14426
# Poissons Ratio (z) = 0.52797 0.21670
#
# Static dielectric constant tensor:
#      x y z
#    x 5.316270 1.136680 -1.121480 
#    y 1.136680 4.857990 -0.524290 
#    z -1.121480 -0.524290 5.113300 
# 
# 
# High freq. dielectric constant tensor:
#      x y z
#    x 1.911560 0.031610 -0.002370 
#    y 0.031610 1.929790 0.018120 
#    z -0.002370 0.018120 1.920100 
# 
# From -- ./inp_files/519920.got.cif
#   From: 2010.06.25/outbox.cif.g09.slc.cpg/sg2_260_cif.got.tgz:519920.got - 2010.06.27 13:26:56.
