data_PCOD8045349
_publ_section_title
;
Structure prediction by ZEFSAII (Michael W. Deem and Ramdas Pophale) SiO2 
 PCOD8045349
Probable space group: P 2
;
_chemical_formula_sum "Si O2"
_cell_formula_units_Z 13
_cell_length_a 8.244006
_cell_length_b 9.633116
_cell_length_c 11.204717
_cell_angle_alpha 90.000000
_cell_angle_beta 139.068438
_cell_angle_gamma 90.000000
_cell_volume 582.977002
_symmetry_space_group_name_H-M "P 2"
_symmetry_group_IT_number 3
_symmetry_cell_setting 'monoclinic'
loop_
_space_group_symop_operation_xyz
x,y,z
-x,y,-z
loop_
_atom_site_type_symbol
_atom_site_label
_atom_site_fract_x
_atom_site_fract_y
_atom_site_fract_z
Si Si1 0.202138 0.771420 0.517086
Si Si2 0.977777 0.607356 0.792924
Si Si3 0.582293 0.055505 0.410433
Si Si4 0.611350 0.562428 0.792046
Si Si5 0.263482 0.260226 0.093261
Si Si6 0.231850 0.357586 0.831817
Si Si7 0.000000 0.199051 0.500000
O O1 0.344958 0.636988 0.648307
O O2 0.000000 0.822654 0.500000
O O3 0.058029 0.738067 0.314151
O O4 0.404664 0.890885 0.603561
O O5 0.018411 0.470360 0.734497
O O6 0.725323 0.586135 0.724916
O O7 0.210594 0.631068 0.009261
O O8 0.500000 0.091261 0.500000
O O9 0.372249 0.120671 0.209592
O O10 0.850489 0.114756 0.518885
O O11 0.570094 0.398278 0.790918
O O12 0.227096 0.237003 0.931133
O O13 0.000000 0.299613 0.000000
O O14 0.200790 0.289715 0.684378
O O15 0.500000 0.431881 0.000000
#
# Coordination Sequence:
#
# PCOD8045349 Si02
#       7
#     2   2   2   2   2   2   1
#     4  12  28  46  67 102 146 192 239 293 358 430
#     4  10  23  42  72 100 142 181 234 297 354 424
#     4  12  27  48  73 101 148 195 245 292 363 433
#     4  10  22  46  72 104 138 181 245 293 358 421
#     4  11  22  47  72 109 139 182 240 301 359 430
#     4  11  23  40  68 108 147 178 233 301 367 416
#     4  12  26  46  70 110 146 190 238 300 360 434
#
# _framework density 22.299334999999999
#
# number of rings (size 3 to 8) (size 9 to 14) (size 15 to 20)
#    0.000    0.923    5.385    2.308    7.538    0.000 
#    8.308    1.538    0.000    0.000    0.000    0.000 
#    0.000    0.000    0.000    0.000    0.000    0.000 
#
# Total GULP energy -161181.769499 kJ/mol
# GULP energy per Si atom -12398.597654 kJ/mol
# Density = 2.224858 g / cm^3
# Si number density = 22.299335 Si / 1000 Ang^3
#
#
#
# Elastic Constant Matrix: (Units=GPa)
#
#
# Indices 1 2 3 4 5 6 
#
# 1 134.9683 35.0194 31.4983 0.0000 -15.1412 0.0000
# 2 35.0194 111.0859 56.2735 0.0000 -9.3630 0.0000
# 3 31.4983 56.2735 104.2642 0.0000 -14.8432 0.0000
# 4 0.0000 0.0000 0.0000 35.6595 0.0000 4.6593
# 5 -15.1412 -9.3630 -14.8432 0.0000 38.1415 0.0000
# 6 0.0000 0.0000 0.0000 4.6593 0.0000 37.5662
#
#
#
# Elastic Compliance Matrix: (Units=1/GPa)
#
#
# Indices 1 2 3 4 5 6 
#
# 1 0.008442 -0.001844 -0.001209 0.000000 0.002428 0.000000
# 2 -0.001844 0.012800 -0.006361 0.000000 -0.000065 0.000000
# 3 -0.001209 -0.006361 0.013867 0.000000 0.003355 0.000000
# 4 0.000000 0.000000 0.000000 0.028505 0.000000 -0.003535
# 5 0.002428 -0.000065 0.003355 0.000000 0.028472 0.000000
# 6 0.000000 0.000000 0.000000 -0.003535 0.000000 0.027058
#
#
# Mechanical properties :
#
#
# Convention : Reuss Voigt Hill
#
# Bulk Modulus (GPa) = 61.42151 66.21119 63.81635
# Shear Modulus (GPa) = 34.86768 37.44192 36.15480
#
# Velocity S-wave (km/s) = 3.95855 4.10208 4.03095
# Velocity P-wave (km/s) = 6.96401 7.22444 7.09542
#
# Compressibility (1/GPa) = 0.01628094
#
# Stress axis : x y z
#
# Youngs Moduli (GPa) = 118.45178 78.12493 72.11376
#
# Poissons Ratio (x) = 0.14407 0.08722
# Poissons Ratio (y) = 0.21843 0.45869
# Poissons Ratio (z) = 0.14327 0.49692
#
# Static dielectric constant tensor:
#      x y z
#    x 4.395220 0.000000 -0.138180 
#    y 0.000000 3.638570 0.000000 
#    z -0.138180 0.000000 3.837650 
# 
# 
# High freq. dielectric constant tensor:
#      x y z
#    x 1.910390 0.000000 -0.003880 
#    y 0.000000 1.847010 0.000000 
#    z -0.003880 0.000000 1.872300 
# 
# From -- ./inp_files/7556.got.cif
#   From: 2010.03.12/outbox.cif.g09.slc.cpg/sg3_4_cif.got.tgz:7556.got - 2010.03.31 09:20:49.
