data_PCOD8045355
_publ_section_title
;
Structure prediction by ZEFSAII (Michael W. Deem and Ramdas Pophale) SiO2 
 PCOD8045355
Probable space group: P 2
;
_chemical_formula_sum "Si O2"
_cell_formula_units_Z 11
_cell_length_a 5.117973
_cell_length_b 8.016580
_cell_length_c 11.605565
_cell_angle_alpha 90.000000
_cell_angle_beta 77.728858
_cell_angle_gamma 90.000000
_cell_volume 465.281588
_symmetry_space_group_name_H-M "P 2"
_symmetry_group_IT_number 3
_symmetry_cell_setting 'monoclinic'
loop_
_space_group_symop_operation_xyz
x,y,z
-x,y,-z
loop_
_atom_site_type_symbol
_atom_site_label
_atom_site_fract_x
_atom_site_fract_y
_atom_site_fract_z
Si Si1 0.148520 0.250000 0.869993
Si Si2 0.436605 0.673239 0.377452
Si Si3 0.771704 0.799566 0.926564
Si Si4 0.848176 0.946240 0.277512
Si Si5 0.000000 0.914441 0.500000
Si Si6 0.328810 0.455554 0.178404
O O1 0.395471 0.365698 0.883278
O O2 0.932510 0.339512 0.807152
O O3 0.274256 0.093324 0.788948
O O4 0.000000 0.188734 0.000000
O O5 0.500000 0.607355 0.500000
O O6 0.677500 0.774917 0.293391
O O7 0.356785 0.514581 0.308477
O O8 0.195496 0.801068 0.407320
O O9 0.708189 0.609280 0.903138
O O10 0.863096 0.899877 0.804344
O O11 0.500000 0.884581 0.000000
O O12 0.000000 0.806620 0.000000
O O13 0.862105 0.017816 0.409007
#
# Coordination Sequence:
#
# PCOD8045355 Si02
#       6
#     2   2   2   2   1   2
#     4  12  28  45  67 105 153 187 224 287 361 426
#     4  10  23  45  76 103 134 185 246 302 344 417
#     4  12  24  41  75 108 137 186 247 289 344 425
#     4  11  25  45  72 102 142 187 240 294 353 413
#     4  10  22  46  76  98 134 180 250 306 340 408
#     4  12  25  46  68 104 144 184 230 289 357 417
#
# _framework density 23.641597999999998
#
# number of rings (size 3 to 8) (size 9 to 14) (size 15 to 20)
#    0.000    0.727    1.818    6.000    5.091    1.455 
#    3.273    0.000    0.000    0.000    0.000    0.000 
#    0.000    0.000    0.000    0.000    0.000    0.000 
#
# Total GULP energy -136385.159943 kJ/mol
# GULP energy per Si atom -12398.650904 kJ/mol
# Density = 2.358779 g / cm^3
# Si number density = 23.641598 Si / 1000 Ang^3
#
#
#
# Elastic Constant Matrix: (Units=GPa)
#
#
# Indices 1 2 3 4 5 6 
#
# 1 125.5157 16.6475 36.8260 0.0000 1.2268 0.0000
# 2 16.6475 61.7689 34.0671 0.0000 11.7195 0.0000
# 3 36.8260 34.0671 134.0323 0.0000 13.3997 0.0000
# 4 0.0000 0.0000 0.0000 37.1514 0.0000 1.6326
# 5 1.2268 11.7195 13.3997 0.0000 50.4119 0.0000
# 6 0.0000 0.0000 0.0000 1.6326 0.0000 23.4490
#
#
#
# Elastic Compliance Matrix: (Units=1/GPa)
#
#
# Indices 1 2 3 4 5 6 
#
# 1 0.008762 -0.001306 -0.002142 0.000000 0.000659 0.000000
# 2 -0.001306 0.019536 -0.004269 0.000000 -0.003375 0.000000
# 3 -0.002142 -0.004269 0.009277 0.000000 -0.001421 0.000000
# 4 0.000000 0.000000 0.000000 0.026999 0.000000 -0.001880
# 5 0.000659 -0.003375 -0.001421 0.000000 0.020983 0.000000
# 6 0.000000 0.000000 0.000000 -0.001880 0.000000 0.042777
#
#
# Mechanical properties :
#
#
# Convention : Reuss Voigt Hill
#
# Bulk Modulus (GPa) = 45.16311 55.15533 50.15922
# Shear Modulus (GPa) = 33.08024 37.78756 35.43390
#
# Velocity S-wave (km/s) = 3.74470 4.00227 3.87563
# Velocity P-wave (km/s) = 6.15156 6.68865 6.42572
#
# Compressibility (1/GPa) = 0.02214197
#
# Stress axis : x y z
#
# Youngs Moduli (GPa) = 114.12702 51.18675 107.79895
#
# Poissons Ratio (x) = 0.06683 0.23086
# Poissons Ratio (y) = 0.14899 0.46024
# Poissons Ratio (z) = 0.24441 0.21854
#
# Static dielectric constant tensor:
#      x y z
#    x 4.259750 0.000000 0.144760 
#    y 0.000000 3.997330 0.000000 
#    z 0.144760 0.000000 4.405480 
# 
# 
# High freq. dielectric constant tensor:
#      x y z
#    x 1.948460 0.000000 0.008390 
#    y 0.000000 1.903330 0.000000 
#    z 0.008390 0.000000 1.959410 
# 
# From -- ./inp_files/9726.got.cif
#   From: 2010.03.12/outbox.cif.g09.slc.cpg/sg3_5_cif.got.tgz:9726.got - 2010.03.31 09:20:49.
