data_PCOD8045102
_publ_section_title
;
Structure prediction by ZEFSAII (Michael W. Deem and Ramdas Pophale) SiO2 
 PCOD8045102
Probable space group: P 2
;
_chemical_formula_sum "Si O2"
_cell_formula_units_Z 13
_cell_length_a 9.209997
_cell_length_b 8.475859
_cell_length_c 12.028874
_cell_angle_alpha 90.000000
_cell_angle_beta 142.809743
_cell_angle_gamma 90.000000
_cell_volume 567.594767
_symmetry_space_group_name_H-M "P 2"
_symmetry_group_IT_number 3
_symmetry_cell_setting 'monoclinic'
loop_
_space_group_symop_operation_xyz
x,y,z
-x,y,-z
loop_
_atom_site_type_symbol
_atom_site_label
_atom_site_fract_x
_atom_site_fract_y
_atom_site_fract_z
Si Si1 0.206397 0.277320 0.538458
Si Si2 0.083991 0.109407 0.238417
Si Si3 0.405580 0.730824 0.053392
Si Si4 0.574824 0.534500 0.732163
Si Si5 0.110033 0.775757 0.187807
Si Si6 0.000000 0.327323 0.000000
Si Si7 0.463444 0.084173 0.098379
O O1 0.104129 0.170289 0.376363
O O2 0.345541 0.424042 0.564201
O O3 0.391188 0.171567 0.718447
O O4 0.000000 0.331287 0.500000
O O5 0.219528 0.940894 0.303548
O O6 0.160262 0.237128 0.192096
O O7 0.811137 0.088304 0.033945
O O8 0.519215 0.649412 0.229905
O O9 0.534898 0.901376 0.135111
O O10 0.500000 0.643164 0.000000
O O11 0.113832 0.726608 0.870810
O O12 0.682217 0.639348 0.693735
O O13 0.793099 0.438948 0.924834
O O14 0.000000 0.810465 0.000000
O O15 0.500000 0.165642 0.000000
#
# Coordination Sequence:
#
# PCOD8045102 Si02
#       7
#     2   2   2   2   2   1   2
#     4  12  26  44  69 113 146 188 244 295 374 426
#     4  11  23  41  73 101 140 186 243 294 354 437
#     4   9  19  36  70 103 131 189 244 286 369 428
#     4  11  23  42  68 101 149 183 239 297 362 439
#     4   9  18  41  71 104 137 189 242 291 356 435
#     4  12  22  40  68 100 136 184 226 298 366 410
#     4  10  20  42  70 100 138 184 234 301 353 423
#
# _framework density 22.903663000000002
#
# number of rings (size 3 to 8) (size 9 to 14) (size 15 to 20)
#    0.000    1.538    6.154    0.000    0.000    2.462 
#    0.000    3.846    0.000    0.000    0.000    0.000 
#    0.000    0.000    0.000    0.000    0.000    0.000 
#
# Total GULP energy -161068.741356 kJ/mol
# GULP energy per Si atom -12389.903181 kJ/mol
# Density = 2.285153 g / cm^3
# Si number density = 22.903663 Si / 1000 Ang^3
#
#
#
# Elastic Constant Matrix: (Units=GPa)
#
#
# Indices 1 2 3 4 5 6 
#
# 1 139.1778 48.3291 28.3578 0.0000 1.2682 0.0000
# 2 48.3291 114.7748 34.1429 0.0000 5.1643 0.0000
# 3 28.3578 34.1429 74.8083 0.0000 -3.9568 0.0000
# 4 0.0000 0.0000 0.0000 17.4333 0.0000 -1.7280
# 5 1.2682 5.1643 -3.9568 0.0000 33.8719 0.0000
# 6 0.0000 0.0000 0.0000 -1.7280 0.0000 32.7242
#
#
#
# Elastic Compliance Matrix: (Units=1/GPa)
#
#
# Indices 1 2 3 4 5 6 
#
# 1 0.008635 -0.003076 -0.001874 0.000000 -0.000073 0.000000
# 2 -0.003076 0.011326 -0.004114 0.000000 -0.002092 0.000000
# 3 -0.001874 -0.004114 0.016092 0.000000 0.002577 0.000000
# 4 0.000000 0.000000 0.000000 0.057663 0.000000 0.003045
# 5 -0.000073 -0.002092 0.002577 0.000000 0.030146 0.000000
# 6 0.000000 0.000000 0.000000 0.003045 0.000000 0.030719
#
#
# Mechanical properties :
#
#
# Convention : Reuss Voigt Hill
#
# Bulk Modulus (GPa) = 55.78298 61.15784 58.47041
# Shear Modulus (GPa) = 27.98254 31.33461 29.65857
#
# Velocity S-wave (km/s) = 3.49915 3.70280 3.60241
# Velocity P-wave (km/s) = 6.38230 6.71127 6.54885
#
# Compressibility (1/GPa) = 0.01792662
#
# Stress axis : x y z
#
# Youngs Moduli (GPa) = 115.80172 88.29484 62.14392
#
# Poissons Ratio (x) = 0.27155 0.11644
# Poissons Ratio (y) = 0.35615 0.25566
# Poissons Ratio (z) = 0.21697 0.36324
#
# Static dielectric constant tensor:
#      x y z
#    x 4.427860 0.000000 0.126680 
#    y 0.000000 4.509080 0.000000 
#    z 0.126680 0.000000 3.633510 
# 
# 
# High freq. dielectric constant tensor:
#      x y z
#    x 1.917150 0.000000 0.000220 
#    y 0.000000 1.909990 0.000000 
#    z 0.000220 0.000000 1.864560 
# 
# From -- ./inp_files/10834.got.cif
#   From: 2010.03.12/outbox.cif.g09.slc.cpg/sg3_6_cif.got.tgz:10834.got - 2010.03.31 09:20:49.
