data_PCOD8045770
_publ_section_title
;
Structure prediction by ZEFSAII (Michael W. Deem and Ramdas Pophale) SiO2 
 PCOD8045770
Probable space group: P 21
;
_chemical_formula_sum "Si O2"
_cell_formula_units_Z 16
_cell_length_a 11.470192
_cell_length_b 8.906136
_cell_length_c 10.494722
_cell_angle_alpha 90.000000
_cell_angle_beta 129.688924
_cell_angle_gamma 90.000000
_cell_volume 824.997375
_symmetry_space_group_name_H-M "P 21"
_symmetry_group_IT_number 4
_symmetry_cell_setting 'monoclinic'
loop_
_space_group_symop_operation_xyz
x,y,z
-x,1/2+y,-z
loop_
_atom_site_type_symbol
_atom_site_label
_atom_site_fract_x
_atom_site_fract_y
_atom_site_fract_z
Si Si1 0.446173 0.380140 0.622057
Si Si2 0.337278 0.956703 0.659612
Si Si3 0.155135 0.219963 0.419525
Si Si4 0.833196 0.296611 0.237657
Si Si5 0.389697 0.657714 0.097336
Si Si6 0.175703 0.648727 0.169012
Si Si7 0.429887 0.710491 0.530528
Si Si8 0.981869 0.375578 0.101162
O O1 0.270672 0.354759 0.542116
O O2 0.554617 0.319457 0.809715
O O3 0.492843 0.551894 0.627697
O O4 0.465443 0.277337 0.508102
O O5 0.223343 0.890233 0.682927
O O6 0.418936 0.826267 0.638372
O O7 0.240477 0.061538 0.496355
O O8 0.466863 0.049519 0.824711
O O9 0.110132 0.256077 0.240510
O O10 0.996164 0.220301 0.389411
O O11 0.864756 0.403367 0.136900
O O12 0.703682 0.177542 0.100174
O O13 0.282224 0.584059 0.130486
O O14 0.263263 0.675928 0.360948
O O15 0.043708 0.532780 0.100800
O O16 0.103365 0.806635 0.078891
#
# Coordination Sequence:
#
# PCOD8045770 Si02
#       8
#     2   2   2   2   2   2   2   2
#     4  10  19  37  57  87 115 149 191 250 291 346
#     4  11  23  37  62  85 113 160 198 237 295 352
#     4   9  20  38  60  83 117 147 194 247 289 343
#     4   9  21  40  56  82 117 152 189 240 287 347
#     4   9  21  40  59  82 119 151 198 245 288 348
#     4  10  19  36  58  87 115 151 188 247 301 342
#     4  11  21  34  58  86 118 152 200 237 300 350
#     4   9  20  36  60  82 122 146 188 245 293 346
#
# _framework density 19.393999000000001
#
# number of rings (size 3 to 8) (size 9 to 14) (size 15 to 20)
#    0.750    1.500    1.250    2.250    1.750    3.000 
#    2.250    2.500    0.000    0.000    0.000    0.000 
#    0.000    0.000    0.000    0.000    0.000    0.000 
#
# Total GULP energy -198242.334278 kJ/mol
# GULP energy per Si atom -12390.145892 kJ/mol
# Density = 1.934986 g / cm^3
# Si number density = 19.393999 Si / 1000 Ang^3
#
#
#
# Elastic Constant Matrix: (Units=GPa)
#
#
# Indices 1 2 3 4 5 6 
#
# 1 60.6236 29.0495 26.6844 0.0000 13.7705 0.0000
# 2 29.0495 85.2523 12.3075 0.0000 1.1834 0.0000
# 3 26.6844 12.3075 42.4682 0.0000 9.6206 0.0000
# 4 0.0000 0.0000 0.0000 26.2182 0.0000 3.5806
# 5 13.7705 1.1834 9.6206 0.0000 27.3372 0.0000
# 6 0.0000 0.0000 0.0000 3.5806 0.0000 32.4476
#
#
#
# Elastic Compliance Matrix: (Units=1/GPa)
#
#
# Indices 1 2 3 4 5 6 
#
# 1 0.028047 -0.007498 -0.013391 0.000000 -0.009091 0.000000
# 2 -0.007498 0.014262 -0.000150 0.000000 0.003212 0.000000
# 3 -0.013391 -0.000150 0.033115 0.000000 -0.004902 0.000000
# 4 0.000000 0.000000 0.000000 0.038725 0.000000 -0.004273
# 5 -0.009091 0.003212 -0.004902 0.000000 0.042746 0.000000
# 6 0.000000 0.000000 0.000000 -0.004273 0.000000 0.031291
#
#
# Mechanical properties :
#
#
# Convention : Reuss Voigt Hill
#
# Bulk Modulus (GPa) = 29.98731 36.04745 33.01738
# Shear Modulus (GPa) = 20.71447 25.22077 22.96762
#
# Velocity S-wave (km/s) = 3.27171 3.61008 3.44505
# Velocity P-wave (km/s) = 5.45599 6.00034 5.73463
#
# Compressibility (1/GPa) = 0.03334744
#
# Stress axis : x y z
#
# Youngs Moduli (GPa) = 35.65429 70.11778 30.19788
#
# Poissons Ratio (x) = 0.52572 0.40437
# Poissons Ratio (y) = 0.26732 0.00452
# Poissons Ratio (z) = 0.47744 0.01050
#
# Static dielectric constant tensor:
#      x y z
#    x 3.471490 0.000000 0.263750 
#    y 0.000000 3.301750 0.000000 
#    z 0.263750 0.000000 3.530930 
# 
# 
# High freq. dielectric constant tensor:
#      x y z
#    x 1.743700 0.000000 0.022970 
#    y 0.000000 1.734540 0.000000 
#    z 0.022970 0.000000 1.753540 
# 
# From -- ./inp_files/11891.got.cif
#   From: 2010.03.12/outbox.cif.g09.slc.cpg/sg4_6_cif.got.tgz:11891.got - 2010.03.31 09:31:35.
