data_PCOD8045368
_publ_section_title
;
Structure prediction by ZEFSAII (Michael W. Deem and Ramdas Pophale) SiO2 
 PCOD8045368
Probable space group: P 2
;
_chemical_formula_sum "Si O2"
_cell_formula_units_Z 11
_cell_length_a 10.942794
_cell_length_b 8.555045
_cell_length_c 9.129963
_cell_angle_alpha 90.000000
_cell_angle_beta 141.997404
_cell_angle_gamma 90.000000
_cell_volume 526.243449
_symmetry_space_group_name_H-M "P 2"
_symmetry_group_IT_number 3
_symmetry_cell_setting 'monoclinic'
loop_
_space_group_symop_operation_xyz
x,y,z
-x,y,-z
loop_
_atom_site_type_symbol
_atom_site_label
_atom_site_fract_x
_atom_site_fract_y
_atom_site_fract_z
Si Si1 0.612143 0.678440 0.760537
Si Si2 0.951257 0.442421 0.106952
Si Si3 0.662705 0.919902 0.038427
Si Si4 0.794773 0.254636 0.225462
Si Si5 0.707495 0.512879 0.365677
Si Si6 0.000000 0.754630 0.500000
O O1 0.500000 0.684361 0.500000
O O2 0.505265 0.569350 0.780442
O O3 0.831783 0.603622 0.956605
O O4 0.613171 0.855138 0.828471
O O5 0.828736 0.337547 0.102729
O O6 0.168633 0.471604 0.374357
O O7 0.000000 0.354523 0.000000
O O8 0.888254 0.863094 0.278416
O O9 0.661928 0.106681 0.054662
O O10 0.500000 0.853507 0.000000
O O11 0.676237 0.367774 0.225328
O O12 0.000000 0.207393 0.500000
O O13 0.827735 0.649254 0.401452
#
# Coordination Sequence:
#
# PCOD8045368 Si02
#       6
#     2   2   2   2   2   1
#     4  12  25  40  65 101 134 172 221 264 331 392
#     4  11  22  41  65  95 129 171 220 271 322 384
#     4  12  25  40  64  98 135 173 216 270 332 383
#     4  10  23  42  66  94 132 168 220 273 328 384
#     4  11  21  41  66  96 124 168 222 276 313 382
#     4  12  20  40  68  94 124 162 222 276 316 368
#
# _framework density 20.902873
#
# number of rings (size 3 to 8) (size 9 to 14) (size 15 to 20)
#    0.000    0.727    9.091    0.000    2.545    0.000 
#    0.000    7.273    0.000    0.000    0.000    0.000 
#    0.000    0.000    0.000    0.000    0.000    0.000 
#
# Total GULP energy -136315.243653 kJ/mol
# GULP energy per Si atom -12392.294878 kJ/mol
# Density = 2.085530 g / cm^3
# Si number density = 20.902873 Si / 1000 Ang^3
#
#
#
# Elastic Constant Matrix: (Units=GPa)
#
#
# Indices 1 2 3 4 5 6 
#
# 1 88.0989 37.3731 40.2216 0.0000 -23.3422 0.0000
# 2 37.3731 111.4688 49.0683 0.0000 -17.5632 0.0000
# 3 40.2216 49.0683 100.2587 0.0000 -21.1945 0.0000
# 4 0.0000 0.0000 0.0000 41.2784 0.0000 5.7027
# 5 -23.3422 -17.5632 -21.1945 0.0000 39.1199 0.0000
# 6 0.0000 0.0000 0.0000 5.7027 0.0000 22.1565
#
#
#
# Elastic Compliance Matrix: (Units=1/GPa)
#
#
# Indices 1 2 3 4 5 6 
#
# 1 0.015842 -0.002692 -0.003721 0.000000 0.006228 0.000000
# 2 -0.002692 0.012091 -0.004551 0.000000 0.001356 0.000000
# 3 -0.003721 -0.004551 0.014448 0.000000 0.003564 0.000000
# 4 0.000000 0.000000 0.000000 0.025119 0.000000 -0.006465
# 5 0.006228 0.001356 0.003564 0.000000 0.031818 0.000000
# 6 0.000000 0.000000 0.000000 -0.006465 0.000000 0.046798
#
#
# Mechanical properties :
#
#
# Convention : Reuss Voigt Hill
#
# Bulk Modulus (GPa) = 48.89445 61.46136 55.17790
# Shear Modulus (GPa) = 28.59421 32.05518 30.32470
#
# Velocity S-wave (km/s) = 3.70260 3.92028 3.81299
# Velocity P-wave (km/s) = 6.45918 7.06814 6.77051
#
# Compressibility (1/GPa) = 0.02045222
#
# Stress axis : x y z
#
# Youngs Moduli (GPa) = 63.12342 82.70891 69.21527
#
# Poissons Ratio (x) = 0.22266 0.25757
# Poissons Ratio (y) = 0.16993 0.31497
# Poissons Ratio (z) = 0.23490 0.37637
#
# Static dielectric constant tensor:
#      x y z
#    x 3.960590 0.000000 0.349590 
#    y 0.000000 3.645820 0.000000 
#    z 0.349590 0.000000 4.133370 
# 
# 
# High freq. dielectric constant tensor:
#      x y z
#    x 1.819690 0.000000 0.007570 
#    y 0.000000 1.797880 0.000000 
#    z 0.007570 0.000000 1.833020 
# 
# From -- ./inp_files/6800.got.cif
#   From: 2010.03.12/outbox.cif.g09.slc.cpg/sg3_4_cif.got.tgz:6800.got - 2010.03.31 09:20:49.
