data_PCOD8045899
_publ_section_title
;
Structure prediction by ZEFSAII (Michael W. Deem and Ramdas Pophale) SiO2 
 PCOD8045899
Probable space group: P 21
;
_chemical_formula_sum "Si O2"
_cell_formula_units_Z 16
_cell_length_a 17.089377
_cell_length_b 8.749529
_cell_length_c 8.257145
_cell_angle_alpha 90.000000
_cell_angle_beta 146.443316
_cell_angle_gamma 90.000000
_cell_volume 682.462446
_symmetry_space_group_name_H-M "P 21"
_symmetry_group_IT_number 4
_symmetry_cell_setting 'monoclinic'
loop_
_space_group_symop_operation_xyz
x,y,z
-x,1/2+y,-z
loop_
_atom_site_type_symbol
_atom_site_label
_atom_site_fract_x
_atom_site_fract_y
_atom_site_fract_z
Si Si1 0.818323 0.079500 0.721475
Si Si2 0.809693 0.629049 0.229846
Si Si3 0.677563 0.588395 0.344572
Si Si4 0.943775 0.341823 0.349925
Si Si5 0.448132 0.404967 0.791364
Si Si6 0.439346 0.982057 0.367198
Si Si7 0.089418 0.906960 0.087675
Si Si8 0.308100 0.673362 0.168693
O O1 0.866652 0.248297 0.747940
O O2 0.771554 0.084927 0.827063
O O3 0.684255 0.014716 0.391280
O O4 0.944577 0.959404 0.920220
O O5 0.752004 0.648760 0.310384
O O6 0.920243 0.488097 0.421646
O O7 0.901114 0.778185 0.340761
O O8 0.687541 0.603813 0.884957
O O9 0.589499 0.727941 0.264189
O O10 0.790970 0.534498 0.673133
O O11 0.572922 0.446622 0.131018
O O12 0.930637 0.384748 0.137977
O O13 0.814473 0.222268 0.170561
O O14 0.503599 0.431355 0.707430
O O15 0.381657 0.832354 0.361852
O O16 0.566746 0.064602 0.687108
#
# Coordination Sequence:
#
# PCOD8045899 Si02
#       8
#     2   2   2   2   2   2   2   2
#     4  10  20  36  58  88 120 155 198 245 294 350
#     4  10  22  41  60  85 120 156 196 243 295 355
#     4  11  22  40  63  89 122 157 198 249 296 356
#     4  10  22  40  60  88 119 155 198 243 297 356
#     4  10  21  38  61  90 120 157 199 244 300 355
#     4   9  20  36  59  87 119 155 197 243 297 354
#     4  11  22  38  62  89 121 158 201 249 297 351
#     4   9  19  37  57  84 119 153 195 242 292 351
#
# _framework density 23.444514999999999
#
# number of rings (size 3 to 8) (size 9 to 14) (size 15 to 20)
#    0.000    2.000    0.000    3.750    0.000    6.000 
#    0.000    7.500    0.000    0.000    0.000    0.000 
#    0.000    0.000    0.000    0.000    0.000    0.000 
#
# Total GULP energy -198329.125154 kJ/mol
# GULP energy per Si atom -12395.570322 kJ/mol
# Density = 2.339115 g / cm^3
# Si number density = 23.444515 Si / 1000 Ang^3
#
#
#
# Elastic Constant Matrix: (Units=GPa)
#
#
# Indices 1 2 3 4 5 6 
#
# 1 46.4213 26.1008 34.8930 0.0000 21.2392 0.0000
# 2 26.1008 47.2545 11.1993 0.0000 16.9897 0.0000
# 3 34.8930 11.1993 77.5734 0.0000 28.1827 0.0000
# 4 0.0000 0.0000 0.0000 55.4559 0.0000 24.4986
# 5 21.2392 16.9897 28.1827 0.0000 31.8664 0.0000
# 6 0.0000 0.0000 0.0000 24.4986 0.0000 44.5300
#
#
#
# Elastic Compliance Matrix: (Units=1/GPa)
#
#
# Indices 1 2 3 4 5 6 
#
# 1 0.048476 -0.020388 -0.016314 0.000000 -0.007011 0.000000
# 2 -0.020388 0.034947 0.008778 0.000000 -0.012807 0.000000
# 3 -0.016314 0.008778 0.024623 0.000000 -0.015584 0.000000
# 4 0.000000 0.000000 0.000000 0.023822 0.000000 -0.013106
# 5 -0.007011 -0.012807 -0.015584 0.000000 0.056664 0.000000
# 6 0.000000 0.000000 0.000000 -0.013106 0.000000 0.029667
#
#
# Mechanical properties :
#
#
# Convention : Reuss Voigt Hill
#
# Bulk Modulus (GPa) = 19.15759 35.07061 27.11410
# Shear Modulus (GPa) = 17.15575 32.97422 25.06499
#
# Velocity S-wave (km/s) = 2.70804 3.75437 3.27329
# Velocity P-wave (km/s) = 4.23877 5.81251 5.08687
#
# Compressibility (1/GPa) = 0.05219863
#
# Stress axis : x y z
#
# Youngs Moduli (GPa) = 20.62893 28.61447 40.61175
#
# Poissons Ratio (x) = 0.58339 0.66254
# Poissons Ratio (y) = 0.42058 -0.35649
# Poissons Ratio (z) = 0.33654 -0.25118
#
# Static dielectric constant tensor:
#      x y z
#    x 4.057670 0.000000 0.575720 
#    y 0.000000 4.319700 0.000000 
#    z 0.575720 0.000000 4.382850 
# 
# 
# High freq. dielectric constant tensor:
#      x y z
#    x 1.913000 0.000000 0.040430 
#    y 0.000000 1.928360 0.000000 
#    z 0.040430 0.000000 1.924950 
# 
# From -- ./inp_files/9208.got.cif
#   From: 2010.03.12/outbox.cif.g09.slc.cpg/sg4_5_cif.got.tgz:9208.got - 2010.03.31 09:31:35.
