data_PCOD8045086
_publ_section_title
;
Structure prediction by ZEFSAII (Michael W. Deem and Ramdas Pophale) SiO2 
 PCOD8045086
Probable space group: P 2
;
_chemical_formula_sum "Si O2"
_cell_formula_units_Z 16
_cell_length_a 8.088668
_cell_length_b 9.668855
_cell_length_c 19.043778
_cell_angle_alpha 90.000000
_cell_angle_beta 148.482131
_cell_angle_gamma 90.000000
_cell_volume 778.594296
_symmetry_space_group_name_H-M "P 2"
_symmetry_group_IT_number 3
_symmetry_cell_setting 'monoclinic'
loop_
_space_group_symop_operation_xyz
x,y,z
-x,y,-z
loop_
_atom_site_type_symbol
_atom_site_label
_atom_site_fract_x
_atom_site_fract_y
_atom_site_fract_z
Si Si1 0.865963 0.015580 0.134943
Si Si2 0.725130 0.347603 0.254296
Si Si3 0.130925 0.089330 0.382391
Si Si4 0.874253 0.818653 0.532799
Si Si5 0.203012 0.744113 0.246943
Si Si6 0.783622 0.505144 0.853143
Si Si7 0.758926 0.293754 0.035629
Si Si8 0.875068 0.598058 0.645134
O O1 0.943103 0.149936 0.115704
O O2 0.968528 0.046350 0.251239
O O3 0.500000 0.985393 0.000000
O O4 0.020080 0.880677 0.155787
O O5 0.555242 0.429330 0.257047
O O6 0.963180 0.222082 0.358402
O O7 0.937919 0.454895 0.288618
O O8 0.427027 0.285286 0.104691
O O9 0.500000 0.117974 0.500000
O O10 0.062411 0.969546 0.413464
O O11 0.502519 0.799936 0.397076
O O12 0.011536 0.700010 0.633975
O O13 0.000000 0.802714 0.500000
O O14 0.283370 0.652211 0.207985
O O15 0.022523 0.658771 0.242058
O O16 0.978176 0.412370 0.868788
O O17 0.000000 0.531314 0.000000
O O18 0.500000 0.327327 0.000000
O O19 0.500000 0.570058 0.500000
#
# Coordination Sequence:
#
# PCOD8045086 Si02
#       8
#     2   2   2   2   2   2   2   2
#     4  11  22  40  68 101 126 171 232 278 325 395
#     4  11  22  40  64  96 136 173 218 285 340 403
#     4  12  22  44  69  97 133 180 235 276 334 416
#     4  11  23  42  64  94 136 172 216 295 353 394
#     4  11  22  42  67  95 132 176 230 279 331 420
#     4  10  24  42  62  98 139 176 220 284 354 399
#     4  10  20  40  65  92 130 173 221 276 333 396
#     4  10  21  40  66  96 124 180 230 277 337 408
#
# _framework density 20.549855999999998
#
# number of rings (size 3 to 8) (size 9 to 14) (size 15 to 20)
#    0.000    1.250    5.000    2.250    0.000    3.500 
#    2.250    2.500    0.000    0.000    0.000    0.000 
#    0.000    0.000    0.000    0.000    0.000    0.000 
#
# Total GULP energy -198326.514064 kJ/mol
# GULP energy per Si atom -12395.407129 kJ/mol
# Density = 2.050308 g / cm^3
# Si number density = 20.549856 Si / 1000 Ang^3
#
#
#
# Elastic Constant Matrix: (Units=GPa)
#
#
# Indices 1 2 3 4 5 6 
#
# 1 97.2093 54.6712 24.1778 0.0000 -5.6958 0.0000
# 2 54.6712 150.9644 43.9125 0.0000 -7.9532 0.0000
# 3 24.1778 43.9125 78.0790 0.0000 -2.2088 0.0000
# 4 0.0000 0.0000 0.0000 31.5101 0.0000 2.7114
# 5 -5.6958 -7.9532 -2.2088 0.0000 26.1516 0.0000
# 6 0.0000 0.0000 0.0000 2.7114 0.0000 46.2717
#
#
#
# Elastic Compliance Matrix: (Units=1/GPa)
#
#
# Indices 1 2 3 4 5 6 
#
# 1 0.013149 -0.004200 -0.001668 0.000000 0.001446 0.000000
# 2 -0.004200 0.009371 -0.003924 0.000000 0.001604 0.000000
# 3 -0.001668 -0.003924 0.015524 0.000000 -0.000246 0.000000
# 4 0.000000 0.000000 0.000000 0.031897 0.000000 -0.001869
# 5 0.001446 0.001604 -0.000246 0.000000 0.039020 0.000000
# 6 0.000000 0.000000 0.000000 -0.001869 0.000000 0.021721
#
#
# Mechanical properties :
#
#
# Convention : Reuss Voigt Hill
#
# Bulk Modulus (GPa) = 54.17677 63.53065 58.85371
# Shear Modulus (GPa) = 31.96475 34.35275 33.15875
#
# Velocity S-wave (km/s) = 3.94823 4.09305 4.02129
# Velocity P-wave (km/s) = 6.87062 7.30205 7.08962
#
# Compressibility (1/GPa) = 0.01845809
#
# Stress axis : x y z
#
# Youngs Moduli (GPa) = 76.05081 106.70902 64.41468
#
# Poissons Ratio (x) = 0.44822 0.10747
# Poissons Ratio (y) = 0.31945 0.25279
# Poissons Ratio (z) = 0.12689 0.41877
#
# Static dielectric constant tensor:
#      x y z
#    x 3.723070 0.000000 -0.005960 
#    y 0.000000 3.975550 0.000000 
#    z -0.005960 0.000000 3.578250 
# 
# 
# High freq. dielectric constant tensor:
#      x y z
#    x 1.794580 0.000000 0.003950 
#    y 0.000000 1.818240 0.000000 
#    z 0.003950 0.000000 1.799490 
# 
# From -- ./inp_files/7416.got.cif
#   From: 2010.03.12/outbox.cif.g09.slc.cpg/sg3_4_cif.got.tgz:7416.got - 2010.03.31 09:20:49.
