data_PCOD8045295
_publ_section_title
;
Structure prediction by ZEFSAII (Michael W. Deem and Ramdas Pophale) SiO2 
 PCOD8045295
Probable space group: P 2
;
_chemical_formula_sum "Si O2"
_cell_formula_units_Z 12
_cell_length_a 7.453016
_cell_length_b 5.993272
_cell_length_c 12.830144
_cell_angle_alpha 90.000000
_cell_angle_beta 107.626644
_cell_angle_gamma 90.000000
_cell_volume 546.189363
_symmetry_space_group_name_H-M "P 2"
_symmetry_group_IT_number 3
_symmetry_cell_setting 'monoclinic'
loop_
_space_group_symop_operation_xyz
x,y,z
-x,y,-z
loop_
_atom_site_type_symbol
_atom_site_label
_atom_site_fract_x
_atom_site_fract_y
_atom_site_fract_z
Si Si1 0.480494 0.657680 0.613473
Si Si2 0.791600 0.343582 0.664226
Si Si3 0.153173 0.613697 0.710277
Si Si4 0.023570 0.994625 0.822998
Si Si5 0.500000 0.077668 0.500000
Si Si6 0.715606 0.370947 0.065460
Si Si7 0.000000 0.665495 0.000000
O O1 0.500000 0.556600 0.500000
O O2 0.654026 0.524943 0.698953
O O3 0.282777 0.605676 0.631493
O O4 0.492667 0.926828 0.604722
O O5 0.689291 0.220568 0.549251
O O6 0.968527 0.474299 0.647964
O O7 0.859632 0.168204 0.763779
O O8 0.268719 0.503319 0.824049
O O9 0.096782 0.866200 0.732404
O O10 0.942069 0.815358 0.890479
O O11 0.195566 0.125066 0.907544
O O12 0.821577 0.509593 0.994062
O O13 0.500000 0.338865 0.000000
#
# Coordination Sequence:
#
# PCOD8045295 Si02
#       7
#     2   2   2   2   1   2   1
#     4  10  24  45  62  95 130 172 221 271 319 375
#     4  11  22  45  64  95 130 170 221 266 324 380
#     4  10  24  44  64  94 133 170 215 273 322 383
#     4  10  23  42  68  97 131 173 213 265 329 385
#     4  10  22  42  64  94 126 170 222 266 324 374
#     4  10  23  42  67  99 130 170 214 263 327 391
#     4  10  22  44  66 100 134 168 212 268 322 386
#
# _framework density 21.970403000000001
#
# number of rings (size 3 to 8) (size 9 to 14) (size 15 to 20)
#    0.500    1.333    0.833    1.500    0.000   12.667 
#    3.000    3.333    0.000    0.000    0.000    0.000 
#    0.000    0.000    0.000    0.000    0.000    0.000 
#
# Total GULP energy -148707.723356 kJ/mol
# GULP energy per Si atom -12392.310280 kJ/mol
# Density = 2.192040 g / cm^3
# Si number density = 21.970403 Si / 1000 Ang^3
#
#
#
# Elastic Constant Matrix: (Units=GPa)
#
#
# Indices 1 2 3 4 5 6 
#
# 1 185.5729 84.6008 80.4934 0.0000 7.9030 0.0000
# 2 84.6008 147.0848 61.3303 0.0000 15.5269 0.0000
# 3 80.4934 61.3303 84.6916 0.0000 16.1674 0.0000
# 4 0.0000 0.0000 0.0000 37.9689 0.0000 10.4700
# 5 7.9030 15.5269 16.1674 0.0000 50.2870 0.0000
# 6 0.0000 0.0000 0.0000 10.4700 0.0000 18.8139
#
#
#
# Elastic Compliance Matrix: (Units=1/GPa)
#
#
# Indices 1 2 3 4 5 6 
#
# 1 0.009919 -0.002608 -0.007879 0.000000 0.001779 0.000000
# 2 -0.002608 0.010455 -0.004852 0.000000 -0.001258 0.000000
# 3 -0.007879 -0.004852 0.023744 0.000000 -0.004898 0.000000
# 4 0.000000 0.000000 0.000000 0.031112 0.000000 -0.017314
# 5 0.001779 -0.001258 -0.004898 0.000000 0.021569 0.000000
# 6 0.000000 0.000000 0.000000 -0.017314 0.000000 0.062787
#
#
# Mechanical properties :
#
#
# Convention : Reuss Voigt Hill
#
# Bulk Modulus (GPa) = 74.39951 96.68871 85.54411
# Shear Modulus (GPa) = 25.67465 34.14227 29.90846
#
# Velocity S-wave (km/s) = 3.42219 3.94637 3.69359
# Velocity P-wave (km/s) = 7.03933 8.05415 7.56378
#
# Compressibility (1/GPa) = 0.01344095
#
# Stress axis : x y z
#
# Youngs Moduli (GPa) = 100.81288 95.64859 42.11555
#
# Poissons Ratio (x) = 0.24946 0.33181
# Poissons Ratio (y) = 0.26293 0.20435
# Poissons Ratio (z) = 0.79427 0.46409
#
# Static dielectric constant tensor:
#      x y z
#    x 3.762580 0.000000 0.119020 
#    y 0.000000 4.333650 0.000000 
#    z 0.119020 0.000000 3.824060 
# 
# 
# High freq. dielectric constant tensor:
#      x y z
#    x 1.850230 0.000000 0.013930 
#    y 0.000000 1.889360 0.000000 
#    z 0.013930 0.000000 1.848120 
# 
# From -- ./inp_files/12823.got.cif
#   From: 2010.03.12/outbox.cif.g09.slc.cpg/sg3_7_cif.got.tgz:12823.got - 2010.03.31 09:20:49.
