data_PCOD8045627
_publ_section_title
;
Structure prediction by ZEFSAII (Michael W. Deem and Ramdas Pophale) SiO2 
 PCOD8045627
Probable space group: P 21
;
_chemical_formula_sum "Si O2"
_cell_formula_units_Z 14
_cell_length_a 13.075766
_cell_length_b 5.051152
_cell_length_c 17.619843
_cell_angle_alpha 90.000000
_cell_angle_beta 140.298782
_cell_angle_gamma 90.000000
_cell_volume 743.384941
_symmetry_space_group_name_H-M "P 21"
_symmetry_group_IT_number 4
_symmetry_cell_setting 'monoclinic'
loop_
_space_group_symop_operation_xyz
x,y,z
-x,1/2+y,-z
loop_
_atom_site_type_symbol
_atom_site_label
_atom_site_fract_x
_atom_site_fract_y
_atom_site_fract_z
Si Si1 0.598069 0.021620 0.892560
Si Si2 0.003063 0.230195 0.551020
Si Si3 0.369608 0.012208 0.003905
Si Si4 0.402962 0.670237 0.431654
Si Si5 0.319101 0.228746 0.817881
Si Si6 0.301852 0.569036 0.529214
Si Si7 0.512579 0.068495 0.677687
O O1 0.698040 0.241529 0.997663
O O2 0.410295 0.037999 0.809885
O O3 0.614139 0.084056 0.812788
O O4 0.664391 0.735725 0.952519
O O5 0.152913 0.323245 0.687365
O O6 0.943242 0.490565 0.473061
O O7 0.864100 0.117646 0.524501
O O8 0.562534 0.979646 0.097410
O O9 0.281797 0.076254 0.875117
O O10 0.556720 0.480560 0.536353
O O11 0.271095 0.589368 0.419929
O O12 0.359786 0.614092 0.318645
O O13 0.369239 0.282771 0.591672
O O14 0.435847 0.778893 0.630156
#
# Coordination Sequence:
#
# PCOD8045627 Si02
#       7
#     2   2   2   2   2   2   2
#     4  10  18  29  48  73  92 118 165 213 259 269
#     4  12  26  34  50  76 108 146 163 199 252 316
#     4  10  20  32  51  68  91 135 166 221 233 283
#     4   8  16  29  49  67  93 129 167 203 247 295
#     4  10  21  35  50  68 102 130 179 198 251 292
#     4  10  19  34  45  72 101 138 167 193 251 311
#     4  10  18  31  51  72 101 126 163 219 251 292
#
# _framework density 18.832771999999999
#
# number of rings (size 3 to 8) (size 9 to 14) (size 15 to 20)
#    0.857    1.143    1.429    3.429    4.000    0.000 
#    0.000    0.000    0.000    0.000    0.000    2.000 
#    0.000    0.000    0.000    0.000    0.000    0.000 
#
# Total GULP energy -173458.463962 kJ/mol
# GULP energy per Si atom -12389.890283 kJ/mol
# Density = 1.878991 g / cm^3
# Si number density = 18.832772 Si / 1000 Ang^3
#
#
#
# Elastic Constant Matrix: (Units=GPa)
#
#
# Indices 1 2 3 4 5 6 
#
# 1 85.3815 9.4267 25.9414 0.0000 -31.1123 0.0000
# 2 9.4267 91.7893 13.7807 0.0000 -10.2861 0.0000
# 3 25.9414 13.7807 64.3383 0.0000 -21.9526 0.0000
# 4 0.0000 0.0000 0.0000 16.7306 0.0000 -6.5422
# 5 -31.1123 -10.2861 -21.9526 0.0000 32.5673 0.0000
# 6 0.0000 0.0000 0.0000 -6.5422 0.0000 23.7795
#
#
#
# Elastic Compliance Matrix: (Units=1/GPa)
#
#
# Indices 1 2 3 4 5 6 
#
# 1 0.018133 0.000225 -0.001850 0.000000 0.016147 0.000000
# 2 0.000225 0.011419 -0.001601 0.000000 0.002742 0.000000
# 3 -0.001850 -0.001601 0.020592 0.000000 0.011607 0.000000
# 4 0.000000 0.000000 0.000000 0.066976 0.000000 0.018426
# 5 0.016147 0.002742 0.011607 0.000000 0.054822 0.000000
# 6 0.000000 0.000000 0.000000 0.018426 0.000000 0.047122
#
#
# Mechanical properties :
#
#
# Convention : Reuss Voigt Hill
#
# Bulk Modulus (GPa) = 22.88716 37.75631 30.32173
# Shear Modulus (GPa) = 20.82631 27.43951 24.13291
#
# Velocity S-wave (km/s) = 3.32905 3.82122 3.58359
# Velocity P-wave (km/s) = 5.19191 6.28973 5.76700
#
# Compressibility (1/GPa) = 0.04369262
#
# Stress axis : x y z
#
# Youngs Moduli (GPa) = 55.14727 87.57276 48.56199
#
# Poissons Ratio (x) = -0.01970 0.08984
# Poissons Ratio (y) = -0.01241 0.07774
# Poissons Ratio (z) = 0.10203 0.14019
#
# Static dielectric constant tensor:
#      x y z
#    x 3.567830 0.000000 -0.443250 
#    y 0.000000 3.539970 0.000000 
#    z -0.443250 0.000000 2.916470 
# 
# 
# High freq. dielectric constant tensor:
#      x y z
#    x 1.720370 0.000000 -0.051940 
#    y 0.000000 1.750130 0.000000 
#    z -0.051940 0.000000 1.672400 
# 
# From -- ./inp_files/15082.got.cif
#   From: 2010.03.12/outbox.cif.g09.slc.cpg/sg4_8_cif.got.tgz:15082.got - 2010.03.31 09:31:35.
