data_PCOD8045004
_publ_section_title
;
Structure prediction by ZEFSAII (Michael W. Deem and Ramdas Pophale) SiO2 
 PCOD8045004
Probable space group: P 2
;
_chemical_formula_sum "Si O2"
_cell_formula_units_Z 16
_cell_length_a 8.678039
_cell_length_b 11.747542
_cell_length_c 11.297857
_cell_angle_alpha 90.000000
_cell_angle_beta 43.051519
_cell_angle_gamma 90.000000
_cell_volume 786.260392
_symmetry_space_group_name_H-M "P 2"
_symmetry_group_IT_number 3
_symmetry_cell_setting 'monoclinic'
loop_
_space_group_symop_operation_xyz
x,y,z
-x,y,-z
loop_
_atom_site_type_symbol
_atom_site_label
_atom_site_fract_x
_atom_site_fract_y
_atom_site_fract_z
Si Si1 0.828951 0.758470 0.987731
Si Si2 0.450181 0.593773 0.711417
Si Si3 0.946185 0.227375 0.861831
Si Si4 0.126944 0.603828 0.676704
Si Si5 0.578114 0.166586 0.323378
Si Si6 0.520992 0.353848 0.186367
Si Si7 0.078749 0.381191 0.321838
Si Si8 0.780591 0.005567 0.046060
O O1 0.621053 0.679316 0.144315
O O2 0.726848 0.884126 0.014672
O O3 0.000000 0.766670 0.000000
O O4 0.953202 0.707289 0.801676
O O5 0.252056 0.572148 0.728208
O O6 0.681794 0.642569 0.524282
O O7 0.499958 0.472838 0.737581
O O8 0.027873 0.271916 0.687249
O O9 0.164073 0.215531 0.824029
O O10 0.773657 0.325673 0.002170
O O11 0.821211 0.104397 0.924610
O O12 0.984216 0.497096 0.710402
O O13 0.500000 0.142306 0.500000
O O14 0.434927 0.260615 0.332564
O O15 0.580725 0.048062 0.247574
O O16 0.348938 0.359510 0.172439
O O17 0.000000 0.386095 0.500000
O O18 0.000000 0.984886 0.000000
#
# Coordination Sequence:
#
# PCOD8045004 Si02
#       8
#     2   2   2   2   2   2   2   2
#     4   9  18  36  58  82 113 147 188 239 287 333
#     4  10  20  35  56  86 113 147 192 234 287 344
#     4  10  21  36  56  82 113 151 189 232 292 340
#     4  10  21  35  56  83 116 150 187 238 287 339
#     4  10  20  35  57  86 116 148 184 239 290 341
#     4  11  21  34  56  81 114 151 189 232 283 351
#     4  12  22  35  54  82 117 149 186 238 285 342
#     4   8  17  36  56  82 111 143 192 233 279 345
#
# _framework density 20.349494
#
# number of rings (size 3 to 8) (size 9 to 14) (size 15 to 20)
#    0.000    2.000    1.250    3.750    1.750    2.000 
#    9.000    0.000    0.000    6.750    0.000    0.000 
#    0.000    0.000    0.000    0.000    0.000    0.000 
#
# Total GULP energy -198267.533286 kJ/mol
# GULP energy per Si atom -12391.720830 kJ/mol
# Density = 2.030318 g / cm^3
# Si number density = 20.349494 Si / 1000 Ang^3
#
#
#
# Elastic Constant Matrix: (Units=GPa)
#
#
# Indices 1 2 3 4 5 6 
#
# 1 51.3949 27.8283 15.7683 0.0000 -2.3135 0.0000
# 2 27.8283 153.1110 62.7343 0.0000 17.1925 0.0000
# 3 15.7683 62.7343 112.4930 0.0000 2.4586 0.0000
# 4 0.0000 0.0000 0.0000 21.4630 0.0000 6.8390
# 5 -2.3135 17.1925 2.4586 0.0000 22.3791 0.0000
# 6 0.0000 0.0000 0.0000 6.8390 0.0000 0.5585
#
#
#
# Elastic Compliance Matrix: (Units=1/GPa)
#
#
# Indices 1 2 3 4 5 6 
#
# 1 0.022334 -0.004370 -0.000819 0.000000 0.005756 0.000000
# 2 -0.004370 0.010208 -0.004911 0.000000 -0.007755 0.000000
# 3 -0.000819 -0.004911 0.011690 0.000000 0.002404 0.000000
# 4 0.000000 0.000000 0.000000 -0.016055 0.000000 0.196608
# 5 0.005756 -0.007755 0.002404 0.000000 0.050973 0.000000
# 6 0.000000 0.000000 0.000000 0.196608 0.000000 -0.617020
#
#
# Mechanical properties :
#
#
# Convention : Reuss Voigt Hill
#
# Bulk Modulus (GPa) = 41.61071 58.85119 50.23095
# Shear Modulus (GPa) = -9.81049 22.92464 6.55707
#
# Velocity S-wave (km/s) = -2.19806 3.36005 1.79700
# Velocity P-wave (km/s) = 3.74840 6.63598 5.38919
#
# Compressibility (1/GPa) = 0.02403227
#
# Stress axis : x y z
#
# Youngs Moduli (GPa) = 44.77526 97.95915 85.53993
#
# Poissons Ratio (x) = 0.42806 0.07009
# Poissons Ratio (y) = 0.19566 0.42008
# Poissons Ratio (z) = 0.03669 0.48107
#
# Static dielectric constant tensor:
#      x y z
#    x 3.806740 0.000000 -0.031320 
#    y 0.000000 3.893070 0.000000 
#    z -0.031320 0.000000 3.878470 
# 
# 
# High freq. dielectric constant tensor:
#      x y z
#    x 1.766930 0.000000 0.003820 
#    y 0.000000 1.783060 0.000000 
#    z 0.003820 0.000000 1.805610 
# 
# From -- ./inp_files/10979.got.cif
#   From: 2010.03.12/outbox.cif.g09.slc.cpg/sg3_6_cif.got.tgz:10979.got - 2010.03.31 09:20:49.
