data_PCOD8045261
_publ_section_title
;
Structure prediction by ZEFSAII (Michael W. Deem and Ramdas Pophale) SiO2 
 PCOD8045261
Probable space group: P 2
;
_chemical_formula_sum "Si O2"
_cell_formula_units_Z 15
_cell_length_a 28.546831
_cell_length_b 5.209956
_cell_length_c 10.632021
_cell_angle_alpha 90.000000
_cell_angle_beta 25.155433
_cell_angle_gamma 90.000000
_cell_volume 672.161615
_symmetry_space_group_name_H-M "P 2"
_symmetry_group_IT_number 3
_symmetry_cell_setting 'monoclinic'
loop_
_space_group_symop_operation_xyz
x,y,z
-x,y,-z
loop_
_atom_site_type_symbol
_atom_site_label
_atom_site_fract_x
_atom_site_fract_y
_atom_site_fract_z
Si Si1 0.168769 0.727230 0.427017
Si Si2 0.506922 0.238862 0.132228
Si Si3 0.002755 0.084325 0.208765
Si Si4 0.259365 0.274317 0.764968
Si Si5 0.000000 0.437279 0.000000
Si Si6 0.360792 0.748967 0.132472
Si Si7 0.088029 0.437431 0.378534
Si Si8 0.794342 0.773133 0.256409
O O1 0.297221 0.733837 0.152442
O O2 0.143695 0.607050 0.351464
O O3 0.103791 0.595009 0.698802
O O4 0.121837 0.016620 0.532426
O O5 0.388619 0.305852 0.479052
O O6 0.500000 0.196204 0.000000
O O7 0.585096 0.476094 0.972940
O O8 0.550129 0.976972 0.091046
O O9 0.993533 0.219356 0.366419
O O10 0.054682 0.272249 0.979199
O O11 0.075184 0.822347 0.036230
O O12 0.221045 0.487195 0.757290
O O13 0.241543 0.988518 0.756500
O O14 0.191627 0.310450 0.057065
O O15 0.275543 0.819080 0.449073
O O16 0.000000 0.586921 0.500000
#
# Coordination Sequence:
#
# PCOD8045261 Si02
#       8
#     2   2   2   2   1   2   2   2
#     4  11  26  42  68 100 149 187 234 303 356 430
#     4  12  24  46  71 109 137 183 239 306 360 432
#     4  11  24  40  67 103 142 188 236 290 361 440
#     4  12  26  44  71 104 143 186 241 297 355 423
#     4  10  22  40  62 100 148 180 236 282 372 426
#     4  12  25  43  76 106 142 181 239 299 375 419
#     4  11  25  46  70 101 142 194 243 289 353 447
#     4  12  23  40  74 107 141 184 229 297 366 425
#
# _framework density 22.316061000000001
#
# number of rings (size 3 to 8) (size 9 to 14) (size 15 to 20)
#    0.000    0.533    4.000    4.000   11.200    0.533 
#    0.000    0.667    0.000    0.000    0.000    0.000 
#    0.000    0.000    0.000    0.000    0.000    0.000 
#
# Total GULP energy -185989.751688 kJ/mol
# GULP energy per Si atom -12399.316779 kJ/mol
# Density = 2.226527 g / cm^3
# Si number density = 22.316061 Si / 1000 Ang^3
#
#
#
# Elastic Constant Matrix: (Units=GPa)
#
#
# Indices 1 2 3 4 5 6 
#
# 1 130.7168 32.2781 56.3628 0.0000 -13.1956 0.0000
# 2 32.2781 75.8109 3.1130 0.0000 -10.2018 0.0000
# 3 56.3628 3.1130 92.3372 0.0000 -1.1877 0.0000
# 4 0.0000 0.0000 0.0000 33.2639 0.0000 -15.4607
# 5 -13.1956 -10.2018 -1.1877 0.0000 46.1860 0.0000
# 6 0.0000 0.0000 0.0000 -15.4607 0.0000 21.7588
#
#
#
# Elastic Compliance Matrix: (Units=1/GPa)
#
#
# Indices 1 2 3 4 5 6 
#
# 1 0.012114 -0.004556 -0.007211 0.000000 0.002269 0.000000
# 2 -0.004556 0.015325 0.002292 0.000000 0.002142 0.000000
# 3 -0.007211 0.002292 0.015140 0.000000 -0.001165 0.000000
# 4 0.000000 0.000000 0.000000 0.044887 0.000000 0.031894
# 5 0.002269 0.002142 -0.001165 0.000000 0.022743 0.000000
# 6 0.000000 0.000000 0.000000 0.031894 0.000000 0.068621
#
#
# Mechanical properties :
#
#
# Convention : Reuss Voigt Hill
#
# Bulk Modulus (GPa) = 42.32495 53.59699 47.96097
# Shear Modulus (GPa) = 24.31250 34.04914 29.18082
#
# Velocity S-wave (km/s) = 3.30428 3.91035 3.62002
# Velocity P-wave (km/s) = 5.79353 6.66762 6.24588
#
# Compressibility (1/GPa) = 0.02362673
#
# Stress axis : x y z
#
# Youngs Moduli (GPa) = 82.55117 65.25385 66.05238
#
# Poissons Ratio (x) = 0.29731 0.47633
# Poissons Ratio (y) = 0.37612 -0.15139
# Poissons Ratio (z) = 0.59531 -0.14956
#
# Static dielectric constant tensor:
#      x y z
#    x 4.077970 0.000000 -0.108970 
#    y 0.000000 4.053430 0.000000 
#    z -0.108970 0.000000 4.213130 
# 
# 
# High freq. dielectric constant tensor:
#      x y z
#    x 1.876600 0.000000 -0.009530 
#    y 0.000000 1.889480 0.000000 
#    z -0.009530 0.000000 1.873710 
# 
# From -- ./inp_files/12753.got.cif
#   From: 2010.03.12/outbox.cif.g09.slc.cpg/sg3_7_cif.got.tgz:12753.got - 2010.03.31 09:20:49.
