data_PCOD8045532
_publ_section_title
;
Structure prediction by ZEFSAII (Michael W. Deem and Ramdas Pophale) SiO2 
 PCOD8045532
Probable space group: P 2
;
_chemical_formula_sum "Si O2"
_cell_formula_units_Z 10
_cell_length_a 15.352787
_cell_length_b 5.316841
_cell_length_c 10.032214
_cell_angle_alpha 90.000000
_cell_angle_beta 29.507489
_cell_angle_gamma 90.000000
_cell_volume 403.345138
_symmetry_space_group_name_H-M "P 2"
_symmetry_group_IT_number 3
_symmetry_cell_setting 'monoclinic'
loop_
_space_group_symop_operation_xyz
x,y,z
-x,y,-z
loop_
_atom_site_type_symbol
_atom_site_label
_atom_site_fract_x
_atom_site_fract_y
_atom_site_fract_z
Si Si1 0.500000 0.356120 0.500000
Si Si2 0.682986 0.720010 0.058786
Si Si3 0.864011 0.256699 0.413295
Si Si4 0.000000 0.457855 0.500000
Si Si5 0.800836 0.031038 0.143842
Si Si6 0.301939 0.777321 0.465823
O O1 0.628382 0.505152 0.233438
O O2 0.632691 0.195929 0.416348
O O3 0.513271 0.789065 0.197105
O O4 0.759161 0.943538 0.048459
O O5 0.836609 0.633473 0.756414
O O6 0.764591 0.513481 0.505800
O O7 0.942264 0.279504 0.456304
O O8 0.739628 0.010432 0.577360
O O9 0.019126 0.192228 0.099902
O O10 0.800799 0.809159 0.254617
#
# Coordination Sequence:
#
# PCOD8045532 Si02
#       6
#     1   2   2   1   2   2
#     4  12  20  46  82 116 148 200 266 308 374 456
#     4  12  26  49  82 113 161 203 259 315 389 473
#     4  12  30  49  78 113 163 205 256 327 387 462
#     4  12  30  56  72 110 160 220 256 304 402 476
#     4  12  25  46  82 120 153 202 260 323 392 456
#     4  12  27  50  80 121 153 199 264 333 380 448
#
# _framework density 24.792665
#
# number of rings (size 3 to 8) (size 9 to 14) (size 15 to 20)
#    0.000    0.000    6.000    3.000    0.000    8.800 
#    0.000    6.000    0.000    0.000    0.000    0.000 
#    0.000    0.000    0.000    0.000    0.000    0.000 
#
# Total GULP energy -123974.037274 kJ/mol
# GULP energy per Si atom -12397.403727 kJ/mol
# Density = 2.473624 g / cm^3
# Si number density = 24.792665 Si / 1000 Ang^3
#
#
#
# Elastic Constant Matrix: (Units=GPa)
#
#
# Indices 1 2 3 4 5 6 
#
# 1 144.4941 63.7705 40.3491 0.0000 -0.5917 0.0000
# 2 63.7705 154.5403 42.7842 0.0000 -11.2216 0.0000
# 3 40.3491 42.7842 148.3951 0.0000 -7.7213 0.0000
# 4 0.0000 0.0000 0.0000 26.5464 0.0000 -6.1588
# 5 -0.5917 -11.2216 -7.7213 0.0000 32.6797 0.0000
# 6 0.0000 0.0000 0.0000 -6.1588 0.0000 19.3944
#
#
#
# Elastic Compliance Matrix: (Units=1/GPa)
#
#
# Indices 1 2 3 4 5 6 
#
# 1 0.008797 -0.003310 -0.001507 0.000000 -0.001333 0.000000
# 2 -0.003310 0.008403 -0.001393 0.000000 0.002497 0.000000
# 3 -0.001507 -0.001393 0.007618 0.000000 0.001294 0.000000
# 4 0.000000 0.000000 0.000000 0.040666 0.000000 0.012914
# 5 -0.001333 0.002497 0.001294 0.000000 0.031739 0.000000
# 6 0.000000 0.000000 0.000000 0.012914 0.000000 0.055662
#
#
# Mechanical properties :
#
#
# Convention : Reuss Voigt Hill
#
# Bulk Modulus (GPa) = 80.65555 82.35967 81.50761
# Shear Modulus (GPa) = 29.50960 35.75913 32.63437
#
# Velocity S-wave (km/s) = 3.45375 3.80192 3.63201
# Velocity P-wave (km/s) = 6.96471 7.25012 7.10885
#
# Compressibility (1/GPa) = 0.01239840
#
# Stress axis : x y z
#
# Youngs Moduli (GPa) = 113.67931 118.99944 131.27651
#
# Poissons Ratio (x) = 0.39383 0.19784
# Poissons Ratio (y) = 0.37622 0.18287
# Poissons Ratio (z) = 0.17132 0.16577
#
# Static dielectric constant tensor:
#      x y z
#    x 5.169350 0.000000 -0.277320 
#    y 0.000000 4.552490 0.000000 
#    z -0.277320 0.000000 4.342430 
# 
# 
# High freq. dielectric constant tensor:
#      x y z
#    x 2.008320 0.000000 -0.019180 
#    y 0.000000 1.992930 0.000000 
#    z -0.019180 0.000000 1.978000 
# 
# From -- ./inp_files/4850.got.cif
#   From: 2010.03.12/outbox.cif.g09.slc.cpg/sg3_3_cif.got.tgz:4850.got - 2010.03.31 09:20:49.
