data_PCOD8045334
_publ_section_title
;
Structure prediction by ZEFSAII (Michael W. Deem and Ramdas Pophale) SiO2 
 PCOD8045334
Probable space group: P 2
;
_chemical_formula_sum "Si O2"
_cell_formula_units_Z 14
_cell_length_a 14.607473
_cell_length_b 5.184338
_cell_length_c 10.068600
_cell_angle_alpha 90.000000
_cell_angle_beta 49.361758
_cell_angle_gamma 90.000000
_cell_volume 578.609901
_symmetry_space_group_name_H-M "P 2"
_symmetry_group_IT_number 3
_symmetry_cell_setting 'monoclinic'
loop_
_space_group_symop_operation_xyz
x,y,z
-x,y,-z
loop_
_atom_site_type_symbol
_atom_site_label
_atom_site_fract_x
_atom_site_fract_y
_atom_site_fract_z
Si Si1 0.257706 0.500000 0.624050
Si Si2 0.606082 0.796474 0.134314
Si Si3 0.203972 0.995494 0.513223
Si Si4 0.500000 0.695518 0.500000
Si Si5 0.500000 0.538370 0.000000
Si Si6 0.285365 0.170993 0.167668
Si Si7 0.152375 0.624283 0.998748
Si Si8 0.937654 0.142592 0.788596
O O1 0.244315 0.208956 0.583257
O O2 0.395620 0.513902 0.541379
O O3 0.225174 0.707510 0.543003
O O4 0.167321 0.572563 0.828839
O O5 0.550190 0.870898 0.330999
O O6 0.501219 0.694282 0.136679
O O7 0.653200 0.051524 0.020090
O O8 0.717209 0.592675 0.049498
O O9 0.279664 0.998003 0.305308
O O10 0.064882 0.054004 0.610726
O O11 0.629548 0.403616 0.869755
O O12 0.147695 0.221288 0.254879
O O13 0.109332 0.915645 0.069094
O O14 0.055093 0.411520 0.137478
#
# Coordination Sequence:
#
# PCOD8045334 Si02
#       8
#     2   2   2   1   1   2   2   2
#     4  11  26  45  69 105 138 185 233 289 346 414
#     4  10  23  43  68  98 139 183 231 288 349 417
#     4  12  27  43  69 105 140 182 237 287 339 423
#     4  10  24  48  70 100 148 182 232 290 354 410
#     4  12  22  42  72  98 134 184 236 284 346 424
#     4  11  26  42  68 101 137 184 231 286 359 405
#     4  10  22  44  69  99 136 184 235 282 356 401
#     4  11  23  45  69  98 141 184 230 291 345 411
#
# _framework density 24.195920000000001
#
# number of rings (size 3 to 8) (size 9 to 14) (size 15 to 20)
#    0.000    1.143    1.429    3.429    6.000    4.000 
#    0.000    2.857    0.000    0.000    0.000    0.000 
#    0.000    0.000    0.000    0.000    0.000    0.000 
#
# Total GULP energy -173500.023844 kJ/mol
# GULP energy per Si atom -12392.858846 kJ/mol
# Density = 2.414085 g / cm^3
# Si number density = 24.195920 Si / 1000 Ang^3
#
#
#
# Elastic Constant Matrix: (Units=GPa)
#
#
# Indices 1 2 3 4 5 6 
#
# 1 119.4638 10.7752 19.9383 0.0000 -4.8561 0.0000
# 2 10.7752 77.0660 2.0177 0.0000 0.4466 0.0000
# 3 19.9383 2.0177 106.1613 0.0000 15.2114 0.0000
# 4 0.0000 0.0000 0.0000 24.4221 0.0000 -2.6837
# 5 -4.8561 0.4466 15.2114 0.0000 39.2594 0.0000
# 6 0.0000 0.0000 0.0000 -2.6837 0.0000 29.1179
#
#
#
# Elastic Compliance Matrix: (Units=1/GPa)
#
#
# Indices 1 2 3 4 5 6 
#
# 1 0.008873 -0.001201 -0.001909 0.000000 0.001851 0.000000
# 2 -0.001201 0.013145 0.000020 0.000000 -0.000306 0.000000
# 3 -0.001909 0.000020 0.010388 0.000000 -0.004261 0.000000
# 4 0.000000 0.000000 0.000000 0.041365 0.000000 0.003812
# 5 0.001851 -0.000306 -0.004261 0.000000 0.027355 0.000000
# 6 0.000000 0.000000 0.000000 0.003812 0.000000 0.034695
#
#
# Mechanical properties :
#
#
# Convention : Reuss Voigt Hill
#
# Bulk Modulus (GPa) = 38.13112 40.90594 39.51853
# Shear Modulus (GPa) = 33.16876 36.55721 34.86299
#
# Velocity S-wave (km/s) = 3.70650 3.89123 3.79999
# Velocity P-wave (km/s) = 5.84047 6.09358 5.96837
#
# Compressibility (1/GPa) = 0.02622530
#
# Stress axis : x y z
#
# Youngs Moduli (GPa) = 112.70274 76.07389 96.26173
#
# Poissons Ratio (x) = 0.09139 0.18374
# Poissons Ratio (y) = 0.13539 -0.00189
# Poissons Ratio (z) = 0.21513 -0.00149
#
# Static dielectric constant tensor:
#      x y z
#    x 4.938570 0.000000 0.059360 
#    y 0.000000 3.953970 0.000000 
#    z 0.059360 0.000000 4.459810 
# 
# 
# High freq. dielectric constant tensor:
#      x y z
#    x 1.981950 0.000000 0.001660 
#    y 0.000000 1.937950 0.000000 
#    z 0.001660 0.000000 1.967820 
# 
# From -- ./inp_files/8247.got.cif
#   From: 2010.03.12/outbox.cif.g09.slc.cpg/sg3_5_cif.got.tgz:8247.got - 2010.03.31 09:20:49.
