data_PCOD8045463
_publ_section_title
;
Structure prediction by ZEFSAII (Michael W. Deem and Ramdas Pophale) SiO2 
 PCOD8045463
Probable space group: P 2
;
_chemical_formula_sum "Si O2"
_cell_formula_units_Z 13
_cell_length_a 6.371384
_cell_length_b 11.343886
_cell_length_c 9.209788
_cell_angle_alpha 90.000000
_cell_angle_beta 107.260609
_cell_angle_gamma 90.000000
_cell_volume 635.671486
_symmetry_space_group_name_H-M "P 2"
_symmetry_group_IT_number 3
_symmetry_cell_setting 'monoclinic'
loop_
_space_group_symop_operation_xyz
x,y,z
-x,y,-z
loop_
_atom_site_type_symbol
_atom_site_label
_atom_site_fract_x
_atom_site_fract_y
_atom_site_fract_z
Si Si1 0.181083 0.934510 0.656095
Si Si2 0.031532 0.119568 0.849132
Si Si3 0.675863 0.326592 0.144027
Si Si4 0.064476 0.708783 0.356648
Si Si5 0.631389 0.271002 0.675782
Si Si6 0.949523 0.477707 0.818417
Si Si7 0.500000 0.850778 0.500000
O O1 0.417415 0.930108 0.621073
O O2 0.000000 0.967120 0.500000
O O3 0.121185 0.807673 0.716096
O O4 0.173092 0.032578 0.778225
O O5 0.805957 0.163478 0.724691
O O6 0.178355 0.233378 0.916116
O O7 0.000000 0.058050 0.000000
O O8 0.565370 0.255726 0.251220
O O9 0.838415 0.430645 0.228181
O O10 0.500000 0.384219 0.000000
O O11 0.081360 0.612267 0.234566
O O12 0.300854 0.770184 0.407018
O O13 0.000000 0.652162 0.500000
O O14 0.500000 0.266747 0.500000
O O15 0.740632 0.399075 0.728234
O O16 0.000000 0.470045 0.000000
#
# Coordination Sequence:
#
# PCOD8045463 Si02
#       7
#     2   2   2   2   2   2   1
#     4   9  21  40  62  90 125 160 207 262 305 368
#     4  11  23  41  64  93 129 164 205 258 308 371
#     4  11  21  42  60  87 131 169 197 248 316 365
#     4   9  21  39  62  89 123 159 207 260 306 367
#     4  11  25  39  62  95 124 166 210 251 305 371
#     4  11  23  39  62  92 128 162 205 258 305 369
#     4   8  18  42  62  90 124 160 206 258 320 358
#
# _framework density 20.450814000000001
#
# number of rings (size 3 to 8) (size 9 to 14) (size 15 to 20)
#    0.000    2.154    3.077    0.923    5.385    5.538 
#    1.385    0.000    0.000    0.000    0.000    0.000 
#    0.000    0.000    0.000    0.000    0.000    0.000 
#
# Total GULP energy -161104.765552 kJ/mol
# GULP energy per Si atom -12392.674273 kJ/mol
# Density = 2.040427 g / cm^3
# Si number density = 20.450814 Si / 1000 Ang^3
#
#
#
# Elastic Constant Matrix: (Units=GPa)
#
#
# Indices 1 2 3 4 5 6 
#
# 1 135.3843 38.3068 49.3497 0.0000 -17.2292 0.0000
# 2 38.3068 91.2640 43.8061 0.0000 -11.1458 0.0000
# 3 49.3497 43.8061 114.7931 0.0000 -2.1651 0.0000
# 4 0.0000 0.0000 0.0000 26.1067 0.0000 -1.8464
# 5 -17.2292 -11.1458 -2.1651 0.0000 31.8800 0.0000
# 6 0.0000 0.0000 0.0000 -1.8464 0.0000 13.7683
#
#
#
# Elastic Compliance Matrix: (Units=1/GPa)
#
#
# Indices 1 2 3 4 5 6 
#
# 1 0.009709 -0.001935 -0.003354 0.000000 0.004343 0.000000
# 2 -0.001935 0.014430 -0.004605 0.000000 0.003686 0.000000
# 3 -0.003354 -0.004605 0.011861 0.000000 -0.002617 0.000000
# 4 0.000000 0.000000 0.000000 0.038671 0.000000 0.005186
# 5 0.004343 0.003686 -0.002617 0.000000 0.034826 0.000000
# 6 0.000000 0.000000 0.000000 0.005186 0.000000 0.073326
#
#
# Mechanical properties :
#
#
# Convention : Reuss Voigt Hill
#
# Bulk Modulus (GPa) = 61.68124 67.15186 64.41655
# Shear Modulus (GPa) = 24.03669 28.34959 26.19314
#
# Velocity S-wave (km/s) = 3.43204 3.72725 3.58269
# Velocity P-wave (km/s) = 6.77728 7.17149 6.97717
#
# Compressibility (1/GPa) = 0.01621239
#
# Stress axis : x y z
#
# Youngs Moduli (GPa) = 102.99701 69.29927 84.30963
#
# Poissons Ratio (x) = 0.13411 0.28273
# Poissons Ratio (y) = 0.19932 0.38826
# Poissons Ratio (z) = 0.34540 0.31914
#
# Static dielectric constant tensor:
#      x y z
#    x 4.392470 0.000000 -0.630540 
#    y 0.000000 3.519990 0.000000 
#    z -0.630540 0.000000 4.147190 
# 
# 
# High freq. dielectric constant tensor:
#      x y z
#    x 1.818230 0.000000 -0.011640 
#    y 0.000000 1.783950 0.000000 
#    z -0.011640 0.000000 1.783940 
# 
# From -- ./inp_files/1292.got.cif
#   From: 2010.03.12/outbox.cif.g09.slc.cpg/sg3_1_cif.got.tgz:1292.got - 2010.03.31 09:20:49.
