data_PCOD8045249
_publ_section_title
;
Structure prediction by ZEFSAII (Michael W. Deem and Ramdas Pophale) SiO2 
 PCOD8045249
Probable space group: P 2
;
_chemical_formula_sum "Si O2"
_cell_formula_units_Z 14
_cell_length_a 8.684532
_cell_length_b 9.420224
_cell_length_c 8.242075
_cell_angle_alpha 90.000000
_cell_angle_beta 105.201537
_cell_angle_gamma 90.000000
_cell_volume 650.692473
_symmetry_space_group_name_H-M "P 2"
_symmetry_group_IT_number 3
_symmetry_cell_setting 'monoclinic'
loop_
_space_group_symop_operation_xyz
x,y,z
-x,y,-z
loop_
_atom_site_type_symbol
_atom_site_label
_atom_site_fract_x
_atom_site_fract_y
_atom_site_fract_z
Si Si1 0.000000 0.703980 0.500000
Si Si2 0.744843 0.456417 0.974685
Si Si3 0.246489 0.932354 0.489346
Si Si4 0.057220 0.468119 0.259258
Si Si5 0.449349 0.920079 0.231271
Si Si6 0.250262 0.148100 0.012673
Si Si7 0.957709 0.160654 0.722577
Si Si8 0.500000 0.680090 0.000000
O O1 0.840142 0.798290 0.451338
O O2 0.989782 0.604979 0.652848
O O3 0.917444 0.437068 0.096407
O O4 0.776913 0.496343 0.793540
O O5 0.660885 0.301623 0.970941
O O6 0.652769 0.578171 0.045309
O O7 0.317398 0.889577 0.332924
O O8 0.390199 0.985357 0.644833
O O9 0.113882 0.055175 0.432406
O O10 0.066789 0.318860 0.360622
O O11 0.382646 0.025157 0.072627
O O12 0.495793 0.771610 0.161954
O O13 0.141659 0.149595 0.141008
O O14 0.141445 0.119231 0.821220
#
# Coordination Sequence:
#
# PCOD8045249 Si02
#       8
#     1   2   2   2   2   2   2   1
#     4  12  22  34  54  84 116 152 184 220 276 340
#     4   9  19  37  59  82 108 141 186 235 277 324
#     4  10  22  39  57  82 117 151 185 229 279 331
#     4   9  19  37  59  82 108 141 186 235 277 324
#     4  10  22  39  57  82 117 151 185 229 279 331
#     4   8  16  35  62  85 106 141 190 237 278 325
#     4   8  16  35  62  85 106 141 190 237 278 325
#     4  12  22  34  54  84 116 152 184 220 276 340
#
# _framework density 21.515540000000001
#
# number of rings (size 3 to 8) (size 9 to 14) (size 15 to 20)
#    0.000    2.571    0.000    3.429    0.000    3.429 
#    0.000    8.571    0.000    6.857    0.000    0.000 
#    0.000    0.000    0.000    0.000    0.000    0.000 
#
# Total GULP energy -173482.086598 kJ/mol
# GULP energy per Si atom -12391.577614 kJ/mol
# Density = 2.146657 g / cm^3
# Si number density = 21.515540 Si / 1000 Ang^3
#
#
#
# Elastic Constant Matrix: (Units=GPa)
#
#
# Indices 1 2 3 4 5 6 
#
# 1 97.2160 69.1597 40.0535 0.0000 0.2219 0.0000
# 2 69.1597 163.8851 42.8693 0.0000 6.9476 0.0000
# 3 40.0535 42.8693 46.9313 0.0000 21.1693 0.0000
# 4 0.0000 0.0000 0.0000 -11.6359 0.0000 26.3479
# 5 0.2219 6.9476 21.1693 0.0000 25.4650 0.0000
# 6 0.0000 0.0000 0.0000 26.3479 0.0000 18.5977
#
#
#
# Elastic Compliance Matrix: (Units=1/GPa)
#
#
# Indices 1 2 3 4 5 6 
#
# 1 0.025005 -0.004059 -0.028853 0.000000 0.024876 0.000000
# 2 -0.004059 0.009348 -0.006304 0.000000 0.002726 0.000000
# 3 -0.028853 -0.006304 0.081281 0.000000 -0.065598 0.000000
# 4 0.000000 0.000000 0.000000 -0.020423 0.000000 0.028934
# 5 0.024876 0.002726 -0.065598 0.000000 0.092841 0.000000
# 6 0.000000 0.000000 0.000000 0.028934 0.000000 0.012778
#
#
# Mechanical properties :
#
#
# Convention : Reuss Voigt Hill
#
# Bulk Modulus (GPa) = 26.88165 68.02192 47.45179
# Shear Modulus (GPa) = 17.14298 16.88201 17.01250
#
# Velocity S-wave (km/s) = 2.82578 2.80419 2.81500
# Velocity P-wave (km/s) = 4.81330 6.49373 5.71561
#
# Compressibility (1/GPa) = 0.03720009
#
# Stress axis : x y z
#
# Youngs Moduli (GPa) = 39.99189 106.96994 12.30305
#
# Poissons Ratio (x) = 0.43422 0.35498
# Poissons Ratio (y) = 0.16234 0.07756
# Poissons Ratio (z) = 1.15390 0.67439
#
# Static dielectric constant tensor:
#      x y z
#    x 3.935400 0.000000 -0.095020 
#    y 0.000000 4.101710 0.000000 
#    z -0.095020 0.000000 3.733490 
# 
# 
# High freq. dielectric constant tensor:
#      x y z
#    x 1.844890 0.000000 -0.016250 
#    y 0.000000 1.846440 0.000000 
#    z -0.016250 0.000000 1.829730 
# 
# From -- ./inp_files/5449.got.cif
#   From: 2010.03.12/outbox.cif.g09.slc.cpg/sg3_3_cif.got.tgz:5449.got - 2010.03.31 09:20:49.
