data_PCOD8045565
_publ_section_title
;
Structure prediction by ZEFSAII (Michael W. Deem and Ramdas Pophale) SiO2 
 PCOD8045565
Probable space group: P 2
;
_chemical_formula_sum "Si O2"
_cell_formula_units_Z 11
_cell_length_a 16.375942
_cell_length_b 5.804738
_cell_length_c 16.375854
_cell_angle_alpha 90.000000
_cell_angle_beta 16.885638
_cell_angle_gamma 90.000000
_cell_volume 452.150184
_symmetry_space_group_name_H-M "P 2"
_symmetry_group_IT_number 3
_symmetry_cell_setting 'monoclinic'
loop_
_space_group_symop_operation_xyz
x,y,z
-x,y,-z
loop_
_atom_site_type_symbol
_atom_site_label
_atom_site_fract_x
_atom_site_fract_y
_atom_site_fract_z
Si Si1 0.000000 0.799881 0.000000
Si Si2 0.185190 0.799989 0.185336
Si Si3 0.629961 0.799880 0.630166
Si Si4 0.000000 0.148049 0.500000
Si Si5 0.676833 0.460082 0.195651
Si Si6 0.500000 0.451961 0.000000
Si Si7 0.195791 0.139587 0.676730
O O1 0.779825 0.642736 0.163201
O O2 0.836437 0.957053 0.220441
O O3 0.339778 0.599822 0.086141
O O4 0.908128 0.696896 0.406953
O O5 0.086089 0.000202 0.339822
O O6 0.406713 0.903024 0.908325
O O7 0.476103 0.591811 0.731384
O O8 0.731172 0.007792 0.476249
O O9 0.268621 0.300000 0.268619
O O10 0.454658 0.299959 0.454721
O O11 0.923776 0.299715 0.923829
#
# Coordination Sequence:
#
# PCOD8045565 Si02
#       7
#     1   2   2   1   2   1   2
#     4  12  28  50  76 106 148 190 246 308 352 428
#     4  12  26  50  76 107 151 188 239 303 354 430
#     4  12  27  49  74 107 151 190 237 303 362 427
#     4  12  26  48  78 110 144 192 244 292 360 430
#     4  12  28  49  75 108 145 193 245 297 365 430
#     4  12  26  48  78 110 144 192 244 292 360 430
#     4  12  28  49  75 108 145 193 245 297 365 430
#
# _framework density 24.328199000000001
#
# number of rings (size 3 to 8) (size 9 to 14) (size 15 to 20)
#    0.000    0.000    0.000   10.364    0.000   16.727 
#    0.000    7.273    0.000    0.000    0.000    0.000 
#    0.000    0.000    0.000    0.000    0.000    0.000 
#
# Total GULP energy -136468.773461 kJ/mol
# GULP energy per Si atom -12406.252133 kJ/mol
# Density = 2.427283 g / cm^3
# Si number density = 24.328199 Si / 1000 Ang^3
#
#
#
# Elastic Constant Matrix: (Units=GPa)
#
#
# Indices 1 2 3 4 5 6 
#
# 1 175.8124 96.1407 107.1911 0.0000 -5.5839 0.0000
# 2 96.1407 179.5806 113.8867 0.0000 -2.8953 0.0000
# 3 107.1911 113.8867 236.4276 0.0000 -4.9317 0.0000
# 4 0.0000 0.0000 0.0000 67.8262 0.0000 -9.7241
# 5 -5.5839 -2.8953 -4.9317 0.0000 50.1170 0.0000
# 6 0.0000 0.0000 0.0000 -9.7241 0.0000 14.1870
#
#
#
# Elastic Compliance Matrix: (Units=1/GPa)
#
#
# Indices 1 2 3 4 5 6 
#
# 1 0.008998 -0.003209 -0.002522 0.000000 0.000569 0.000000
# 2 -0.003209 0.009162 -0.002961 0.000000 -0.000120 0.000000
# 3 -0.002522 -0.002961 0.006804 0.000000 0.000217 0.000000
# 4 0.000000 0.000000 0.000000 0.016350 0.000000 0.011207
# 5 0.000569 -0.000120 0.000217 0.000000 0.020031 0.000000
# 6 0.000000 0.000000 0.000000 0.011207 0.000000 0.078168
#
#
# Mechanical properties :
#
#
# Convention : Reuss Voigt Hill
#
# Bulk Modulus (GPa) = 131.91562 136.25085 134.08324
# Shear Modulus (GPa) = 31.36257 44.73285 38.04771
#
# Velocity S-wave (km/s) = 3.59436 4.29269 3.95895
# Velocity P-wave (km/s) = 8.45973 8.98312 8.72535
#
# Compressibility (1/GPa) = 0.00758060
#
# Stress axis : x y z
#
# Youngs Moduli (GPa) = 111.13203 109.14195 146.97068
#
# Poissons Ratio (x) = 0.35020 0.37068
# Poissons Ratio (y) = 0.35659 0.43522
# Poissons Ratio (z) = 0.28029 0.32320
#
# Static dielectric constant tensor:
#      x y z
#    x 4.436580 0.000000 0.024350 
#    y 0.000000 4.576220 0.000000 
#    z 0.024350 0.000000 4.300350 
# 
# 
# High freq. dielectric constant tensor:
#      x y z
#    x 1.973640 0.000000 -0.004970 
#    y 0.000000 1.973460 0.000000 
#    z -0.004970 0.000000 2.000830 
# 
# From -- ./inp_files/13903.got.cif
#   From: 2010.03.12/outbox.cif.g09.slc.cpg/sg3_7_cif.got.tgz:13903.got - 2010.03.31 09:20:49.
