data_PCOD8045947
_publ_section_title
;
Structure prediction by ZEFSAII (Michael W. Deem and Ramdas Pophale) SiO2 
 PCOD8045947
Probable space group: P 21
;
_chemical_formula_sum "Si O2"
_cell_formula_units_Z 16
_cell_length_a 19.933805
_cell_length_b 7.293551
_cell_length_c 8.907976
_cell_angle_alpha 90.000000
_cell_angle_beta 35.650223
_cell_angle_gamma 90.000000
_cell_volume 754.838853
_symmetry_space_group_name_H-M "P 21"
_symmetry_group_IT_number 4
_symmetry_cell_setting 'monoclinic'
loop_
_space_group_symop_operation_xyz
x,y,z
-x,1/2+y,-z
loop_
_atom_site_type_symbol
_atom_site_label
_atom_site_fract_x
_atom_site_fract_y
_atom_site_fract_z
Si Si1 0.855689 0.889760 0.858431
Si Si2 0.103612 0.889521 0.483559
Si Si3 0.391625 0.392552 0.598859
Si Si4 0.135776 0.811700 0.102158
Si Si5 0.342450 0.749612 0.518968
Si Si6 0.522809 0.040067 0.242985
Si Si7 0.260305 0.598800 0.357661
Si Si8 0.888757 0.789186 0.464793
O O1 0.840386 0.818533 0.719099
O O2 0.971420 0.814882 0.728462
O O3 0.869282 0.107445 0.824287
O O4 0.742844 0.832736 0.158593
O O5 0.137093 0.938960 0.248818
O O6 0.182723 0.731525 0.401150
O O7 0.120826 0.072113 0.552858
O O8 0.407917 0.576705 0.472529
O O9 0.468431 0.234243 0.387461
O O10 0.430299 0.433630 0.697774
O O11 0.022063 0.852710 0.209577
O O12 0.249718 0.841862 0.798729
O O13 0.278783 0.684543 0.485966
O O14 0.432449 0.910218 0.321545
O O15 0.620342 0.074398 0.944093
O O16 0.191908 0.405572 0.501493
#
# Coordination Sequence:
#
# PCOD8045947 Si02
#       8
#     2   2   2   2   2   2   2   2
#     4   9  18  38  65 101 126 157 216 268 320 371
#     4  10  21  37  71  95 130 162 212 268 322 384
#     4  11  23  44  69  97 126 166 224 279 309 373
#     4   9  19  41  64  99 126 165 219 265 312 379
#     4  11  27  45  63  93 137 171 213 270 320 391
#     4  12  26  42  71  96 124 174 226 265 322 374
#     4  12  26  44  60  97 137 171 210 263 330 394
#     4  10  20  37  69  96 126 170 206 264 325 380
#
# _framework density 21.196577000000001
#
# number of rings (size 3 to 8) (size 9 to 14) (size 15 to 20)
#    0.000    1.500    3.750    0.750    5.250    2.000 
#    6.750    0.000    0.000    0.000    0.000    0.000 
#    0.000    0.000    0.000    0.000    0.000    0.000 
#
# Total GULP energy -198406.763962 kJ/mol
# GULP energy per Si atom -12400.422748 kJ/mol
# Density = 2.114833 g / cm^3
# Si number density = 21.196577 Si / 1000 Ang^3
#
#
#
# Elastic Constant Matrix: (Units=GPa)
#
#
# Indices 1 2 3 4 5 6 
#
# 1 66.2374 19.0095 38.7143 0.0000 -9.2380 0.0000
# 2 19.0095 67.0148 44.6341 0.0000 -15.6668 0.0000
# 3 38.7143 44.6341 79.6143 0.0000 -27.6822 0.0000
# 4 0.0000 0.0000 0.0000 31.3430 0.0000 -10.9156
# 5 -9.2380 -15.6668 -27.6822 0.0000 25.9434 0.0000
# 6 0.0000 0.0000 0.0000 -10.9156 0.0000 40.2531
#
#
#
# Elastic Compliance Matrix: (Units=1/GPa)
#
#
# Indices 1 2 3 4 5 6 
#
# 1 0.021668 0.001371 -0.013251 0.000000 -0.005595 0.000000
# 2 0.001371 0.023902 -0.014115 0.000000 -0.000139 0.000000
# 3 -0.013251 -0.014115 0.035474 0.000000 0.024610 0.000000
# 4 0.000000 0.000000 0.000000 0.035232 0.000000 0.009554
# 5 -0.005595 -0.000139 0.024610 0.000000 0.062728 0.000000
# 6 0.000000 0.000000 0.000000 0.009554 0.000000 0.027434
#
#
# Mechanical properties :
#
#
# Convention : Reuss Voigt Hill
#
# Bulk Modulus (GPa) = 34.41809 46.39805 40.40807
# Shear Modulus (GPa) = 18.64885 26.87512 22.76199
#
# Velocity S-wave (km/s) = 2.96937 3.56462 3.28052
# Velocity P-wave (km/s) = 5.29424 6.23530 5.78394
#
# Compressibility (1/GPa) = 0.02905449
#
# Stress axis : x y z
#
# Youngs Moduli (GPa) = 46.15059 41.83796 28.18950
#
# Poissons Ratio (x) = -0.05736 0.37353
# Poissons Ratio (y) = -0.06327 0.39789
# Poissons Ratio (z) = 0.61153 0.59054
#
# Static dielectric constant tensor:
#      x y z
#    x 3.764850 0.000000 -0.329290 
#    y 0.000000 3.923390 0.000000 
#    z -0.329290 0.000000 3.955820 
# 
# 
# High freq. dielectric constant tensor:
#      x y z
#    x 1.812640 0.000000 -0.022200 
#    y 0.000000 1.838290 0.000000 
#    z -0.022200 0.000000 1.829900 
# 
# From -- ./inp_files/9587.got.cif
#   From: 2010.03.12/outbox.cif.g09.slc.cpg/sg4_5_cif.got.tgz:9587.got - 2010.03.31 09:31:35.
