data_PCOD8045623
_publ_section_title
;
Structure prediction by ZEFSAII (Michael W. Deem and Ramdas Pophale) SiO2 
 PCOD8045623
Probable space group: P 21
;
_chemical_formula_sum "Si O2"
_cell_formula_units_Z 16
_cell_length_a 27.242628
_cell_length_b 5.085154
_cell_length_c 17.752699
_cell_angle_alpha 90.000000
_cell_angle_beta 156.163265
_cell_angle_gamma 90.000000
_cell_volume 993.895134
_symmetry_space_group_name_H-M "P 21"
_symmetry_group_IT_number 4
_symmetry_cell_setting 'monoclinic'
loop_
_space_group_symop_operation_xyz
x,y,z
-x,1/2+y,-z
loop_
_atom_site_type_symbol
_atom_site_label
_atom_site_fract_x
_atom_site_fract_y
_atom_site_fract_z
Si Si1 0.021255 0.755070 0.692565
Si Si2 0.037895 0.320301 0.220727
Si Si3 0.068053 0.721737 0.075471
Si Si4 0.435147 0.835288 0.817047
Si Si5 0.593549 0.337956 0.049782
Si Si6 0.080556 0.268336 0.694138
Si Si7 0.159180 0.016522 0.664683
Si Si8 0.186722 0.820958 0.386103
O O1 0.112772 0.530941 0.787363
O O2 0.885142 0.697973 0.468199
O O3 0.016639 0.746695 0.775647
O O4 0.072766 0.036125 0.743256
O O5 0.103762 0.604041 0.312639
O O6 0.924344 0.308356 0.001786
O O7 0.138352 0.109141 0.337522
O O8 0.185739 0.771514 0.293660
O O9 0.035608 0.413003 0.034052
O O10 0.518574 0.587840 0.919310
O O11 0.325548 0.812905 0.605368
O O12 0.519020 0.085730 0.918374
O O13 0.381766 0.837030 0.826374
O O14 0.722108 0.350631 0.188329
O O15 0.948524 0.306487 0.467506
O O16 0.177874 0.198967 0.765331
#
# Coordination Sequence:
#
# PCOD8045623 Si02
#       8
#     2   2   2   2   2   2   2   2
#     4  10  19  28  44  69  92 116 152 188 225 296
#     4  10  18  28  47  69  91 123 152 184 238 284
#     4   8  16  28  43  66  87 118 152 185 225 281
#     4  10  21  34  41  71  87 127 166 199 212 268
#     4  10  22  31  48  60  96 120 167 198 227 253
#     4  10  20  31  46  68  90 119 159 188 236 295
#     4  10  20  33  48  64  92 129 151 195 238 273
#     4  10  18  31  47  61  95 124 157 191 227 272
#
# _framework density 16.098278000000001
#
# number of rings (size 3 to 8) (size 9 to 14) (size 15 to 20)
#    0.750    1.500    1.250    2.250    3.500    1.000 
#    0.000    0.000    0.000    0.000    0.000    0.000 
#    0.000    4.000    0.000    0.125    0.000    0.000 
#
# Total GULP energy -198251.664253 kJ/mol
# GULP energy per Si atom -12390.729016 kJ/mol
# Density = 1.606164 g / cm^3
# Si number density = 16.098278 Si / 1000 Ang^3
#
#
#
# Elastic Constant Matrix: (Units=GPa)
#
#
# Indices 1 2 3 4 5 6 
#
# 1 89.9146 17.3587 33.8734 0.0000 -13.6305 0.0000
# 2 17.3587 94.7914 17.6372 0.0000 -2.2718 0.0000
# 3 33.8734 17.6372 74.6770 0.0000 -16.3626 0.0000
# 4 0.0000 0.0000 0.0000 7.8797 0.0000 -7.3372
# 5 -13.6305 -2.2718 -16.3626 0.0000 28.6745 0.0000
# 6 0.0000 0.0000 0.0000 -7.3372 0.0000 20.5083
#
#
#
# Elastic Compliance Matrix: (Units=1/GPa)
#
#
# Indices 1 2 3 4 5 6 
#
# 1 0.013896 -0.001497 -0.005175 0.000000 0.003534 0.000000
# 2 -0.001497 0.011208 -0.002205 0.000000 -0.001082 0.000000
# 3 -0.005175 -0.002205 0.017923 0.000000 0.007593 0.000000
# 4 0.000000 0.000000 0.000000 0.190305 0.000000 0.068085
# 5 0.003534 -0.001082 0.007593 0.000000 0.040801 0.000000
# 6 0.000000 0.000000 0.000000 0.068085 0.000000 0.073120
#
#
# Mechanical properties :
#
#
# Convention : Reuss Voigt Hill
#
# Bulk Modulus (GPa) = 39.56959 44.12461 41.84710
# Shear Modulus (GPa) = 13.38932 24.11341 18.75136
#
# Velocity S-wave (km/s) = 2.88709 3.87445 3.41663
# Velocity P-wave (km/s) = 5.97889 6.89088 6.45102
#
# Compressibility (1/GPa) = 0.02527193
#
# Stress axis : x y z
#
# Youngs Moduli (GPa) = 71.96268 89.22205 55.79420
#
# Poissons Ratio (x) = 0.13357 0.28876
# Poissons Ratio (y) = 0.10773 0.12303
# Poissons Ratio (z) = 0.37244 0.19674
#
# Static dielectric constant tensor:
#      x y z
#    x 2.959420 0.000000 -0.282160 
#    y 0.000000 3.260320 0.000000 
#    z -0.282160 0.000000 2.777670 
# 
# 
# High freq. dielectric constant tensor:
#      x y z
#    x 1.601840 0.000000 -0.024650 
#    y 0.000000 1.646200 0.000000 
#    z -0.024650 0.000000 1.570040 
# 
# From -- ./inp_files/15425.got.cif
#   From: 2010.03.12/outbox.cif.g09.slc.cpg/sg4_8_cif.got.tgz:15425.got - 2010.03.31 09:31:35.
