data_PCOD8045992
_publ_section_title
;
Structure prediction by ZEFSAII (Michael W. Deem and Ramdas Pophale) SiO2 
 PCOD8045992
Probable space group: P 21
;
_chemical_formula_sum "Si O2"
_cell_formula_units_Z 16
_cell_length_a 21.426084
_cell_length_b 7.580519
_cell_length_c 8.555929
_cell_angle_alpha 90.000000
_cell_angle_beta 148.891872
_cell_angle_gamma 90.000000
_cell_volume 717.975094
_symmetry_space_group_name_H-M "P 21"
_symmetry_group_IT_number 4
_symmetry_cell_setting 'monoclinic'
loop_
_space_group_symop_operation_xyz
x,y,z
-x,1/2+y,-z
loop_
_atom_site_type_symbol
_atom_site_label
_atom_site_fract_x
_atom_site_fract_y
_atom_site_fract_z
Si Si1 0.152714 0.213570 0.142808
Si Si2 0.648350 0.137502 0.672468
Si Si3 0.741741 0.871730 0.334829
Si Si4 0.589406 0.669630 0.389891
Si Si5 0.025638 0.427576 0.354498
Si Si6 0.535268 0.906248 0.665216
Si Si7 0.084185 0.561505 0.812271
Si Si8 0.431275 0.531455 0.803624
O O1 0.196366 0.226831 0.418035
O O2 0.266289 0.162101 0.276476
O O3 0.100341 0.402311 0.971065
O O4 0.058286 0.054704 0.929443
O O5 0.582585 0.290942 0.629139
O O6 0.607286 0.949488 0.660026
O O7 0.604279 0.178543 0.400354
O O8 0.791749 0.147034 0.983615
O O9 0.840675 0.953092 0.430077
O O10 0.683570 0.017622 0.325767
O O11 0.628777 0.806141 0.984620
O O12 0.516684 0.591433 0.379608
O O13 0.546793 0.865440 0.261099
O O14 0.555813 0.563652 0.159159
O O15 0.015698 0.486954 0.513376
O O16 0.989986 0.220652 0.265831
#
# Coordination Sequence:
#
# PCOD8045992 Si02
#       8
#     2   2   2   2   2   2   2   2
#     4  11  24  46  69  97 137 182 224 289 335 399
#     4  12  22  41  64  99 128 179 217 273 341 401
#     4  10  23  43  66  99 134 171 227 288 333 405
#     4  10  20  40  62  94 131 172 215 277 340 397
#     4  12  26  45  72  99 133 185 235 276 344 404
#     4  11  24  39  69  98 135 173 222 278 339 411
#     4  12  25  46  71  96 136 182 227 282 336 407
#     4  10  20  38  67  90 134 170 213 273 344 400
#
# _framework density 22.284894000000001
#
# number of rings (size 3 to 8) (size 9 to 14) (size 15 to 20)
#    0.000    1.000    5.000    3.750    1.750    0.000 
#    2.250    0.000    0.000    0.000    0.000    0.000 
#    0.000    0.000    0.000    0.000    0.000    0.000 
#
# Total GULP energy -198259.957984 kJ/mol
# GULP energy per Si atom -12391.247374 kJ/mol
# Density = 2.223417 g / cm^3
# Si number density = 22.284894 Si / 1000 Ang^3
#
#
#
# Elastic Constant Matrix: (Units=GPa)
#
#
# Indices 1 2 3 4 5 6 
#
# 1 75.6941 25.9046 15.4019 0.0000 -9.0415 0.0000
# 2 25.9046 65.8705 33.6339 0.0000 15.4714 0.0000
# 3 15.4019 33.6339 68.3352 0.0000 9.4472 0.0000
# 4 0.0000 0.0000 0.0000 39.5047 0.0000 -6.5093
# 5 -9.0415 15.4714 9.4472 0.0000 23.4238 0.0000
# 6 0.0000 0.0000 0.0000 -6.5093 0.0000 8.0094
#
#
#
# Elastic Compliance Matrix: (Units=1/GPa)
#
#
# Indices 1 2 3 4 5 6 
#
# 1 0.018613 -0.010059 -0.001224 0.000000 0.014322 0.000000
# 2 -0.010059 0.028152 -0.008982 0.000000 -0.018854 0.000000
# 3 -0.001224 -0.008982 0.019673 0.000000 -0.002474 0.000000
# 4 0.000000 0.000000 0.000000 0.029227 0.000000 0.023753
# 5 0.014322 -0.018854 -0.002474 0.000000 0.061671 0.000000
# 6 0.000000 0.000000 0.000000 0.023753 0.000000 0.144157
#
#
# Mechanical properties :
#
#
# Convention : Reuss Voigt Hill
#
# Bulk Modulus (GPa) = 38.59977 39.97563 39.28770
# Shear Modulus (GPa) = 14.25878 23.18488 18.72183
#
# Velocity S-wave (km/s) = 2.53225 3.22900 2.90161
# Velocity P-wave (km/s) = 5.09003 5.64618 5.37530
#
# Compressibility (1/GPa) = 0.02590689
#
# Stress axis : x y z
#
# Youngs Moduli (GPa) = 53.72478 35.52140 50.83150
#
# Poissons Ratio (x) = 0.35730 0.06224
# Poissons Ratio (y) = 0.54041 0.45659
# Poissons Ratio (z) = 0.06578 0.31907
#
# Static dielectric constant tensor:
#      x y z
#    x 4.041730 0.000000 -0.360340 
#    y 0.000000 3.880880 0.000000 
#    z -0.360340 0.000000 4.827750 
# 
# 
# High freq. dielectric constant tensor:
#      x y z
#    x 1.883350 0.000000 -0.007870 
#    y 0.000000 1.859190 0.000000 
#    z -0.007870 0.000000 1.882860 
# 
# From -- ./inp_files/9933.got.cif
#   From: 2010.03.12/outbox.cif.g09.slc.cpg/sg4_5_cif.got.tgz:9933.got - 2010.03.31 09:31:35.
