data_PCOD8045201
_publ_section_title
;
Structure prediction by ZEFSAII (Michael W. Deem and Ramdas Pophale) SiO2 
 PCOD8045201
Probable space group: P 2
;
_chemical_formula_sum "Si O2"
_cell_formula_units_Z 15
_cell_length_a 18.272551
_cell_length_b 8.210886
_cell_length_c 9.548355
_cell_angle_alpha 90.000000
_cell_angle_beta 29.581929
_cell_angle_gamma 90.000000
_cell_volume 707.216511
_symmetry_space_group_name_H-M "P 2"
_symmetry_group_IT_number 3
_symmetry_cell_setting 'monoclinic'
loop_
_space_group_symop_operation_xyz
x,y,z
-x,y,-z
loop_
_atom_site_type_symbol
_atom_site_label
_atom_site_fract_x
_atom_site_fract_y
_atom_site_fract_z
Si Si1 0.996230 0.091100 0.793720
Si Si2 0.942760 0.389219 0.736253
Si Si3 0.653382 0.686446 0.667081
Si Si4 0.567672 0.342798 0.732455
Si Si5 0.240272 0.022375 0.586988
Si Si6 0.623370 0.470432 0.181703
Si Si7 0.000000 0.941321 0.500000
Si Si8 0.824637 0.671723 0.655863
O O1 0.988923 0.288932 0.798597
O O2 0.161791 0.039393 0.564792
O O3 0.883075 0.014117 0.089661
O O4 0.942388 0.041829 0.728683
O O5 0.000000 0.296349 0.500000
O O6 0.027317 0.561590 0.591239
O O7 0.764327 0.403311 0.032650
O O8 0.657468 0.516670 0.571003
O O9 0.785926 0.687879 0.557882
O O10 0.670898 0.851797 0.546396
O O11 0.500000 0.702334 0.000000
O O12 0.662123 0.181759 0.549509
O O13 0.445903 0.337635 0.810499
O O14 0.500000 0.333377 0.000000
O O15 0.500000 0.529488 0.500000
O O16 0.682100 0.610765 0.980330
O O17 0.136875 0.839930 0.334253
#
# Coordination Sequence:
#
# PCOD8045201 Si02
#       8
#     2   2   2   2   2   2   1   2
#     4  11  24  42  63  95 129 169 216 277 321 384
#     4  10  21  40  69  91 126 171 218 261 325 396
#     4  11  22  43  68  94 130 172 219 269 327 396
#     4  11  23  41  69  93 127 177 217 261 331 398
#     4  11  25  43  63  97 134 166 219 276 325 381
#     4  11  22  39  65  99 132 163 216 279 324 383
#     4  12  22  40  70  90 128 170 218 264 330 400
#     4  11  21  42  67  98 121 175 221 260 334 397
#
# _framework density 21.209911000000002
#
# number of rings (size 3 to 8) (size 9 to 14) (size 15 to 20)
#    0.000    1.067    6.667    2.000    1.867    1.067 
#    4.800    1.333    0.000    0.000    0.000    0.000 
#    0.000    0.000    0.000    0.000    0.000    0.000 
#
# Total GULP energy -185849.618410 kJ/mol
# GULP energy per Si atom -12389.974561 kJ/mol
# Density = 2.116164 g / cm^3
# Si number density = 21.209911 Si / 1000 Ang^3
#
#
#
# Elastic Constant Matrix: (Units=GPa)
#
#
# Indices 1 2 3 4 5 6 
#
# 1 95.4111 24.7213 23.9514 0.0000 -9.0842 0.0000
# 2 24.7213 118.7231 33.4599 0.0000 -7.3040 0.0000
# 3 23.9514 33.4599 90.1667 0.0000 -10.3894 0.0000
# 4 0.0000 0.0000 0.0000 10.2656 0.0000 -1.8652
# 5 -9.0842 -7.3040 -10.3894 0.0000 31.2943 0.0000
# 6 0.0000 0.0000 0.0000 -1.8652 0.0000 26.9239
#
#
#
# Elastic Compliance Matrix: (Units=1/GPa)
#
#
# Indices 1 2 3 4 5 6 
#
# 1 0.011687 -0.001667 -0.002225 0.000000 0.002265 0.000000
# 2 -0.001667 0.009680 -0.003062 0.000000 0.000759 0.000000
# 3 -0.002225 -0.003062 0.013165 0.000000 0.003010 0.000000
# 4 0.000000 0.000000 0.000000 0.098654 0.000000 0.006834
# 5 0.002265 0.000759 0.003010 0.000000 0.033789 0.000000
# 6 0.000000 0.000000 0.000000 0.006834 0.000000 0.037615
#
#
# Mechanical properties :
#
#
# Convention : Reuss Voigt Hill
#
# Bulk Modulus (GPa) = 48.48768 52.06289 50.27528
# Shear Modulus (GPa) = 22.18559 28.50798 25.34679
#
# Velocity S-wave (km/s) = 3.23770 3.67016 3.46069
# Velocity P-wave (km/s) = 6.07350 6.52379 6.30267
#
# Compressibility (1/GPa) = 0.02062380
#
# Stress axis : x y z
#
# Youngs Moduli (GPa) = 85.56453 103.30916 75.96139
#
# Poissons Ratio (x) = 0.17224 0.16900
# Poissons Ratio (y) = 0.14265 0.23257
# Poissons Ratio (z) = 0.19037 0.31630
#
# Static dielectric constant tensor:
#      x y z
#    x 4.243100 0.000000 0.016500 
#    y 0.000000 3.915210 0.000000 
#    z 0.016500 0.000000 3.635070 
# 
# 
# High freq. dielectric constant tensor:
#      x y z
#    x 1.844000 0.000000 -0.003170 
#    y 0.000000 1.830870 0.000000 
#    z -0.003170 0.000000 1.814500 
# 
# From -- ./inp_files/9141.got.cif
#   From: 2010.03.12/outbox.cif.g09.slc.cpg/sg3_5_cif.got.tgz:9141.got - 2010.03.31 09:20:49.
