data_PCOD8045212
_publ_section_title
;
Structure prediction by ZEFSAII (Michael W. Deem and Ramdas Pophale) SiO2 
 PCOD8045212
Probable space group: P 2
;
_chemical_formula_sum "Si O2"
_cell_formula_units_Z 12
_cell_length_a 9.449702
_cell_length_b 6.264932
_cell_length_c 9.524723
_cell_angle_alpha 90.000000
_cell_angle_beta 104.461089
_cell_angle_gamma 90.000000
_cell_volume 546.015021
_symmetry_space_group_name_H-M "P 2"
_symmetry_group_IT_number 3
_symmetry_cell_setting 'monoclinic'
loop_
_space_group_symop_operation_xyz
x,y,z
-x,y,-z
loop_
_atom_site_type_symbol
_atom_site_label
_atom_site_fract_x
_atom_site_fract_y
_atom_site_fract_z
Si Si1 0.812111 0.515000 0.287064
Si Si2 0.614894 0.137586 0.265371
Si Si3 0.990530 0.139859 0.742294
Si Si4 0.755540 0.891169 0.072452
Si Si5 0.697666 0.995073 0.753292
Si Si6 0.816947 0.866613 0.511575
O O1 0.659920 0.383828 0.257371
O O2 0.794907 0.662554 0.146478
O O3 0.835903 0.642365 0.438121
O O4 0.954044 0.366191 0.301931
O O5 0.621324 0.005385 0.121118
O O6 0.454435 0.123075 0.291241
O O7 0.741922 0.040664 0.393711
O O8 0.830629 0.168371 0.774342
O O9 0.972332 0.962587 0.610402
O O10 0.104499 0.046951 0.882544
O O11 0.711744 0.859730 0.899756
O O12 0.711148 0.835296 0.622930
#
# Coordination Sequence:
#
# PCOD8045212 Si02
#       6
#     2   2   2   2   2   2
#     4  10  22  43  69 100 124 178 235 261 330 408
#     4  10  21  41  67  95 131 174 223 271 329 395
#     4   9  22  40  69  95 133 173 218 277 328 390
#     4  10  21  41  67  95 131 174 223 271 329 395
#     4  10  21  44  67  92 138 174 208 282 338 374
#     4   9  22  40  69  95 133 173 218 277 328 390
#
# _framework density 21.977419999999999
#
# number of rings (size 3 to 8) (size 9 to 14) (size 15 to 20)
#    1.000    1.333    0.000    1.500    0.000    8.667 
#    0.000   33.333    7.333    0.000    0.000    0.000 
#    0.000    0.000    0.000    0.000    0.000    0.000 
#
# Total GULP energy -148723.303881 kJ/mol
# GULP energy per Si atom -12393.608657 kJ/mol
# Density = 2.192740 g / cm^3
# Si number density = 21.977420 Si / 1000 Ang^3
#
#
#
# Elastic Constant Matrix: (Units=GPa)
#
#
# Indices 1 2 3 4 5 6 
#
# 1 136.4738 51.6339 2.9062 0.0000 1.5720 0.0000
# 2 51.6339 131.7381 48.5287 0.0000 -9.6437 0.0000
# 3 2.9062 48.5287 117.4716 0.0000 -15.1148 0.0000
# 4 0.0000 0.0000 0.0000 19.7462 0.0000 -3.0379
# 5 1.5720 -9.6437 -15.1148 0.0000 29.6976 0.0000
# 6 0.0000 0.0000 0.0000 -3.0379 0.0000 22.0516
#
#
#
# Elastic Compliance Matrix: (Units=1/GPa)
#
#
# Indices 1 2 3 4 5 6 
#
# 1 0.008835 -0.004023 0.001300 0.000000 -0.001112 0.000000
# 2 -0.004023 0.010819 -0.004163 0.000000 0.001607 0.000000
# 3 0.001300 -0.004163 0.010720 0.000000 0.004035 0.000000
# 4 0.000000 0.000000 0.000000 0.051739 0.000000 0.007128
# 5 -0.001112 0.001607 0.004035 0.000000 0.036307 0.000000
# 6 0.000000 0.000000 0.000000 0.007128 0.000000 0.046330
#
#
# Mechanical properties :
#
#
# Convention : Reuss Voigt Hill
#
# Bulk Modulus (GPa) = 60.23606 65.75790 62.99698
# Shear Modulus (GPa) = 27.16578 33.14005 30.15291
#
# Velocity S-wave (km/s) = 3.51960 3.88740 3.70806
# Velocity P-wave (km/s) = 6.63208 7.08059 6.86000
#
# Compressibility (1/GPa) = 0.01660135
#
# Stress axis : x y z
#
# Youngs Moduli (GPa) = 113.19076 92.43115 93.28781
#
# Poissons Ratio (x) = 0.37186 -0.12130
# Poissons Ratio (y) = 0.45538 0.38836
# Poissons Ratio (z) = -0.14718 0.38479
#
# Static dielectric constant tensor:
#      x y z
#    x 4.039550 0.000000 -0.206270 
#    y 0.000000 3.598080 0.000000 
#    z -0.206270 0.000000 4.057140 
# 
# 
# High freq. dielectric constant tensor:
#      x y z
#    x 1.874830 0.000000 -0.004240 
#    y 0.000000 1.829950 0.000000 
#    z -0.004240 0.000000 1.874080 
# 
# From -- ./inp_files/10255.got.cif
#   From: 2010.03.12/outbox.cif.g09.slc.cpg/sg3_6_cif.got.tgz:10255.got - 2010.03.31 09:20:49.
