data_PCOD8045765
_publ_section_title
;
Structure prediction by ZEFSAII (Michael W. Deem and Ramdas Pophale) SiO2 
 PCOD8045765
Probable space group: P 21
;
_chemical_formula_sum "Si O2"
_cell_formula_units_Z 16
_cell_length_a 16.476499
_cell_length_b 5.041303
_cell_length_c 10.533520
_cell_angle_alpha 90.000000
_cell_angle_beta 111.787691
_cell_angle_gamma 90.000000
_cell_volume 812.444768
_symmetry_space_group_name_H-M "P 21"
_symmetry_group_IT_number 4
_symmetry_cell_setting 'monoclinic'
loop_
_space_group_symop_operation_xyz
x,y,z
-x,1/2+y,-z
loop_
_atom_site_type_symbol
_atom_site_label
_atom_site_fract_x
_atom_site_fract_y
_atom_site_fract_z
Si Si1 0.553879 0.293400 0.557581
Si Si2 0.339605 0.344175 0.728253
Si Si3 0.197320 0.276392 0.113022
Si Si4 0.358066 0.341700 0.022877
Si Si5 0.454184 0.843738 0.162194
Si Si6 0.983670 0.875265 0.066366
Si Si7 0.161114 0.775469 0.259094
Si Si8 0.708189 0.351534 0.452475
O O1 0.473632 0.489022 0.479654
O O2 0.585226 0.331863 0.719377
O O3 0.633629 0.363134 0.514573
O O4 0.442729 0.297515 0.771947
O O5 0.310623 0.630568 0.663136
O O6 0.286810 0.130269 0.616121
O O7 0.312943 0.312006 0.859734
O O8 0.287061 0.314818 0.091475
O O9 0.187590 0.489626 0.219802
O O10 0.196254 0.989846 0.178047
O O11 0.117876 0.306707 0.963582
O O12 0.406766 0.622148 0.051208
O O13 0.433713 0.124717 0.086660
O O14 0.055319 0.803913 0.216042
O O15 0.009327 0.687290 0.961070
O O16 0.200616 0.806156 0.422245
#
# Coordination Sequence:
#
# PCOD8045765 Si02
#       8
#     2   2   2   2   2   2   2   2
#     4  12  21  36  55  77 105 132 172 223 276 314
#     4  12  25  40  53  75 111 152 187 223 267 313
#     4  10  19  36  57  87 112 136 177 224 277 317
#     4  12  24  38  58  78 106 146 191 230 257 318
#     4  12  23  40  57  78 104 143 192 230 273 309
#     4   8  16  31  55  83 113 136 163 218 277 327
#     4  10  20  35  59  87 111 138 175 220 278 333
#     4  12  22  38  56  79 110 145 181 222 273 331
#
# _framework density 19.693646999999999
#
# number of rings (size 3 to 8) (size 9 to 14) (size 15 to 20)
#    0.000    1.000    2.500    6.000    0.000    0.000 
#    0.000    0.000    0.000    1.500    0.000    0.000 
#    0.000    0.000    0.000    0.000    0.000    0.000 
#
# Total GULP energy -198417.889107 kJ/mol
# GULP energy per Si atom -12401.118069 kJ/mol
# Density = 1.964882 g / cm^3
# Si number density = 19.693647 Si / 1000 Ang^3
#
#
#
# Elastic Constant Matrix: (Units=GPa)
#
#
# Indices 1 2 3 4 5 6 
#
# 1 34.7176 9.3090 20.9260 0.0000 18.7889 0.0000
# 2 9.3090 80.1520 10.3067 0.0000 -1.8059 0.0000
# 3 20.9260 10.3067 105.9424 0.0000 9.6595 0.0000
# 4 0.0000 0.0000 0.0000 35.9864 0.0000 4.2718
# 5 18.7889 -1.8059 9.6595 0.0000 29.7305 0.0000
# 6 0.0000 0.0000 0.0000 4.2718 0.0000 16.2243
#
#
#
# Elastic Compliance Matrix: (Units=1/GPa)
#
#
# Indices 1 2 3 4 5 6 
#
# 1 0.050743 -0.005712 -0.006710 0.000000 -0.030235 0.000000
# 2 -0.005712 0.013319 -0.000588 0.000000 0.004610 0.000000
# 3 -0.006710 -0.000588 0.010757 0.000000 0.000710 0.000000
# 4 0.000000 0.000000 0.000000 0.028685 0.000000 -0.007553
# 5 -0.030235 0.004610 0.000710 0.000000 0.052792 0.000000
# 6 0.000000 0.000000 0.000000 -0.007553 0.000000 0.063625
#
#
# Mechanical properties :
#
#
# Convention : Reuss Voigt Hill
#
# Bulk Modulus (GPa) = 20.49225 33.54394 27.01809
# Shear Modulus (GPa) = 19.06888 28.40625 23.73757
#
# Velocity S-wave (km/s) = 3.11509 3.80202 3.47557
# Velocity P-wave (km/s) = 4.83389 6.02857 5.46398
#
# Compressibility (1/GPa) = 0.04879895
#
# Stress axis : x y z
#
# Youngs Moduli (GPa) = 19.70718 75.08008 92.96278
#
# Poissons Ratio (x) = 0.42884 0.62382
# Poissons Ratio (y) = 0.11256 0.05465
# Poissons Ratio (z) = 0.13224 0.04414
#
# Static dielectric constant tensor:
#      x y z
#    x 3.496390 0.000000 0.272450 
#    y 0.000000 3.782720 0.000000 
#    z 0.272450 0.000000 3.756610 
# 
# 
# High freq. dielectric constant tensor:
#      x y z
#    x 1.735260 0.000000 0.024060 
#    y 0.000000 1.791240 0.000000 
#    z 0.024060 0.000000 1.761770 
# 
# From -- ./inp_files/8651.got.cif
#   From: 2010.03.12/outbox.cif.g09.slc.cpg/sg4_5_cif.got.tgz:8651.got - 2010.03.31 09:31:35.
