data_PCOD8045117
_publ_section_title
;
Structure prediction by ZEFSAII (Michael W. Deem and Ramdas Pophale) SiO2 
 PCOD8045117
Probable space group: P 2
;
_chemical_formula_sum "Si O2"
_cell_formula_units_Z 15
_cell_length_a 8.089164
_cell_length_b 8.007563
_cell_length_c 11.671006
_cell_angle_alpha 90.000000
_cell_angle_beta 62.289118
_cell_angle_gamma 90.000000
_cell_volume 669.276187
_symmetry_space_group_name_H-M "P 2"
_symmetry_group_IT_number 3
_symmetry_cell_setting 'monoclinic'
loop_
_space_group_symop_operation_xyz
x,y,z
-x,y,-z
loop_
_atom_site_type_symbol
_atom_site_label
_atom_site_fract_x
_atom_site_fract_y
_atom_site_fract_z
Si Si1 0.496113 0.644680 0.866500
Si Si2 0.911501 0.689083 0.724677
Si Si3 0.877565 0.317229 0.736303
Si Si4 0.836699 0.847099 0.971219
Si Si5 0.812017 0.203856 0.990550
Si Si6 0.500000 0.154894 0.500000
Si Si7 0.505922 0.308171 0.254939
Si Si8 0.101514 0.022071 0.584283
O O1 0.694521 0.719651 0.760504
O O2 0.341146 0.785599 0.899364
O O3 0.442190 0.496504 0.797873
O O4 0.500000 0.591281 0.000000
O O5 0.969525 0.498413 0.673170
O O6 0.045110 0.829446 0.627089
O O7 0.916518 0.708986 0.859722
O O8 0.795319 0.338408 0.892400
O O9 0.711594 0.273250 0.701779
O O10 0.028921 0.168590 0.692483
O O11 0.000000 0.899272 0.000000
O O12 0.794188 0.026500 0.927978
O O13 0.639857 0.196091 0.133886
O O14 0.000000 0.240927 0.000000
O O15 0.545578 0.273234 0.376322
O O16 0.326419 0.035206 0.518898
O O17 0.000000 0.073443 0.500000
#
# Coordination Sequence:
#
# PCOD8045117 Si02
#       8
#     2   2   2   2   2   1   2   2
#     4   9  20  40  67 103 139 179 234 288 360 426
#     4  10  23  43  68  99 135 180 238 284 350 428
#     4  11  23  45  75 103 135 189 235 294 367 413
#     4  10  21  34  60 104 143 172 221 291 354 423
#     4  11  22  37  68 105 138 182 233 290 364 419
#     4  12  28  46  74 104 142 192 252 280 358 432
#     4  11  23  41  68 101 139 184 241 289 342 437
#     4  12  26  50  73  98 143 191 235 300 347 424
#
# _framework density 22.412271
#
# number of rings (size 3 to 8) (size 9 to 14) (size 15 to 20)
#    0.000    1.333    2.667    3.600    3.733    4.800 
#    0.000    0.667    0.000    0.000    0.000    0.000 
#    0.000    0.000    0.000    0.000    0.000    0.000 
#
# Total GULP energy -185826.765394 kJ/mol
# GULP energy per Si atom -12388.451026 kJ/mol
# Density = 2.236126 g / cm^3
# Si number density = 22.412271 Si / 1000 Ang^3
#
#
#
# Elastic Constant Matrix: (Units=GPa)
#
#
# Indices 1 2 3 4 5 6 
#
# 1 105.7021 51.3453 34.4038 0.0000 -3.4320 0.0000
# 2 51.3453 125.3263 39.3350 0.0000 -9.8521 0.0000
# 3 34.4038 39.3350 89.9749 0.0000 6.1258 0.0000
# 4 0.0000 0.0000 0.0000 32.9294 0.0000 -5.4680
# 5 -3.4320 -9.8521 6.1258 0.0000 34.5642 0.0000
# 6 0.0000 0.0000 0.0000 -5.4680 0.0000 23.1876
#
#
#
# Elastic Compliance Matrix: (Units=1/GPa)
#
#
# Indices 1 2 3 4 5 6 
#
# 1 0.012456 -0.004113 -0.003005 0.000000 0.000597 0.000000
# 2 -0.004113 0.011017 -0.003472 0.000000 0.003347 0.000000
# 3 -0.003005 -0.003472 0.014038 0.000000 -0.003776 0.000000
# 4 0.000000 0.000000 0.000000 0.031606 0.000000 0.007453
# 5 0.000597 0.003347 -0.003776 0.000000 0.030614 0.000000
# 6 0.000000 0.000000 0.000000 0.007453 0.000000 0.044884
#
#
# Mechanical properties :
#
#
# Convention : Reuss Voigt Hill
#
# Bulk Modulus (GPa) = 61.23206 63.46348 62.34777
# Shear Modulus (GPa) = 29.19908 31.19755 30.19831
#
# Velocity S-wave (km/s) = 3.61337 3.73498 3.67468
# Velocity P-wave (km/s) = 6.69243 6.85405 6.77372
#
# Compressibility (1/GPa) = 0.01633131
#
# Stress axis : x y z
#
# Youngs Moduli (GPa) = 80.28263 90.76959 71.23447
#
# Poissons Ratio (x) = 0.37333 0.21409
# Poissons Ratio (y) = 0.33020 0.24730
# Poissons Ratio (z) = 0.24128 0.31511
#
# Static dielectric constant tensor:
#      x y z
#    x 4.012810 0.000000 -0.146940 
#    y 0.000000 4.005780 0.000000 
#    z -0.146940 0.000000 3.929300 
# 
# 
# High freq. dielectric constant tensor:
#      x y z
#    x 1.880980 0.000000 -0.006090 
#    y 0.000000 1.885830 0.000000 
#    z -0.006090 0.000000 1.869340 
# 
# From -- ./inp_files/10526.got.cif
#   From: 2010.03.12/outbox.cif.g09.slc.cpg/sg3_6_cif.got.tgz:10526.got - 2010.03.31 09:20:49.
