data_PCOD8045225
_publ_section_title
;
Structure prediction by ZEFSAII (Michael W. Deem and Ramdas Pophale) SiO2 
 PCOD8045225
Probable space group: P 2
;
_chemical_formula_sum "Si O2"
_cell_formula_units_Z 14
_cell_length_a 21.582095
_cell_length_b 5.170382
_cell_length_c 7.633013
_cell_angle_alpha 90.000000
_cell_angle_beta 45.610567
_cell_angle_gamma 90.000000
_cell_volume 608.662130
_symmetry_space_group_name_H-M "P 2"
_symmetry_group_IT_number 3
_symmetry_cell_setting 'monoclinic'
loop_
_space_group_symop_operation_xyz
x,y,z
-x,y,-z
loop_
_atom_site_type_symbol
_atom_site_label
_atom_site_fract_x
_atom_site_fract_y
_atom_site_fract_z
Si Si1 0.242809 0.455050 0.370935
Si Si2 0.079461 0.243262 0.121146
Si Si3 0.886384 0.142350 0.567223
Si Si4 0.428937 0.411592 0.993869
Si Si5 0.752513 0.758997 0.969890
Si Si6 0.166589 0.730062 0.834913
Si Si7 0.573418 0.920923 0.220549
O O1 0.165962 0.249685 0.496886
O O2 0.266857 0.524934 0.122395
O O3 0.211849 0.690292 0.556924
O O4 0.333455 0.340433 0.264955
O O5 0.110288 0.309994 0.259285
O O6 0.984181 0.116819 0.303612
O O7 0.088554 0.517419 0.002998
O O8 0.138282 0.027423 0.908747
O O9 0.842949 0.875567 0.715124
O O10 0.426677 0.706626 0.931985
O O11 0.451622 0.203387 0.800361
O O12 0.500000 0.382760 0.000000
O O13 0.764581 0.667906 0.146325
O O14 0.668236 0.944877 0.125548
O O15 0.500000 0.832096 0.500000
#
# Coordination Sequence:
#
# PCOD8045225 Si02
#       7
#     2   2   2   2   2   2   2
#     4  11  24  43  70  96 138 181 219 281 342 400
#     4  10  24  42  67  98 134 179 228 278 335 395
#     4  10  21  43  69  91 139 181 221 280 341 394
#     4  11  25  46  68 103 139 175 224 279 346 408
#     4  10  23  45  67  97 138 176 227 274 340 408
#     4  11  25  42  66 103 131 178 228 278 330 399
#     4  11  24  44  72 102 133 179 223 279 343 407
#
# _framework density 23.001269000000001
#
# number of rings (size 3 to 8) (size 9 to 14) (size 15 to 20)
#    0.000    1.429    2.857    0.857    6.000    1.714 
#    5.143    0.000    0.000    0.000    0.000    0.000 
#    0.000    0.000    0.000    0.000    0.000    0.000 
#
# Total GULP energy -173498.426731 kJ/mol
# GULP energy per Si atom -12392.744767 kJ/mol
# Density = 2.294892 g / cm^3
# Si number density = 23.001269 Si / 1000 Ang^3
#
#
#
# Elastic Constant Matrix: (Units=GPa)
#
#
# Indices 1 2 3 4 5 6 
#
# 1 115.5847 14.4233 53.6473 0.0000 -18.4671 0.0000
# 2 14.4233 74.8960 4.2806 0.0000 1.9941 0.0000
# 3 53.6473 4.2806 85.7237 0.0000 -10.9283 0.0000
# 4 0.0000 0.0000 0.0000 28.4558 0.0000 3.0961
# 5 -18.4671 1.9941 -10.9283 0.0000 39.6087 0.0000
# 6 0.0000 0.0000 0.0000 3.0961 0.0000 29.2218
#
#
#
# Elastic Compliance Matrix: (Units=1/GPa)
#
#
# Indices 1 2 3 4 5 6 
#
# 1 0.013094 -0.002200 -0.007558 0.000000 0.004130 0.000000
# 2 -0.002200 0.013790 0.000486 0.000000 -0.001586 0.000000
# 3 -0.007558 0.000486 0.016499 0.000000 0.001004 0.000000
# 4 0.000000 0.000000 0.000000 0.035552 0.000000 -0.003767
# 5 0.004130 -0.001586 0.001004 0.000000 0.027530 0.000000
# 6 0.000000 0.000000 0.000000 -0.003767 0.000000 0.034620
#
#
# Mechanical properties :
#
#
# Convention : Reuss Voigt Hill
#
# Bulk Modulus (GPa) = 40.25889 46.76742 43.51315
# Shear Modulus (GPa) = 29.77815 33.04747 31.41281
#
# Velocity S-wave (km/s) = 3.60200 3.79458 3.69955
# Velocity P-wave (km/s) = 5.90255 6.29088 6.09981
#
# Compressibility (1/GPa) = 0.02483924
#
# Stress axis : x y z
#
# Youngs Moduli (GPa) = 76.37046 72.51684 60.60945
#
# Poissons Ratio (x) = 0.15951 0.45809
# Poissons Ratio (y) = 0.16799 -0.02944
# Poissons Ratio (z) = 0.57722 -0.03523
#
# Static dielectric constant tensor:
#      x y z
#    x 4.479630 0.000000 -0.231410 
#    y 0.000000 3.753850 0.000000 
#    z -0.231410 0.000000 4.240630 
# 
# 
# High freq. dielectric constant tensor:
#      x y z
#    x 1.915000 0.000000 -0.007830 
#    y 0.000000 1.894960 0.000000 
#    z -0.007830 0.000000 1.901900 
# 
# From -- ./inp_files/9312.got.cif
#   From: 2010.03.12/outbox.cif.g09.slc.cpg/sg3_5_cif.got.tgz:9312.got - 2010.03.31 09:20:49.
