data_PCOD8045024
_publ_section_title
;
Structure prediction by ZEFSAII (Michael W. Deem and Ramdas Pophale) SiO2 
 PCOD8045024
Probable space group: P 2
;
_chemical_formula_sum "Si O2"
_cell_formula_units_Z 14
_cell_length_a 11.107067
_cell_length_b 8.647133
_cell_length_c 13.402588
_cell_angle_alpha 90.000000
_cell_angle_beta 147.106836
_cell_angle_gamma 90.000000
_cell_volume 699.068004
_symmetry_space_group_name_H-M "P 2"
_symmetry_group_IT_number 3
_symmetry_cell_setting 'monoclinic'
loop_
_space_group_symop_operation_xyz
x,y,z
-x,y,-z
loop_
_atom_site_type_symbol
_atom_site_label
_atom_site_fract_x
_atom_site_fract_y
_atom_site_fract_z
Si Si1 0.646672 0.308010 0.252379
Si Si2 0.433966 0.973488 0.727493
Si Si3 0.886728 0.547324 0.563232
Si Si4 0.888951 0.973385 0.142945
Si Si5 0.171634 0.305691 0.839694
Si Si6 0.679929 0.809274 0.542453
Si Si7 0.727478 0.774819 0.207744
O O1 0.754429 0.447036 0.389798
O O2 0.781388 0.282311 0.244911
O O3 0.656726 0.145212 0.316626
O O4 0.392592 0.352457 0.053107
O O5 0.398757 0.943845 0.586614
O O6 0.305480 0.845616 0.704955
O O7 0.694403 0.955102 0.928022
O O8 0.716414 0.656489 0.502384
O O9 0.990962 0.440669 0.723091
O O10 0.093494 0.638676 0.656694
O O11 0.813309 0.913325 0.198514
O O12 0.097424 0.873582 0.249436
O O13 0.941745 0.153738 0.193144
O O14 0.500000 0.770687 0.500000
O O15 0.500000 0.708281 0.000000
#
# Coordination Sequence:
#
# PCOD8045024 Si02
#       7
#     2   2   2   2   2   2   2
#     4  10  21  36  60  91 125 155 179 234 295 370
#     4  10  20  39  64  88 117 151 198 245 294 348
#     4  11  24  35  57  87 124 160 191 232 296 355
#     4   9  19  40  64  88 115 152 190 245 299 345
#     4  10  20  36  58  91 127 147 184 229 298 369
#     4  11  26  42  58  82 116 161 211 251 282 330
#     4   9  19  35  58  90 123 151 186 239 299 363
#
# _framework density 20.026662999999999
#
# number of rings (size 3 to 8) (size 9 to 14) (size 15 to 20)
#    0.000    2.000    1.429    1.286    6.000    4.571 
#    0.000    2.857    0.000    1.714    0.000    0.000 
#    0.000    0.000    0.000    0.000    0.000    0.000 
#
# Total GULP energy -173601.994025 kJ/mol
# GULP energy per Si atom -12400.142430 kJ/mol
# Density = 1.998108 g / cm^3
# Si number density = 20.026663 Si / 1000 Ang^3
#
#
#
# Elastic Constant Matrix: (Units=GPa)
#
#
# Indices 1 2 3 4 5 6 
#
# 1 82.4385 37.8417 44.8413 0.0000 12.6145 0.0000
# 2 37.8417 121.4206 64.9504 0.0000 3.6975 0.0000
# 3 44.8413 64.9504 101.8585 0.0000 6.9283 0.0000
# 4 0.0000 0.0000 0.0000 40.0928 0.0000 -1.6921
# 5 12.6145 3.6975 6.9283 0.0000 21.7297 0.0000
# 6 0.0000 0.0000 0.0000 -1.6921 0.0000 14.0663
#
#
#
# Elastic Compliance Matrix: (Units=1/GPa)
#
#
# Indices 1 2 3 4 5 6 
#
# 1 0.017468 -0.002091 -0.005817 0.000000 -0.007930 0.000000
# 2 -0.002091 0.012753 -0.007305 0.000000 0.001373 0.000000
# 3 -0.005817 -0.007305 0.017093 0.000000 -0.000830 0.000000
# 4 0.000000 0.000000 0.000000 0.025069 0.000000 0.003016
# 5 -0.007930 0.001373 -0.000830 0.000000 0.050654 0.000000
# 6 0.000000 0.000000 0.000000 0.003016 0.000000 0.071455
#
#
# Mechanical properties :
#
#
# Convention : Reuss Voigt Hill
#
# Bulk Modulus (GPa) = 59.21465 66.77607 62.99536
# Shear Modulus (GPa) = 21.68748 25.71670 23.70209
#
# Velocity S-wave (km/s) = 3.29436 3.58735 3.44397
# Velocity P-wave (km/s) = 6.64097 7.11159 6.88031
#
# Compressibility (1/GPa) = 0.01688771
#
# Stress axis : x y z
#
# Youngs Moduli (GPa) = 57.24910 78.41113 58.50309
#
# Poissons Ratio (x) = 0.16393 0.34033
# Poissons Ratio (y) = 0.11969 0.42738
# Poissons Ratio (z) = 0.33303 0.57281
#
# Static dielectric constant tensor:
#      x y z
#    x 3.097590 0.000000 0.093210 
#    y 0.000000 3.929860 0.000000 
#    z 0.093210 0.000000 4.017790 
# 
# 
# High freq. dielectric constant tensor:
#      x y z
#    x 1.719810 0.000000 -0.000680 
#    y 0.000000 1.796260 0.000000 
#    z -0.000680 0.000000 1.805250 
# 
# From -- ./inp_files/13765.got.cif
#   From: 2010.03.12/outbox.cif.g09.slc.cpg/sg3_7_cif.got.tgz:13765.got - 2010.03.31 09:20:49.
