data_PCOD8046107
_publ_section_title
;
Structure prediction by ZEFSAII (Michael W. Deem and Ramdas Pophale) SiO2 
 PCOD8046107
Probable space group: P 21
;
_chemical_formula_sum "Si O2"
_cell_formula_units_Z 16
_cell_length_a 5.124505
_cell_length_b 21.466347
_cell_length_c 6.355187
_cell_angle_alpha 90.000000
_cell_angle_beta 96.906299
_cell_angle_gamma 90.000000
_cell_volume 694.025980
_symmetry_space_group_name_H-M "P 21"
_symmetry_group_IT_number 4
_symmetry_cell_setting 'monoclinic'
loop_
_space_group_symop_operation_xyz
x,y,z
-x,1/2+y,-z
loop_
_atom_site_type_symbol
_atom_site_label
_atom_site_fract_x
_atom_site_fract_y
_atom_site_fract_z
Si Si1 0.338883 0.390470 0.274099
Si Si2 0.898897 0.012569 0.634648
Si Si3 0.399994 0.588251 0.046224
Si Si4 0.019076 0.867411 0.109464
Si Si5 0.315032 0.971331 0.967461
Si Si6 0.123062 0.628289 0.627219
Si Si7 0.453870 0.317313 0.672257
Si Si8 0.594813 0.675140 0.402898
O O1 0.267180 0.449531 0.414975
O O2 0.493382 0.414741 0.082009
O O3 0.493635 0.341753 0.436020
O O4 0.087470 0.355822 0.140476
O O5 0.793322 0.053371 0.816880
O O6 0.898298 0.054643 0.427418
O O7 0.189759 0.992302 0.731898
O O8 0.552317 0.534166 0.926632
O O9 0.603437 0.631726 0.195632
O O10 0.229599 0.631999 0.875237
O O11 0.271925 0.824264 0.177638
O O12 0.792100 0.855638 0.257503
O O13 0.114219 0.940953 0.119442
O O14 0.320268 0.665587 0.495388
O O15 0.835990 0.658834 0.581019
O O16 0.376569 0.245554 0.669082
#
# Coordination Sequence:
#
# PCOD8046107 Si02
#       8
#     2   2   2   2   2   2   2   2
#     4  10  24  43  65 102 140 175 225 284 340 409
#     4   9  21  39  64 100 138 163 220 285 338 409
#     4  10  23  42  69  99 138 176 218 293 341 404
#     4  11  25  44  66 103 131 180 231 277 348 406
#     4  10  20  45  67 101 144 166 227 292 340 412
#     4  11  24  43  70  97 128 181 222 273 354 394
#     4  12  27  45  72  96 142 187 230 281 338 406
#     4  11  26  47  65 102 135 178 239 275 325 412
#
# _framework density 23.053892999999999
#
# number of rings (size 3 to 8) (size 9 to 14) (size 15 to 20)
#    0.000    1.500    2.500    0.750    7.000    2.000 
#    0.000    0.000    0.000    0.000    0.000    0.000 
#    0.000    0.000    0.000    0.000    0.000    0.000 
#
# Total GULP energy -198318.582566 kJ/mol
# GULP energy per Si atom -12394.911410 kJ/mol
# Density = 2.300142 g / cm^3
# Si number density = 23.053893 Si / 1000 Ang^3
#
#
#
# Elastic Constant Matrix: (Units=GPa)
#
#
# Indices 1 2 3 4 5 6 
#
# 1 99.4864 35.9145 18.7277 0.0000 18.7412 0.0000
# 2 35.9145 114.5646 51.7468 0.0000 7.3580 0.0000
# 3 18.7277 51.7468 66.3920 0.0000 17.7814 0.0000
# 4 0.0000 0.0000 0.0000 24.2254 0.0000 5.4697
# 5 18.7412 7.3580 17.7814 0.0000 28.2133 0.0000
# 6 0.0000 0.0000 0.0000 5.4697 0.0000 34.2308
#
#
#
# Elastic Compliance Matrix: (Units=1/GPa)
#
#
# Indices 1 2 3 4 5 6 
#
# 1 0.012910 -0.004478 0.002205 0.000000 -0.008798 0.000000
# 2 -0.004478 0.015360 -0.012551 0.000000 0.006879 0.000000
# 3 0.002205 -0.012551 0.028558 0.000000 -0.016190 0.000000
# 4 0.000000 0.000000 0.000000 0.042824 0.000000 -0.006843
# 5 -0.008798 0.006879 -0.016190 0.000000 0.049698 0.000000
# 6 0.000000 0.000000 0.000000 -0.006843 0.000000 0.030307
#
#
# Mechanical properties :
#
#
# Convention : Reuss Voigt Hill
#
# Bulk Modulus (GPa) = 36.79102 54.80232 45.79667
# Shear Modulus (GPa) = 22.89737 28.93750 25.91743
#
# Velocity S-wave (km/s) = 3.15494 3.54674 3.35656
# Velocity P-wave (km/s) = 5.40970 6.37146 5.91018
#
# Compressibility (1/GPa) = 0.02718054
#
# Stress axis : x y z
#
# Youngs Moduli (GPa) = 77.45652 65.10580 35.01596
#
# Poissons Ratio (x) = 0.29155 -0.07720
# Poissons Ratio (y) = 0.34686 0.43947
# Poissons Ratio (z) = -0.17077 0.81712
#
# Static dielectric constant tensor:
#      x y z
#    x 4.230580 0.000000 0.258570 
#    y 0.000000 4.157900 0.000000 
#    z 0.258570 0.000000 3.844130 
# 
# 
# High freq. dielectric constant tensor:
#      x y z
#    x 1.917740 0.000000 0.019880 
#    y 0.000000 1.899730 0.000000 
#    z 0.019880 0.000000 1.892550 
# 
# From -- ./inp_files/731.got.cif
#   From: 2010.03.12/outbox.cif.g09.slc.cpg/sg4_1_cif.got.tgz:731.got - 2010.03.31 09:31:35.
