data_PCOD8046018
_publ_section_title
;
Structure prediction by ZEFSAII (Michael W. Deem and Ramdas Pophale) SiO2 
 PCOD8046018
Probable space group: P 21
;
_chemical_formula_sum "Si O2"
_cell_formula_units_Z 16
_cell_length_a 11.929867
_cell_length_b 7.938301
_cell_length_c 13.825901
_cell_angle_alpha 90.000000
_cell_angle_beta 153.698982
_cell_angle_gamma 90.000000
_cell_volume 580.157261
_symmetry_space_group_name_H-M "P 21"
_symmetry_group_IT_number 4
_symmetry_cell_setting 'monoclinic'
loop_
_space_group_symop_operation_xyz
x,y,z
-x,1/2+y,-z
loop_
_atom_site_type_symbol
_atom_site_label
_atom_site_fract_x
_atom_site_fract_y
_atom_site_fract_z
Si Si1 0.526971 0.659360 0.633840
Si Si2 0.048873 0.010172 0.900521
Si Si3 0.843732 0.030302 0.507408
Si Si4 0.438109 0.949007 0.050172
Si Si5 0.376194 0.536494 0.297825
Si Si6 0.037581 0.124455 0.159343
Si Si7 0.321463 0.100623 0.774290
Si Si8 0.183351 0.154465 0.470995
O O1 0.261600 0.578330 0.466889
O O2 0.478386 0.858419 0.590090
O O3 0.658283 0.591669 0.633262
O O4 0.742770 0.611942 0.879135
O O5 0.764819 0.089520 0.707418
O O6 0.022217 0.817453 0.915824
O O7 0.149640 0.996709 0.865476
O O8 0.628071 0.062589 0.259452
O O9 0.915713 0.830725 0.562196
O O10 0.076582 0.145268 0.650556
O O11 0.498084 0.754353 0.115458
O O12 0.477368 0.975382 0.965047
O O13 0.551375 0.679970 0.382822
O O14 0.137557 0.505853 0.040161
O O15 0.994211 0.085565 0.240650
O O16 0.225837 0.026920 0.595675
#
# Coordination Sequence:
#
# PCOD8046018 Si02
#       8
#     2   2   2   2   2   2   2   2
#     4   9  20  38  64  97 128 163 214 262 314 386
#     4   9  19  41  66  91 125 169 211 257 320 379
#     4  10  23  44  65  91 130 171 215 262 314 380
#     4  10  23  43  67  91 124 169 215 268 321 371
#     4  10  21  39  65  98 132 162 208 267 320 382
#     4  10  20  39  65  91 128 171 205 261 329 376
#     4  11  25  43  67  93 125 171 219 265 314 375
#     4  11  25  41  63  94 126 166 215 260 316 391
#
# _framework density 27.578731000000001
#
# number of rings (size 3 to 8) (size 9 to 14) (size 15 to 20)
#    0.000    2.000    0.000    3.000    0.000   12.000 
#    0.000    6.250    0.000    0.000    0.000    0.000 
#    0.000    0.000    0.000    0.000    0.000    0.000 
#
# Total GULP energy -198226.466027 kJ/mol
# GULP energy per Si atom -12389.154127 kJ/mol
# Density = 2.751596 g / cm^3
# Si number density = 27.578731 Si / 1000 Ang^3
#
#
#
# Elastic Constant Matrix: (Units=GPa)
#
#
# Indices 1 2 3 4 5 6 
#
# 1 184.6479 18.8963 41.6407 0.0000 -32.4447 0.0000
# 2 18.8963 50.9507 10.0236 0.0000 2.6901 0.0000
# 3 41.6407 10.0236 69.4168 0.0000 3.0157 0.0000
# 4 0.0000 0.0000 0.0000 38.2645 0.0000 1.6461
# 5 -32.4447 2.6901 3.0157 0.0000 70.3832 0.0000
# 6 0.0000 0.0000 0.0000 1.6461 0.0000 40.9001
#
#
#
# Elastic Compliance Matrix: (Units=1/GPa)
#
#
# Indices 1 2 3 4 5 6 
#
# 1 0.007194 -0.002035 -0.004177 0.000000 0.003573 0.000000
# 2 -0.002035 0.020806 -0.001712 0.000000 -0.001660 0.000000
# 3 -0.004177 -0.001712 0.017271 0.000000 -0.002600 0.000000
# 4 0.000000 0.000000 0.000000 0.026179 0.000000 -0.001054
# 5 0.003573 -0.001660 -0.002600 0.000000 0.016030 0.000000
# 6 0.000000 0.000000 0.000000 -0.001054 0.000000 0.024492
#
#
# Mechanical properties :
#
#
# Convention : Reuss Voigt Hill
#
# Bulk Modulus (GPa) = 33.98510 49.57074 41.77792
# Shear Modulus (GPa) = 36.33033 45.53988 40.93510
#
# Velocity S-wave (km/s) = 3.63344 4.06799 3.85684
# Velocity P-wave (km/s) = 5.47286 6.33072 5.91736
#
# Compressibility (1/GPa) = 0.02942466
#
# Stress axis : x y z
#
# Youngs Moduli (GPa) = 139.01213 48.06340 57.89982
#
# Poissons Ratio (x) = 0.09780 0.24182
# Poissons Ratio (y) = 0.28288 0.09910
# Poissons Ratio (z) = 0.58060 0.08226
#
# Static dielectric constant tensor:
#      x y z
#    x 5.535320 0.000000 -0.317460 
#    y 0.000000 4.091830 0.000000 
#    z -0.317460 0.000000 5.712820 
# 
# 
# High freq. dielectric constant tensor:
#      x y z
#    x 2.147200 0.000000 -0.019930 
#    y 0.000000 2.043320 0.000000 
#    z -0.019930 0.000000 2.167790 
# 
# From -- ./inp_files/13976.got.cif
#   From: 2010.03.12/outbox.cif.g09.slc.cpg/sg4_7_cif.got.tgz:13976.got - 2010.03.31 09:31:35.
