data_PCOD8046802
_publ_section_title
;
Structure prediction by ZEFSAII (Michael W. Deem and Ramdas Pophale) SiO2 
 PCOD8046802
Probable space group: P 21
;
_chemical_formula_sum "Si O2"
_cell_formula_units_Z 16
_cell_length_a 18.981630
_cell_length_b 5.359228
_cell_length_c 8.673892
_cell_angle_alpha 90.000000
_cell_angle_beta 54.175360
_cell_angle_gamma 90.000000
_cell_volume 715.434722
_symmetry_space_group_name_H-M "P 21"
_symmetry_group_IT_number 4
_symmetry_cell_setting 'monoclinic'
loop_
_space_group_symop_operation_xyz
x,y,z
-x,1/2+y,-z
loop_
_atom_site_type_symbol
_atom_site_label
_atom_site_fract_x
_atom_site_fract_y
_atom_site_fract_z
Si Si1 0.955955 0.820680 0.874170
Si Si2 0.955497 0.824830 0.239130
Si Si3 0.241297 0.415188 0.518036
Si Si4 0.239916 0.402319 0.877951
Si Si5 0.492168 0.946309 0.255891
Si Si6 0.345292 0.730812 0.943953
Si Si7 0.327646 0.913870 0.284043
Si Si8 0.411394 0.101888 0.648699
O O1 0.998989 0.571442 0.748239
O O2 0.969217 0.822664 0.039391
O O3 0.854821 0.800182 0.959413
O O4 0.001159 0.071583 0.747453
O O5 0.854867 0.841039 0.413688
O O6 0.242895 0.489003 0.696243
O O7 0.272009 0.668362 0.396842
O O8 0.296876 0.170540 0.402075
O O9 0.314779 0.201678 0.805994
O O10 0.258115 0.617055 0.981486
O O11 0.428660 0.865667 0.199203
O O12 0.435339 0.131574 0.438583
O O13 0.513154 0.722226 0.345420
O O14 0.584165 0.041124 0.068743
O O15 0.321786 0.934925 0.105028
O O16 0.401699 0.822484 0.725022
#
# Coordination Sequence:
#
# PCOD8046802 Si02
#       8
#     2   2   2   2   2   2   2   2
#     4   9  18  33  63  97 130 158 207 269 330 381
#     4   9  18  35  60  98 130 161 204 269 327 386
#     4  11  24  43  68  98 135 173 220 269 335 402
#     4  10  23  40  67  99 128 173 220 277 333 392
#     4  11  24  40  65  90 129 172 225 274 334 390
#     4  11  27  42  64  93 133 175 227 280 327 395
#     4  12  28  42  66  95 134 181 218 273 334 397
#     4  11  22  41  63  92 125 169 223 277 324 389
#
# _framework density 22.364025999999999
#
# number of rings (size 3 to 8) (size 9 to 14) (size 15 to 20)
#    0.000    1.500    2.500    1.500   10.500    2.000 
#    0.000    0.000    0.000    3.000    0.000    0.000 
#    0.000    0.000    0.000    0.000    0.000    0.000 
#
# Total GULP energy -198230.774529 kJ/mol
# GULP energy per Si atom -12389.423408 kJ/mol
# Density = 2.231312 g / cm^3
# Si number density = 22.364026 Si / 1000 Ang^3
#
#
#
# Elastic Constant Matrix: (Units=GPa)
#
#
# Indices 1 2 3 4 5 6 
#
# 1 120.6815 33.7893 46.2302 0.0000 -18.1984 0.0000
# 2 33.7893 108.4443 15.8404 0.0000 -12.2462 0.0000
# 3 46.2302 15.8404 50.8355 0.0000 -6.3932 0.0000
# 4 0.0000 0.0000 0.0000 29.2946 0.0000 -2.6444
# 5 -18.1984 -12.2462 -6.3932 0.0000 36.7984 0.0000
# 6 0.0000 0.0000 0.0000 -2.6444 0.0000 26.0915
#
#
#
# Elastic Compliance Matrix: (Units=1/GPa)
#
#
# Indices 1 2 3 4 5 6 
#
# 1 0.013912 -0.002193 -0.011445 0.000000 0.004162 0.000000
# 2 -0.002193 0.010287 -0.000938 0.000000 0.002176 0.000000
# 3 -0.011445 -0.000938 0.030282 0.000000 -0.000711 0.000000
# 4 0.000000 0.000000 0.000000 0.034451 0.000000 0.003492
# 5 0.004162 0.002176 -0.000711 0.000000 0.029834 0.000000
# 6 0.000000 0.000000 0.000000 0.003492 0.000000 0.038681
#
#
# Mechanical properties :
#
#
# Convention : Reuss Voigt Hill
#
# Bulk Modulus (GPa) = 39.47811 52.40903 45.94357
# Shear Modulus (GPa) = 25.63544 30.71034 28.17289
#
# Velocity S-wave (km/s) = 3.38935 3.70970 3.55313
# Velocity P-wave (km/s) = 5.74524 6.46796 6.11728
#
# Compressibility (1/GPa) = 0.02533049
#
# Stress axis : x y z
#
# Youngs Moduli (GPa) = 71.87894 97.20705 33.02257
#
# Poissons Ratio (x) = 0.21318 0.37795
# Poissons Ratio (y) = 0.15763 0.03096
# Poissons Ratio (z) = 0.82267 0.09113
#
# Static dielectric constant tensor:
#      x y z
#    x 3.992690 0.000000 -0.169220 
#    y 0.000000 4.097590 0.000000 
#    z -0.169220 0.000000 3.885290 
# 
# 
# High freq. dielectric constant tensor:
#      x y z
#    x 1.880160 0.000000 -0.019420 
#    y 0.000000 1.879090 0.000000 
#    z -0.019420 0.000000 1.861870 
# 
# From -- ./inp_files/8670.got.cif
#   From: 2010.03.12/outbox.cif.g09.slc.cpg/sg4_5_cif.got.tgz:8670.got - 2010.03.31 09:31:35.
