data_PCOD8046328
_publ_section_title
;
Structure prediction by ZEFSAII (Michael W. Deem and Ramdas Pophale) SiO2 
 PCOD8046328
Probable space group: P 21
;
_chemical_formula_sum "Si O2"
_cell_formula_units_Z 16
_cell_length_a 8.069861
_cell_length_b 14.263863
_cell_length_c 7.143964
_cell_angle_alpha 90.000000
_cell_angle_beta 125.236422
_cell_angle_gamma 90.000000
_cell_volume 671.655637
_symmetry_space_group_name_H-M "P 21"
_symmetry_group_IT_number 4
_symmetry_cell_setting 'monoclinic'
loop_
_space_group_symop_operation_xyz
x,y,z
-x,1/2+y,-z
loop_
_atom_site_type_symbol
_atom_site_label
_atom_site_fract_x
_atom_site_fract_y
_atom_site_fract_z
Si Si1 0.691989 0.264380 0.685131
Si Si2 0.144560 0.476830 0.779884
Si Si3 0.528220 0.074518 0.464604
Si Si4 0.718250 0.513579 0.363203
Si Si5 0.682904 0.884048 0.438912
Si Si6 0.110103 0.339844 0.072218
Si Si7 0.527729 0.130355 0.051107
Si Si8 0.452740 0.818022 0.793457
O O1 0.635171 0.154429 0.661211
O O2 0.527531 0.327780 0.687409
O O3 0.704013 0.297206 0.477748
O O4 0.916144 0.274660 0.915386
O O5 0.263733 0.392075 0.747391
O O6 0.079789 0.439561 0.943002
O O7 0.278539 0.569925 0.887035
O O8 0.957278 0.498919 0.520586
O O9 0.341921 0.032141 0.460804
O O10 0.457413 0.116394 0.220264
O O11 0.675591 0.988577 0.519535
O O12 0.593564 0.426518 0.184822
O O13 0.664582 0.603999 0.202545
O O14 0.863290 0.842025 0.684662
O O15 0.319789 0.298519 0.130508
O O16 0.585123 0.241267 0.065515
#
# Coordination Sequence:
#
# PCOD8046328 Si02
#       8
#     2   2   2   2   2   2   2   2
#     4  10  21  41  67  93 127 171 212 273 325 380
#     4  11  23  39  67  93 128 176 213 258 327 388
#     4  10  21  43  66  89 133 165 215 270 318 382
#     4  12  22  45  65  96 130 177 214 263 330 388
#     4  10  22  41  59  96 129 160 222 261 315 396
#     4  11  20  42  67  87 128 179 204 268 333 369
#     4  10  24  42  63 101 131 167 219 275 316 383
#     4  10  21  41  68  93 134 165 219 268 318 388
#
# _framework density 23.821731
#
# number of rings (size 3 to 8) (size 9 to 14) (size 15 to 20)
#    0.000    1.500    5.000    0.000    0.000    7.000 
#    4.500    7.500    0.000    0.000    0.000    0.000 
#    0.000    0.000    0.000    0.000    0.000    0.000 
#
# Total GULP energy -198328.729076 kJ/mol
# GULP energy per Si atom -12395.545567 kJ/mol
# Density = 2.376751 g / cm^3
# Si number density = 23.821731 Si / 1000 Ang^3
#
#
#
# Elastic Constant Matrix: (Units=GPa)
#
#
# Indices 1 2 3 4 5 6 
#
# 1 44.1493 7.2748 12.2648 0.0000 6.5276 0.0000
# 2 7.2748 89.3665 -1.3018 0.0000 0.9590 0.0000
# 3 12.2648 -1.3018 87.3494 0.0000 14.5363 0.0000
# 4 0.0000 0.0000 0.0000 28.9939 0.0000 -5.0673
# 5 6.5276 0.9590 14.5363 0.0000 35.5886 0.0000
# 6 0.0000 0.0000 0.0000 -5.0673 0.0000 30.5878
#
#
#
# Elastic Compliance Matrix: (Units=1/GPa)
#
#
# Indices 1 2 3 4 5 6 
#
# 1 0.024258 -0.001983 -0.002901 0.000000 -0.003211 0.000000
# 2 -0.001983 0.011360 0.000470 0.000000 -0.000134 0.000000
# 3 -0.002901 0.000470 0.012635 0.000000 -0.004641 0.000000
# 4 0.000000 0.000000 0.000000 0.035518 0.000000 0.005884
# 5 -0.003211 -0.000134 -0.004641 0.000000 0.030587 0.000000
# 6 0.000000 0.000000 0.000000 0.005884 0.000000 0.033668
#
#
# Mechanical properties :
#
#
# Convention : Reuss Voigt Hill
#
# Bulk Modulus (GPa) = 25.36463 28.59341 26.97902
# Shear Modulus (GPa) = 29.41269 32.54255 30.97762
#
# Velocity S-wave (km/s) = 3.51764 3.70007 3.61001
# Velocity P-wave (km/s) = 5.21241 5.50301 5.35968
#
# Compressibility (1/GPa) = 0.03942498
#
# Stress axis : x y z
#
# Youngs Moduli (GPa) = 41.22381 88.03170 79.14497
#
# Poissons Ratio (x) = 0.17452 0.22962
# Poissons Ratio (y) = 0.08173 -0.03720
# Poissons Ratio (z) = 0.11960 -0.04138
#
# Static dielectric constant tensor:
#      x y z
#    x 4.050460 0.000000 -0.250220 
#    y 0.000000 4.440210 0.000000 
#    z -0.250220 0.000000 4.366940 
# 
# 
# High freq. dielectric constant tensor:
#      x y z
#    x 1.916910 0.000000 -0.010450 
#    y 0.000000 1.945820 0.000000 
#    z -0.010450 0.000000 1.955980 
# 
# From -- ./inp_files/6683.got.cif
#   From: 2010.03.12/outbox.cif.g09.slc.cpg/sg4_4_cif.got.tgz:6683.got - 2010.03.31 09:31:35.
