data_PCOD8046728
_publ_section_title
;
Structure prediction by ZEFSAII (Michael W. Deem and Ramdas Pophale) SiO2 
 PCOD8046728
Probable space group: P 21
;
_chemical_formula_sum "Si O2"
_cell_formula_units_Z 16
_cell_length_a 30.967807
_cell_length_b 5.158206
_cell_length_c 24.659177
_cell_angle_alpha 90.000000
_cell_angle_beta 170.685072
_cell_angle_gamma 90.000000
_cell_volume 637.572759
_symmetry_space_group_name_H-M "P 21"
_symmetry_group_IT_number 4
_symmetry_cell_setting 'monoclinic'
loop_
_space_group_symop_operation_xyz
x,y,z
-x,1/2+y,-z
loop_
_atom_site_type_symbol
_atom_site_label
_atom_site_fract_x
_atom_site_fract_y
_atom_site_fract_z
Si Si1 0.175937 0.065370 0.944668
Si Si2 0.303289 0.887808 0.671182
Si Si3 0.430838 0.684596 0.381783
Si Si4 0.935849 0.193950 0.278578
Si Si5 0.056635 0.869031 0.256256
Si Si6 0.172034 0.212002 0.221968
Si Si7 0.552144 0.406613 0.348761
Si Si8 0.084540 0.386252 0.573486
O O1 0.907952 0.157301 0.579431
O O2 0.117482 0.120611 0.936188
O O3 0.192189 0.781660 0.938959
O O4 0.450557 0.210785 0.269433
O O5 0.237847 0.992415 0.529100
O O6 0.608446 0.803880 0.052716
O O7 0.232382 0.090256 0.631604
O O8 0.578988 0.438419 0.592609
O O9 0.580060 0.764157 0.511245
O O10 0.130738 0.600245 0.996225
O O11 0.952296 0.388106 0.349831
O O12 0.704483 0.986412 0.006106
O O13 0.241578 0.766483 0.436689
O O14 0.286124 0.140374 0.422429
O O15 0.991227 0.978129 0.974996
O O16 0.056871 0.672390 0.563811
#
# Coordination Sequence:
#
# PCOD8046728 Si02
#       8
#     2   2   2   2   2   2   2   2
#     4   9  23  43  70  99 137 189 237 295 361 430
#     4   9  24  45  68 100 141 185 244 287 370 422
#     4  12  25  46  69 105 143 189 241 298 359 433
#     4  11  25  44  77  99 145 194 243 302 370 433
#     4  10  22  45  68  99 140 186 238 294 365 430
#     4  12  26  46  72 108 147 194 246 303 367 432
#     4  11  23  47  68 105 145 189 242 305 361 441
#     4  12  30  46  74 111 148 190 247 304 365 441
#
# _framework density 25.095175000000001
#
# number of rings (size 3 to 8) (size 9 to 14) (size 15 to 20)
#    0.750    0.500    1.250    3.000   10.500    2.000 
#    4.500    0.000    0.000    0.000    0.000    0.000 
#    0.000    0.000    0.000    0.000    0.000    0.000 
#
# Total GULP energy -198211.236322 kJ/mol
# GULP energy per Si atom -12388.202270 kJ/mol
# Density = 2.503806 g / cm^3
# Si number density = 25.095175 Si / 1000 Ang^3
#
#
#
# Elastic Constant Matrix: (Units=GPa)
#
#
# Indices 1 2 3 4 5 6 
#
# 1 132.6366 -2.0085 26.5323 0.0000 21.9269 0.0000
# 2 -2.0085 21.3636 -23.9999 0.0000 8.1665 0.0000
# 3 26.5323 -23.9999 92.8292 0.0000 20.4599 0.0000
# 4 0.0000 0.0000 0.0000 20.0085 0.0000 0.8523
# 5 21.9269 8.1665 20.4599 0.0000 53.4528 0.0000
# 6 0.0000 0.0000 0.0000 0.8523 0.0000 39.6782
#
#
#
# Elastic Compliance Matrix: (Units=1/GPa)
#
#
# Indices 1 2 3 4 5 6 
#
# 1 0.008350 -0.000314 -0.001882 0.000000 -0.002657 0.000000
# 2 -0.000314 0.087278 0.027920 0.000000 -0.023892 0.000000
# 3 -0.001882 0.027920 0.021077 0.000000 -0.011561 0.000000
# 4 0.000000 0.000000 0.000000 0.050024 0.000000 -0.001074
# 5 -0.002657 -0.023892 -0.011561 0.000000 0.027874 0.000000
# 6 0.000000 0.000000 0.000000 -0.001074 0.000000 0.025226
#
#
# Mechanical properties :
#
#
# Convention : Reuss Voigt Hill
#
# Bulk Modulus (GPa) = 5.94692 27.54191 16.74442
# Shear Modulus (GPa) = 22.27851 39.04829 30.66340
#
# Velocity S-wave (km/s) = 2.98276 3.94891 3.49934
# Velocity P-wave (km/s) = 3.77325 5.63832 4.79729
#
# Compressibility (1/GPa) = 0.16815424
#
# Stress axis : x y z
#
# Youngs Moduli (GPa) = 119.75462 11.45766 47.44504
#
# Poissons Ratio (x) = 0.00359 0.08930
# Poissons Ratio (y) = 0.03756 -1.32468
# Poissons Ratio (z) = 0.22540 -0.31990
#
# Static dielectric constant tensor:
#      x y z
#    x 4.535130 0.000000 0.114860 
#    y 0.000000 4.191420 0.000000 
#    z 0.114860 0.000000 4.485520 
# 
# 
# High freq. dielectric constant tensor:
#      x y z
#    x 2.006020 0.000000 0.006700 
#    y 0.000000 1.978070 0.000000 
#    z 0.006700 0.000000 2.011050 
# 
# From -- ./inp_files/16250.got.cif
#   From: 2010.03.12/outbox.cif.g09.slc.cpg/sg4_9_cif.got.tgz:16250.got - 2010.03.31 09:31:35.
