data_PCOD8046179
_publ_section_title
;
Structure prediction by ZEFSAII (Michael W. Deem and Ramdas Pophale) SiO2 
 PCOD8046179
Probable space group: P 21
;
_chemical_formula_sum "Si O2"
_cell_formula_units_Z 16
_cell_length_a 8.493504
_cell_length_b 16.918307
_cell_length_c 9.784931
_cell_angle_alpha 90.000000
_cell_angle_beta 30.404781
_cell_angle_gamma 90.000000
_cell_volume 711.611278
_symmetry_space_group_name_H-M "P 21"
_symmetry_group_IT_number 4
_symmetry_cell_setting 'monoclinic'
loop_
_space_group_symop_operation_xyz
x,y,z
-x,1/2+y,-z
loop_
_atom_site_type_symbol
_atom_site_label
_atom_site_fract_x
_atom_site_fract_y
_atom_site_fract_z
Si Si1 0.966688 0.184070 0.624498
Si Si2 0.705944 0.009504 0.464005
Si Si3 0.027719 0.010845 0.509678
Si Si4 0.540426 0.906951 0.999024
Si Si5 0.721991 0.178363 0.358385
Si Si6 0.210032 0.908179 0.961776
Si Si7 0.934619 0.742345 0.145394
Si Si8 0.717610 0.734864 0.875815
O O1 0.112110 0.096034 0.509603
O O2 0.023249 0.222432 0.728146
O O3 0.155565 0.237777 0.374752
O O4 0.595462 0.182549 0.873678
O O5 0.835573 0.028486 0.516861
O O6 0.588663 0.090357 0.483429
O O7 0.442025 0.942102 0.672935
O O8 0.971093 0.978282 0.166417
O O9 0.318961 0.954318 0.266509
O O10 0.831094 0.964157 0.767850
O O11 0.383539 0.885857 0.971954
O O12 0.645643 0.823250 0.983380
O O13 0.432357 0.234919 0.613714
O O14 0.017642 0.195086 0.231747
O O15 0.840392 0.186848 0.113850
O O16 0.036355 0.831501 0.034810
#
# Coordination Sequence:
#
# PCOD8046179 Si02
#       8
#     2   2   2   2   2   2   2   2
#     4  12  24  42  71 102 136 177 232 282 343 402
#     4  10  21  40  67  97 129 176 230 276 329 408
#     4  10  21  38  65 102 131 166 227 290 333 388
#     4  10  21  38  65 102 131 166 227 290 333 388
#     4  12  26  44  67 105 144 181 225 282 347 412
#     4  10  21  40  67  97 129 176 230 276 329 408
#     4  12  26  44  67 105 144 181 225 282 347 412
#     4  12  24  42  71 102 136 177 232 282 343 402
#
# _framework density 22.484185
#
# number of rings (size 3 to 8) (size 9 to 14) (size 15 to 20)
#    0.000    1.000    2.500    4.500    7.000    0.000 
#    0.000    5.000    0.000    0.000    0.000    0.000 
#    0.000    0.000    0.000    0.000    0.000    0.000 
#
# Total GULP energy -198449.216335 kJ/mol
# GULP energy per Si atom -12403.076021 kJ/mol
# Density = 2.243301 g / cm^3
# Si number density = 22.484185 Si / 1000 Ang^3
#
#
#
# Elastic Constant Matrix: (Units=GPa)
#
#
# Indices 1 2 3 4 5 6 
#
# 1 42.9755 32.8902 16.0303 0.0000 -7.5087 0.0000
# 2 32.8902 134.8492 44.8458 0.0000 -3.2444 0.0000
# 3 16.0303 44.8458 149.9223 0.0000 -6.9611 0.0000
# 4 0.0000 0.0000 0.0000 37.9469 0.0000 -6.3207
# 5 -7.5087 -3.2444 -6.9611 0.0000 35.6877 0.0000
# 6 0.0000 0.0000 0.0000 -6.3207 0.0000 28.7871
#
#
#
# Elastic Compliance Matrix: (Units=1/GPa)
#
#
# Indices 1 2 3 4 5 6 
#
# 1 0.029790 -0.006840 -0.000885 0.000000 0.005473 0.000000
# 2 -0.006840 0.009808 -0.002248 0.000000 -0.000986 0.000000
# 3 -0.000885 -0.002248 0.007487 0.000000 0.001070 0.000000
# 4 0.000000 0.000000 0.000000 0.027353 0.000000 0.006006
# 5 0.005473 -0.000986 0.001070 0.000000 0.029292 0.000000
# 6 0.000000 0.000000 0.000000 0.006006 0.000000 0.036056
#
#
# Mechanical properties :
#
#
# Convention : Reuss Voigt Hill
#
# Bulk Modulus (GPa) = 36.84796 57.25331 47.05064
# Shear Modulus (GPa) = 29.62455 36.08306 32.85381
#
# Velocity S-wave (km/s) = 3.63378 4.01037 3.82671
# Velocity P-wave (km/s) = 5.83350 6.85297 6.36368
#
# Compressibility (1/GPa) = 0.02713854
#
# Stress axis : x y z
#
# Youngs Moduli (GPa) = 33.56798 101.95835 133.56585
#
# Poissons Ratio (x) = 0.69739 0.11823
# Poissons Ratio (y) = 0.22960 0.30029
# Poissons Ratio (z) = 0.02971 0.22923
#
# Static dielectric constant tensor:
#      x y z
#    x 3.662460 0.000000 -0.084160 
#    y 0.000000 4.130070 0.000000 
#    z -0.084160 0.000000 4.398950 
# 
# 
# High freq. dielectric constant tensor:
#      x y z
#    x 1.850220 0.000000 -0.007450 
#    y 0.000000 1.895640 0.000000 
#    z -0.007450 0.000000 1.909950 
# 
# From -- ./inp_files/6920.got.cif
#   From: 2010.03.12/outbox.cif.g09.slc.cpg/sg4_4_cif.got.tgz:6920.got - 2010.03.31 09:31:35.
