data_PCOD8046169
_publ_section_title
;
Structure prediction by ZEFSAII (Michael W. Deem and Ramdas Pophale) SiO2 
 PCOD8046169
Probable space group: P 21
;
_chemical_formula_sum "Si O2"
_cell_formula_units_Z 12
_cell_length_a 14.668516
_cell_length_b 8.071747
_cell_length_c 14.554136
_cell_angle_alpha 90.000000
_cell_angle_beta 160.642225
_cell_angle_gamma 90.000000
_cell_volume 571.187942
_symmetry_space_group_name_H-M "P 21"
_symmetry_group_IT_number 4
_symmetry_cell_setting 'monoclinic'
loop_
_space_group_symop_operation_xyz
x,y,z
-x,1/2+y,-z
loop_
_atom_site_type_symbol
_atom_site_label
_atom_site_fract_x
_atom_site_fract_y
_atom_site_fract_z
Si Si1 0.368663 0.318860 0.085952
Si Si2 0.859164 0.097030 0.585211
Si Si3 0.123201 0.901228 0.680196
Si Si4 0.348499 0.332321 0.272270
Si Si5 0.836728 0.113666 0.768999
Si Si6 0.339302 0.529798 0.884087
O O1 0.582392 0.166930 0.274576
O O2 0.403719 0.396319 0.221057
O O3 0.418164 0.464028 0.060020
O O4 0.062337 0.252486 0.782272
O O5 0.801657 0.032620 0.634029
O O6 0.978365 0.946599 0.638758
O O7 0.234662 0.716163 0.789616
O O8 0.897545 0.915083 0.385075
O O9 0.379249 0.025223 0.907161
O O10 0.632960 0.269833 0.586954
O O11 0.224772 0.479083 0.213241
O O12 0.145819 0.174974 0.078219
#
# Coordination Sequence:
#
# PCOD8046169 Si02
#       6
#     2   2   2   2   2   2
#     4  10  21  39  60  83 116 154 191 234 286 339
#     4  10  21  39  60  83 116 154 191 234 286 339
#     4  12  24  39  60  86 116 153 193 238 286 340
#     4  10  21  38  61  87 117 153 190 236 288 339
#     4  10  21  38  61  87 117 153 190 236 288 339
#     4  12  24  39  60  86 116 153 193 238 286 340
#
# _framework density 21.008845999999998
#
# number of rings (size 3 to 8) (size 9 to 14) (size 15 to 20)
#    0.000    1.333    0.000    7.000    0.000    1.333 
#    0.000    3.333    0.000    0.000    0.000    0.000 
#    0.000    0.000    0.000    0.000    0.000    0.000 
#
# Total GULP energy -148861.339638 kJ/mol
# GULP energy per Si atom -12405.111637 kJ/mol
# Density = 2.096103 g / cm^3
# Si number density = 21.008846 Si / 1000 Ang^3
#
#
#
# Elastic Constant Matrix: (Units=GPa)
#
#
# Indices 1 2 3 4 5 6 
#
# 1 109.6124 48.0342 34.6417 0.0000 -2.0819 0.0000
# 2 48.0342 70.5717 15.1895 0.0000 -8.6512 0.0000
# 3 34.6417 15.1895 92.8292 0.0000 5.4021 0.0000
# 4 0.0000 0.0000 0.0000 28.3105 0.0000 5.6663
# 5 -2.0819 -8.6512 5.4021 0.0000 30.6146 0.0000
# 6 0.0000 0.0000 0.0000 5.6663 0.0000 38.4260
#
#
#
# Elastic Compliance Matrix: (Units=1/GPa)
#
#
# Indices 1 2 3 4 5 6 
#
# 1 0.014244 -0.008989 -0.003792 0.000000 -0.000903 0.000000
# 2 -0.008989 0.021038 -0.000402 0.000000 0.005405 0.000000
# 3 -0.003792 -0.000402 0.012402 0.000000 -0.002560 0.000000
# 4 0.000000 0.000000 0.000000 0.036397 0.000000 -0.005367
# 5 -0.000903 0.005405 -0.002560 0.000000 0.034582 0.000000
# 6 0.000000 0.000000 0.000000 -0.005367 0.000000 0.026815
#
#
# Mechanical properties :
#
#
# Convention : Reuss Voigt Hill
#
# Bulk Modulus (GPa) = 46.91201 52.08269 49.49735
# Shear Modulus (GPa) = 27.94076 31.14675 29.54375
#
# Velocity S-wave (km/s) = 3.65081 3.85457 3.75407
# Velocity P-wave (km/s) = 6.33635 6.68244 6.51169
#
# Compressibility (1/GPa) = 0.02131650
#
# Stress axis : x y z
#
# Youngs Moduli (GPa) = 70.20702 47.53392 80.62994
#
# Poissons Ratio (x) = 0.42730 0.30574
# Poissons Ratio (y) = 0.63111 0.03244
# Poissons Ratio (z) = 0.26622 0.01912
#
# Static dielectric constant tensor:
#      x y z
#    x 4.062230 0.000000 0.075370 
#    y 0.000000 3.328270 0.000000 
#    z 0.075370 0.000000 4.114300 
# 
# 
# High freq. dielectric constant tensor:
#      x y z
#    x 1.838220 0.000000 0.006730 
#    y 0.000000 1.790830 0.000000 
#    z 0.006730 0.000000 1.846540 
# 
# From -- ./inp_files/3374.got.cif
#   From: 2010.03.12/outbox.cif.g09.slc.cpg/sg4_2_cif.got.tgz:3374.got - 2010.03.31 09:31:35.
