data_PCOD8046895
_publ_section_title
;
Structure prediction by ZEFSAII (Michael W. Deem and Ramdas Pophale) SiO2 
 PCOD8046895
Probable space group: P 21
;
_chemical_formula_sum "Si O2"
_cell_formula_units_Z 10
_cell_length_a 6.881629
_cell_length_b 5.098761
_cell_length_c 12.471501
_cell_angle_alpha 90.000000
_cell_angle_beta 92.421735
_cell_angle_gamma 90.000000
_cell_volume 437.206473
_symmetry_space_group_name_H-M "P 21"
_symmetry_group_IT_number 4
_symmetry_cell_setting 'monoclinic'
loop_
_space_group_symop_operation_xyz
x,y,z
-x,1/2+y,-z
loop_
_atom_site_type_symbol
_atom_site_label
_atom_site_fract_x
_atom_site_fract_y
_atom_site_fract_z
Si Si1 0.873572 0.725040 0.167253
Si Si2 0.378464 0.170421 0.029387
Si Si3 0.525131 0.025168 0.434440
Si Si4 0.224044 0.009628 0.246511
Si Si5 0.832644 0.214594 0.286628
O O1 0.825313 0.666501 0.042291
O O2 0.782131 0.501702 0.241763
O O3 0.764141 0.995345 0.198037
O O4 0.107456 0.758403 0.192453
O O5 0.493925 0.431347 0.007385
O O6 0.326639 0.167502 0.153222
O O7 0.424827 0.262692 0.498082
O O8 0.384877 0.926487 0.335880
O O9 0.725512 0.153491 0.395773
O O10 0.066870 0.192368 0.304990
#
# Coordination Sequence:
#
# PCOD8046895 Si02
#       5
#     2   2   2   2   2
#     4  10  23  43  70 100 144 176 227 272 349 415
#     4  12  26  41  72 107 146 185 227 276 350 417
#     4  12  27  46  72 100 138 183 239 291 349 401
#     4  10  28  43  74  99 145 180 234 282 345 409
#     4  10  24  45  70 100 141 176 231 285 347 410
#
# _framework density 22.872488000000001
#
# number of rings (size 3 to 8) (size 9 to 14) (size 15 to 20)
#    1.200    0.000    0.000    4.800    8.400    1.600 
#    0.000    0.000    0.000    0.000    0.000    0.000 
#    0.000    0.000    0.000    0.000    0.000    0.000 
#
# Total GULP energy -123936.837638 kJ/mol
# GULP energy per Si atom -12393.683764 kJ/mol
# Density = 2.282043 g / cm^3
# Si number density = 22.872488 Si / 1000 Ang^3
#
#
#
# Elastic Constant Matrix: (Units=GPa)
#
#
# Indices 1 2 3 4 5 6 
#
# 1 118.7462 36.0232 58.6587 0.0000 -3.4183 0.0000
# 2 36.0232 144.2755 28.5637 0.0000 4.0756 0.0000
# 3 58.6587 28.5637 111.2298 0.0000 4.7147 0.0000
# 4 0.0000 0.0000 0.0000 28.9537 0.0000 -3.8761
# 5 -3.4183 4.0756 4.7147 0.0000 31.8999 0.0000
# 6 0.0000 0.0000 0.0000 -3.8761 0.0000 28.8225
#
#
#
# Elastic Compliance Matrix: (Units=1/GPa)
#
#
# Indices 1 2 3 4 5 6 
#
# 1 0.012000 -0.001887 -0.005946 0.000000 0.002406 0.000000
# 2 -0.001887 0.007613 -0.000916 0.000000 -0.001040 0.000000
# 3 -0.005946 -0.000916 0.012461 0.000000 -0.002362 0.000000
# 4 0.000000 0.000000 0.000000 0.035171 0.000000 0.004730
# 5 0.002406 -0.001040 -0.002362 0.000000 0.032088 0.000000
# 6 0.000000 0.000000 0.000000 0.004730 0.000000 0.035331
#
#
# Mechanical properties :
#
#
# Convention : Reuss Voigt Hill
#
# Bulk Modulus (GPa) = 68.60058 68.97141 68.78599
# Shear Modulus (GPa) = 31.84287 34.66895 33.25591
#
# Velocity S-wave (km/s) = 3.73526 3.89749 3.81723
# Velocity P-wave (km/s) = 6.97571 7.10451 7.04041
#
# Compressibility (1/GPa) = 0.01457714
#
# Stress axis : x y z
#
# Youngs Moduli (GPa) = 83.33196 131.35387 80.24825
#
# Poissons Ratio (x) = 0.24787 0.47715
# Poissons Ratio (y) = 0.15725 0.07349
# Poissons Ratio (z) = 0.49548 0.12029
#
# Static dielectric constant tensor:
#      x y z
#    x 4.021290 0.000000 -0.011040 
#    y 0.000000 3.946040 0.000000 
#    z -0.011040 0.000000 3.951780 
# 
# 
# High freq. dielectric constant tensor:
#      x y z
#    x 1.898260 0.000000 -0.003310 
#    y 0.000000 1.905510 0.000000 
#    z -0.003310 0.000000 1.892760 
# 
# From -- ./inp_files/9740.got.cif
#   From: 2010.03.12/outbox.cif.g09.slc.cpg/sg4_5_cif.got.tgz:9740.got - 2010.03.31 09:31:35.
