data_PCOD8046991
_publ_section_title
;
Structure prediction by ZEFSAII (Michael W. Deem and Ramdas Pophale) SiO2 
 PCOD8046991
Probable space group: P 21
;
_chemical_formula_sum "Si O2"
_cell_formula_units_Z 14
_cell_length_a 7.868829
_cell_length_b 10.676966
_cell_length_c 7.351460
_cell_angle_alpha 90.000000
_cell_angle_beta 112.429473
_cell_angle_gamma 90.000000
_cell_volume 570.910406
_symmetry_space_group_name_H-M "P 21"
_symmetry_group_IT_number 4
_symmetry_cell_setting 'monoclinic'
loop_
_space_group_symop_operation_xyz
x,y,z
-x,1/2+y,-z
loop_
_atom_site_type_symbol
_atom_site_label
_atom_site_fract_x
_atom_site_fract_y
_atom_site_fract_z
Si Si1 0.852806 0.234910 0.074370
Si Si2 0.248351 0.912722 0.683540
Si Si3 0.563384 0.018050 0.372926
Si Si4 0.179633 0.301960 0.988120
Si Si5 0.533792 0.780173 0.594661
Si Si6 0.920492 0.009039 0.325768
Si Si7 0.462510 0.117945 0.945627
O O1 0.845065 0.373047 0.164022
O O2 0.974409 0.246253 0.940600
O O3 0.959010 0.146816 0.263101
O O4 0.648788 0.182574 0.948928
O O5 0.366649 0.791707 0.671173
O O6 0.106944 0.946749 0.467915
O O7 0.393611 0.024771 0.761990
O O8 0.485052 0.132639 0.469349
O O9 0.500331 0.881122 0.420285
O O10 0.784172 0.015658 0.443525
O O11 0.482342 0.038938 0.138869
O O12 0.276469 0.314339 0.225135
O O13 0.165462 0.433978 0.880432
O O14 0.297154 0.216164 0.901121
#
# Coordination Sequence:
#
# PCOD8046991 Si02
#       7
#     2   2   2   2   2   2   2
#     4  11  25  48  71 107 143 185 249 292 360 445
#     4  12  25  46  74 104 147 190 241 300 366 435
#     4  10  23  46  72 104 151 186 251 302 363 443
#     4  11  25  47  75 101 144 194 239 297 370 431
#     4  11  23  46  73 110 141 198 243 303 371 436
#     4  11  26  47  69 104 147 189 240 304 361 437
#     4  10  25  48  72 102 147 190 239 302 367 431
#
# _framework density 24.522235999999999
#
# number of rings (size 3 to 8) (size 9 to 14) (size 15 to 20)
#    0.000    1.143    4.286    2.571    8.000    1.143 
#   10.286    0.000    0.000    0.000    0.000    0.000 
#    0.000    0.000    0.000    0.000    0.000    0.000 
#
# Total GULP energy -173566.192259 kJ/mol
# GULP energy per Si atom -12397.585161 kJ/mol
# Density = 2.446642 g / cm^3
# Si number density = 24.522236 Si / 1000 Ang^3
#
#
#
# Elastic Constant Matrix: (Units=GPa)
#
#
# Indices 1 2 3 4 5 6 
#
# 1 129.2790 50.2989 21.9737 0.0000 10.9725 0.0000
# 2 50.2989 104.6711 38.1619 0.0000 -0.9474 0.0000
# 3 21.9737 38.1619 67.0700 0.0000 19.4647 0.0000
# 4 0.0000 0.0000 0.0000 34.9325 0.0000 -4.4644
# 5 10.9725 -0.9474 19.4647 0.0000 22.5841 0.0000
# 6 0.0000 0.0000 0.0000 -4.4644 0.0000 42.7252
#
#
#
# Elastic Compliance Matrix: (Units=1/GPa)
#
#
# Indices 1 2 3 4 5 6 
#
# 1 0.010185 -0.005619 0.001820 0.000000 -0.006753 0.000000
# 2 -0.005619 0.016537 -0.011418 0.000000 0.013264 0.000000
# 3 0.001820 -0.011418 0.028279 0.000000 -0.025736 0.000000
# 4 0.000000 0.000000 0.000000 0.029014 0.000000 0.003032
# 5 -0.006753 0.013264 -0.025736 0.000000 0.070298 0.000000
# 6 0.000000 0.000000 0.000000 0.003032 0.000000 0.023722
#
#
# Mechanical properties :
#
#
# Convention : Reuss Voigt Hill
#
# Bulk Modulus (GPa) = 40.70430 57.98767 49.34598
# Shear Modulus (GPa) = 23.07784 32.75406 27.91595
#
# Velocity S-wave (km/s) = 3.07106 3.65867 3.37767
# Velocity P-wave (km/s) = 5.40465 6.44563 5.94795
#
# Compressibility (1/GPa) = 0.02456743
#
# Stress axis : x y z
#
# Youngs Moduli (GPa) = 98.18112 60.47105 35.36182
#
# Poissons Ratio (x) = 0.33980 -0.06436
# Poissons Ratio (y) = 0.55169 0.40375
# Poissons Ratio (z) = -0.17870 0.69045
#
# Static dielectric constant tensor:
#      x y z
#    x 4.457370 0.000000 0.069790 
#    y 0.000000 4.451360 0.000000 
#    z 0.069790 0.000000 3.946500 
# 
# 
# High freq. dielectric constant tensor:
#      x y z
#    x 1.981900 0.000000 0.006230 
#    y 0.000000 1.984200 0.000000 
#    z 0.006230 0.000000 1.949630 
# 
# From -- ./inp_files/5847.got.cif
#   From: 2010.03.12/outbox.cif.g09.slc.cpg/sg4_3_cif.got.tgz:5847.got - 2010.03.31 09:31:35.
