data_PCOD8046130
_publ_section_title
;
Structure prediction by ZEFSAII (Michael W. Deem and Ramdas Pophale) SiO2 
 PCOD8046130
Probable space group: P 21
;
_chemical_formula_sum "Si O2"
_cell_formula_units_Z 14
_cell_length_a 15.202475
_cell_length_b 5.091418
_cell_length_c 9.002106
_cell_angle_alpha 90.000000
_cell_angle_beta 117.407483
_cell_angle_gamma 90.000000
_cell_volume 618.572253
_symmetry_space_group_name_H-M "P 21"
_symmetry_group_IT_number 4
_symmetry_cell_setting 'monoclinic'
loop_
_space_group_symop_operation_xyz
x,y,z
-x,1/2+y,-z
loop_
_atom_site_type_symbol
_atom_site_label
_atom_site_fract_x
_atom_site_fract_y
_atom_site_fract_z
Si Si1 0.729207 0.235790 0.103362
Si Si2 0.465728 0.209249 0.384795
Si Si3 0.538175 0.114869 0.109647
Si Si4 0.956694 0.561391 0.028574
Si Si5 0.735176 0.715668 0.915174
Si Si6 0.116522 0.885319 0.547027
Si Si7 0.937794 0.889900 0.604083
O O1 0.654465 0.164425 0.176557
O O2 0.824370 0.366368 0.253647
O O3 0.686673 0.473438 0.969745
O O4 0.754874 0.977915 0.026694
O O5 0.518795 0.460954 0.496995
O O6 0.514252 0.156495 0.262631
O O7 0.347772 0.271766 0.275198
O O8 0.480135 0.317843 0.958432
O O9 0.989355 0.400434 0.199816
O O10 0.839459 0.619051 0.927780
O O11 0.985432 0.341274 0.927607
O O12 0.136908 0.636529 0.457275
O O13 0.999763 0.891566 0.498470
O O14 0.135870 0.139686 0.459100
#
# Coordination Sequence:
#
# PCOD8046130 Si02
#       7
#     2   2   2   2   2   2   2
#     4  12  22  42  74 104 133 175 241 296 347 429
#     4  12  26  48  73 104 151 188 232 301 375 429
#     4  12  23  45  74 107 139 181 241 302 348 433
#     4  12  26  45  68  94 140 190 241 289 336 432
#     4  12  25  45  75  99 135 192 244 287 361 426
#     4  10  21  36  65  94 127 167 212 290 347 393
#     4  10  21  39  61  90 129 169 221 277 350 388
#
# _framework density 22.632767000000001
#
# number of rings (size 3 to 8) (size 9 to 14) (size 15 to 20)
#    0.000    0.571    4.286    4.286    4.000    0.000 
#    7.714    0.000    0.000    0.000    0.000    0.000 
#    0.000    0.000    0.000    0.000    0.000    0.000 
#
# Total GULP energy -173513.736337 kJ/mol
# GULP energy per Si atom -12393.838310 kJ/mol
# Density = 2.258125 g / cm^3
# Si number density = 22.632767 Si / 1000 Ang^3
#
#
#
# Elastic Constant Matrix: (Units=GPa)
#
#
# Indices 1 2 3 4 5 6 
#
# 1 82.2506 27.6730 37.8409 0.0000 7.1805 0.0000
# 2 27.6730 173.5030 51.0413 0.0000 9.5031 0.0000
# 3 37.8409 51.0413 115.5151 0.0000 13.6892 0.0000
# 4 0.0000 0.0000 0.0000 52.6742 0.0000 -0.5553
# 5 7.1805 9.5031 13.6892 0.0000 26.7304 0.0000
# 6 0.0000 0.0000 0.0000 -0.5553 0.0000 27.3183
#
#
#
# Elastic Compliance Matrix: (Units=1/GPa)
#
#
# Indices 1 2 3 4 5 6 
#
# 1 0.014530 -0.001022 -0.004140 0.000000 -0.001420 0.000000
# 2 -0.001022 0.006717 -0.002537 0.000000 -0.000814 0.000000
# 3 -0.004140 -0.002537 0.011599 0.000000 -0.003926 0.000000
# 4 0.000000 0.000000 0.000000 0.018989 0.000000 0.000386
# 5 -0.001420 -0.000814 -0.003926 0.000000 0.040092 0.000000
# 6 0.000000 0.000000 0.000000 0.000386 0.000000 0.036613
#
#
# Mechanical properties :
#
#
# Convention : Reuss Voigt Hill
#
# Bulk Modulus (GPa) = 57.30842 67.15323 62.23082
# Shear Modulus (GPa) = 33.38766 38.32548 35.85657
#
# Velocity S-wave (km/s) = 3.84499 4.11951 3.98462
# Velocity P-wave (km/s) = 6.71475 7.23619 6.98034
#
# Compressibility (1/GPa) = 0.01744944
#
# Stress axis : x y z
#
# Youngs Moduli (GPa) = 68.82088 148.86510 86.21147
#
# Poissons Ratio (x) = 0.15211 0.35693
# Poissons Ratio (y) = 0.07032 0.21871
# Poissons Ratio (z) = 0.28493 0.37766
#
# Static dielectric constant tensor:
#      x y z
#    x 3.878370 0.000000 0.023720 
#    y 0.000000 4.797700 0.000000 
#    z 0.023720 0.000000 3.951020 
# 
# 
# High freq. dielectric constant tensor:
#      x y z
#    x 1.868090 0.000000 0.006770 
#    y 0.000000 1.925590 0.000000 
#    z 0.006770 0.000000 1.885310 
# 
# From -- ./inp_files/8943.got.cif
#   From: 2010.03.12/outbox.cif.g09.slc.cpg/sg4_5_cif.got.tgz:8943.got - 2010.03.31 09:31:35.
