data_PCOD8046692
_publ_section_title
;
Structure prediction by ZEFSAII (Michael W. Deem and Ramdas Pophale) SiO2 
 PCOD8046692
Probable space group: P 21
;
_chemical_formula_sum "Si O2"
_cell_formula_units_Z 12
_cell_length_a 12.692780
_cell_length_b 8.929175
_cell_length_c 5.468800
_cell_angle_alpha 90.000000
_cell_angle_beta 55.275916
_cell_angle_gamma 90.000000
_cell_volume 509.426554
_symmetry_space_group_name_H-M "P 21"
_symmetry_group_IT_number 4
_symmetry_cell_setting 'monoclinic'
loop_
_space_group_symop_operation_xyz
x,y,z
-x,1/2+y,-z
loop_
_atom_site_type_symbol
_atom_site_label
_atom_site_fract_x
_atom_site_fract_y
_atom_site_fract_z
Si Si1 0.708528 0.647450 0.612473
Si Si2 0.434387 0.079920 0.708387
Si Si3 0.873695 0.386923 0.280532
Si Si4 0.881617 0.151531 0.663921
Si Si5 0.926333 0.861282 0.345078
Si Si6 0.655199 0.265325 0.235894
O O1 0.627778 0.622538 0.472352
O O2 0.815340 0.519070 0.524565
O O3 0.783883 0.803641 0.474232
O O4 0.627002 0.657075 0.970419
O O5 0.577617 0.147559 0.505258
O O6 0.437262 0.899073 0.746088
O O7 0.904439 0.235285 0.380026
O O8 0.762708 0.357022 0.233440
O O9 0.006472 0.441847 0.976472
O O10 0.979463 0.221901 0.727501
O O11 0.917104 0.976995 0.583344
O O12 0.730779 0.170446 0.930083
#
# Coordination Sequence:
#
# PCOD8046692 Si02
#       6
#     2   2   2   2   2   2
#     4  11  25  45  68 101 137 183 224 285 341 402
#     4  11  26  45  71  96 144 177 233 279 338 404
#     4  10  22  44  67  96 137 176 228 289 341 400
#     4  11  23  43  68  97 139 174 234 281 345 408
#     4  11  25  39  70 101 135 183 226 285 346 411
#     4  10  25  44  66 101 132 185 225 287 335 407
#
# _framework density 23.555900000000001
#
# number of rings (size 3 to 8) (size 9 to 14) (size 15 to 20)
#    0.000    1.333    1.667    2.000   11.667    2.667 
#    0.000    0.000    0.000    0.000    0.000    0.000 
#    0.000    0.000    0.000    0.000    0.000    0.000 
#
# Total GULP energy -148725.486065 kJ/mol
# GULP energy per Si atom -12393.790505 kJ/mol
# Density = 2.350229 g / cm^3
# Si number density = 23.555900 Si / 1000 Ang^3
#
#
#
# Elastic Constant Matrix: (Units=GPa)
#
#
# Indices 1 2 3 4 5 6 
#
# 1 25.0319 5.9755 34.5833 0.0000 6.8738 0.0000
# 2 5.9755 73.7197 49.9724 0.0000 -21.8503 0.0000
# 3 34.5833 49.9724 199.3852 0.0000 -13.8555 0.0000
# 4 0.0000 0.0000 0.0000 43.9048 0.0000 -3.7846
# 5 6.8738 -21.8503 -13.8555 0.0000 36.9269 0.0000
# 6 0.0000 0.0000 0.0000 -3.7846 0.0000 29.0728
#
#
#
# Elastic Compliance Matrix: (Units=1/GPa)
#
#
# Indices 1 2 3 4 5 6 
#
# 1 0.060388 -0.002388 -0.011043 0.000000 -0.016798 0.000000
# 2 -0.002388 0.019398 -0.003716 0.000000 0.010528 0.000000
# 3 -0.011043 -0.003716 0.008062 0.000000 0.002882 0.000000
# 4 0.000000 0.000000 0.000000 0.023035 0.000000 0.002999
# 5 -0.016798 0.010528 0.002882 0.000000 0.037518 0.000000
# 6 0.000000 0.000000 0.000000 0.002999 0.000000 0.034787
#
#
# Mechanical properties :
#
#
# Convention : Reuss Voigt Hill
#
# Bulk Modulus (GPa) = 18.67241 53.24434 35.95838
# Shear Modulus (GPa) = 21.24634 35.82127 28.53380
#
# Velocity S-wave (km/s) = 3.00651 3.90384 3.48418
# Velocity P-wave (km/s) = 4.47171 6.55533 5.61109
#
# Compressibility (1/GPa) = 0.05355495
#
# Stress axis : x y z
#
# Youngs Moduli (GPa) = 16.55946 51.55187 124.03163
#
# Poissons Ratio (x) = 0.12310 1.36970
# Poissons Ratio (y) = 0.03954 0.46090
# Poissons Ratio (z) = 0.18287 0.19156
#
# Static dielectric constant tensor:
#      x y z
#    x 3.955880 0.000000 -0.193860 
#    y 0.000000 4.292060 0.000000 
#    z -0.193860 0.000000 4.389890 
# 
# 
# High freq. dielectric constant tensor:
#      x y z
#    x 1.912090 0.000000 -0.005870 
#    y 0.000000 1.932210 0.000000 
#    z -0.005870 0.000000 1.946700 
# 
# From -- ./inp_files/1017.got.cif
#   From: 2010.03.12/outbox.cif.g09.slc.cpg/sg4_1_cif.got.tgz:1017.got - 2010.03.31 09:31:35.
