data_PCOD8046424
_publ_section_title
;
Structure prediction by ZEFSAII (Michael W. Deem and Ramdas Pophale) SiO2 
 PCOD8046424
Probable space group: P 21
;
_chemical_formula_sum "Si O2"
_cell_formula_units_Z 16
_cell_length_a 16.765309
_cell_length_b 8.407333
_cell_length_c 8.010585
_cell_angle_alpha 90.000000
_cell_angle_beta 144.384913
_cell_angle_gamma 90.000000
_cell_volume 657.519247
_symmetry_space_group_name_H-M "P 21"
_symmetry_group_IT_number 4
_symmetry_cell_setting 'monoclinic'
loop_
_space_group_symop_operation_xyz
x,y,z
-x,1/2+y,-z
loop_
_atom_site_type_symbol
_atom_site_label
_atom_site_fract_x
_atom_site_fract_y
_atom_site_fract_z
Si Si1 0.864569 0.006890 0.858455
Si Si2 0.214315 0.652273 0.608350
Si Si3 0.182804 0.977654 0.404948
Si Si4 0.233167 0.825169 0.165734
Si Si5 0.828467 0.694857 0.330528
Si Si6 0.671087 0.802669 0.754907
Si Si7 0.581312 0.125136 0.745530
Si Si8 0.005945 0.995611 0.594969
O O1 0.777650 0.035346 0.539270
O O2 0.863464 0.177393 0.947375
O O3 0.796637 0.864517 0.851929
O O4 0.021655 0.964060 0.082612
O O5 0.233893 0.837639 0.610722
O O6 0.058943 0.644869 0.417217
O O7 0.332495 0.605897 0.939044
O O8 0.268267 0.944474 0.380020
O O9 0.223482 0.143815 0.571389
O O10 0.363761 0.756355 0.293183
O O11 0.149682 0.934204 0.899702
O O12 0.954466 0.567214 0.519213
O O13 0.881866 0.873296 0.400891
O O14 0.718006 0.692965 0.992986
O O15 0.573433 0.684418 0.481715
O O16 0.582499 0.953720 0.661731
#
# Coordination Sequence:
#
# PCOD8046424 Si02
#       8
#     2   2   2   2   2   2   2   2
#     4  10  21  44  66 105 140 175 225 301 360 414
#     4  11  23  41  71 101 141 179 233 296 359 421
#     4  11  22  40  70 108 140 176 224 298 373 426
#     4  10  22  40  68  96 143 174 222 295 355 419
#     4  12  24  39  66 103 139 185 233 288 359 436
#     4  11  26  46  71  94 139 193 247 292 342 427
#     4  11  25  48  68  98 136 195 246 288 344 426
#     4  12  21  38  64 101 136 173 220 292 362 427
#
# _framework density 24.333887000000001
#
# number of rings (size 3 to 8) (size 9 to 14) (size 15 to 20)
#    0.000    1.000    3.750    3.750    3.500    0.000 
#    2.250    3.750    2.750    0.000    0.000    0.000 
#    0.000    0.000    0.000    0.000    0.000    0.000 
#
# Total GULP energy -198214.558332 kJ/mol
# GULP energy per Si atom -12388.409896 kJ/mol
# Density = 2.427850 g / cm^3
# Si number density = 24.333887 Si / 1000 Ang^3
#
#
#
# Elastic Constant Matrix: (Units=GPa)
#
#
# Indices 1 2 3 4 5 6 
#
# 1 53.3676 21.9153 34.5235 0.0000 -23.0337 0.0000
# 2 21.9153 58.8746 43.5227 0.0000 -0.2466 0.0000
# 3 34.5235 43.5227 101.8396 0.0000 -14.1483 0.0000
# 4 0.0000 0.0000 0.0000 45.5185 0.0000 0.1268
# 5 -23.0337 -0.2466 -14.1483 0.0000 30.1523 0.0000
# 6 0.0000 0.0000 0.0000 0.1268 0.0000 42.9286
#
#
#
# Elastic Compliance Matrix: (Units=1/GPa)
#
#
# Indices 1 2 3 4 5 6 
#
# 1 0.037291 -0.010414 -0.004541 0.000000 0.026271 0.000000
# 2 -0.010414 0.028496 -0.010399 0.000000 -0.012602 0.000000
# 3 -0.004541 -0.010399 0.016377 0.000000 0.004130 0.000000
# 4 0.000000 0.000000 0.000000 0.021969 0.000000 -0.000065
# 5 0.026271 -0.012602 0.004130 0.000000 0.055069 0.000000
# 6 0.000000 0.000000 0.000000 -0.000065 0.000000 0.023295
#
#
# Mechanical properties :
#
#
# Convention : Reuss Voigt Hill
#
# Bulk Modulus (GPa) = 31.79052 46.00055 38.89553
# Shear Modulus (GPa) = 20.51798 31.32790 25.92294
#
# Velocity S-wave (km/s) = 2.90692 3.59195 3.26744
# Velocity P-wave (km/s) = 4.93554 6.01230 5.50033
#
# Compressibility (1/GPa) = 0.03145592
#
# Stress axis : x y z
#
# Youngs Moduli (GPa) = 26.81632 35.09261 61.06254
#
# Poissons Ratio (x) = 0.36545 0.27730
# Poissons Ratio (y) = 0.27926 0.63497
# Poissons Ratio (z) = 0.12178 0.36492
#
# Static dielectric constant tensor:
#      x y z
#    x 4.367340 0.000000 -0.420460 
#    y 0.000000 4.695100 0.000000 
#    z -0.420460 0.000000 4.314350 
# 
# 
# High freq. dielectric constant tensor:
#      x y z
#    x 1.949870 0.000000 -0.021030 
#    y 0.000000 1.986560 0.000000 
#    z -0.021030 0.000000 1.949540 
# 
# From -- ./inp_files/9932.got.cif
#   From: 2010.03.12/outbox.cif.g09.slc.cpg/sg4_5_cif.got.tgz:9932.got - 2010.03.31 09:31:35.
