data_PCOD8046535
_publ_section_title
;
Structure prediction by ZEFSAII (Michael W. Deem and Ramdas Pophale) SiO2 
 PCOD8046535
Probable space group: P 21
;
_chemical_formula_sum "Si O2"
_cell_formula_units_Z 12
_cell_length_a 5.483596
_cell_length_b 8.350885
_cell_length_c 14.493055
_cell_angle_alpha 90.000000
_cell_angle_beta 124.579423
_cell_angle_gamma 90.000000
_cell_volume 546.433404
_symmetry_space_group_name_H-M "P 21"
_symmetry_group_IT_number 4
_symmetry_cell_setting 'monoclinic'
loop_
_space_group_symop_operation_xyz
x,y,z
-x,1/2+y,-z
loop_
_atom_site_type_symbol
_atom_site_label
_atom_site_fract_x
_atom_site_fract_y
_atom_site_fract_z
Si Si1 0.937406 0.408730 0.712821
Si Si2 0.298963 0.564157 0.287188
Si Si3 0.770618 0.052196 0.049763
Si Si4 0.864397 0.736451 0.409595
Si Si5 0.121315 0.920699 0.950228
Si Si6 0.340416 0.486451 0.500004
O O1 0.857207 0.236442 0.738139
O O2 0.663521 0.506980 0.612665
O O3 0.096946 0.518794 0.821293
O O4 0.150030 0.374364 0.671490
O O5 0.635578 0.598530 0.328518
O O6 0.325554 0.465915 0.387347
O O7 0.133089 0.454084 0.178720
O O8 0.792346 0.236449 0.028233
O O9 0.420126 0.012775 0.982620
O O10 0.972245 0.960126 0.017366
O O11 0.179299 0.652290 0.490977
O O12 0.793646 0.820620 0.490975
#
# Coordination Sequence:
#
# PCOD8046535 Si02
#       6
#     2   2   2   2   2   2
#     4  10  23  42  67 100 137 186 236 292 351 423
#     4  10  23  42  67 100 137 186 236 292 351 423
#     4  12  28  49  75 107 144 191 244 299 360 429
#     4  10  22  40  68  98 144 178 230 292 352 428
#     4  12  28  49  75 107 144 191 244 299 360 429
#     4  10  22  40  66 102 138 182 228 288 354 422
#
# _framework density 21.96059
#
# number of rings (size 3 to 8) (size 9 to 14) (size 15 to 20)
#    0.000    1.333    0.000    4.000   11.667    6.667 
#    0.000    0.000    0.000    0.000    0.000    0.000 
#    0.000    0.000    0.000    0.000    0.000    0.000 
#
# Total GULP energy -148749.880607 kJ/mol
# GULP energy per Si atom -12395.823384 kJ/mol
# Density = 2.191061 g / cm^3
# Si number density = 21.960590 Si / 1000 Ang^3
#
#
#
# Elastic Constant Matrix: (Units=GPa)
#
#
# Indices 1 2 3 4 5 6 
#
# 1 153.6155 47.8858 66.3151 0.0000 1.6565 0.0000
# 2 47.8858 96.7982 52.1406 0.0000 -0.1155 0.0000
# 3 66.3151 52.1406 152.1230 0.0000 -1.6273 0.0000
# 4 0.0000 0.0000 0.0000 43.4849 0.0000 -0.2268
# 5 1.6565 -0.1155 -1.6273 0.0000 11.9814 0.0000
# 6 0.0000 0.0000 0.0000 -0.2268 0.0000 34.8134
#
#
#
# Elastic Compliance Matrix: (Units=1/GPa)
#
#
# Indices 1 2 3 4 5 6 
#
# 1 0.008600 -0.002732 -0.002830 0.000000 -0.001600 0.000000
# 2 -0.002732 0.013541 -0.003450 0.000000 0.000040 0.000000
# 3 -0.002830 -0.003450 0.009006 0.000000 0.001581 0.000000
# 4 0.000000 0.000000 0.000000 0.022997 0.000000 0.000150
# 5 -0.001600 0.000040 0.001581 0.000000 0.083899 0.000000
# 6 0.000000 0.000000 0.000000 0.000150 0.000000 0.028726
#
#
# Mechanical properties :
#
#
# Convention : Reuss Voigt Hill
#
# Bulk Modulus (GPa) = 76.19500 81.69107 78.94303
# Shear Modulus (GPa) = 26.43163 33.80228 30.11695
#
# Velocity S-wave (km/s) = 3.47305 3.92755 3.70727
# Velocity P-wave (km/s) = 7.13122 7.60574 7.37230
#
# Compressibility (1/GPa) = 0.01312422
#
# Stress axis : x y z
#
# Youngs Moduli (GPa) = 116.27499 73.85221 111.03099
#
# Poissons Ratio (x) = 0.20178 0.31419
# Poissons Ratio (y) = 0.31768 0.38301
# Poissons Ratio (z) = 0.32903 0.25476
#
# Static dielectric constant tensor:
#      x y z
#    x 4.439670 0.000000 0.012310 
#    y 0.000000 3.812090 0.000000 
#    z 0.012310 0.000000 3.969580 
# 
# 
# High freq. dielectric constant tensor:
#      x y z
#    x 1.880870 0.000000 0.000390 
#    y 0.000000 1.860990 0.000000 
#    z 0.000390 0.000000 1.866070 
# 
# From -- ./inp_files/2450.got.cif
#   From: 2010.03.12/outbox.cif.g09.slc.cpg/sg4_2_cif.got.tgz:2450.got - 2010.03.31 09:31:35.
