data_PCOD8046464
_publ_section_title
;
Structure prediction by ZEFSAII (Michael W. Deem and Ramdas Pophale) SiO2 
 PCOD8046464
Probable space group: P 21
;
_chemical_formula_sum "Si O2"
_cell_formula_units_Z 12
_cell_length_a 11.499694
_cell_length_b 5.070064
_cell_length_c 17.396143
_cell_angle_alpha 90.000000
_cell_angle_beta 28.492141
_cell_angle_gamma 90.000000
_cell_volume 483.844561
_symmetry_space_group_name_H-M "P 21"
_symmetry_group_IT_number 4
_symmetry_cell_setting 'monoclinic'
loop_
_space_group_symop_operation_xyz
x,y,z
-x,1/2+y,-z
loop_
_atom_site_type_symbol
_atom_site_label
_atom_site_fract_x
_atom_site_fract_y
_atom_site_fract_z
Si Si1 0.521584 0.254580 0.716354
Si Si2 0.513491 0.762439 0.822380
Si Si3 0.822600 0.419234 0.316331
Si Si4 0.293064 0.414285 0.698208
Si Si5 0.344114 0.822689 0.075462
Si Si6 0.965667 0.704493 0.661858
O O1 0.553588 0.481984 0.759596
O O2 0.316824 0.350389 0.774865
O O3 0.773606 0.180620 0.528582
O O4 0.437610 0.985386 0.805748
O O5 0.771520 0.823511 0.715110
O O6 0.300530 0.742368 0.010805
O O7 0.559268 0.408870 0.507361
O O8 0.873113 0.693395 0.245300
O O9 0.022583 0.391979 0.268427
O O10 0.840521 0.190639 0.241081
O O11 0.108571 0.911051 0.262989
O O12 0.490229 0.588010 0.030479
#
# Coordination Sequence:
#
# PCOD8046464 Si02
#       6
#     2   2   2   2   2   2
#     4  11  22  36  59  86 122 153 191 244 300 361
#     4  11  22  37  56  87 122 153 187 243 308 356
#     4   9  18  32  54  79 111 145 194 245 281 341
#     4   9  18  33  51  80 112 150 187 236 300 338
#     4  10  22  39  58  83 122 164 202 238 291 365
#     4  10  22  37  60  89 115 153 201 246 292 351
#
# _framework density 24.801354
#
# number of rings (size 3 to 8) (size 9 to 14) (size 15 to 20)
#    0.000    2.000    0.000    4.000    0.000   10.667 
#    0.000    0.000    0.000    4.000    0.000    0.000 
#    0.000    0.000    0.000    0.000    0.000    0.000 
#
# Total GULP energy -148742.747224 kJ/mol
# GULP energy per Si atom -12395.228935 kJ/mol
# Density = 2.474490 g / cm^3
# Si number density = 24.801354 Si / 1000 Ang^3
#
#
#
# Elastic Constant Matrix: (Units=GPa)
#
#
# Indices 1 2 3 4 5 6 
#
# 1 100.7038 14.5895 15.3721 0.0000 12.9639 0.0000
# 2 14.5895 93.4871 21.4276 0.0000 2.3880 0.0000
# 3 15.3721 21.4276 61.5677 0.0000 26.0214 0.0000
# 4 0.0000 0.0000 0.0000 32.8399 0.0000 11.6690
# 5 12.9639 2.3880 26.0214 0.0000 36.9642 0.0000
# 6 0.0000 0.0000 0.0000 11.6690 0.0000 45.0329
#
#
#
# Elastic Compliance Matrix: (Units=1/GPa)
#
#
# Indices 1 2 3 4 5 6 
#
# 1 0.010656 -0.001378 -0.000910 0.000000 -0.003008 0.000000
# 2 -0.001378 0.012038 -0.005297 0.000000 0.003435 0.000000
# 3 -0.000910 -0.005297 0.025672 0.000000 -0.017411 0.000000
# 4 0.000000 0.000000 0.000000 0.033539 0.000000 -0.008691
# 5 -0.003008 0.003435 -0.017411 0.000000 0.040142 0.000000
# 6 0.000000 0.000000 0.000000 -0.008691 0.000000 0.024458
#
#
# Mechanical properties :
#
#
# Convention : Reuss Voigt Hill
#
# Bulk Modulus (GPa) = 30.12418 39.83743 34.98081
# Shear Modulus (GPa) = 28.94533 36.59203 32.76868
#
# Velocity S-wave (km/s) = 3.41997 3.84527 3.63884
# Velocity P-wave (km/s) = 5.26949 5.98433 5.63825
#
# Compressibility (1/GPa) = 0.03319592
#
# Stress axis : x y z
#
# Youngs Moduli (GPa) = 93.84602 83.06983 38.95355
#
# Poissons Ratio (x) = 0.11443 0.03544
# Poissons Ratio (y) = 0.12928 0.20635
# Poissons Ratio (z) = 0.08539 0.44004
#
# Static dielectric constant tensor:
#      x y z
#    x 4.691310 0.000000 0.175190 
#    y 0.000000 4.684390 0.000000 
#    z 0.175190 0.000000 4.269210 
# 
# 
# High freq. dielectric constant tensor:
#      x y z
#    x 1.996130 0.000000 0.004590 
#    y 0.000000 1.999170 0.000000 
#    z 0.004590 0.000000 1.968210 
# 
# From -- ./inp_files/15016.got.cif
#   From: 2010.03.12/outbox.cif.g09.slc.cpg/sg4_8_cif.got.tgz:15016.got - 2010.03.31 09:31:35.
