data_PCOD8046654
_publ_section_title
;
Structure prediction by ZEFSAII (Michael W. Deem and Ramdas Pophale) SiO2 
 PCOD8046654
Probable space group: P 21
;
_chemical_formula_sum "Si O2"
_cell_formula_units_Z 16
_cell_length_a 7.145006
_cell_length_b 8.618818
_cell_length_c 15.626386
_cell_angle_alpha 90.000000
_cell_angle_beta 48.321864
_cell_angle_gamma 90.000000
_cell_volume 718.731454
_symmetry_space_group_name_H-M "P 21"
_symmetry_group_IT_number 4
_symmetry_cell_setting 'monoclinic'
loop_
_space_group_symop_operation_xyz
x,y,z
-x,1/2+y,-z
loop_
_atom_site_type_symbol
_atom_site_label
_atom_site_fract_x
_atom_site_fract_y
_atom_site_fract_z
Si Si1 0.574603 0.360420 0.904051
Si Si2 0.283433 0.010748 0.466719
Si Si3 0.659851 0.364342 0.076953
Si Si4 0.888520 0.040681 0.997579
Si Si5 0.962576 0.111094 0.788094
Si Si6 0.874200 0.524625 0.670657
Si Si7 0.686190 0.802726 0.433981
Si Si8 0.857807 0.877710 0.690755
O O1 0.291660 0.389881 0.958611
O O2 0.742752 0.484258 0.800653
O O3 0.687605 0.189506 0.851238
O O4 0.567752 0.385434 0.007955
O O5 0.308256 0.995264 0.356236
O O6 0.374192 0.180667 0.471279
O O7 0.437702 0.879702 0.470701
O O8 0.986533 0.985543 0.578719
O O9 0.442626 0.399434 0.212590
O O10 0.741477 0.189561 0.078649
O O11 0.885130 0.487015 0.012055
O O12 0.012567 0.097787 0.872265
O O13 0.181973 0.217651 0.685136
O O14 0.970228 0.940054 0.746176
O O15 0.947253 0.703643 0.650707
O O16 0.131961 0.431653 0.580887
#
# Coordination Sequence:
#
# PCOD8046654 Si02
#       8
#     2   2   2   2   2   2   2   2
#     4  10  22  43  67  94 138 175 219 275 330 392
#     4  11  24  45  70 101 134 178 220 274 339 392
#     4  11  25  41  66 102 132 175 226 271 338 394
#     4  11  23  42  65  99 132 176 223 271 334 399
#     4   9  22  42  66  95 133 179 216 274 340 379
#     4  11  23  43  70  98 131 177 225 272 331 397
#     4  10  23  46  67 100 134 173 225 277 326 398
#     4  11  22  44  65  99 134 171 220 278 330 395
#
# _framework density 22.261444000000001
#
# number of rings (size 3 to 8) (size 9 to 14) (size 15 to 20)
#    0.000    1.500    2.500    1.500    1.750    4.000 
#   18.000    0.000    0.000    0.000    0.000    0.000 
#    0.000    0.000    0.000    0.000    0.000    0.000 
#
# Total GULP energy -198309.884179 kJ/mol
# GULP energy per Si atom -12394.367761 kJ/mol
# Density = 2.221078 g / cm^3
# Si number density = 22.261444 Si / 1000 Ang^3
#
#
#
# Elastic Constant Matrix: (Units=GPa)
#
#
# Indices 1 2 3 4 5 6 
#
# 1 90.9176 43.0625 32.9149 0.0000 -11.7826 0.0000
# 2 43.0625 101.5909 22.0022 0.0000 3.0466 0.0000
# 3 32.9149 22.0022 75.3129 0.0000 -7.7273 0.0000
# 4 0.0000 0.0000 0.0000 28.1718 0.0000 -4.6067
# 5 -11.7826 3.0466 -7.7273 0.0000 23.6980 0.0000
# 6 0.0000 0.0000 0.0000 -4.6067 0.0000 33.4571
#
#
#
# Elastic Compliance Matrix: (Units=1/GPa)
#
#
# Indices 1 2 3 4 5 6 
#
# 1 0.016635 -0.006268 -0.004664 0.000000 0.007556 0.000000
# 2 -0.006268 0.013007 -0.001606 0.000000 -0.005312 0.000000
# 3 -0.004664 -0.001606 0.016108 0.000000 0.003140 0.000000
# 4 0.000000 0.000000 0.000000 0.036314 0.000000 0.005000
# 5 0.007556 -0.005312 0.003140 0.000000 0.047661 0.000000
# 6 0.000000 0.000000 0.000000 0.005000 0.000000 0.030578
#
#
# Mechanical properties :
#
#
# Convention : Reuss Voigt Hill
#
# Bulk Modulus (GPa) = 48.36745 51.53121 49.94933
# Shear Modulus (GPa) = 26.00507 28.38817 27.19662
#
# Velocity S-wave (km/s) = 3.42155 3.57489 3.49906
# Velocity P-wave (km/s) = 6.11421 6.34336 6.22984
#
# Compressibility (1/GPa) = 0.02067506
#
# Stress axis : x y z
#
# Youngs Moduli (GPa) = 60.11242 76.87964 62.08274
#
# Poissons Ratio (x) = 0.48188 0.28955
# Poissons Ratio (y) = 0.37678 0.09969
# Poissons Ratio (z) = 0.28036 0.12345
#
# Static dielectric constant tensor:
#      x y z
#    x 3.721440 0.000000 -0.075010 
#    y 0.000000 4.178750 0.000000 
#    z -0.075010 0.000000 4.096350 
# 
# 
# High freq. dielectric constant tensor:
#      x y z
#    x 1.852750 0.000000 -0.005760 
#    y 0.000000 1.885390 0.000000 
#    z -0.005760 0.000000 1.882550 
# 
# From -- ./inp_files/13297.got.cif
#   From: 2010.03.12/outbox.cif.g09.slc.cpg/sg4_7_cif.got.tgz:13297.got - 2010.03.31 09:31:35.
