data_PCOD8046088
_publ_section_title
;
Structure prediction by ZEFSAII (Michael W. Deem and Ramdas Pophale) SiO2 
 PCOD8046088
Probable space group: P 21
;
_chemical_formula_sum "Si O2"
_cell_formula_units_Z 16
_cell_length_a 6.905132
_cell_length_b 23.839851
_cell_length_c 6.717138
_cell_angle_alpha 90.000000
_cell_angle_beta 42.464737
_cell_angle_gamma 90.000000
_cell_volume 746.536874
_symmetry_space_group_name_H-M "P 21"
_symmetry_group_IT_number 4
_symmetry_cell_setting 'monoclinic'
loop_
_space_group_symop_operation_xyz
x,y,z
-x,1/2+y,-z
loop_
_atom_site_type_symbol
_atom_site_label
_atom_site_fract_x
_atom_site_fract_y
_atom_site_fract_z
Si Si1 0.462337 0.498700 0.762509
Si Si2 0.435831 0.321389 0.790845
Si Si3 0.973120 0.571948 0.292540
Si Si4 0.097665 0.748667 0.735979
Si Si5 0.171391 0.166944 0.340208
Si Si6 0.181921 0.682857 0.048579
Si Si7 0.321843 0.410630 0.550471
Si Si8 0.689013 0.409878 0.888191
O O1 0.667276 0.542157 0.489275
O O2 0.297342 0.463082 0.719661
O O3 0.660038 0.461319 0.756812
O O4 0.228194 0.527228 0.083840
O O5 0.638574 0.267710 0.601310
O O6 0.431699 0.357444 0.592345
O O7 0.545766 0.355194 0.899056
O O8 0.117672 0.300796 0.083632
O O9 0.949220 0.603220 0.528817
O O10 0.038888 0.622819 0.084867
O O11 0.220550 0.730410 0.855692
O O12 0.940424 0.692410 0.780346
O O13 0.512717 0.168260 0.085988
O O14 0.033341 0.206838 0.618412
O O15 0.021742 0.398201 0.672717
O O16 0.548940 0.423796 0.206227
#
# Coordination Sequence:
#
# PCOD8046088 Si02
#       8
#     2   2   2   2   2   2   2   2
#     4  11  22  42  64  92 126 156 208 249 308 360
#     4  11  26  40  66  92 126 156 206 259 302 362
#     4  10  20  43  62  88 132 163 190 268 294 346
#     4  12  24  41  64  94 120 171 202 246 308 362
#     4  10  22  41  59  88 129 162 204 250 291 358
#     4  10  22  41  59  88 129 162 204 250 291 358
#     4  11  24  44  64  94 121 159 205 255 308 374
#     4  11  24  44  64  94 121 159 205 255 308 374
#
# _framework density 21.432295
#
# number of rings (size 3 to 8) (size 9 to 14) (size 15 to 20)
#    0.750    0.500    1.250    4.500    0.000   10.000 
#    6.750    0.000    0.000    0.000    0.000    0.000 
#    0.000    0.000    0.000    0.000    0.000    0.000 
#
# Total GULP energy -198303.567774 kJ/mol
# GULP energy per Si atom -12393.972986 kJ/mol
# Density = 2.138351 g / cm^3
# Si number density = 21.432295 Si / 1000 Ang^3
#
#
#
# Elastic Constant Matrix: (Units=GPa)
#
#
# Indices 1 2 3 4 5 6 
#
# 1 77.2525 18.1052 10.9381 0.0000 -6.6355 0.0000
# 2 18.1052 59.5686 7.0465 0.0000 -2.1118 0.0000
# 3 10.9381 7.0465 77.9660 0.0000 -13.4520 0.0000
# 4 0.0000 0.0000 0.0000 41.2309 0.0000 -5.1364
# 5 -6.6355 -2.1118 -13.4520 0.0000 36.5353 0.0000
# 6 0.0000 0.0000 0.0000 -5.1364 0.0000 23.6735
#
#
#
# Elastic Compliance Matrix: (Units=1/GPa)
#
#
# Indices 1 2 3 4 5 6 
#
# 1 0.014254 -0.004111 -0.001305 0.000000 0.001870 0.000000
# 2 -0.004111 0.018162 -0.001081 0.000000 -0.000095 0.000000
# 3 -0.001305 -0.001081 0.013941 0.000000 0.004833 0.000000
# 4 0.000000 0.000000 0.000000 0.024927 0.000000 0.005408
# 5 0.001870 -0.000095 0.004833 0.000000 0.029485 0.000000
# 6 0.000000 0.000000 0.000000 0.005408 0.000000 0.043415
#
#
# Mechanical properties :
#
#
# Convention : Reuss Voigt Hill
#
# Bulk Modulus (GPa) = 29.97576 31.88518 30.93047
# Shear Modulus (GPa) = 29.70909 32.20110 30.95510
#
# Velocity S-wave (km/s) = 3.72719 3.88036 3.80454
# Velocity P-wave (km/s) = 5.70431 5.91487 5.81055
#
# Compressibility (1/GPa) = 0.03336028
#
# Stress axis : x y z
#
# Youngs Moduli (GPa) = 70.15754 55.06148 71.73154
#
# Poissons Ratio (x) = 0.22639 0.09364
# Poissons Ratio (y) = 0.28845 0.07754
# Poissons Ratio (z) = 0.09158 0.05952
#
# Static dielectric constant tensor:
#      x y z
#    x 3.592770 0.000000 -0.099610 
#    y 0.000000 3.840880 0.000000 
#    z -0.099610 0.000000 3.858160 
# 
# 
# High freq. dielectric constant tensor:
#      x y z
#    x 1.823390 0.000000 -0.016040 
#    y 0.000000 1.841370 0.000000 
#    z -0.016040 0.000000 1.852890 
# 
# From -- ./inp_files/721.got.cif
#   From: 2010.03.12/outbox.cif.g09.slc.cpg/sg4_1_cif.got.tgz:721.got - 2010.03.31 09:31:35.
