data_PCOD8047402
_publ_section_title
;
Structure prediction by ZEFSAII (Michael W. Deem and Ramdas Pophale) SiO2 
 PCOD8047402
Probable space group: P 21
;
_chemical_formula_sum "Si O2"
_cell_formula_units_Z 14
_cell_length_a 15.678557
_cell_length_b 8.136549
_cell_length_c 16.008070
_cell_angle_alpha 90.000000
_cell_angle_beta 18.700904
_cell_angle_gamma 90.000000
_cell_volume 654.766825
_symmetry_space_group_name_H-M "P 21"
_symmetry_group_IT_number 4
_symmetry_cell_setting 'monoclinic'
loop_
_space_group_symop_operation_xyz
x,y,z
-x,1/2+y,-z
loop_
_atom_site_type_symbol
_atom_site_label
_atom_site_fract_x
_atom_site_fract_y
_atom_site_fract_z
Si Si1 0.776839 0.049080 0.015695
Si Si2 0.825492 0.617599 0.658308
Si Si3 0.366935 0.977331 0.698619
Si Si4 0.499276 0.366829 0.250848
Si Si5 0.825406 0.112722 0.157147
Si Si6 0.633863 0.981565 0.799685
Si Si7 0.779100 0.549957 0.515079
O O1 0.998297 0.969047 0.750471
O O2 0.755586 0.244849 0.013338
O O3 0.845837 0.022881 0.048406
O O4 0.498610 0.959882 0.250426
O O5 0.745842 0.805125 0.721505
O O6 0.847108 0.526145 0.548914
O O7 0.117951 0.607920 0.428539
O O8 0.600307 0.528142 0.920461
O O9 0.493878 0.980331 0.673372
O O10 0.255126 0.800279 0.777831
O O11 0.601059 0.022014 0.418393
O O12 0.118459 0.103317 0.926375
O O13 0.492716 0.482114 0.175454
O O14 0.242615 0.245183 0.488015
#
# Coordination Sequence:
#
# PCOD8047402 Si02
#       7
#     2   2   2   2   2   2   2
#     4   9  18  34  61  88 110 156 215 238 273 363
#     4  11  23  38  66  94 120 160 203 259 296 363
#     4  11  23  40  65  91 125 156 211 244 311 352
#     4   8  22  34  66  82 120 162 212 230 294 378
#     4  11  23  38  66  94 120 160 203 259 296 363
#     4  11  23  40  65  91 125 156 211 244 311 352
#     4   9  18  34  61  88 110 156 215 238 273 363
#
# _framework density 21.381658000000002
#
# number of rings (size 3 to 8) (size 9 to 14) (size 15 to 20)
#    0.857    1.143    0.000    3.429    8.000    0.000 
#    0.000    0.000   31.429    0.000    0.000    0.000 
#    0.000    0.000    0.000    0.000    0.000    0.000 
#
# Total GULP energy -173523.451969 kJ/mol
# GULP energy per Si atom -12394.532284 kJ/mol
# Density = 2.133299 g / cm^3
# Si number density = 21.381658 Si / 1000 Ang^3
#
#
#
# Elastic Constant Matrix: (Units=GPa)
#
#
# Indices 1 2 3 4 5 6 
#
# 1 158.5252 37.8270 66.1329 0.0000 9.3355 0.0000
# 2 37.8270 31.2974 16.5260 0.0000 13.2216 0.0000
# 3 66.1329 16.5260 183.7161 0.0000 18.2071 0.0000
# 4 0.0000 0.0000 0.0000 21.8560 0.0000 1.4334
# 5 9.3355 13.2216 18.2071 0.0000 31.2959 0.0000
# 6 0.0000 0.0000 0.0000 1.4334 0.0000 33.7202
#
#
#
# Elastic Compliance Matrix: (Units=1/GPa)
#
#
# Indices 1 2 3 4 5 6 
#
# 1 0.010316 -0.012572 -0.002975 0.000000 0.003965 0.000000
# 2 -0.012572 0.054908 0.001606 0.000000 -0.020381 0.000000
# 3 -0.002975 0.001606 0.006738 0.000000 -0.003711 0.000000
# 4 0.000000 0.000000 0.000000 0.045882 0.000000 -0.001950
# 5 0.003965 -0.020381 -0.003711 0.000000 0.041540 0.000000
# 6 0.000000 0.000000 0.000000 -0.001950 0.000000 0.029739
#
#
# Mechanical properties :
#
#
# Convention : Reuss Voigt Hill
#
# Bulk Modulus (GPa) = 22.68639 68.27896 45.48268
# Shear Modulus (GPa) = 21.57986 34.24461 27.91224
#
# Velocity S-wave (km/s) = 3.18035 4.00633 3.61699
# Velocity P-wave (km/s) = 4.91115 7.30778 6.22587
#
# Compressibility (1/GPa) = 0.04407928
#
# Stress axis : x y z
#
# Youngs Moduli (GPa) = 96.93821 18.21216 148.42206
#
# Poissons Ratio (x) = 0.22896 0.44163
# Poissons Ratio (y) = 1.21871 -0.23840
# Poissons Ratio (z) = 0.28844 -0.02925
#
# Static dielectric constant tensor:
#      x y z
#    x 4.036350 0.000000 -0.055120 
#    y 0.000000 3.437530 0.000000 
#    z -0.055120 0.000000 3.840850 
# 
# 
# High freq. dielectric constant tensor:
#      x y z
#    x 1.851130 0.000000 -0.000500 
#    y 0.000000 1.795630 0.000000 
#    z -0.000500 0.000000 1.846860 
# 
# From -- ./inp_files/14146.got.cif
#   From: 2010.03.12/outbox.cif.g09.slc.cpg/sg4_8_cif.got.tgz:14146.got - 2010.03.31 09:31:35.
