data_PCOD8047535
_publ_section_title
;
Structure prediction by ZEFSAII (Michael W. Deem and Ramdas Pophale) SiO2 
 PCOD8047535
Probable space group: P 21
;
_chemical_formula_sum "Si O2"
_cell_formula_units_Z 14
_cell_length_a 13.987348
_cell_length_b 8.915721
_cell_length_c 8.240993
_cell_angle_alpha 90.000000
_cell_angle_beta 149.428503
_cell_angle_gamma 90.000000
_cell_volume 522.707807
_symmetry_space_group_name_H-M "P 21"
_symmetry_group_IT_number 4
_symmetry_cell_setting 'monoclinic'
loop_
_space_group_symop_operation_xyz
x,y,z
-x,1/2+y,-z
loop_
_atom_site_type_symbol
_atom_site_label
_atom_site_fract_x
_atom_site_fract_y
_atom_site_fract_z
Si Si1 0.380654 0.986230 0.565151
Si Si2 0.600541 0.941627 0.315297
Si Si3 0.820535 0.186762 0.770145
Si Si4 0.785979 0.104720 0.093484
Si Si5 0.801391 0.738041 0.836954
Si Si6 0.676494 0.673828 0.210494
Si Si7 0.029702 0.322258 0.576625
O O1 0.340030 0.810839 0.500015
O O2 0.276623 0.068015 0.261630
O O3 0.283580 0.068070 0.577181
O O4 0.602525 0.017026 0.885564
O O5 0.622290 0.836472 0.507874
O O6 0.576651 0.832200 0.123208
O O7 0.788107 0.048159 0.597033
O O8 0.436796 0.067982 0.081640
O O9 0.791716 0.127495 0.910136
O O10 0.026698 0.254062 0.040554
O O11 0.814443 0.261410 0.238226
O O12 0.959027 0.001441 0.416390
O O13 0.866637 0.791019 0.104514
O O14 0.871450 0.729783 0.423092
#
# Coordination Sequence:
#
# PCOD8047535 Si02
#       7
#     2   2   2   2   2   2   2
#     4  11  28  49  79 119 149 209 260 319 392 452
#     4  11  23  47  75 108 152 196 259 309 391 451
#     4  12  26  49  81 108 160 200 260 319 390 463
#     4  12  29  50  76 116 154 209 257 325 385 461
#     4  11  27  47  79 112 154 207 255 317 391 464
#     4  11  26  47  77 112 154 201 252 324 381 465
#     4  12  29  49  75 115 157 206 263 313 392 454
#
# _framework density 26.783605999999999
#
# number of rings (size 3 to 8) (size 9 to 14) (size 15 to 20)
#    0.000    0.571    1.429    5.143   12.000    2.286 
#    0.000    0.000    0.000    0.000    0.000    0.000 
#    0.000    0.000    0.000    0.000    0.000    0.000 
#
# Total GULP energy -173449.273882 kJ/mol
# GULP energy per Si atom -12389.233849 kJ/mol
# Density = 2.672264 g / cm^3
# Si number density = 26.783606 Si / 1000 Ang^3
#
#
#
# Elastic Constant Matrix: (Units=GPa)
#
#
# Indices 1 2 3 4 5 6 
#
# 1 70.3953 27.2284 4.7364 0.0000 -16.2743 0.0000
# 2 27.2284 166.0300 36.8371 0.0000 -2.0261 0.0000
# 3 4.7364 36.8371 74.1571 0.0000 -12.3078 0.0000
# 4 0.0000 0.0000 0.0000 77.3740 0.0000 -6.2017
# 5 -16.2743 -2.0261 -12.3078 0.0000 22.8836 0.0000
# 6 0.0000 0.0000 0.0000 -6.2017 0.0000 32.1720
#
#
#
# Elastic Compliance Matrix: (Units=1/GPa)
#
#
# Indices 1 2 3 4 5 6 
#
# 1 0.018769 -0.003566 0.003004 0.000000 0.014648 0.000000
# 2 -0.003566 0.007483 -0.004173 0.000000 -0.004118 0.000000
# 3 0.003004 -0.004173 0.017194 0.000000 0.011014 0.000000
# 4 0.000000 0.000000 0.000000 0.013127 0.000000 0.002530
# 5 0.014648 -0.004118 0.011014 0.000000 0.059676 0.000000
# 6 0.000000 0.000000 0.000000 0.002530 0.000000 0.031571
#
#
# Mechanical properties :
#
#
# Convention : Reuss Voigt Hill
#
# Bulk Modulus (GPa) = 29.43247 49.79848 39.61548
# Shear Modulus (GPa) = 29.65319 42.60462 36.12891
#
# Velocity S-wave (km/s) = 3.33098 3.99268 3.67675
# Velocity P-wave (km/s) = 5.08003 6.31574 5.73129
#
# Compressibility (1/GPa) = 0.03397608
#
# Stress axis : x y z
#
# Youngs Moduli (GPa) = 53.27948 133.62942 58.15982
#
# Poissons Ratio (x) = 0.47648 -0.17469
# Poissons Ratio (y) = 0.18998 0.24270
# Poissons Ratio (z) = -0.16003 0.55763
#
# Static dielectric constant tensor:
#      x y z
#    x 4.550380 0.000000 -0.126050 
#    y 0.000000 5.479240 0.000000 
#    z -0.126050 0.000000 4.878080 
# 
# 
# High freq. dielectric constant tensor:
#      x y z
#    x 2.042240 0.000000 -0.012500 
#    y 0.000000 2.110300 0.000000 
#    z -0.012500 0.000000 2.086240 
# 
# From -- ./inp_files/9218.got.cif
#   From: 2010.03.12/outbox.cif.g09.slc.cpg/sg4_5_cif.got.tgz:9218.got - 2010.03.31 09:31:35.
