data_PCOD8047523
_publ_section_title
;
Structure prediction by ZEFSAII (Michael W. Deem and Ramdas Pophale) SiO2 
 PCOD8047523
Probable space group: P 21
;
_chemical_formula_sum "Si O2"
_cell_formula_units_Z 16
_cell_length_a 15.662340
_cell_length_b 7.782029
_cell_length_c 6.731892
_cell_angle_alpha 90.000000
_cell_angle_beta 119.767817
_cell_angle_gamma 90.000000
_cell_volume 712.243681
_symmetry_space_group_name_H-M "P 21"
_symmetry_group_IT_number 4
_symmetry_cell_setting 'monoclinic'
loop_
_space_group_symop_operation_xyz
x,y,z
-x,1/2+y,-z
loop_
_atom_site_type_symbol
_atom_site_label
_atom_site_fract_x
_atom_site_fract_y
_atom_site_fract_z
Si Si1 0.992513 0.070500 0.735739
Si Si2 0.870161 0.339016 0.346818
Si Si3 0.124464 0.289068 0.166253
Si Si4 0.398149 0.550113 0.494633
Si Si5 0.723471 0.573261 0.399989
Si Si6 0.470298 0.903491 0.684335
Si Si7 0.650281 0.896914 0.162601
Si Si8 0.224946 0.566100 0.010521
O O1 0.926743 0.219003 0.565759
O O2 0.065144 0.000537 0.649060
O O3 0.048482 0.152791 0.986878
O O4 0.926670 0.911008 0.731190
O O5 0.775783 0.412972 0.353802
O O6 0.841779 0.231757 0.114827
O O7 0.206492 0.174923 0.367993
O O8 0.166384 0.407391 0.037675
O O9 0.450109 0.702476 0.670381
O O10 0.478417 0.443613 0.465512
O O11 0.348821 0.427838 0.600364
O O12 0.312930 0.624861 0.255227
O O13 0.629927 0.508376 0.415983
O O14 0.682642 0.698080 0.178218
O O15 0.543679 0.941390 0.950706
O O16 0.733169 0.010855 0.154592
#
# Coordination Sequence:
#
# PCOD8047523 Si02
#       8
#     2   2   2   2   2   2   2   2
#     4  12  26  47  70 104 142 184 232 304 363 420
#     4  12  26  45  72 105 141 185 239 291 363 427
#     4  12  25  45  74 101 144 185 240 294 360 425
#     4  11  24  44  67 101 144 184 235 287 350 416
#     4  12  25  43  73 104 141 187 238 290 350 427
#     4  11  26  40  71  99 144 186 233 288 351 418
#     4  11  23  47  66 104 145 186 229 294 349 412
#     4  11  25  43  73 102 139 189 232 288 346 427
#
# _framework density 22.464223
#
# number of rings (size 3 to 8) (size 9 to 14) (size 15 to 20)
#    0.000    0.500    1.250    6.750    5.250    4.000 
#    0.000    0.000    0.000    0.000    0.000    0.000 
#    0.000    0.000    0.000    0.000    0.000    0.000 
#
# Total GULP energy -198489.887642 kJ/mol
# GULP energy per Si atom -12405.617978 kJ/mol
# Density = 2.241309 g / cm^3
# Si number density = 22.464223 Si / 1000 Ang^3
#
#
#
# Elastic Constant Matrix: (Units=GPa)
#
#
# Indices 1 2 3 4 5 6 
#
# 1 104.4172 27.6205 45.0932 0.0000 0.0253 0.0000
# 2 27.6205 99.6209 35.2830 0.0000 6.5669 0.0000
# 3 45.0932 35.2830 87.5072 0.0000 -7.5622 0.0000
# 4 0.0000 0.0000 0.0000 54.6073 0.0000 0.9004
# 5 0.0253 6.5669 -7.5622 0.0000 31.5008 0.0000
# 6 0.0000 0.0000 0.0000 0.9004 0.0000 51.0200
#
#
#
# Elastic Compliance Matrix: (Units=1/GPa)
#
#
# Indices 1 2 3 4 5 6 
#
# 1 0.012522 -0.001249 -0.006053 0.000000 -0.001203 0.000000
# 2 -0.001249 0.012261 -0.004617 0.000000 -0.003663 0.000000
# 3 -0.006053 -0.004617 0.016841 0.000000 0.005010 0.000000
# 4 0.000000 0.000000 0.000000 0.018318 0.000000 -0.000323
# 5 -0.001203 -0.003663 0.005010 0.000000 0.033713 0.000000
# 6 0.000000 0.000000 0.000000 -0.000323 0.000000 0.019606
#
#
# Mechanical properties :
#
#
# Convention : Reuss Voigt Hill
#
# Bulk Modulus (GPa) = 56.22084 56.39318 56.30701
# Shear Modulus (GPa) = 34.95876 39.66220 37.31048
#
# Velocity S-wave (km/s) = 3.94915 4.20643 4.07982
# Velocity P-wave (km/s) = 6.77315 6.98213 6.87843
#
# Compressibility (1/GPa) = 0.01778700
#
# Stress axis : x y z
#
# Youngs Moduli (GPa) = 79.86233 81.56052 59.37807
#
# Poissons Ratio (x) = 0.10184 0.35941
# Poissons Ratio (y) = 0.09971 0.27413
# Poissons Ratio (z) = 0.48340 0.37654
#
# Static dielectric constant tensor:
#      x y z
#    x 4.213440 0.000000 0.060130 
#    y 0.000000 4.105900 0.000000 
#    z 0.060130 0.000000 3.977730 
# 
# 
# High freq. dielectric constant tensor:
#      x y z
#    x 1.899640 0.000000 0.005390 
#    y 0.000000 1.896860 0.000000 
#    z 0.005390 0.000000 1.889410 
# 
# From -- ./inp_files/3719.got.cif
#   From: 2010.03.12/outbox.cif.g09.slc.cpg/sg4_2_cif.got.tgz:3719.got - 2010.03.31 09:31:35.
