data_PCOD8047294
_publ_section_title
;
Structure prediction by ZEFSAII (Michael W. Deem and Ramdas Pophale) SiO2 
 PCOD8047294
Probable space group: P 21
;
_chemical_formula_sum "Si O2"
_cell_formula_units_Z 16
_cell_length_a 11.792691
_cell_length_b 9.431478
_cell_length_c 17.511081
_cell_angle_alpha 90.000000
_cell_angle_beta 21.379928
_cell_angle_gamma 90.000000
_cell_volume 710.008323
_symmetry_space_group_name_H-M "P 21"
_symmetry_group_IT_number 4
_symmetry_cell_setting 'monoclinic'
loop_
_space_group_symop_operation_xyz
x,y,z
-x,1/2+y,-z
loop_
_atom_site_type_symbol
_atom_site_label
_atom_site_fract_x
_atom_site_fract_y
_atom_site_fract_z
Si Si1 0.943985 0.068550 0.785108
Si Si2 0.847649 0.658571 0.181030
Si Si3 0.055979 0.320284 0.608966
Si Si4 0.069588 0.780843 0.477773
Si Si5 0.209910 0.793976 0.550317
Si Si6 0.745400 0.407758 0.139333
Si Si7 0.316224 0.068397 0.108360
Si Si8 0.389402 0.512526 0.231406
O O1 0.025664 0.142797 0.813192
O O2 0.034085 0.165110 0.657002
O O3 0.572292 0.044998 0.014447
O O4 0.144034 0.925710 0.647162
O O5 0.485080 0.701292 0.413536
O O6 0.897409 0.508306 0.108052
O O7 0.023435 0.780290 0.024166
O O8 0.419309 0.347846 0.372420
O O9 0.865151 0.337110 0.648801
O O10 0.901904 0.431228 0.763489
O O11 0.287520 0.834633 0.412170
O O12 0.112180 0.608863 0.444675
O O13 0.731262 0.851517 0.709438
O O14 0.892049 0.704099 0.741778
O O15 0.684218 0.504496 0.103086
O O16 0.492937 0.090717 0.917806
#
# Coordination Sequence:
#
# PCOD8047294 Si02
#       8
#     2   2   2   2   2   2   2   2
#     4  12  28  43  73 115 143 193 236 306 369 444
#     4  12  29  50  73 105 149 202 244 303 370 446
#     4  11  24  46  73 108 150 183 244 307 371 426
#     4  11  21  44  71 104 140 187 239 292 362 423
#     4  12  26  48  74 108 146 190 252 294 371 440
#     4  11  27  50  71 104 145 198 248 300 366 439
#     4  12  24  46  74 109 146 183 241 307 370 426
#     4  11  23  43  73 105 145 186 236 307 357 430
#
# _framework density 22.534946999999999
#
# number of rings (size 3 to 8) (size 9 to 14) (size 15 to 20)
#    0.000    0.500    5.000    2.250    7.000    3.000 
#    0.000    0.000    0.000    0.000    0.000    0.000 
#    0.000    0.000    0.000    0.000    0.000    0.000 
#
# Total GULP energy -198269.884999 kJ/mol
# GULP energy per Si atom -12391.867812 kJ/mol
# Density = 2.248366 g / cm^3
# Si number density = 22.534947 Si / 1000 Ang^3
#
#
#
# Elastic Constant Matrix: (Units=GPa)
#
#
# Indices 1 2 3 4 5 6 
#
# 1 97.7373 19.2017 43.1289 0.0000 0.4438 0.0000
# 2 19.2017 111.8242 52.6357 0.0000 4.2607 0.0000
# 3 43.1289 52.6357 101.8039 0.0000 -1.8616 0.0000
# 4 0.0000 0.0000 0.0000 42.6295 0.0000 3.3507
# 5 0.4438 4.2607 -1.8616 0.0000 21.8068 0.0000
# 6 0.0000 0.0000 0.0000 3.3507 0.0000 40.9808
#
#
#
# Elastic Compliance Matrix: (Units=1/GPa)
#
#
# Indices 1 2 3 4 5 6 
#
# 1 0.012617 0.000514 -0.005626 0.000000 -0.000837 0.000000
# 2 0.000514 0.012017 -0.006484 0.000000 -0.002912 0.000000
# 3 -0.005626 -0.006484 0.015608 0.000000 0.002714 0.000000
# 4 0.000000 0.000000 0.000000 0.023610 0.000000 -0.001930
# 5 -0.000837 -0.002912 0.002714 0.000000 0.046675 0.000000
# 6 0.000000 0.000000 0.000000 -0.001930 0.000000 0.024560
#
#
# Mechanical properties :
#
#
# Convention : Reuss Voigt Hill
#
# Bulk Modulus (GPa) = 58.65241 60.14421 59.39831
# Shear Modulus (GPa) = 30.49457 34.17669 32.33563
#
# Velocity S-wave (km/s) = 3.68259 3.89859 3.79213
# Velocity P-wave (km/s) = 6.64574 6.85657 6.75198
#
# Compressibility (1/GPa) = 0.01704960
#
# Stress axis : x y z
#
# Youngs Moduli (GPa) = 79.25805 83.21199 64.06808
#
# Poissons Ratio (x) = -0.04273 0.36045
# Poissons Ratio (y) = -0.04070 0.41543
# Poissons Ratio (z) = 0.44590 0.53956
#
# Static dielectric constant tensor:
#      x y z
#    x 4.205200 0.000000 0.022220 
#    y 0.000000 4.099810 0.000000 
#    z 0.022220 0.000000 3.913160 
# 
# 
# High freq. dielectric constant tensor:
#      x y z
#    x 1.897300 0.000000 0.006880 
#    y 0.000000 1.896100 0.000000 
#    z 0.006880 0.000000 1.874090 
# 
# From -- ./inp_files/15150.got.cif
#   From: 2010.03.12/outbox.cif.g09.slc.cpg/sg4_8_cif.got.tgz:15150.got - 2010.03.31 09:31:35.
