data_PCOD8047801
_publ_section_title
;
Structure prediction by ZEFSAII (Michael W. Deem and Ramdas Pophale) SiO2 
 PCOD8047801
Probable space group: P 21
;
_chemical_formula_sum "Si O2"
_cell_formula_units_Z 10
_cell_length_a 4.706214
_cell_length_b 8.810431
_cell_length_c 8.796271
_cell_angle_alpha 90.000000
_cell_angle_beta 63.146464
_cell_angle_gamma 90.000000
_cell_volume 325.395984
_symmetry_space_group_name_H-M "P 21"
_symmetry_group_IT_number 4
_symmetry_cell_setting 'monoclinic'
loop_
_space_group_symop_operation_xyz
x,y,z
-x,1/2+y,-z
loop_
_atom_site_type_symbol
_atom_site_label
_atom_site_fract_x
_atom_site_fract_y
_atom_site_fract_z
Si Si1 0.118848 0.123600 0.934019
Si Si2 0.343891 0.545948 0.482551
Si Si3 0.097426 0.782459 0.296503
Si Si4 0.393609 0.414286 0.046574
Si Si5 0.372799 0.774562 0.734738
O O1 0.964004 0.232371 0.101519
O O2 0.455103 0.069523 0.922697
O O3 0.154250 0.210641 0.763969
O O4 0.929437 0.967146 0.956078
O O5 0.189138 0.662091 0.402080
O O6 0.477351 0.641207 0.595031
O O7 0.637622 0.441937 0.345632
O O8 0.065825 0.429368 0.593272
O O9 0.419566 0.834224 0.134807
O O10 0.360095 0.294487 0.196309
#
# Coordination Sequence:
#
# PCOD8047801 Si02
#       5
#     2   2   2   2   2
#     4  11  26  53  80 115 156 217 264 325 390 489
#     4  12  28  48  76 124 154 216 250 352 382 486
#     4  11  28  48  80 113 164 202 272 317 410 460
#     4  11  26  53  80 115 156 217 264 325 390 489
#     4  11  28  48  80 113 164 202 272 317 410 460
#
# _framework density 30.731783
#
# number of rings (size 3 to 8) (size 9 to 14) (size 15 to 20)
#    0.000    0.800    4.000    0.000   11.200    6.400 
#    0.000    0.000    0.000    0.000    0.000    0.000 
#    0.000    0.000    0.000    0.000    0.000    0.000 
#
# Total GULP energy -123976.600089 kJ/mol
# GULP energy per Si atom -12397.660009 kJ/mol
# Density = 3.066184 g / cm^3
# Si number density = 30.731783 Si / 1000 Ang^3
#
#
#
# Elastic Constant Matrix: (Units=GPa)
#
#
# Indices 1 2 3 4 5 6 
#
# 1 60.6823 63.4243 32.6973 0.0000 17.7257 0.0000
# 2 63.4243 240.2326 123.2324 0.0000 25.7085 0.0000
# 3 32.6973 123.2324 210.3889 0.0000 15.2458 0.0000
# 4 0.0000 0.0000 0.0000 83.8783 0.0000 24.1475
# 5 17.7257 25.7085 15.2458 0.0000 34.9768 0.0000
# 6 0.0000 0.0000 0.0000 24.1475 0.0000 69.4051
#
#
#
# Elastic Compliance Matrix: (Units=1/GPa)
#
#
# Indices 1 2 3 4 5 6 
#
# 1 0.024862 -0.005707 0.000091 0.000000 -0.008445 0.000000
# 2 -0.005707 0.007570 -0.003463 0.000000 -0.001163 0.000000
# 3 0.000091 -0.003463 0.006801 0.000000 -0.000465 0.000000
# 4 0.000000 0.000000 0.000000 0.013249 0.000000 -0.004610
# 5 -0.008445 -0.001163 -0.000465 0.000000 0.033927 0.000000
# 6 0.000000 0.000000 0.000000 -0.004610 0.000000 0.016012
#
#
# Mechanical properties :
#
#
# Convention : Reuss Voigt Hill
#
# Bulk Modulus (GPa) = 47.44958 105.55687 76.50322
# Shear Modulus (GPa) = 39.18385 57.11536 48.14961
#
# Velocity S-wave (km/s) = 3.57463 4.31572 3.96254
# Velocity P-wave (km/s) = 5.70181 7.69781 6.77374
#
# Compressibility (1/GPa) = 0.02107500
#
# Stress axis : x y z
#
# Youngs Moduli (GPa) = 40.22276 132.09983 147.03562
#
# Poissons Ratio (x) = 0.75384 -0.01333
# Poissons Ratio (y) = 0.22953 0.50917
# Poissons Ratio (z) = -0.00365 0.45745
#
# Static dielectric constant tensor:
#      x y z
#    x 5.476190 0.000000 0.061070 
#    y 0.000000 6.403260 0.000000 
#    z 0.061070 0.000000 6.629590 
# 
# 
# High freq. dielectric constant tensor:
#      x y z
#    x 2.258540 0.000000 0.002940 
#    y 0.000000 2.322440 0.000000 
#    z 0.002940 0.000000 2.285130 
# 
# From -- ./inp_files/4478.got.cif
#   From: 2010.03.12/outbox.cif.g09.slc.cpg/sg4_3_cif.got.tgz:4478.got - 2010.03.31 09:31:35.
