data_PCOD8047283
_publ_section_title
;
Structure prediction by ZEFSAII (Michael W. Deem and Ramdas Pophale) SiO2 
 PCOD8047283
Probable space group: P 21
;
_chemical_formula_sum "Si O2"
_cell_formula_units_Z 16
_cell_length_a 12.895036
_cell_length_b 11.685393
_cell_length_c 9.683601
_cell_angle_alpha 90.000000
_cell_angle_beta 31.577413
_cell_angle_gamma 90.000000
_cell_volume 764.089020
_symmetry_space_group_name_H-M "P 21"
_symmetry_group_IT_number 4
_symmetry_cell_setting 'monoclinic'
loop_
_space_group_symop_operation_xyz
x,y,z
-x,1/2+y,-z
loop_
_atom_site_type_symbol
_atom_site_label
_atom_site_fract_x
_atom_site_fract_y
_atom_site_fract_z
Si Si1 0.899778 0.452300 0.815090
Si Si2 0.217364 0.287985 0.419050
Si Si3 0.296351 0.999459 0.684295
Si Si4 0.058427 0.205261 0.878139
Si Si5 0.003165 0.196596 0.399678
Si Si6 0.985846 0.379923 0.180971
Si Si7 0.334464 0.745270 0.035934
Si Si8 0.280329 0.575948 0.849226
O O1 0.787982 0.362515 0.843312
O O2 0.131739 0.414723 0.551135
O O3 0.891153 0.581771 0.773384
O O4 0.791089 0.433202 0.084495
O O5 0.118770 0.208238 0.648459
O O6 0.154762 0.246704 0.339094
O O7 0.452254 0.284751 0.155370
O O8 0.210772 0.126904 0.788016
O O9 0.533038 0.008543 0.426275
O O10 0.225792 0.936339 0.622499
O O11 0.069225 0.326339 0.943338
O O12 0.837160 0.148970 0.134495
O O13 0.962412 0.283043 0.320942
O O14 0.786848 0.173161 0.711526
O O15 0.131600 0.477874 0.073648
O O16 0.355818 0.663124 0.880109
#
# Coordination Sequence:
#
# PCOD8047283 Si02
#       8
#     2   2   2   2   2   2   2   2
#     4  11  24  45  71 100 134 179 226 284 333 401
#     4  11  24  45  68  94 136 180 223 275 338 400
#     4  11  23  40  72 101 132 178 224 279 339 397
#     4  11  21  43  66  93 139 175 217 278 335 384
#     4  11  26  47  65  99 140 174 228 278 335 407
#     4  11  25  43  68 100 137 175 220 286 337 393
#     4  11  25  44  70  98 136 186 223 273 341 409
#     4  11  24  41  70 101 136 173 229 275 338 405
#
# _framework density 20.939968
#
# number of rings (size 3 to 8) (size 9 to 14) (size 15 to 20)
#    0.000    1.000    6.250    0.000    5.250    3.000 
#    2.250    0.000    0.000    0.000    0.000    0.000 
#    0.000    0.000    0.000    0.000    0.000    0.000 
#
# Total GULP energy -198327.734863 kJ/mol
# GULP energy per Si atom -12395.483429 kJ/mol
# Density = 2.089231 g / cm^3
# Si number density = 20.939968 Si / 1000 Ang^3
#
#
#
# Elastic Constant Matrix: (Units=GPa)
#
#
# Indices 1 2 3 4 5 6 
#
# 1 84.1157 30.9589 50.2040 0.0000 -10.5687 0.0000
# 2 30.9589 96.0535 25.4574 0.0000 -3.2608 0.0000
# 3 50.2040 25.4574 91.7558 0.0000 -13.0753 0.0000
# 4 0.0000 0.0000 0.0000 32.1639 0.0000 1.9119
# 5 -10.5687 -3.2608 -13.0753 0.0000 38.1588 0.0000
# 6 0.0000 0.0000 0.0000 1.9119 0.0000 29.4991
#
#
#
# Elastic Compliance Matrix: (Units=1/GPa)
#
#
# Indices 1 2 3 4 5 6 
#
# 1 0.018849 -0.003615 -0.009052 0.000000 0.001810 0.000000
# 2 -0.003615 0.011931 -0.001398 0.000000 -0.000461 0.000000
# 3 -0.009052 -0.001398 0.016680 0.000000 0.003089 0.000000
# 4 0.000000 0.000000 0.000000 0.031211 0.000000 -0.002023
# 5 0.001810 -0.000461 0.003089 0.000000 0.027726 0.000000
# 6 0.000000 0.000000 0.000000 -0.002023 0.000000 0.034030
#
#
# Mechanical properties :
#
#
# Convention : Reuss Voigt Hill
#
# Bulk Modulus (GPa) = 51.73542 53.90728 52.82135
# Shear Modulus (GPa) = 28.57133 30.98468 29.77801
#
# Velocity S-wave (km/s) = 3.69784 3.85085 3.77512
# Velocity P-wave (km/s) = 6.55684 6.75068 6.65447
#
# Compressibility (1/GPa) = 0.01932912
#
# Stress axis : x y z
#
# Youngs Moduli (GPa) = 53.05315 83.81680 59.95362
#
# Poissons Ratio (x) = 0.30296 0.54273
# Poissons Ratio (y) = 0.19176 0.08382
# Poissons Ratio (z) = 0.48026 0.11719
#
# Static dielectric constant tensor:
#      x y z
#    x 3.802410 0.000000 -0.022400 
#    y 0.000000 3.834130 0.000000 
#    z -0.022400 0.000000 3.719240 
# 
# 
# High freq. dielectric constant tensor:
#      x y z
#    x 1.820190 0.000000 -0.003500 
#    y 0.000000 1.829160 0.000000 
#    z -0.003500 0.000000 1.806940 
# 
# From -- ./inp_files/8436.got.cif
#   From: 2010.03.12/outbox.cif.g09.slc.cpg/sg4_5_cif.got.tgz:8436.got - 2010.03.31 09:31:35.
