data_PCOD8047986
_publ_section_title
;
Structure prediction by ZEFSAII (Michael W. Deem and Ramdas Pophale) SiO2 
 PCOD8047986
Probable space group: P 21
;
_chemical_formula_sum "Si O2"
_cell_formula_units_Z 10
_cell_length_a 15.553148
_cell_length_b 5.494675
_cell_length_c 14.588232
_cell_angle_alpha 90.000000
_cell_angle_beta 17.793534
_cell_angle_gamma 90.000000
_cell_volume 380.977267
_symmetry_space_group_name_H-M "P 21"
_symmetry_group_IT_number 4
_symmetry_cell_setting 'monoclinic'
loop_
_space_group_symop_operation_xyz
x,y,z
-x,1/2+y,-z
loop_
_atom_site_type_symbol
_atom_site_label
_atom_site_fract_x
_atom_site_fract_y
_atom_site_fract_z
Si Si1 0.490760 0.709860 0.779660
Si Si2 0.823284 0.384227 0.572299
Si Si3 0.997340 0.769362 0.152226
Si Si4 0.676459 0.540591 0.320488
Si Si5 0.683226 0.582805 0.900517
O O1 0.669461 0.486159 0.638599
O O2 0.736119 0.868118 0.479922
O O3 0.248758 0.635877 0.953366
O O4 0.319349 0.843955 0.034420
O O5 0.832728 0.563696 0.649719
O O6 0.138546 0.294626 0.227952
O O7 0.638716 0.152456 0.790957
O O8 0.878438 0.565261 0.203581
O O9 0.124346 0.003095 0.970490
O O10 0.503179 0.791508 0.484831
#
# Coordination Sequence:
#
# PCOD8047986 Si02
#       5
#     2   2   2   2   2
#     4  12  28  52  78 124 160 206 286 334 402 498
#     4  12  26  48  79 112 162 220 267 335 408 479
#     4  12  28  54  86 118 164 214 274 352 420 506
#     4  12  28  60  90 122 170 224 274 354 438 506
#     4  12  26  48  79 112 162 220 267 335 408 479
#
# _framework density 26.248284000000002
#
# number of rings (size 3 to 8) (size 9 to 14) (size 15 to 20)
#    0.000    0.000    4.000    4.800    2.800    1.600 
#   18.000    0.000    0.000    0.000    0.000    0.000 
#    0.000    0.000    0.000    0.000    0.000    0.000 
#
# Total GULP energy -123959.416926 kJ/mol
# GULP energy per Si atom -12395.941693 kJ/mol
# Density = 2.618854 g / cm^3
# Si number density = 26.248284 Si / 1000 Ang^3
#
#
#
# Elastic Constant Matrix: (Units=GPa)
#
#
# Indices 1 2 3 4 5 6 
#
# 1 143.2440 35.2717 45.5665 0.0000 -36.8108 0.0000
# 2 35.2717 100.1054 22.8930 0.0000 -20.1401 0.0000
# 3 45.5665 22.8930 139.8295 0.0000 -14.5734 0.0000
# 4 0.0000 0.0000 0.0000 48.5964 0.0000 -10.6038
# 5 -36.8108 -20.1401 -14.5734 0.0000 56.6379 0.0000
# 6 0.0000 0.0000 0.0000 -10.6038 0.0000 20.2965
#
#
#
# Elastic Compliance Matrix: (Units=1/GPa)
#
#
# Indices 1 2 3 4 5 6 
#
# 1 0.009401 -0.001813 -0.002258 0.000000 0.004884 0.000000
# 2 -0.001813 0.011383 -0.001000 0.000000 0.002612 0.000000
# 3 -0.002258 -0.001000 0.008078 0.000000 0.000255 0.000000
# 4 0.000000 0.000000 0.000000 0.023225 0.000000 0.012134
# 5 0.004884 0.002612 0.000255 0.000000 0.021825 0.000000
# 6 0.000000 0.000000 0.000000 0.012134 0.000000 0.055609
#
#
# Mechanical properties :
#
#
# Convention : Reuss Voigt Hill
#
# Bulk Modulus (GPa) = 53.42359 65.62682 59.52521
# Shear Modulus (GPa) = 34.26947 43.73602 39.00274
#
# Velocity S-wave (km/s) = 3.61721 4.08639 3.85894
# Velocity P-wave (km/s) = 6.15167 6.87906 6.52550
#
# Compressibility (1/GPa) = 0.01871832
#
# Stress axis : x y z
#
# Youngs Moduli (GPa) = 106.37271 87.85316 123.79834
#
# Poissons Ratio (x) = 0.15932 0.27948
# Poissons Ratio (y) = 0.19290 0.12385
# Poissons Ratio (z) = 0.24014 0.08789
#
# Static dielectric constant tensor:
#      x y z
#    x 5.112270 0.000000 0.031490 
#    y 0.000000 4.299530 0.000000 
#    z 0.031490 0.000000 5.261790 
# 
# 
# High freq. dielectric constant tensor:
#      x y z
#    x 2.064950 0.000000 -0.010230 
#    y 0.000000 2.017550 0.000000 
#    z -0.010230 0.000000 2.083300 
# 
# From -- ./inp_files/14016.got.cif
#   From: 2010.03.12/outbox.cif.g09.slc.cpg/sg4_8_cif.got.tgz:14016.got - 2010.03.31 09:31:35.
