data_PCOD8047822
_publ_section_title
;
Structure prediction by ZEFSAII (Michael W. Deem and Ramdas Pophale) SiO2 
 PCOD8047822
Probable space group: P 21
;
_chemical_formula_sum "Si O2"
_cell_formula_units_Z 14
_cell_length_a 15.246745
_cell_length_b 5.077402
_cell_length_c 8.024117
_cell_angle_alpha 90.000000
_cell_angle_beta 74.560390
_cell_angle_gamma 90.000000
_cell_volume 598.760498
_symmetry_space_group_name_H-M "P 21"
_symmetry_group_IT_number 4
_symmetry_cell_setting 'monoclinic'
loop_
_space_group_symop_operation_xyz
x,y,z
-x,1/2+y,-z
loop_
_atom_site_type_symbol
_atom_site_label
_atom_site_fract_x
_atom_site_fract_y
_atom_site_fract_z
Si Si1 0.693059 0.048940 0.467701
Si Si2 0.457924 0.471494 0.219538
Si Si3 0.568880 0.974015 0.248544
Si Si4 0.810950 0.548245 0.407442
Si Si5 0.191954 0.988246 0.213478
Si Si6 0.940449 0.548699 0.031251
Si Si7 0.307111 0.486233 0.080919
O O1 0.729958 0.341221 0.420572
O O2 0.650818 0.016766 0.673281
O O3 0.594961 0.002783 0.428889
O O4 0.772161 0.838961 0.395037
O O5 0.531167 0.681768 0.238380
O O6 0.421786 0.499577 0.048133
O O7 0.490993 0.183212 0.246798
O O8 0.674418 0.014312 0.126662
O O9 0.850114 0.520983 0.577675
O O10 0.886978 0.494409 0.230028
O O11 0.237650 0.703542 0.181629
O O12 0.270130 0.199843 0.144288
O O13 0.116271 0.012056 0.109470
O O14 0.975994 0.846711 0.015762
#
# Coordination Sequence:
#
# PCOD8047822 Si02
#       7
#     2   2   2   2   2   2   2
#     4  12  23  42  64  94 131 177 231 266 322 391
#     4  12  22  39  58  94 132 174 232 282 324 371
#     4  12  24  37  60  92 134 180 224 288 330 355
#     4  12  24  46  72  97 133 176 214 266 324 395
#     4  12  24  46  72  97 133 176 214 266 324 395
#     4  12  28  48  74 108 134 160 208 264 332 410
#     4  12  23  42  64  94 131 177 231 266 322 391
#
# _framework density 23.381639
#
# number of rings (size 3 to 8) (size 9 to 14) (size 15 to 20)
#    0.000    0.000    2.857    8.571    0.000    1.143 
#    0.000    0.000    0.000    0.000    0.000    0.000 
#    0.000    0.000    0.000    0.000    0.000    0.000 
#
# Total GULP energy -173505.580318 kJ/mol
# GULP energy per Si atom -12393.255737 kJ/mol
# Density = 2.332842 g / cm^3
# Si number density = 23.381639 Si / 1000 Ang^3
#
#
#
# Elastic Constant Matrix: (Units=GPa)
#
#
# Indices 1 2 3 4 5 6 
#
# 1 106.8182 17.8186 45.4070 0.0000 26.5230 0.0000
# 2 17.8186 93.9086 14.9870 0.0000 6.2169 0.0000
# 3 45.4070 14.9870 98.5869 0.0000 -11.3693 0.0000
# 4 0.0000 0.0000 0.0000 28.7929 0.0000 -4.2766
# 5 26.5230 6.2169 -11.3693 0.0000 44.8095 0.0000
# 6 0.0000 0.0000 0.0000 -4.2766 0.0000 20.2070
#
#
#
# Elastic Compliance Matrix: (Units=1/GPa)
#
#
# Indices 1 2 3 4 5 6 
#
# 1 0.016019 -0.000909 -0.008570 0.000000 -0.011530 0.000000
# 2 -0.000909 0.011141 -0.001433 0.000000 -0.001372 0.000000
# 3 -0.008570 -0.001433 0.015366 0.000000 0.009170 0.000000
# 4 0.000000 0.000000 0.000000 0.035858 0.000000 0.007589
# 5 -0.011530 -0.001372 0.009170 0.000000 0.031658 0.000000
# 6 0.000000 0.000000 0.000000 0.007589 0.000000 0.051094
#
#
# Mechanical properties :
#
#
# Convention : Reuss Voigt Hill
#
# Bulk Modulus (GPa) = 48.30350 50.63766 49.47058
# Shear Modulus (GPa) = 26.33534 33.50194 29.91864
#
# Velocity S-wave (km/s) = 3.35972 3.78938 3.58100
# Velocity P-wave (km/s) = 5.97945 6.39139 6.18885
#
# Compressibility (1/GPa) = 0.02070243
#
# Stress axis : x y z
#
# Youngs Moduli (GPa) = 62.42597 89.76187 65.08013
#
# Poissons Ratio (x) = 0.08156 0.55771
# Poissons Ratio (y) = 0.05672 0.09328
# Poissons Ratio (z) = 0.53496 0.12865
#
# Static dielectric constant tensor:
#      x y z
#    x 3.937320 0.000000 0.333480 
#    y 0.000000 4.070210 0.000000 
#    z 0.333480 0.000000 4.848070 
# 
# 
# High freq. dielectric constant tensor:
#      x y z
#    x 1.915100 0.000000 0.021170 
#    y 0.000000 1.933530 0.000000 
#    z 0.021170 0.000000 1.970030 
# 
# From -- ./inp_files/8581.got.cif
#   From: 2010.03.12/outbox.cif.g09.slc.cpg/sg4_5_cif.got.tgz:8581.got - 2010.03.31 09:31:35.
