data_PCOD8047490
_publ_section_title
;
Structure prediction by ZEFSAII (Michael W. Deem and Ramdas Pophale) SiO2 
 PCOD8047490
Probable space group: P 21
;
_chemical_formula_sum "Si O2"
_cell_formula_units_Z 16
_cell_length_a 9.659758
_cell_length_b 9.078137
_cell_length_c 11.519698
_cell_angle_alpha 90.000000
_cell_angle_beta 131.428856
_cell_angle_gamma 90.000000
_cell_volume 757.419911
_symmetry_space_group_name_H-M "P 21"
_symmetry_group_IT_number 4
_symmetry_cell_setting 'monoclinic'
loop_
_space_group_symop_operation_xyz
x,y,z
-x,1/2+y,-z
loop_
_atom_site_type_symbol
_atom_site_label
_atom_site_fract_x
_atom_site_fract_y
_atom_site_fract_z
Si Si1 0.269506 0.974720 0.647743
Si Si2 0.896832 0.983808 0.299315
Si Si3 0.955855 0.797135 0.895201
Si Si4 0.097632 0.961437 0.180166
Si Si5 0.555444 0.300861 0.622317
Si Si6 0.597100 0.954622 0.662118
Si Si7 0.766826 0.284589 0.152945
Si Si8 0.573702 0.781702 0.203045
O O1 0.429777 0.907591 0.654824
O O2 0.280296 0.913065 0.783788
O O3 0.067947 0.951195 0.479473
O O4 0.309329 0.145665 0.685099
O O5 0.716715 0.893233 0.228631
O O6 0.940786 0.947904 0.189965
O O7 0.836955 0.153074 0.273671
O O8 0.893693 0.626771 0.865772
O O9 0.790269 0.912160 0.828213
O O10 0.067356 0.834053 0.839692
O O11 0.083663 0.833473 0.075672
O O12 0.289786 0.912221 0.344906
O O13 0.390321 0.348884 0.445008
O O14 0.518513 0.351316 0.733609
O O15 0.596914 0.127763 0.632329
O O16 0.585418 0.240615 0.977764
#
# Coordination Sequence:
#
# PCOD8047490 Si02
#       8
#     2   2   2   2   2   2   2   2
#     4  11  25  45  67  97 134 175 225 273 336 396
#     4  11  25  44  69  95 135 177 220 279 330 398
#     4  11  25  41  70  98 134 177 217 279 332 399
#     4  11  23  45  66  98 135 170 225 272 337 395
#     4  11  23  45  66  98 135 170 225 272 337 395
#     4  11  25  41  70  98 134 177 217 279 332 399
#     4  11  25  45  67  97 134 175 225 273 336 396
#     4  11  25  44  69  95 135 177 220 279 330 398
#
# _framework density 21.124347
#
# number of rings (size 3 to 8) (size 9 to 14) (size 15 to 20)
#    0.000    1.000    2.500    3.000   14.000    4.000 
#    0.000    0.000    0.000    0.000    0.000    0.000 
#    0.000    0.000    0.000    0.000    0.000    0.000 
#
# Total GULP energy -198376.584966 kJ/mol
# GULP energy per Si atom -12398.536560 kJ/mol
# Density = 2.107627 g / cm^3
# Si number density = 21.124347 Si / 1000 Ang^3
#
#
#
# Elastic Constant Matrix: (Units=GPa)
#
#
# Indices 1 2 3 4 5 6 
#
# 1 99.9013 48.7512 34.5982 0.0000 6.4306 0.0000
# 2 48.7512 82.9889 19.6903 0.0000 -3.0720 0.0000
# 3 34.5982 19.6903 70.3392 0.0000 -2.0958 0.0000
# 4 0.0000 0.0000 0.0000 45.4485 0.0000 -0.0855
# 5 6.4306 -3.0720 -2.0958 0.0000 35.8384 0.0000
# 6 0.0000 0.0000 0.0000 -0.0855 0.0000 36.3557
#
#
#
# Elastic Compliance Matrix: (Units=1/GPa)
#
#
# Indices 1 2 3 4 5 6 
#
# 1 0.016378 -0.008386 -0.005827 0.000000 -0.003998 0.000000
# 2 -0.008386 0.017230 -0.000610 0.000000 0.002946 0.000000
# 3 -0.005827 -0.000610 0.017314 0.000000 0.002006 0.000000
# 4 0.000000 0.000000 0.000000 0.022003 0.000000 0.000052
# 5 -0.003998 0.002946 0.002006 0.000000 0.028990 0.000000
# 6 0.000000 0.000000 0.000000 0.000052 0.000000 0.027506
#
#
# Mechanical properties :
#
#
# Convention : Reuss Voigt Hill
#
# Bulk Modulus (GPa) = 47.00703 51.03430 49.02066
# Shear Modulus (GPa) = 30.09124 33.54118 31.81621
#
# Velocity S-wave (km/s) = 3.77832 3.98904 3.88511
# Velocity P-wave (km/s) = 6.42924 6.74003 6.58647
#
# Compressibility (1/GPa) = 0.02127341
#
# Stress axis : x y z
#
# Youngs Moduli (GPa) = 61.05759 58.03744 57.75729
#
# Poissons Ratio (x) = 0.48673 0.33658
# Poissons Ratio (y) = 0.51206 0.03526
# Poissons Ratio (z) = 0.35581 0.03543
#
# Static dielectric constant tensor:
#      x y z
#    x 3.906110 0.000000 0.022230 
#    y 0.000000 3.715100 0.000000 
#    z 0.022230 0.000000 3.844700 
# 
# 
# High freq. dielectric constant tensor:
#      x y z
#    x 1.834030 0.000000 0.003350 
#    y 0.000000 1.822690 0.000000 
#    z 0.003350 0.000000 1.848270 
# 
# From -- ./inp_files/5416.got.cif
#   From: 2010.03.12/outbox.cif.g09.slc.cpg/sg4_3_cif.got.tgz:5416.got - 2010.03.31 09:31:35.
