data_PCOD8047250
_publ_section_title
;
Structure prediction by ZEFSAII (Michael W. Deem and Ramdas Pophale) SiO2 
 PCOD8047250
Probable space group: P 21
;
_chemical_formula_sum "Si O2"
_cell_formula_units_Z 16
_cell_length_a 11.078259
_cell_length_b 12.359485
_cell_length_c 11.823259
_cell_angle_alpha 90.000000
_cell_angle_beta 156.008395
_cell_angle_gamma 90.000000
_cell_volume 658.232683
_symmetry_space_group_name_H-M "P 21"
_symmetry_group_IT_number 4
_symmetry_cell_setting 'monoclinic'
loop_
_space_group_symop_operation_xyz
x,y,z
-x,1/2+y,-z
loop_
_atom_site_type_symbol
_atom_site_label
_atom_site_fract_x
_atom_site_fract_y
_atom_site_fract_z
Si Si1 0.055996 0.877480 0.304791
Si Si2 0.497413 0.666351 0.339727
Si Si3 0.852326 0.073657 0.411323
Si Si4 0.485612 0.449802 0.470351
Si Si5 0.437205 0.789557 0.813913
Si Si6 0.837187 0.378609 0.958885
Si Si7 0.676207 0.427996 0.072125
Si Si8 0.879762 0.115718 0.178997
O O1 0.281313 0.868088 0.392268
O O2 0.258443 0.878285 0.589624
O O3 0.899974 0.991700 0.162017
O O4 0.789026 0.789629 0.084298
O O5 0.422260 0.562662 0.352777
O O6 0.307799 0.768909 0.216787
O O7 0.851558 0.686155 0.646320
O O8 0.422517 0.650698 0.141446
O O9 0.688536 0.172752 0.334683
O O10 0.893532 0.127528 0.324325
O O11 0.654103 0.966683 0.237938
O O12 0.154672 0.032778 0.729472
O O13 0.633410 0.470592 0.721453
O O14 0.176869 0.386093 0.212444
O O15 0.365762 0.823894 0.882622
O O16 0.827172 0.388196 0.086093
#
# Coordination Sequence:
#
# PCOD8047250 Si02
#       8
#     2   2   2   2   2   2   2   2
#     4  11  22  43  71  98 135 178 239 294 344 405
#     4  11  24  43  76 106 129 192 250 284 349 414
#     4  12  25  41  69 108 146 187 222 285 377 427
#     4  11  25  47  73 104 141 185 245 305 342 414
#     4  12  23  43  70 106 140 183 229 287 365 433
#     4  12  26  48  72 105 147 190 237 293 364 424
#     4  12  25  46  68 107 149 186 228 297 354 431
#     4  11  20  41  71 102 141 177 236 297 327 426
#
# _framework density 24.307514000000001
#
# number of rings (size 3 to 8) (size 9 to 14) (size 15 to 20)
#    0.000    0.500    2.500    7.500    0.000    2.000 
#    9.000    0.000    0.000    0.000    0.000    0.000 
#    0.000    0.000    0.000    0.000    0.000    0.000 
#
# Total GULP energy -198316.171085 kJ/mol
# GULP energy per Si atom -12394.760693 kJ/mol
# Density = 2.425219 g / cm^3
# Si number density = 24.307514 Si / 1000 Ang^3
#
#
#
# Elastic Constant Matrix: (Units=GPa)
#
#
# Indices 1 2 3 4 5 6 
#
# 1 85.0046 35.0006 19.6036 0.0000 0.1688 0.0000
# 2 35.0006 73.2322 11.6461 0.0000 4.7746 0.0000
# 3 19.6036 11.6461 103.4888 0.0000 -1.6630 0.0000
# 4 0.0000 0.0000 0.0000 30.6801 0.0000 2.5830
# 5 0.1688 4.7746 -1.6630 0.0000 47.8865 0.0000
# 6 0.0000 0.0000 0.0000 2.5830 0.0000 21.5119
#
#
#
# Elastic Compliance Matrix: (Units=1/GPa)
#
#
# Indices 1 2 3 4 5 6 
#
# 1 0.015090 -0.006919 -0.002071 0.000000 0.000565 0.000000
# 2 -0.006919 0.017177 -0.000650 0.000000 -0.001711 0.000000
# 3 -0.002071 -0.000650 0.010135 0.000000 0.000424 0.000000
# 4 0.000000 0.000000 0.000000 0.032927 0.000000 -0.003954
# 5 0.000565 -0.001711 0.000424 0.000000 0.021066 0.000000
# 6 0.000000 0.000000 0.000000 -0.003954 0.000000 0.046961
#
#
# Mechanical properties :
#
#
# Convention : Reuss Voigt Hill
#
# Bulk Modulus (GPa) = 43.24876 43.80294 43.52585
# Shear Modulus (GPa) = 29.35259 33.04739 31.19999
#
# Velocity S-wave (km/s) = 3.47876 3.69121 3.58656
# Velocity P-wave (km/s) = 5.82809 6.01882 5.92422
#
# Compressibility (1/GPa) = 0.02312205
#
# Stress axis : x y z
#
# Youngs Moduli (GPa) = 66.27108 58.21686 98.66750
#
# Poissons Ratio (x) = 0.40283 0.20430
# Poissons Ratio (y) = 0.45856 0.06411
# Poissons Ratio (z) = 0.13722 0.03783
#
# Static dielectric constant tensor:
#      x y z
#    x 4.558840 0.000000 0.001570 
#    y 0.000000 4.176400 0.000000 
#    z 0.001570 0.000000 4.622440 
# 
# 
# High freq. dielectric constant tensor:
#      x y z
#    x 1.958160 0.000000 -0.000280 
#    y 0.000000 1.953130 0.000000 
#    z -0.000280 0.000000 1.989510 
# 
# From -- ./inp_files/12254.got.cif
#   From: 2010.03.12/outbox.cif.g09.slc.cpg/sg4_7_cif.got.tgz:12254.got - 2010.03.31 09:31:35.
