data_PCOD8047774
_publ_section_title
;
Structure prediction by ZEFSAII (Michael W. Deem and Ramdas Pophale) SiO2 
 PCOD8047774
Probable space group: P 21
;
_chemical_formula_sum "Si O2"
_cell_formula_units_Z 16
_cell_length_a 10.041061
_cell_length_b 9.013073
_cell_length_c 8.776105
_cell_angle_alpha 90.000000
_cell_angle_beta 124.100711
_cell_angle_gamma 90.000000
_cell_volume 657.676975
_symmetry_space_group_name_H-M "P 21"
_symmetry_group_IT_number 4
_symmetry_cell_setting 'monoclinic'
loop_
_space_group_symop_operation_xyz
x,y,z
-x,1/2+y,-z
loop_
_atom_site_type_symbol
_atom_site_label
_atom_site_fract_x
_atom_site_fract_y
_atom_site_fract_z
Si Si1 0.585033 0.078410 0.395251
Si Si2 0.419454 0.540668 0.102636
Si Si3 0.924721 0.917491 0.616359
Si Si4 0.068233 0.914561 0.384164
Si Si5 0.072342 0.658916 0.881139
Si Si6 0.414669 0.902918 0.516452
Si Si7 0.408779 0.218716 0.011429
Si Si8 0.944323 0.662844 0.125046
O O1 0.593518 0.224585 0.509325
O O2 0.552005 0.147693 0.207047
O O3 0.738730 0.968246 0.497761
O O4 0.438884 0.976231 0.365427
O O5 0.442023 0.469305 0.285363
O O6 0.413598 0.395907 0.988397
O O7 0.266625 0.652631 0.996998
O O8 0.569597 0.641522 0.140033
O O9 0.997001 0.960649 0.499989
O O10 0.972314 0.747202 0.684791
O O11 0.019163 0.991947 0.817821
O O12 0.254431 0.957165 0.498100
O O13 0.036888 0.742117 0.325892
O O14 0.977075 0.990159 0.183724
O O15 0.014758 0.713580 0.008820
O O16 0.245188 0.183388 0.993062
#
# Coordination Sequence:
#
# PCOD8047774 Si02
#       8
#     2   2   2   2   2   2   2   2
#     4  11  26  46  73 105 146 191 241 301 363 440
#     4  11  26  46  73 105 146 191 241 301 363 440
#     4  12  27  46  77 105 146 194 248 306 370 434
#     4  12  25  48  72 107 145 193 246 306 366 439
#     4  12  27  46  77 105 146 194 248 306 370 434
#     4  11  26  47  72 106 147 190 244 298 366 437
#     4  11  26  47  72 106 147 190 244 298 366 437
#     4  12  25  48  72 107 145 193 246 306 366 439
#
# _framework density 24.328053000000001
#
# number of rings (size 3 to 8) (size 9 to 14) (size 15 to 20)
#    0.000    0.500    2.500    4.500   10.500    1.000 
#    0.000    0.000    0.000    0.000    0.000    0.000 
#    0.000    0.000    0.000    0.000    0.000    0.000 
#
# Total GULP energy -198315.291372 kJ/mol
# GULP energy per Si atom -12394.705711 kJ/mol
# Density = 2.427268 g / cm^3
# Si number density = 24.328053 Si / 1000 Ang^3
#
#
#
# Elastic Constant Matrix: (Units=GPa)
#
#
# Indices 1 2 3 4 5 6 
#
# 1 167.1427 58.7949 31.8567 0.0000 2.8656 0.0000
# 2 58.7949 73.2546 23.6774 0.0000 1.4690 0.0000
# 3 31.8567 23.6774 69.1927 0.0000 4.5497 0.0000
# 4 0.0000 0.0000 0.0000 54.1830 0.0000 4.8145
# 5 2.8656 1.4690 4.5497 0.0000 30.5031 0.0000
# 6 0.0000 0.0000 0.0000 4.8145 0.0000 41.8195
#
#
#
# Elastic Compliance Matrix: (Units=1/GPa)
#
#
# Indices 1 2 3 4 5 6 
#
# 1 0.008529 -0.006270 -0.001766 0.000000 -0.000236 0.000000
# 2 -0.006270 0.019958 -0.003957 0.000000 0.000218 0.000000
# 3 -0.001766 -0.003957 0.016760 0.000000 -0.002143 0.000000
# 4 0.000000 0.000000 0.000000 0.018647 0.000000 -0.002147
# 5 -0.000236 0.000218 -0.002143 0.000000 0.033115 0.000000
# 6 0.000000 0.000000 0.000000 -0.002147 0.000000 0.024159
#
#
# Mechanical properties :
#
#
# Convention : Reuss Voigt Hill
#
# Bulk Modulus (GPa) = 47.03291 59.80533 53.41912
# Shear Modulus (GPa) = 32.84248 38.31851 35.58049
#
# Velocity S-wave (km/s) = 3.67820 3.97303 3.82845
# Velocity P-wave (km/s) = 6.11667 6.75891 6.44579
#
# Compressibility (1/GPa) = 0.02126171
#
# Stress axis : x y z
#
# Youngs Moduli (GPa) = 117.24572 50.10494 59.66443
#
# Poissons Ratio (x) = 0.31416 0.10535
# Poissons Ratio (y) = 0.73514 0.23610
# Poissons Ratio (z) = 0.20702 0.19827
#
# Static dielectric constant tensor:
#      x y z
#    x 4.165930 0.000000 0.110150 
#    y 0.000000 4.449880 0.000000 
#    z 0.110150 0.000000 4.018510 
# 
# 
# High freq. dielectric constant tensor:
#      x y z
#    x 1.970570 0.000000 -0.000810 
#    y 0.000000 1.982100 0.000000 
#    z -0.000810 0.000000 1.953280 
# 
# From -- ./inp_files/5784.got.cif
#   From: 2010.03.12/outbox.cif.g09.slc.cpg/sg4_3_cif.got.tgz:5784.got - 2010.03.31 09:31:35.
