data_PCOD8047646
_publ_section_title
;
Structure prediction by ZEFSAII (Michael W. Deem and Ramdas Pophale) SiO2 
 PCOD8047646
Probable space group: P 21
;
_chemical_formula_sum "Si O2"
_cell_formula_units_Z 14
_cell_length_a 7.466816
_cell_length_b 11.169795
_cell_length_c 10.736076
_cell_angle_alpha 90.000000
_cell_angle_beta 46.622036
_cell_angle_gamma 90.000000
_cell_volume 650.825221
_symmetry_space_group_name_H-M "P 21"
_symmetry_group_IT_number 4
_symmetry_cell_setting 'monoclinic'
loop_
_space_group_symop_operation_xyz
x,y,z
-x,1/2+y,-z
loop_
_atom_site_type_symbol
_atom_site_label
_atom_site_fract_x
_atom_site_fract_y
_atom_site_fract_z
Si Si1 0.885012 0.751380 0.128895
Si Si2 0.092888 0.672558 0.781480
Si Si3 0.655353 0.035026 0.734952
Si Si4 0.397839 0.804072 0.239981
Si Si5 0.460156 0.072282 0.565539
Si Si6 0.885003 0.389124 0.394509
Si Si7 0.220116 0.943435 0.095752
O O1 0.065601 0.686168 0.943693
O O2 0.029975 0.842545 0.145372
O O3 0.675832 0.824393 0.154411
O O4 0.762399 0.652403 0.276036
O O5 0.378124 0.645560 0.612297
O O6 0.005621 0.795620 0.757441
O O7 0.919295 0.567291 0.814025
O O8 0.630181 0.169729 0.800918
O O9 0.640299 0.032513 0.592126
O O10 0.910850 0.983057 0.660631
O O11 0.428452 0.956168 0.891889
O O12 0.206105 0.813520 0.444417
O O13 0.346522 0.905197 0.163615
O O14 0.348303 0.956738 0.552858
#
# Coordination Sequence:
#
# PCOD8047646 Si02
#       7
#     2   2   2   2   2   2   2
#     4  11  24  49  69 104 142 179 232 287 339 412
#     4  12  24  44  76 102 136 184 230 286 344 418
#     4  11  24  47  69 103 141 180 231 290 339 412
#     4  11  24  47  69 103 141 180 231 290 339 412
#     4  11  24  49  69 104 142 179 232 287 339 412
#     4  12  25  46  73 101 143 181 230 286 351 405
#     4  12  25  46  73 101 143 181 230 286 351 405
#
# _framework density 21.511150000000001
#
# number of rings (size 3 to 8) (size 9 to 14) (size 15 to 20)
#    0.000    0.571    5.714    4.286    0.000    0.000 
#   15.429    1.429    0.000    0.000    0.000    0.000 
#    0.000    0.000    0.000    0.000    0.000    0.000 
#
# Total GULP energy -173689.585308 kJ/mol
# GULP energy per Si atom -12406.398951 kJ/mol
# Density = 2.146219 g / cm^3
# Si number density = 21.511150 Si / 1000 Ang^3
#
#
#
# Elastic Constant Matrix: (Units=GPa)
#
#
# Indices 1 2 3 4 5 6 
#
# 1 73.5370 38.2866 14.6040 0.0000 -1.8561 0.0000
# 2 38.2866 80.5123 15.6924 0.0000 3.4282 0.0000
# 3 14.6040 15.6924 125.2485 0.0000 0.2154 0.0000
# 4 0.0000 0.0000 0.0000 36.4522 0.0000 -3.4947
# 5 -1.8561 3.4282 0.2154 0.0000 17.5015 0.0000
# 6 0.0000 0.0000 0.0000 -3.4947 0.0000 26.7958
#
#
#
# Elastic Compliance Matrix: (Units=1/GPa)
#
#
# Indices 1 2 3 4 5 6 
#
# 1 0.018442 -0.008719 -0.001064 0.000000 0.003677 0.000000
# 2 -0.008719 0.016962 -0.001101 0.000000 -0.004234 0.000000
# 3 -0.001064 -0.001101 0.008246 0.000000 0.000001 0.000000
# 4 0.000000 0.000000 0.000000 0.027781 0.000000 0.003623
# 5 0.003677 -0.004234 0.000001 0.000000 0.058357 0.000000
# 6 0.000000 0.000000 0.000000 0.003623 0.000000 0.037792
#
#
# Mechanical properties :
#
#
# Convention : Reuss Voigt Hill
#
# Bulk Modulus (GPa) = 45.70189 46.27374 45.98782
# Shear Modulus (GPa) = 25.42685 30.19756 27.81221
#
# Velocity S-wave (km/s) = 3.44180 3.75081 3.59962
# Velocity P-wave (km/s) = 6.08986 6.34951 6.22104
#
# Compressibility (1/GPa) = 0.02188093
#
# Stress axis : x y z
#
# Youngs Moduli (GPa) = 54.22300 58.95651 121.26809
#
# Poissons Ratio (x) = 0.51405 0.12906
# Poissons Ratio (y) = 0.47278 0.13354
# Poissons Ratio (z) = 0.05771 0.06492
#
# Static dielectric constant tensor:
#      x y z
#    x 3.786660 0.000000 -0.018640 
#    y 0.000000 3.942770 0.000000 
#    z -0.018640 0.000000 4.056930 
# 
# 
# High freq. dielectric constant tensor:
#      x y z
#    x 1.834690 0.000000 -0.001350 
#    y 0.000000 1.851460 0.000000 
#    z -0.001350 0.000000 1.860130 
# 
# From -- ./inp_files/10994.got.cif
#   From: 2010.03.12/outbox.cif.g09.slc.cpg/sg4_6_cif.got.tgz:10994.got - 2010.03.31 09:31:35.
