data_PCOD8047223
_publ_section_title
;
Structure prediction by ZEFSAII (Michael W. Deem and Ramdas Pophale) SiO2 
 PCOD8047223
Probable space group: P 21
;
_chemical_formula_sum "Si O2"
_cell_formula_units_Z 10
_cell_length_a 14.447519
_cell_length_b 5.242527
_cell_length_c 13.684094
_cell_angle_alpha 90.000000
_cell_angle_beta 21.224070
_cell_angle_gamma 90.000000
_cell_volume 375.213118
_symmetry_space_group_name_H-M "P 21"
_symmetry_group_IT_number 4
_symmetry_cell_setting 'monoclinic'
loop_
_space_group_symop_operation_xyz
x,y,z
-x,1/2+y,-z
loop_
_atom_site_type_symbol
_atom_site_label
_atom_site_fract_x
_atom_site_fract_y
_atom_site_fract_z
Si Si1 0.170525 0.057230 0.723769
Si Si2 0.232725 0.397194 0.154735
Si Si3 0.153586 0.058252 0.961126
Si Si4 0.245607 0.582854 0.356291
Si Si5 0.519824 0.251803 0.228187
O O1 0.412472 0.046113 0.412628
O O2 0.048494 0.332671 0.826027
O O3 0.270181 0.038616 0.737033
O O4 0.972792 0.831442 0.894264
O O5 0.164271 0.512952 0.327094
O O6 0.997246 0.218699 0.354340
O O7 0.502996 0.255750 0.893896
O O8 0.248771 0.620413 0.058576
O O9 0.380806 0.008043 0.814755
O O10 0.301319 0.331633 0.365707
#
# Coordination Sequence:
#
# PCOD8047223 Si02
#       5
#     2   2   2   2   2
#     4  10  26  51  79 117 167 222 282 349 420 499
#     4  12  29  53  82 120 169 218 282 348 427 504
#     4  10  26  51  79 117 167 222 282 349 420 499
#     4  12  29  53  82 120 169 218 282 348 427 504
#     4  12  30  48  82 118 164 220 282 354 412 510
#
# _framework density 26.651522
#
# number of rings (size 3 to 8) (size 9 to 14) (size 15 to 20)
#    0.000    0.800    2.000    1.200   11.200    4.800 
#    0.000    0.000    0.000    0.000    0.000    0.000 
#    0.000    0.000    0.000    0.000    0.000    0.000 
#
# Total GULP energy -124079.606813 kJ/mol
# GULP energy per Si atom -12407.960681 kJ/mol
# Density = 2.659086 g / cm^3
# Si number density = 26.651522 Si / 1000 Ang^3
#
#
#
# Elastic Constant Matrix: (Units=GPa)
#
#
# Indices 1 2 3 4 5 6 
#
# 1 127.3788 19.6167 38.4087 0.0000 33.1123 0.0000
# 2 19.6167 91.2297 35.1146 0.0000 13.9143 0.0000
# 3 38.4087 35.1146 120.3830 0.0000 3.0398 0.0000
# 4 0.0000 0.0000 0.0000 55.5571 0.0000 -4.9390
# 5 33.1123 13.9143 3.0398 0.0000 33.4402 0.0000
# 6 0.0000 0.0000 0.0000 -4.9390 0.0000 39.6998
#
#
#
# Elastic Compliance Matrix: (Units=1/GPa)
#
#
# Indices 1 2 3 4 5 6 
#
# 1 0.011914 0.000649 -0.003695 0.000000 -0.011732 0.000000
# 2 0.000649 0.013211 -0.003915 0.000000 -0.005784 0.000000
# 3 -0.003695 -0.003915 0.010518 0.000000 0.004331 0.000000
# 4 0.000000 0.000000 0.000000 0.018201 0.000000 0.002264
# 5 -0.011732 -0.005784 0.004331 0.000000 0.043534 0.000000
# 6 0.000000 0.000000 0.000000 0.002264 0.000000 0.025471
#
#
# Mechanical properties :
#
#
# Convention : Reuss Voigt Hill
#
# Bulk Modulus (GPa) = 46.03253 58.36350 52.19802
# Shear Modulus (GPa) = 34.72007 42.12953 38.42480
#
# Velocity S-wave (km/s) = 3.61327 3.98018 3.80116
# Velocity P-wave (km/s) = 5.89212 6.56268 6.23642
#
# Compressibility (1/GPa) = 0.02172377
#
# Stress axis : x y z
#
# Youngs Moduli (GPa) = 83.93277 75.69674 95.07465
#
# Poissons Ratio (x) = -0.04916 0.35125
# Poissons Ratio (y) = -0.05451 0.37218
# Poissons Ratio (z) = 0.31009 0.29632
#
# Static dielectric constant tensor:
#      x y z
#    x 5.200690 0.000000 0.271140 
#    y 0.000000 4.785910 0.000000 
#    z 0.271140 0.000000 4.621990 
# 
# 
# High freq. dielectric constant tensor:
#      x y z
#    x 2.092450 0.000000 0.013240 
#    y 0.000000 2.073740 0.000000 
#    z 0.013240 0.000000 2.065920 
# 
# From -- ./inp_files/14012.got.cif
#   From: 2010.03.12/outbox.cif.g09.slc.cpg/sg4_8_cif.got.tgz:14012.got - 2010.03.31 09:31:35.
