data_PCOD8047675
_publ_section_title
;
Structure prediction by ZEFSAII (Michael W. Deem and Ramdas Pophale) SiO2 
 PCOD8047675
Probable space group: P 21
;
_chemical_formula_sum "Si O2"
_cell_formula_units_Z 14
_cell_length_a 18.699447
_cell_length_b 5.087432
_cell_length_c 23.768834
_cell_angle_alpha 90.000000
_cell_angle_beta 13.417653
_cell_angle_gamma 90.000000
_cell_volume 524.701558
_symmetry_space_group_name_H-M "P 21"
_symmetry_group_IT_number 4
_symmetry_cell_setting 'monoclinic'
loop_
_space_group_symop_operation_xyz
x,y,z
-x,1/2+y,-z
loop_
_atom_site_type_symbol
_atom_site_label
_atom_site_fract_x
_atom_site_fract_y
_atom_site_fract_z
Si Si1 0.563388 0.141610 0.413974
Si Si2 0.804823 0.056152 0.644431
Si Si3 0.655140 0.822581 0.070490
Si Si4 0.354980 0.852857 0.129271
Si Si5 0.245036 0.947935 0.553635
Si Si6 0.688790 0.736712 0.609139
Si Si7 0.747481 0.629074 0.115517
O O1 0.538988 0.419293 0.463690
O O2 0.347363 0.155244 0.523693
O O3 0.907345 0.081098 0.126539
O O4 0.568521 0.067681 0.770888
O O5 0.586361 0.186226 0.858824
O O6 0.089774 0.263519 0.419398
O O7 0.790935 0.826172 0.029569
O O8 0.428933 0.076654 0.245452
O O9 0.926788 0.818975 0.817350
O O10 0.986685 0.903537 0.403219
O O11 0.494328 0.641515 0.978414
O O12 0.173376 0.053900 0.546309
O O13 0.524088 0.735783 0.335655
O O14 0.406771 0.874716 0.793561
#
# Coordination Sequence:
#
# PCOD8047675 Si02
#       7
#     2   2   2   2   2   2   2
#     4  12  28  52  79 114 154 195 249 305 378 448
#     4  12  25  45  74 104 145 196 244 304 370 435
#     4  11  24  49  70 108 147 195 249 304 372 446
#     4  12  27  47  72 109 150 195 252 313 370 439
#     4  11  27  46  78 111 146 199 245 304 377 444
#     4  11  26  47  74 105 153 197 250 313 370 443
#     4  11  27  46  79 107 153 193 247 311 369 451
#
# _framework density 26.681832
#
# number of rings (size 3 to 8) (size 9 to 14) (size 15 to 20)
#    0.000    0.571    2.857    3.429   12.000    1.143 
#    0.000    0.000    0.000    0.000    0.000    0.000 
#    0.000    0.000    0.000    0.000    0.000    0.000 
#
# Total GULP energy -173482.694114 kJ/mol
# GULP energy per Si atom -12391.621008 kJ/mol
# Density = 2.662110 g / cm^3
# Si number density = 26.681832 Si / 1000 Ang^3
#
#
#
# Elastic Constant Matrix: (Units=GPa)
#
#
# Indices 1 2 3 4 5 6 
#
# 1 71.8137 -21.6366 16.7095 0.0000 2.6817 0.0000
# 2 -21.6366 46.1685 18.3823 0.0000 6.6867 0.0000
# 3 16.7095 18.3823 180.8967 0.0000 15.0576 0.0000
# 4 0.0000 0.0000 0.0000 39.6882 0.0000 -3.5806
# 5 2.6817 6.6867 15.0576 0.0000 53.7882 0.0000
# 6 0.0000 0.0000 0.0000 -3.5806 0.0000 27.5592
#
#
#
# Elastic Compliance Matrix: (Units=1/GPa)
#
#
# Indices 1 2 3 4 5 6 
#
# 1 0.017340 0.009289 -0.002434 0.000000 -0.001338 0.000000
# 2 0.009289 0.027810 -0.003438 0.000000 -0.002958 0.000000
# 3 -0.002434 -0.003438 0.006201 0.000000 -0.001187 0.000000
# 4 0.000000 0.000000 0.000000 0.025495 0.000000 0.003312
# 5 -0.001338 -0.002958 -0.001187 0.000000 0.019358 0.000000
# 6 0.000000 0.000000 0.000000 0.003312 0.000000 0.036716
#
#
# Mechanical properties :
#
#
# Convention : Reuss Voigt Hill
#
# Bulk Modulus (GPa) = 17.18633 36.19880 26.69256
# Shear Modulus (GPa) = 34.36856 43.23537 38.80196
#
# Velocity S-wave (km/s) = 3.59289 4.02979 3.81760
# Velocity P-wave (km/s) = 4.86487 5.93705 5.42750
#
# Compressibility (1/GPa) = 0.05818579
#
# Stress axis : x y z
#
# Youngs Moduli (GPa) = 57.66997 35.95777 161.26326
#
# Poissons Ratio (x) = -0.33402 0.39256
# Poissons Ratio (y) = -0.53571 0.55440
# Poissons Ratio (z) = 0.14039 0.12362
#
# Static dielectric constant tensor:
#      x y z
#    x 5.344050 0.000000 0.134070 
#    y 0.000000 4.731340 0.000000 
#    z 0.134070 0.000000 4.874130 
# 
# 
# High freq. dielectric constant tensor:
#      x y z
#    x 2.084130 0.000000 0.009570 
#    y 0.000000 2.063410 0.000000 
#    z 0.009570 0.000000 2.087990 
# 
# From -- ./inp_files/14091.got.cif
#   From: 2010.03.12/outbox.cif.g09.slc.cpg/sg4_8_cif.got.tgz:14091.got - 2010.03.31 09:31:35.
