data_PCOD8047144
_publ_section_title
;
Structure prediction by ZEFSAII (Michael W. Deem and Ramdas Pophale) SiO2 
 PCOD8047144
Probable space group: P 21
;
_chemical_formula_sum "Si O2"
_cell_formula_units_Z 16
_cell_length_a 5.200181
_cell_length_b 8.033477
_cell_length_c 17.432014
_cell_angle_alpha 90.000000
_cell_angle_beta 65.957669
_cell_angle_gamma 90.000000
_cell_volume 665.053746
_symmetry_space_group_name_H-M "P 21"
_symmetry_group_IT_number 4
_symmetry_cell_setting 'monoclinic'
loop_
_space_group_symop_operation_xyz
x,y,z
-x,1/2+y,-z
loop_
_atom_site_type_symbol
_atom_site_label
_atom_site_fract_x
_atom_site_fract_y
_atom_site_fract_z
Si Si1 0.322000 0.428720 0.960126
Si Si2 0.548771 0.828911 0.428482
Si Si3 0.138657 0.726961 0.074444
Si Si4 0.899235 0.785722 0.534363
Si Si5 0.889698 0.129233 0.352315
Si Si6 0.284138 0.215516 0.748348
Si Si7 0.428621 0.039236 0.220472
Si Si8 0.450118 0.867177 0.696057
O O1 0.566743 0.319971 0.967968
O O2 0.455001 0.551224 0.879839
O O3 0.089510 0.307312 0.953842
O O4 0.181332 0.536938 0.043901
O O5 0.691469 0.756403 0.488165
O O6 0.697061 0.714504 0.345977
O O7 0.211720 0.835088 0.470633
O O8 0.614684 0.019697 0.400468
O O9 0.026002 0.733544 0.176157
O O10 0.733861 0.912180 0.612476
O O11 0.945219 0.627306 0.585600
O O12 0.794974 0.313598 0.335347
O O13 0.087096 0.041313 0.263980
O O14 0.482628 0.362263 0.754727
O O15 0.383595 0.026760 0.757119
O O16 0.528762 0.203525 0.253043
#
# Coordination Sequence:
#
# PCOD8047144 Si02
#       8
#     2   2   2   2   2   2   2   2
#     4  11  25  47  81 110 159 190 250 301 379 448
#     4  12  25  44  71  95 150 197 239 316 372 434
#     4  11  26  49  77 118 148 200 246 304 381 457
#     4  11  27  43  68 104 139 196 253 304 377 436
#     4  11  24  47  70 100 147 192 253 304 384 439
#     4  11  26  48  75 108 151 195 252 306 379 444
#     4  10  24  49  72 107 150 199 238 311 379 447
#     4  11  25  47  72 108 144 195 257 310 369 451
#
# _framework density 24.058206999999999
#
# number of rings (size 3 to 8) (size 9 to 14) (size 15 to 20)
#    0.000    1.000    2.500    2.250    7.000    3.000 
#   18.000    0.000    0.000    0.000    0.000    0.000 
#    0.000    0.000    0.000    0.000    0.000    0.000 
#
# Total GULP energy -198241.375190 kJ/mol
# GULP energy per Si atom -12390.085949 kJ/mol
# Density = 2.400345 g / cm^3
# Si number density = 24.058207 Si / 1000 Ang^3
#
#
#
# Elastic Constant Matrix: (Units=GPa)
#
#
# Indices 1 2 3 4 5 6 
#
# 1 123.3002 31.5175 22.5341 0.0000 2.0052 0.0000
# 2 31.5175 133.2239 35.1811 0.0000 -3.3012 0.0000
# 3 22.5341 35.1811 99.1326 0.0000 -32.8264 0.0000
# 4 0.0000 0.0000 0.0000 35.5834 0.0000 -6.6888
# 5 2.0052 -3.3012 -32.8264 0.0000 72.3843 0.0000
# 6 0.0000 0.0000 0.0000 -6.6888 0.0000 32.1914
#
#
#
# Elastic Compliance Matrix: (Units=1/GPa)
#
#
# Indices 1 2 3 4 5 6 
#
# 1 0.008882 -0.001651 -0.001811 0.000000 -0.001143 0.000000
# 2 -0.001651 0.008668 -0.003006 0.000000 -0.000922 0.000000
# 3 -0.001811 -0.003006 0.013576 0.000000 0.006070 0.000000
# 4 0.000000 0.000000 0.000000 0.029245 0.000000 0.006077
# 5 -0.001143 -0.000922 0.006070 0.000000 0.016557 0.000000
# 6 0.000000 0.000000 0.000000 0.006077 0.000000 0.032327
#
#
# Mechanical properties :
#
#
# Convention : Reuss Voigt Hill
#
# Bulk Modulus (GPa) = 54.98059 59.34692 57.16375
# Shear Modulus (GPa) = 38.98460 45.79341 42.38900
#
# Velocity S-wave (km/s) = 4.02982 4.36758 4.20210
# Velocity P-wave (km/s) = 6.67498 7.08209 6.88154
#
# Compressibility (1/GPa) = 0.01818824
#
# Stress axis : x y z
#
# Youngs Moduli (GPa) = 112.58714 115.36951 73.65906
#
# Poissons Ratio (x) = 0.19050 0.13343
# Poissons Ratio (y) = 0.18591 0.22143
# Poissons Ratio (z) = 0.20394 0.34682
#
# Static dielectric constant tensor:
#      x y z
#    x 4.392220 0.000000 -0.134740 
#    y 0.000000 4.113460 0.000000 
#    z -0.134740 0.000000 4.465580 
# 
# 
# High freq. dielectric constant tensor:
#      x y z
#    x 1.956510 0.000000 -0.014200 
#    y 0.000000 1.947670 0.000000 
#    z -0.014200 0.000000 1.963770 
# 
# From -- ./inp_files/14681.got.cif
#   From: 2010.03.12/outbox.cif.g09.slc.cpg/sg4_8_cif.got.tgz:14681.got - 2010.03.31 09:31:35.
