data_PCOD8047155
_publ_section_title
;
Structure prediction by ZEFSAII (Michael W. Deem and Ramdas Pophale) SiO2 
 PCOD8047155
Probable space group: P 21
;
_chemical_formula_sum "Si O2"
_cell_formula_units_Z 16
_cell_length_a 11.253868
_cell_length_b 8.236830
_cell_length_c 8.770559
_cell_angle_alpha 90.000000
_cell_angle_beta 114.056196
_cell_angle_gamma 90.000000
_cell_volume 742.385460
_symmetry_space_group_name_H-M "P 21"
_symmetry_group_IT_number 4
_symmetry_cell_setting 'monoclinic'
loop_
_space_group_symop_operation_xyz
x,y,z
-x,1/2+y,-z
loop_
_atom_site_type_symbol
_atom_site_label
_atom_site_fract_x
_atom_site_fract_y
_atom_site_fract_z
Si Si1 0.529763 0.814070 0.986834
Si Si2 0.968335 0.514957 0.189485
Si Si3 0.214618 0.477294 0.529893
Si Si4 0.261039 0.144749 0.728105
Si Si5 0.297625 0.609934 0.871182
Si Si6 0.866890 0.204896 0.957035
Si Si7 0.445768 0.944601 0.649379
Si Si8 0.635533 0.186830 0.620790
O O1 0.376551 0.778091 0.945834
O O2 0.532820 0.831184 0.805168
O O3 0.621210 0.668266 0.090348
O O4 0.588059 0.976879 0.092313
O O5 0.865152 0.610481 0.237531
O O6 0.082008 0.472046 0.366172
O O7 0.012859 0.626353 0.070440
O O8 0.911515 0.352970 0.085502
O O9 0.239061 0.297275 0.605342
O O10 0.212348 0.605275 0.670807
O O11 0.326830 0.542615 0.476242
O O12 0.305131 0.991780 0.648249
O O13 0.199561 0.575476 0.960475
O O14 0.758662 0.254777 0.777755
O O15 0.423367 0.847057 0.484396
O O16 0.523715 0.112932 0.668928
#
# Coordination Sequence:
#
# PCOD8047155 Si02
#       8
#     2   2   2   2   2   2   2   2
#     4  11  21  39  71  98 133 167 214 275 342 397
#     4  11  28  45  69  95 134 182 230 274 330 386
#     4  10  25  43  69  96 130 175 224 275 328 389
#     4  11  25  42  67 101 130 177 226 272 336 398
#     4  11  22  43  72  99 134 171 221 280 334 402
#     4  11  26  45  65  98 135 180 226 273 334 393
#     4  12  23  41  66 100 138 171 219 276 341 406
#     4  11  24  42  67 101 136 175 218 279 341 397
#
# _framework density 21.552146
#
# number of rings (size 3 to 8) (size 9 to 14) (size 15 to 20)
#    0.000    1.000    3.750    1.500    5.250    4.000 
#    0.000    0.000    0.000    0.000    0.000    0.000 
#    0.000    0.000    0.000    0.000    0.000    0.000 
#
# Total GULP energy -198309.230061 kJ/mol
# GULP energy per Si atom -12394.326879 kJ/mol
# Density = 2.150309 g / cm^3
# Si number density = 21.552146 Si / 1000 Ang^3
#
#
#
# Elastic Constant Matrix: (Units=GPa)
#
#
# Indices 1 2 3 4 5 6 
#
# 1 107.7371 31.0028 28.6765 0.0000 -4.9460 0.0000
# 2 31.0028 72.1354 32.5698 0.0000 6.1621 0.0000
# 3 28.6765 32.5698 123.8277 0.0000 6.4389 0.0000
# 4 0.0000 0.0000 0.0000 44.9488 0.0000 -7.3064
# 5 -4.9460 6.1621 6.4389 0.0000 27.1756 0.0000
# 6 0.0000 0.0000 0.0000 -7.3064 0.0000 30.9672
#
#
#
# Elastic Compliance Matrix: (Units=1/GPa)
#
#
# Indices 1 2 3 4 5 6 
#
# 1 0.011114 -0.004340 -0.001609 0.000000 0.003388 0.000000
# 2 -0.004340 0.017612 -0.003421 0.000000 -0.003973 0.000000
# 3 -0.001609 -0.003421 0.009439 0.000000 -0.001754 0.000000
# 4 0.000000 0.000000 0.000000 0.023135 0.000000 0.005458
# 5 0.003388 -0.003973 -0.001754 0.000000 0.038731 0.000000
# 6 0.000000 0.000000 0.000000 0.005458 0.000000 0.033580
#
#
# Mechanical properties :
#
#
# Convention : Reuss Voigt Hill
#
# Bulk Modulus (GPa) = 51.47471 54.24426 52.85949
# Shear Modulus (GPa) = 31.48112 34.71507 33.09810
#
# Velocity S-wave (km/s) = 3.82605 4.01777 3.92308
# Velocity P-wave (km/s) = 6.59195 6.83716 6.71568
#
# Compressibility (1/GPa) = 0.01942702
#
# Stress axis : x y z
#
# Youngs Moduli (GPa) = 89.97303 56.77958 105.94138
#
# Poissons Ratio (x) = 0.24642 0.17042
# Poissons Ratio (y) = 0.39048 0.36240
# Poissons Ratio (z) = 0.14473 0.19423
#
# Static dielectric constant tensor:
#      x y z
#    x 3.961040 0.000000 -0.000570 
#    y 0.000000 3.772770 0.000000 
#    z -0.000570 0.000000 4.155840 
# 
# 
# High freq. dielectric constant tensor:
#      x y z
#    x 1.843250 0.000000 -0.002220 
#    y 0.000000 1.838680 0.000000 
#    z -0.002220 0.000000 1.864820 
# 
# From -- ./inp_files/7833.got.cif
#   From: 2010.03.12/outbox.cif.g09.slc.cpg/sg4_4_cif.got.tgz:7833.got - 2010.03.31 09:31:35.
