data_PCOD8047162
_publ_section_title
;
Structure prediction by ZEFSAII (Michael W. Deem and Ramdas Pophale) SiO2 
 PCOD8047162
Probable space group: P 21
;
_chemical_formula_sum "Si O2"
_cell_formula_units_Z 16
_cell_length_a 9.705033
_cell_length_b 7.193090
_cell_length_c 11.161483
_cell_angle_alpha 90.000000
_cell_angle_beta 113.666317
_cell_angle_gamma 90.000000
_cell_volume 713.644414
_symmetry_space_group_name_H-M "P 21"
_symmetry_group_IT_number 4
_symmetry_cell_setting 'monoclinic'
loop_
_space_group_symop_operation_xyz
x,y,z
-x,1/2+y,-z
loop_
_atom_site_type_symbol
_atom_site_label
_atom_site_fract_x
_atom_site_fract_y
_atom_site_fract_z
Si Si1 0.464093 0.105620 0.601639
Si Si2 0.737730 0.924986 0.178653
Si Si3 0.105047 0.766832 0.658867
Si Si4 0.094204 0.329915 0.191167
Si Si5 0.581327 0.709029 0.670928
Si Si6 0.579001 0.368426 0.830008
Si Si7 0.841612 0.113654 0.984256
Si Si8 0.841194 0.651860 0.400957
O O1 0.494641 0.105473 0.469660
O O2 0.577184 0.239552 0.711566
O O3 0.302244 0.202928 0.568408
O O4 0.489909 0.898701 0.662469
O O5 0.769852 0.120311 0.256023
O O6 0.565214 0.854495 0.131731
O O7 0.844136 0.771109 0.278908
O O8 0.781237 0.953300 0.054647
O O9 0.012558 0.864855 0.733249
O O10 0.997589 0.670975 0.524217
O O11 0.193369 0.935714 0.632091
O O12 0.244470 0.242117 0.297325
O O13 0.139476 0.519177 0.138592
O O14 0.007812 0.184039 0.075654
O O15 0.581186 0.582715 0.789983
O O16 0.728350 0.292278 0.949235
#
# Coordination Sequence:
#
# PCOD8047162 Si02
#       8
#     2   2   2   2   2   2   2   2
#     4  11  23  40  65 102 135 173 223 273 340 405
#     4  10  25  45  67  98 131 176 230 275 331 399
#     4  11  22  42  66 101 133 171 219 271 344 397
#     4  11  25  43  68  99 135 177 224 273 331 406
#     4  12  22  42  69  99 139 175 217 278 342 398
#     4  11  24  45  68  96 134 179 227 278 334 397
#     4  11  25  48  66 100 137 180 233 274 333 401
#     4  11  22  41  67  97 134 173 215 278 337 399
#
# _framework density 22.420127999999998
#
# number of rings (size 3 to 8) (size 9 to 14) (size 15 to 20)
#    0.000    1.000    5.000    1.500    1.750    1.000 
#   13.500    0.000    0.000    0.000    0.000    0.000 
#    0.000    0.000    0.000    0.000    0.000    0.000 
#
# Total GULP energy -198343.984037 kJ/mol
# GULP energy per Si atom -12396.499002 kJ/mol
# Density = 2.236910 g / cm^3
# Si number density = 22.420128 Si / 1000 Ang^3
#
#
#
# Elastic Constant Matrix: (Units=GPa)
#
#
# Indices 1 2 3 4 5 6 
#
# 1 69.6770 15.1130 20.5292 0.0000 8.6463 0.0000
# 2 15.1130 101.7377 22.8511 0.0000 5.3789 0.0000
# 3 20.5292 22.8511 71.1940 0.0000 10.9118 0.0000
# 4 0.0000 0.0000 0.0000 44.0092 0.0000 2.4092
# 5 8.6463 5.3789 10.9118 0.0000 17.9069 0.0000
# 6 0.0000 0.0000 0.0000 2.4092 0.0000 36.5118
#
#
#
# Elastic Compliance Matrix: (Units=1/GPa)
#
#
# Indices 1 2 3 4 5 6 
#
# 1 0.016331 -0.001368 -0.003446 0.000000 -0.005374 0.000000
# 2 -0.001368 0.010732 -0.002931 0.000000 -0.000777 0.000000
# 3 -0.003446 -0.002931 0.017197 0.000000 -0.007935 0.000000
# 4 0.000000 0.000000 0.000000 0.022805 0.000000 -0.001505
# 5 -0.005374 -0.000777 -0.007935 0.000000 0.063508 0.000000
# 6 0.000000 0.000000 0.000000 -0.001505 0.000000 0.027488
#
#
# Mechanical properties :
#
#
# Convention : Reuss Voigt Hill
#
# Bulk Modulus (GPa) = 34.75939 39.95503 37.35721
# Shear Modulus (GPa) = 27.30148 31.95994 29.63071
#
# Velocity S-wave (km/s) = 3.49337 3.77968 3.63934
# Velocity P-wave (km/s) = 5.63993 6.07517 5.86159
#
# Compressibility (1/GPa) = 0.02876920
#
# Stress axis : x y z
#
# Youngs Moduli (GPa) = 61.23352 93.18099 58.15021
#
# Poissons Ratio (x) = 0.12744 0.20041
# Poissons Ratio (y) = 0.08375 0.17044
# Poissons Ratio (z) = 0.21103 0.27312
#
# Static dielectric constant tensor:
#      x y z
#    x 3.782540 0.000000 0.124440 
#    y 0.000000 3.915890 0.000000 
#    z 0.124440 0.000000 4.010740 
# 
# 
# High freq. dielectric constant tensor:
#      x y z
#    x 1.876080 0.000000 0.009890 
#    y 0.000000 1.882510 0.000000 
#    z 0.009890 0.000000 1.884940 
# 
# From -- ./inp_files/11591.got.cif
#   From: 2010.03.12/outbox.cif.g09.slc.cpg/sg4_6_cif.got.tgz:11591.got - 2010.03.31 09:31:35.
