data_PCOD8047647
_publ_section_title
;
Structure prediction by ZEFSAII (Michael W. Deem and Ramdas Pophale) SiO2 
 PCOD8047647
Probable space group: P 21
;
_chemical_formula_sum "Si O2"
_cell_formula_units_Z 10
_cell_length_a 9.176774
_cell_length_b 7.387863
_cell_length_c 6.531233
_cell_angle_alpha 90.000000
_cell_angle_beta 88.706087
_cell_angle_gamma 90.000000
_cell_volume 442.683458
_symmetry_space_group_name_H-M "P 21"
_symmetry_group_IT_number 4
_symmetry_cell_setting 'monoclinic'
loop_
_space_group_symop_operation_xyz
x,y,z
-x,1/2+y,-z
loop_
_atom_site_type_symbol
_atom_site_label
_atom_site_fract_x
_atom_site_fract_y
_atom_site_fract_z
Si Si1 0.357580 0.154620 0.183668
Si Si2 0.060273 0.951892 0.778886
Si Si3 0.660787 0.292639 0.049514
Si Si4 0.193344 0.435595 0.934331
Si Si5 0.157405 0.281182 0.531616
O O1 0.512740 0.254414 0.176938
O O2 0.292476 0.184587 0.412785
O O3 0.254483 0.244837 0.015626
O O4 0.366497 0.940024 0.129958
O O5 0.216986 0.858713 0.795130
O O6 0.960149 0.840978 0.627642
O O7 0.076768 0.151220 0.692488
O O8 0.976764 0.960854 0.999644
O O9 0.716133 0.099047 0.960257
O O10 0.210733 0.441157 0.684926
#
# Coordination Sequence:
#
# PCOD8047647 Si02
#       5
#     2   2   2   2   2
#     4  11  26  46  69 103 143 193 236 285 355 430
#     4  11  25  41  74 103 145 184 237 301 352 419
#     4  12  24  47  73  99 148 190 229 299 353 419
#     4  11  24  47  69 103 144 182 240 295 358 410
#     4  11  25  45  69 112 138 189 244 288 360 428
#
# _framework density 22.589504999999999
#
# number of rings (size 3 to 8) (size 9 to 14) (size 15 to 20)
#    0.000    0.800    4.000    2.400    8.400    1.600 
#    0.000    0.000    0.000    0.000    0.000    0.000 
#    0.000    0.000    0.000    0.000    0.000    0.000 
#
# Total GULP energy -123986.689381 kJ/mol
# GULP energy per Si atom -12398.668938 kJ/mol
# Density = 2.253809 g / cm^3
# Si number density = 22.589505 Si / 1000 Ang^3
#
#
#
# Elastic Constant Matrix: (Units=GPa)
#
#
# Indices 1 2 3 4 5 6 
#
# 1 141.0941 34.5088 54.3507 0.0000 -20.4300 0.0000
# 2 34.5088 114.8416 40.6066 0.0000 -14.9908 0.0000
# 3 54.3507 40.6066 133.5498 0.0000 -24.3100 0.0000
# 4 0.0000 0.0000 0.0000 31.9672 0.0000 0.6406
# 5 -20.4300 -14.9908 -24.3100 0.0000 23.2857 0.0000
# 6 0.0000 0.0000 0.0000 0.6406 0.0000 41.6785
#
#
#
# Elastic Compliance Matrix: (Units=1/GPa)
#
#
# Indices 1 2 3 4 5 6 
#
# 1 0.008994 -0.001243 -0.002459 0.000000 0.004524 0.000000
# 2 -0.001243 0.010229 -0.001981 0.000000 0.003427 0.000000
# 3 -0.002459 -0.001981 0.010452 0.000000 0.007480 0.000000
# 4 0.000000 0.000000 0.000000 0.031292 0.000000 -0.000481
# 5 0.004524 0.003427 0.007480 0.000000 0.056929 0.000000
# 6 0.000000 0.000000 0.000000 -0.000481 0.000000 0.024001
#
#
# Mechanical properties :
#
#
# Convention : Reuss Voigt Hill
#
# Bulk Modulus (GPa) = 54.61350 72.04642 63.32996
# Shear Modulus (GPa) = 31.37497 36.72093 34.04795
#
# Velocity S-wave (km/s) = 3.73086 4.03622 3.88654
# Velocity P-wave (km/s) = 6.54126 7.32696 6.94523
#
# Compressibility (1/GPa) = 0.01831049
#
# Stress axis : x y z
#
# Youngs Moduli (GPa) = 111.19074 97.76432 95.67323
#
# Poissons Ratio (x) = 0.12148 0.23525
# Poissons Ratio (y) = 0.13816 0.18949
# Poissons Ratio (z) = 0.27340 0.19363
#
# Static dielectric constant tensor:
#      x y z
#    x 4.240460 0.000000 -0.110030 
#    y 0.000000 4.316780 0.000000 
#    z -0.110030 0.000000 4.051590 
# 
# 
# High freq. dielectric constant tensor:
#      x y z
#    x 1.900130 0.000000 -0.004880 
#    y 0.000000 1.905510 0.000000 
#    z -0.004880 0.000000 1.870030 
# 
# From -- ./inp_files/953.got.cif
#   From: 2010.03.12/outbox.cif.g09.slc.cpg/sg4_1_cif.got.tgz:953.got - 2010.03.31 09:31:35.
