data_PCOD8047941
_publ_section_title
;
Structure prediction by ZEFSAII (Michael W. Deem and Ramdas Pophale) SiO2 
 PCOD8047941
Probable space group: P 21
;
_chemical_formula_sum "Si O2"
_cell_formula_units_Z 14
_cell_length_a 8.617980
_cell_length_b 9.305377
_cell_length_c 11.067807
_cell_angle_alpha 90.000000
_cell_angle_beta 39.778978
_cell_angle_gamma 90.000000
_cell_volume 567.889865
_symmetry_space_group_name_H-M "P 21"
_symmetry_group_IT_number 4
_symmetry_cell_setting 'monoclinic'
loop_
_space_group_symop_operation_xyz
x,y,z
-x,1/2+y,-z
loop_
_atom_site_type_symbol
_atom_site_label
_atom_site_fract_x
_atom_site_fract_y
_atom_site_fract_z
Si Si1 0.193904 0.496820 0.493179
Si Si2 0.378349 0.780339 0.767409
Si Si3 0.757516 0.108596 0.794503
Si Si4 0.209038 0.775940 0.606746
Si Si5 0.611884 0.938898 0.260127
Si Si6 0.981507 0.331053 0.809112
Si Si7 0.323421 0.328457 0.032170
O O1 0.361864 0.355918 0.377266
O O2 0.126977 0.567037 0.404232
O O3 0.319353 0.621195 0.500929
O O4 0.955785 0.439654 0.708714
O O5 0.255186 0.821392 0.716043
O O6 0.380374 0.607909 0.771711
O O7 0.226954 0.851217 0.967265
O O8 0.968066 0.169507 0.759241
O O9 0.617145 0.976012 0.936368
O O10 0.552789 0.228671 0.910291
O O11 0.330202 0.897652 0.449779
O O12 0.920080 0.767157 0.759218
O O13 0.759911 0.875163 0.286676
O O14 0.724807 0.854254 0.080039
#
# Coordination Sequence:
#
# PCOD8047941 Si02
#       7
#     2   2   2   2   2   2   2
#     4  12  29  47  75 115 161 210 261 330 392 486
#     4  12  25  48  81 117 155 203 266 331 398 466
#     4  12  30  53  76 115 161 222 259 329 405 492
#     4  12  26  48  80 116 155 204 265 337 394 468
#     4  12  26  50  81 120 151 205 272 334 396 468
#     4  12  27  50  81 113 162 208 264 335 401 468
#     4  12  29  52  78 112 163 208 271 328 402 480
#
# _framework density 24.652667999999998
#
# number of rings (size 3 to 8) (size 9 to 14) (size 15 to 20)
#    0.000    0.000    7.143    0.857    8.000    2.286 
#    0.000    0.000    0.000    0.000    0.000    0.000 
#    0.000    0.000    0.000    0.000    0.000    0.000 
#
# Total GULP energy -173514.352727 kJ/mol
# GULP energy per Si atom -12393.882338 kJ/mol
# Density = 2.459656 g / cm^3
# Si number density = 24.652668 Si / 1000 Ang^3
#
#
#
# Elastic Constant Matrix: (Units=GPa)
#
#
# Indices 1 2 3 4 5 6 
#
# 1 80.4378 46.8455 39.7518 0.0000 20.2239 0.0000
# 2 46.8455 141.3670 64.8612 0.0000 -0.0442 0.0000
# 3 39.7518 64.8612 157.7474 0.0000 26.5860 0.0000
# 4 0.0000 0.0000 0.0000 47.8966 0.0000 13.7428
# 5 20.2239 -0.0442 26.5860 0.0000 38.9481 0.0000
# 6 0.0000 0.0000 0.0000 13.7428 0.0000 36.4670
#
#
#
# Elastic Compliance Matrix: (Units=1/GPa)
#
#
# Indices 1 2 3 4 5 6 
#
# 1 0.018444 -0.005773 -0.000745 0.000000 -0.009075 0.000000
# 2 -0.005773 0.010800 -0.003947 0.000000 0.005704 0.000000
# 3 -0.000745 -0.003947 0.009136 0.000000 -0.005854 0.000000
# 4 0.000000 0.000000 0.000000 0.023410 0.000000 -0.008822
# 5 -0.009075 0.005704 -0.005854 0.000000 0.034390 0.000000
# 6 0.000000 0.000000 0.000000 -0.008822 0.000000 0.030747
#
#
# Mechanical properties :
#
#
# Convention : Reuss Voigt Hill
#
# Bulk Modulus (GPa) = 57.30480 75.82993 66.56736
# Shear Modulus (GPa) = 32.53672 39.86858 36.20265
#
# Velocity S-wave (km/s) = 3.63685 4.02582 3.83627
# Velocity P-wave (km/s) = 6.39773 7.24125 6.83252
#
# Compressibility (1/GPa) = 0.01745055
#
# Stress axis : x y z
#
# Youngs Moduli (GPa) = 54.21881 92.59628 109.45148
#
# Poissons Ratio (x) = 0.53456 0.08149
# Poissons Ratio (y) = 0.31301 0.43201
# Poissons Ratio (z) = 0.04037 0.36548
#
# Static dielectric constant tensor:
#      x y z
#    x 4.377640 0.000000 0.406510 
#    y 0.000000 4.582740 0.000000 
#    z 0.406510 0.000000 4.634850 
# 
# 
# High freq. dielectric constant tensor:
#      x y z
#    x 1.967850 0.000000 0.027870 
#    y 0.000000 1.988930 0.000000 
#    z 0.027870 0.000000 1.998120 
# 
# From -- ./inp_files/7476.got.cif
#   From: 2010.03.12/outbox.cif.g09.slc.cpg/sg4_4_cif.got.tgz:7476.got - 2010.03.31 09:31:35.
