data_PCOD8047606
_publ_section_title
;
Structure prediction by ZEFSAII (Michael W. Deem and Ramdas Pophale) SiO2 
 PCOD8047606
Probable space group: P 21
;
_chemical_formula_sum "Si O2"
_cell_formula_units_Z 14
_cell_length_a 7.032132
_cell_length_b 6.675786
_cell_length_c 16.191550
_cell_angle_alpha 90.000000
_cell_angle_beta 114.067150
_cell_angle_gamma 90.000000
_cell_volume 694.034461
_symmetry_space_group_name_H-M "P 21"
_symmetry_group_IT_number 4
_symmetry_cell_setting 'monoclinic'
loop_
_space_group_symop_operation_xyz
x,y,z
-x,1/2+y,-z
loop_
_atom_site_type_symbol
_atom_site_label
_atom_site_fract_x
_atom_site_fract_y
_atom_site_fract_z
Si Si1 0.001580 0.954560 0.098627
Si Si2 0.809659 0.643059 0.709706
Si Si3 0.701943 0.249678 0.590483
Si Si4 0.435143 0.909032 0.608297
Si Si5 0.084822 0.967671 0.677021
Si Si6 0.708114 0.287186 0.987542
Si Si7 0.269723 0.119587 0.875063
O O1 0.174250 0.912453 0.060986
O O2 0.922365 0.746380 0.122585
O O3 0.105815 0.095289 0.185013
O O4 0.812775 0.073024 0.022592
O O5 0.756283 0.444807 0.651060
O O6 0.606025 0.778552 0.687192
O O7 0.986642 0.760595 0.690826
O O8 0.611114 0.301692 0.485780
O O9 0.524067 0.131284 0.609196
O O10 0.905719 0.115646 0.614246
O O11 0.226757 0.920163 0.624010
O O12 0.222906 0.070120 0.772112
O O13 0.475904 0.253356 0.913898
O O14 0.702401 0.414518 0.070269
#
# Coordination Sequence:
#
# PCOD8047606 Si02
#       7
#     2   2   2   2   2   2   2
#     4  12  25  44  68  98 137 175 220 274 335 384
#     4  11  25  45  67  98 138 171 218 280 324 393
#     4  11  24  45  66  99 137 174 215 275 327 397
#     4  11  26  44  68 101 134 173 225 267 333 395
#     4  11  27  42  70  99 134 173 221 275 330 393
#     4  12  26  42  71  95 134 180 217 274 332 390
#     4  12  25  44  64 104 134 168 228 273 325 398
#
# _framework density 20.17191
#
# number of rings (size 3 to 8) (size 9 to 14) (size 15 to 20)
#    0.000    0.571    7.143    0.000    4.000    4.571 
#    0.000    0.000    0.000    0.000    0.000    0.000 
#    0.000    0.000    0.000    0.000    0.000    0.000 
#
# Total GULP energy -173716.405952 kJ/mol
# GULP energy per Si atom -12408.314711 kJ/mol
# Density = 2.012600 g / cm^3
# Si number density = 20.171910 Si / 1000 Ang^3
#
#
#
# Elastic Constant Matrix: (Units=GPa)
#
#
# Indices 1 2 3 4 5 6 
#
# 1 83.9585 21.1677 17.5027 0.0000 0.2460 0.0000
# 2 21.1677 94.9798 25.7242 0.0000 2.1590 0.0000
# 3 17.5027 25.7242 66.9573 0.0000 14.1954 0.0000
# 4 0.0000 0.0000 0.0000 47.2711 0.0000 8.8094
# 5 0.2460 2.1590 14.1954 0.0000 29.5032 0.0000
# 6 0.0000 0.0000 0.0000 8.8094 0.0000 34.1526
#
#
#
# Elastic Compliance Matrix: (Units=1/GPa)
#
#
# Indices 1 2 3 4 5 6 
#
# 1 0.013053 -0.002160 -0.002887 0.000000 0.001438 0.000000
# 2 -0.002160 0.012166 -0.004370 0.000000 0.001230 0.000000
# 3 -0.002887 -0.004370 0.019260 0.000000 -0.008923 0.000000
# 4 0.000000 0.000000 0.000000 0.022223 0.000000 -0.005732
# 5 0.001438 0.001230 -0.008923 0.000000 0.038086 0.000000
# 6 0.000000 0.000000 0.000000 -0.005732 0.000000 0.030759
#
#
# Mechanical properties :
#
#
# Convention : Reuss Voigt Hill
#
# Bulk Modulus (GPa) = 38.99475 41.63164 40.31320
# Shear Modulus (GPa) = 30.68823 34.28545 32.48684
#
# Velocity S-wave (km/s) = 3.90466 4.12717 4.01746
# Velocity P-wave (km/s) = 6.30093 6.58746 6.44578
#
# Compressibility (1/GPa) = 0.02564448
#
# Stress axis : x y z
#
# Youngs Moduli (GPa) = 76.61166 82.19945 51.92009
#
# Poissons Ratio (x) = 0.17753 0.14991
# Poissons Ratio (y) = 0.16546 0.22690
# Poissons Ratio (z) = 0.22120 0.35922
#
# Static dielectric constant tensor:
#      x y z
#    x 3.693270 0.000000 0.147450 
#    y 0.000000 3.812260 0.000000 
#    z 0.147450 0.000000 3.835860 
# 
# 
# High freq. dielectric constant tensor:
#      x y z
#    x 1.793090 0.000000 0.010570 
#    y 0.000000 1.803650 0.000000 
#    z 0.010570 0.000000 1.798380 
# 
# From -- ./inp_files/3306.got.cif
#   From: 2010.03.12/outbox.cif.g09.slc.cpg/sg4_2_cif.got.tgz:3306.got - 2010.03.31 09:31:35.
