data_PCOD8047117
_publ_section_title
;
Structure prediction by ZEFSAII (Michael W. Deem and Ramdas Pophale) SiO2 
 PCOD8047117
Probable space group: P 21
;
_chemical_formula_sum "Si O2"
_cell_formula_units_Z 14
_cell_length_a 10.183976
_cell_length_b 7.650835
_cell_length_c 9.027895
_cell_angle_alpha 90.000000
_cell_angle_beta 62.906230
_cell_angle_gamma 90.000000
_cell_volume 626.225432
_symmetry_space_group_name_H-M "P 21"
_symmetry_group_IT_number 4
_symmetry_cell_setting 'monoclinic'
loop_
_space_group_symop_operation_xyz
x,y,z
-x,1/2+y,-z
loop_
_atom_site_type_symbol
_atom_site_label
_atom_site_fract_x
_atom_site_fract_y
_atom_site_fract_z
Si Si1 0.841920 0.394460 0.602150
Si Si2 0.688695 0.690521 0.497531
Si Si3 0.857224 0.028603 0.439633
Si Si4 0.567942 0.166866 0.161959
Si Si5 0.185543 0.083660 0.864210
Si Si6 0.874640 0.179726 0.113576
Si Si7 0.640337 0.494813 0.963597
O O1 0.798055 0.556024 0.521260
O O2 0.813554 0.207861 0.541829
O O3 0.748159 0.388956 0.800381
O O4 0.012140 0.423425 0.549171
O O5 0.523486 0.645555 0.638096
O O6 0.706243 0.668067 0.312766
O O7 0.721951 0.892752 0.519352
O O8 0.903419 0.073286 0.248478
O O9 0.733684 0.092465 0.101418
O O10 0.491029 0.079249 0.060611
O O11 0.568973 0.370372 0.122578
O O12 0.166857 0.879777 0.835896
O O13 0.023040 0.170959 0.939199
O O14 0.259356 0.125514 0.987365
#
# Coordination Sequence:
#
# PCOD8047117 Si02
#       7
#     2   2   2   2   2   2   2
#     4  11  23  43  68 105 140 177 240 295 342 426
#     4  11  25  44  70 101 141 188 231 293 356 425
#     4  12  23  42  73 105 138 189 234 293 358 406
#     4  10  26  46  66 101 142 188 232 289 370 416
#     4  11  23  44  72 103 142 180 246 295 341 431
#     4  11  24  43  70 105 142 185 238 291 357 421
#     4  10  24  46  69 100 143 183 239 294 352 429
#
# _framework density 22.356166999999999
#
# number of rings (size 3 to 8) (size 9 to 14) (size 15 to 20)
#    0.000    1.143    4.286    0.857    4.000    4.571 
#    0.000    0.000    0.000    0.000    0.000    0.000 
#    0.000    0.000    0.000    0.000    0.000    0.000 
#
# Total GULP energy -173580.828523 kJ/mol
# GULP energy per Si atom -12398.630609 kJ/mol
# Density = 2.230528 g / cm^3
# Si number density = 22.356167 Si / 1000 Ang^3
#
#
#
# Elastic Constant Matrix: (Units=GPa)
#
#
# Indices 1 2 3 4 5 6 
#
# 1 117.7254 18.4575 69.2457 0.0000 4.3375 0.0000
# 2 18.4575 94.1193 25.9327 0.0000 15.1912 0.0000
# 3 69.2457 25.9327 123.5551 0.0000 5.0304 0.0000
# 4 0.0000 0.0000 0.0000 35.7964 0.0000 4.2903
# 5 4.3375 15.1912 5.0304 0.0000 24.8328 0.0000
# 6 0.0000 0.0000 0.0000 4.2903 0.0000 29.9764
#
#
#
# Elastic Compliance Matrix: (Units=1/GPa)
#
#
# Indices 1 2 3 4 5 6 
#
# 1 0.012705 -0.000481 -0.006999 0.000000 -0.000507 0.000000
# 2 -0.000481 0.012431 -0.002050 0.000000 -0.007105 0.000000
# 3 -0.006999 -0.002050 0.012448 0.000000 -0.000045 0.000000
# 4 0.000000 0.000000 0.000000 0.028423 0.000000 -0.004068
# 5 -0.000507 -0.007105 -0.000045 0.000000 0.044713 0.000000
# 6 0.000000 0.000000 0.000000 -0.004068 0.000000 0.033942
#
#
# Mechanical properties :
#
#
# Convention : Reuss Voigt Hill
#
# Bulk Modulus (GPa) = 53.98502 62.51905 58.25204
# Shear Modulus (GPa) = 29.42944 32.90538 31.16741
#
# Velocity S-wave (km/s) = 3.63215 3.84066 3.73786
# Velocity P-wave (km/s) = 6.46453 6.90603 6.68892
#
# Compressibility (1/GPa) = 0.01852366
#
# Stress axis : x y z
#
# Youngs Moduli (GPa) = 78.70786 80.44502 80.33326
#
# Poissons Ratio (x) = 0.03872 0.56224
# Poissons Ratio (y) = 0.03789 0.16469
# Poissons Ratio (z) = 0.55087 0.16491
#
# Static dielectric constant tensor:
#      x y z
#    x 4.391560 0.000000 0.073040 
#    y 0.000000 3.898180 0.000000 
#    z 0.073040 0.000000 3.978060 
# 
# 
# High freq. dielectric constant tensor:
#      x y z
#    x 1.887070 0.000000 0.002440 
#    y 0.000000 1.875890 0.000000 
#    z 0.002440 0.000000 1.882980 
# 
# From -- ./inp_files/5252.got.cif
#   From: 2010.03.12/outbox.cif.g09.slc.cpg/sg4_3_cif.got.tgz:5252.got - 2010.03.31 09:31:35.
