data_PCOD8047840
_publ_section_title
;
Structure prediction by ZEFSAII (Michael W. Deem and Ramdas Pophale) SiO2 
 PCOD8047840
Probable space group: P 21
;
_chemical_formula_sum "Si O2"
_cell_formula_units_Z 14
_cell_length_a 7.206940
_cell_length_b 8.032090
_cell_length_c 15.173658
_cell_angle_alpha 90.000000
_cell_angle_beta 44.790396
_cell_angle_gamma 90.000000
_cell_volume 618.814054
_symmetry_space_group_name_H-M "P 21"
_symmetry_group_IT_number 4
_symmetry_cell_setting 'monoclinic'
loop_
_space_group_symop_operation_xyz
x,y,z
-x,1/2+y,-z
loop_
_atom_site_type_symbol
_atom_site_label
_atom_site_fract_x
_atom_site_fract_y
_atom_site_fract_z
Si Si1 0.389580 0.388070 0.171061
Si Si2 0.493342 0.809623 0.055213
Si Si3 0.078411 0.229284 0.786254
Si Si4 0.168133 0.119842 0.942479
Si Si5 0.380321 0.548580 0.641544
Si Si6 0.794588 0.417767 0.363443
Si Si7 0.418524 0.546779 0.829226
O O1 0.592716 0.493940 0.161428
O O2 0.464723 0.199511 0.157545
O O3 0.090601 0.417772 0.301659
O O4 0.431270 0.426969 0.052151
O O5 0.754583 0.700788 0.989165
O O6 0.232271 0.701152 0.124843
O O7 0.438541 0.897374 0.168024
O O8 0.144746 0.247522 0.867960
O O9 0.156973 0.404151 0.713499
O O10 0.227911 0.062219 0.703185
O O11 0.894807 0.027133 0.050111
O O12 0.611875 0.478660 0.503530
O O13 0.279698 0.732201 0.646315
O O14 0.496326 0.559580 0.700924
#
# Coordination Sequence:
#
# PCOD8047840 Si02
#       7
#     2   2   2   2   2   2   2
#     4  12  24  44  70 111 145 191 248 304 373 453
#     4  12  23  44  73 108 151 186 240 314 384 443
#     4  12  24  50  78 106 148 196 248 314 380 440
#     4  12  23  44  73 108 151 186 240 314 384 443
#     4  12  26  49  75 105 151 204 254 306 367 440
#     4  12  26  49  75 105 151 204 254 306 367 440
#     4  12  24  44  70 111 145 191 248 304 373 453
#
# _framework density 22.623919999999998
#
# number of rings (size 3 to 8) (size 9 to 14) (size 15 to 20)
#    0.000    0.000    5.714    6.000    0.000    0.000 
#    5.143    0.000    0.000    0.000    0.000    0.000 
#    0.000    0.000    0.000    0.000    0.000    0.000 
#
# Total GULP energy -173496.468744 kJ/mol
# GULP energy per Si atom -12392.604910 kJ/mol
# Density = 2.257243 g / cm^3
# Si number density = 22.623920 Si / 1000 Ang^3
#
#
#
# Elastic Constant Matrix: (Units=GPa)
#
#
# Indices 1 2 3 4 5 6 
#
# 1 128.1589 29.9996 57.4990 0.0000 1.9375 0.0000
# 2 29.9996 125.9216 38.8552 0.0000 -0.8184 0.0000
# 3 57.4990 38.8552 128.0316 0.0000 1.9689 0.0000
# 4 0.0000 0.0000 0.0000 40.0295 0.0000 1.6440
# 5 1.9375 -0.8184 1.9689 0.0000 25.9457 0.0000
# 6 0.0000 0.0000 0.0000 1.6440 0.0000 36.8486
#
#
#
# Elastic Compliance Matrix: (Units=1/GPa)
#
#
# Indices 1 2 3 4 5 6 
#
# 1 0.009911 -0.001096 -0.004111 0.000000 -0.000463 0.000000
# 2 -0.001096 0.008889 -0.002214 0.000000 0.000530 0.000000
# 3 -0.004111 -0.002214 0.010337 0.000000 -0.000547 0.000000
# 4 0.000000 0.000000 0.000000 0.025027 0.000000 -0.001117
# 5 -0.000463 0.000530 -0.000547 0.000000 0.038635 0.000000
# 6 0.000000 0.000000 0.000000 -0.001117 0.000000 0.027188
#
#
# Mechanical properties :
#
#
# Convention : Reuss Voigt Hill
#
# Bulk Modulus (GPa) = 69.95117 70.53553 70.24335
# Shear Modulus (GPa) = 35.81819 37.61531 36.71675
#
# Velocity S-wave (km/s) = 3.98326 4.08197 4.03291
# Velocity P-wave (km/s) = 7.22090 7.31175 7.26647
#
# Compressibility (1/GPa) = 0.01429569
#
# Stress axis : x y z
#
# Youngs Moduli (GPa) = 100.89970 112.49865 96.73751
#
# Poissons Ratio (x) = 0.12325 0.39772
# Poissons Ratio (y) = 0.11054 0.21416
# Poissons Ratio (z) = 0.41484 0.24905
#
# Static dielectric constant tensor:
#      x y z
#    x 4.163590 0.000000 0.030780 
#    y 0.000000 4.455230 0.000000 
#    z 0.030780 0.000000 3.912540 
# 
# 
# High freq. dielectric constant tensor:
#      x y z
#    x 1.900510 0.000000 -0.000740 
#    y 0.000000 1.924030 0.000000 
#    z -0.000740 0.000000 1.867220 
# 
# From -- ./inp_files/2389.got.cif
#   From: 2010.03.12/outbox.cif.g09.slc.cpg/sg4_2_cif.got.tgz:2389.got - 2010.03.31 09:31:35.
