data_PCOD8047716
_publ_section_title
;
Structure prediction by ZEFSAII (Michael W. Deem and Ramdas Pophale) SiO2 
 PCOD8047716
Probable space group: P 21
;
_chemical_formula_sum "Si O2"
_cell_formula_units_Z 16
_cell_length_a 6.499865
_cell_length_b 14.415371
_cell_length_c 8.560149
_cell_angle_alpha 90.000000
_cell_angle_beta 122.076314
_cell_angle_gamma 90.000000
_cell_volume 679.625987
_symmetry_space_group_name_H-M "P 21"
_symmetry_group_IT_number 4
_symmetry_cell_setting 'monoclinic'
loop_
_space_group_symop_operation_xyz
x,y,z
-x,1/2+y,-z
loop_
_atom_site_type_symbol
_atom_site_label
_atom_site_fract_x
_atom_site_fract_y
_atom_site_fract_z
Si Si1 0.272801 0.858800 0.307970
Si Si2 0.117677 0.051013 0.619384
Si Si3 0.184078 0.328127 0.059754
Si Si4 0.432261 0.140670 0.162129
Si Si5 0.591400 0.012151 0.959822
Si Si6 0.883465 0.222582 0.499223
Si Si7 0.814522 0.868274 0.572567
Si Si8 0.089233 0.055955 0.262430
O O1 0.269842 0.783080 0.442219
O O2 0.554111 0.878706 0.380468
O O3 0.149311 0.949951 0.326444
O O4 0.106385 0.830977 0.091499
O O5 0.407589 0.033602 0.743763
O O6 0.050287 0.091419 0.420617
O O7 0.028959 0.146506 0.666928
O O8 0.964969 0.963390 0.616613
O O9 0.281159 0.229087 0.038870
O O10 0.339438 0.403169 0.019647
O O11 0.220159 0.346406 0.258108
O O12 0.700404 0.173216 0.306541
O O13 0.310204 0.107158 0.272099
O O14 0.439579 0.050580 0.049250
O O15 0.846963 0.067670 0.056942
O O16 0.055736 0.285117 0.462005
#
# Coordination Sequence:
#
# PCOD8047716 Si02
#       8
#     2   2   2   2   2   2   2   2
#     4  11  25  46  70 103 144 190 243 292 364 427
#     4  12  25  45  75 104 146 191 239 296 367 430
#     4  11  26  48  74 107 145 193 242 294 368 427
#     4  12  25  50  75 105 150 188 245 305 351 430
#     4  11  27  47  71 109 147 186 243 300 361 428
#     4  12  25  47  72 108 143 193 242 298 363 430
#     4  12  26  49  72 105 151 186 238 306 357 429
#     4  11  25  48  71 105 142 191 240 299 357 423
#
# _framework density 23.542362000000001
#
# number of rings (size 3 to 8) (size 9 to 14) (size 15 to 20)
#    0.000    0.500    3.750    3.750    3.500    1.000 
#    2.250    0.000    0.000    0.000    0.000    0.000 
#    0.000    0.000    0.000    0.000    0.000    0.000 
#
# Total GULP energy -198253.533790 kJ/mol
# GULP energy per Si atom -12390.845862 kJ/mol
# Density = 2.348878 g / cm^3
# Si number density = 23.542362 Si / 1000 Ang^3
#
#
#
# Elastic Constant Matrix: (Units=GPa)
#
#
# Indices 1 2 3 4 5 6 
#
# 1 108.6058 48.9212 51.8015 0.0000 20.7023 0.0000
# 2 48.9212 128.6997 48.7274 0.0000 -4.6603 0.0000
# 3 51.8015 48.7274 116.7048 0.0000 37.2075 0.0000
# 4 0.0000 0.0000 0.0000 31.1107 0.0000 -0.3047
# 5 20.7023 -4.6603 37.2075 0.0000 40.5987 0.0000
# 6 0.0000 0.0000 0.0000 -0.3047 0.0000 46.8231
#
#
#
# Elastic Compliance Matrix: (Units=1/GPa)
#
#
# Indices 1 2 3 4 5 6 
#
# 1 0.013281 -0.004265 -0.002542 0.000000 -0.004932 0.000000
# 2 -0.004265 0.011989 -0.005997 0.000000 0.009047 0.000000
# 3 -0.002542 -0.005997 0.016964 0.000000 -0.014939 0.000000
# 4 0.000000 0.000000 0.000000 0.032145 0.000000 0.000209
# 5 -0.004932 0.009047 -0.014939 0.000000 0.041876 0.000000
# 6 0.000000 0.000000 0.000000 0.000209 0.000000 0.021358
#
#
# Mechanical properties :
#
#
# Convention : Reuss Voigt Hill
#
# Bulk Modulus (GPa) = 60.14534 72.54561 66.34548
# Shear Modulus (GPa) = 29.62706 37.34386 33.48546
#
# Velocity S-wave (km/s) = 3.55132 3.98708 3.77550
# Velocity P-wave (km/s) = 6.51299 7.21648 6.87374
#
# Compressibility (1/GPa) = 0.01662639
#
# Stress axis : x y z
#
# Youngs Moduli (GPa) = 75.29419 83.40704 58.94878
#
# Poissons Ratio (x) = 0.35570 0.14985
# Poissons Ratio (y) = 0.32110 0.35354
# Poissons Ratio (z) = 0.19140 0.50023
#
# Static dielectric constant tensor:
#      x y z
#    x 4.038070 0.000000 0.263020 
#    y 0.000000 4.622580 0.000000 
#    z 0.263020 0.000000 4.417110 
# 
# 
# High freq. dielectric constant tensor:
#      x y z
#    x 1.929020 0.000000 0.023680 
#    y 0.000000 1.952000 0.000000 
#    z 0.023680 0.000000 1.933750 
# 
# From -- ./inp_files/4804.got.cif
#   From: 2010.03.12/outbox.cif.g09.slc.cpg/sg4_3_cif.got.tgz:4804.got - 2010.03.31 09:31:35.
