data_PCOD8048426
_publ_section_title
;
Structure prediction by ZEFSAII (Michael W. Deem and Ramdas Pophale) SiO2 
 PCOD8048426
Probable space group: C 2
;
_chemical_formula_sum "Si O2"
_cell_formula_units_Z 28
_cell_length_a 11.061610
_cell_length_b 14.355749
_cell_length_c 10.385796
_cell_angle_alpha 90.000000
_cell_angle_beta 57.429939
_cell_angle_gamma 90.000000
_cell_volume 1389.870713
_symmetry_space_group_name_H-M "C 2"
_symmetry_group_IT_number 5
_symmetry_cell_setting 'monoclinic'
loop_
_space_group_symop_operation_xyz
x,y,z
-x,y,-z
1/2+x,1/2+y,z
1/2-x,1/2+y,-z
loop_
_atom_site_type_symbol
_atom_site_label
_atom_site_fract_x
_atom_site_fract_y
_atom_site_fract_z
Si Si1 0.878788 0.419370 0.766198
Si Si2 0.500000 0.677199 0.000000
Si Si3 0.759120 0.640358 0.413424
Si Si4 0.217328 0.333886 0.927027
Si Si5 0.233212 0.080427 0.709785
Si Si6 0.000000 0.274417 0.500000
Si Si7 0.096701 0.499681 0.832216
Si Si8 0.959310 0.734043 0.660528
O O1 0.776084 0.477164 0.730221
O O2 0.955293 0.336609 0.646538
O O3 0.002871 0.482639 0.757947
O O4 0.776291 0.381998 0.938205
O O5 0.619314 0.742082 0.998134
O O6 0.576911 0.611111 0.851089
O O7 0.728970 0.580206 0.558230
O O8 0.630462 0.710078 0.465743
O O9 0.776071 0.569701 0.282483
O O10 0.902469 0.701446 0.340981
O O11 0.154265 0.401413 0.852795
O O12 0.379038 0.309524 0.794459
O O13 0.355540 0.148048 0.691848
O O14 0.000000 0.547037 0.000000
O O15 0.000000 0.780543 0.500000
#
# Coordination Sequence:
#
# PCOD8048426 Si02
#       8
#     4   2   4   4   4   2   4   4
#     4  11  21  42  62  93 123 167 209 253 320 364
#     4  10  18  38  64  94 122 162 208 250 302 378
#     4  11  23  44  59  92 122 165 216 255 320 363
#     4  10  20  39  64  95 127 163 204 254 309 375
#     4  10  21  40  68  91 120 166 208 257 309 381
#     4  12  28  40  64  88 128 168 210 276 306 364
#     4  10  21  39  64  90 127 165 203 250 312 383
#     4   9  20  37  66  90 117 161 209 251 307 374
#
# _framework density 20.145758000000001
#
# number of rings (size 3 to 8) (size 9 to 14) (size 15 to 20)
#    0.000    1.714    3.571    1.714    5.000    1.143 
#   11.571    0.000    0.000    0.000    0.000    0.000 
#    0.000    0.000    0.000    0.000    0.000    0.000 
#
# Total GULP energy -173613.411474 kJ/mol
# GULP energy per Si atom -12400.957962 kJ/mol
# Density = 2.009991 g / cm^3
# Si number density = 20.145758 Si / 1000 Ang^3
#
#
#
# Elastic Constant Matrix: (Units=GPa)
#
#
# Indices 1 2 3 4 5 6 
#
# 1 81.1925 39.3295 55.2965 0.0000 -11.3758 0.0000
# 2 39.3295 96.8825 75.7544 0.0000 -8.3570 0.0000
# 3 55.2965 75.7544 156.5215 0.0000 -14.5196 0.0000
# 4 0.0000 0.0000 0.0000 44.7000 0.0000 -8.1491
# 5 -11.3758 -8.3570 -14.5196 0.0000 34.0604 0.0000
# 6 0.0000 0.0000 0.0000 -8.1491 0.0000 6.0508
#
#
#
# Elastic Compliance Matrix: (Units=1/GPa)
#
#
# Indices 1 2 3 4 5 6 
#
# 1 0.017258 -0.003532 -0.004095 0.000000 0.003152 0.000000
# 2 -0.003532 0.017344 -0.007144 0.000000 0.000031 0.000000
# 3 -0.004095 -0.007144 0.011457 0.000000 0.001763 0.000000
# 4 0.000000 0.000000 0.000000 0.029652 0.000000 0.039934
# 5 0.003152 0.000031 0.001763 0.000000 0.031171 0.000000
# 6 0.000000 0.000000 0.000000 0.039934 0.000000 0.219049
#
#
# Mechanical properties :
#
#
# Convention : Reuss Voigt Hill
#
# Bulk Modulus (GPa) = 60.54345 75.03970 67.79157
# Shear Modulus (GPa) = 13.85127 27.90997 20.88062
#
# Velocity S-wave (km/s) = 2.62497 3.72614 3.22293
# Velocity P-wave (km/s) = 6.26939 7.47271 6.89734
#
# Compressibility (1/GPa) = 0.01651706
#
# Stress axis : x y z
#
# Youngs Moduli (GPa) = 57.94469 57.65691 87.28531
#
# Poissons Ratio (x) = 0.20364 0.35745
# Poissons Ratio (y) = 0.20465 0.62354
# Poissons Ratio (z) = 0.23729 0.41188
#
# Static dielectric constant tensor:
#      x y z
#    x 3.490880 0.000000 -0.208770 
#    y 0.000000 3.548230 0.000000 
#    z -0.208770 0.000000 3.994570 
# 
# 
# High freq. dielectric constant tensor:
#      x y z
#    x 1.765790 0.000000 -0.009350 
#    y 0.000000 1.775770 0.000000 
#    z -0.009350 0.000000 1.806580 
# 
# From -- ./inp_files/20573.got.cif
#   From: 2010.03.12/outbox.cif.g09.slc.cpg/sg5_11_cif.got.tgz:20573.got - 2010.03.31 09:47:26.
