data_PCOD8048911
_publ_section_title
;
Structure prediction by ZEFSAII (Michael W. Deem and Ramdas Pophale) SiO2 
 PCOD8048911
Probable space group: C 2
;
_chemical_formula_sum "Si O2"
_cell_formula_units_Z 30
_cell_length_a 8.879468
_cell_length_b 16.176343
_cell_length_c 10.814490
_cell_angle_alpha 90.000000
_cell_angle_beta 106.636627
_cell_angle_gamma 90.000000
_cell_volume 1488.340139
_symmetry_space_group_name_H-M "C 2"
_symmetry_group_IT_number 5
_symmetry_cell_setting 'monoclinic'
loop_
_space_group_symop_operation_xyz
x,y,z
-x,y,-z
1/2+x,1/2+y,z
1/2-x,1/2+y,-z
loop_
_atom_site_type_symbol
_atom_site_label
_atom_site_fract_x
_atom_site_fract_y
_atom_site_fract_z
Si Si1 0.124808 0.741240 0.417100
Si Si2 0.505968 0.564650 0.188186
Si Si3 0.160514 0.088639 0.465987
Si Si4 0.709222 0.415673 0.810384
Si Si5 0.742465 0.605282 0.047569
Si Si6 0.069086 0.756270 0.877555
Si Si7 0.683759 0.408141 0.530251
Si Si8 0.500000 0.000903 0.000000
O O1 0.230228 0.659673 0.452447
O O2 0.223201 0.828037 0.453155
O O3 0.000000 0.738427 0.500000
O O4 0.053880 0.740492 0.262293
O O5 0.610555 0.611527 0.314806
O O6 0.434066 0.481058 0.227813
O O7 0.630711 0.549644 0.107770
O O8 0.354741 0.616743 0.104159
O O9 0.000000 0.086175 0.500000
O O10 0.246551 0.997520 0.494122
O O11 0.644941 0.345713 0.885587
O O12 0.750647 0.387092 0.681887
O O13 0.873620 0.446049 0.900873
O O14 0.783731 0.694974 0.109260
O O15 0.908086 0.558641 0.074502
O O16 0.000000 0.743499 0.000000
O O17 0.500000 0.416327 0.500000
#
# Coordination Sequence:
#
# PCOD8048911 Si02
#       8
#     4   4   4   4   4   4   4   2
#     4  11  23  43  65  94 126 168 218 262 316 385
#     4  10  21  40  66  91 123 167 213 257 317 390
#     4  11  22  38  70  92 120 173 213 258 323 379
#     4  11  22  43  66  92 124 168 216 260 328 382
#     4  10  23  40  61  90 132 160 208 267 313 380
#     4  12  25  38  64  94 129 171 212 264 322 381
#     4  10  19  42  65  88 123 168 212 259 314 384
#     4  10  24  40  62  94 122 164 208 270 316 380
#
# _framework density 20.156683999999998
#
# number of rings (size 3 to 8) (size 9 to 14) (size 15 to 20)
#    0.000    1.333    6.000    0.800    7.467    1.067 
#    0.000    0.667    0.000    0.000    0.000    0.000 
#    0.000    0.000    0.000    0.000    0.000    0.000 
#
# Total GULP energy -185844.359994 kJ/mol
# GULP energy per Si atom -12389.624000 kJ/mol
# Density = 2.011081 g / cm^3
# Si number density = 20.156684 Si / 1000 Ang^3
#
#
#
# Elastic Constant Matrix: (Units=GPa)
#
#
# Indices 1 2 3 4 5 6 
#
# 1 77.1263 33.3914 35.6152 0.0000 7.3548 0.0000
# 2 33.3914 136.2350 52.4621 0.0000 15.9857 0.0000
# 3 35.6152 52.4621 142.4855 0.0000 0.1238 0.0000
# 4 0.0000 0.0000 0.0000 28.1026 0.0000 -11.3546
# 5 7.3548 15.9857 0.1238 0.0000 21.4701 0.0000
# 6 0.0000 0.0000 0.0000 -11.3546 0.0000 -20.3305
#
#
#
# Elastic Compliance Matrix: (Units=1/GPa)
#
#
# Indices 1 2 3 4 5 6 
#
# 1 0.015716 -0.002219 -0.003108 0.000000 -0.003713 0.000000
# 2 -0.002219 0.009830 -0.003059 0.000000 -0.006541 0.000000
# 3 -0.003108 -0.003059 0.008918 0.000000 0.003291 0.000000
# 4 0.000000 0.000000 0.000000 0.029033 0.000000 -0.016215
# 5 -0.003713 -0.006541 0.003291 0.000000 0.052699 0.000000
# 6 0.000000 0.000000 0.000000 -0.016215 0.000000 -0.040131
#
#
# Mechanical properties :
#
#
# Convention : Reuss Voigt Hill
#
# Bulk Modulus (GPa) = 56.52346 66.53156 61.52751
# Shear Modulus (GPa) = 50.64111 21.47365 36.05738
#
# Velocity S-wave (km/s) = 5.01780 3.26749 4.23407
# Velocity P-wave (km/s) = 7.85328 6.87853 7.38201
#
# Compressibility (1/GPa) = 0.01769177
#
# Stress axis : x y z
#
# Youngs Moduli (GPa) = 63.62984 101.73335 112.12728
#
# Poissons Ratio (x) = 0.22580 0.34848
# Poissons Ratio (y) = 0.14123 0.34297
# Poissons Ratio (z) = 0.19775 0.31118
#
# Static dielectric constant tensor:
#      x y z
#    x 3.384160 0.000000 -0.000080 
#    y 0.000000 4.258120 0.000000 
#    z -0.000080 0.000000 5.533680 
# 
# 
# High freq. dielectric constant tensor:
#      x y z
#    x 1.758800 0.000000 0.005780 
#    y 0.000000 1.789670 0.000000 
#    z 0.005780 0.000000 1.806580 
# 
# From -- ./inp_files/36462.got.cif
#   From: 2010.03.12/outbox.cif.g09.slc.cpg/sg5_19_cif.got.tgz:36462.got - 2010.03.31 09:47:26.
