data_PCOD8048208
_publ_section_title
;
Structure prediction by ZEFSAII (Michael W. Deem and Ramdas Pophale) SiO2 
 PCOD8048208
Probable space group: C 2
;
_chemical_formula_sum "Si O2"
_cell_formula_units_Z 28
_cell_length_a 18.501696
_cell_length_b 13.920074
_cell_length_c 8.939838
_cell_angle_alpha 90.000000
_cell_angle_beta 42.561846
_cell_angle_gamma 90.000000
_cell_volume 1557.317323
_symmetry_space_group_name_H-M "C 2"
_symmetry_group_IT_number 5
_symmetry_cell_setting 'monoclinic'
loop_
_space_group_symop_operation_xyz
x,y,z
-x,y,-z
1/2+x,1/2+y,z
1/2-x,1/2+y,-z
loop_
_atom_site_type_symbol
_atom_site_label
_atom_site_fract_x
_atom_site_fract_y
_atom_site_fract_z
Si Si1 0.167046 0.362440 0.078944
Si Si2 0.964207 0.433865 0.211232
Si Si3 0.481632 0.110825 0.360774
Si Si4 0.286362 0.081005 0.975424
Si Si5 0.718737 0.212943 0.290623
Si Si6 0.113378 0.198436 0.389364
Si Si7 0.607398 0.740128 0.740728
O O1 0.213481 0.466504 0.045899
O O2 0.253940 0.310242 0.839690
O O3 0.148431 0.300356 0.259291
O O4 0.056405 0.373186 0.157392
O O5 0.874465 0.354870 0.309435
O O6 0.920391 0.522948 0.372968
O O7 0.000000 0.479973 0.000000
O O8 0.500000 0.073488 0.500000
O O9 0.407237 0.206588 0.466347
O O10 0.603315 0.122898 0.116241
O O11 0.194673 0.113243 0.227495
O O12 0.263568 0.122977 0.846112
O O13 0.791747 0.198349 0.324306
O O14 0.104435 0.195700 0.581279
O O15 0.000000 0.166546 0.500000
O O16 0.500000 0.718916 0.000000
#
# Coordination Sequence:
#
# PCOD8048208 Si02
#       7
#     4   4   4   4   4   4   4
#     4  10  19  36  58  83 116 145 198 232 281 339
#     4  10  18  31  54  85 112 142 186 244 278 322
#     4   9  20  34  57  83 114 148 191 231 283 337
#     4   9  21  37  55  86 110 151 196 240 276 341
#     4  10  19  35  54  85 117 150 184 240 290 333
#     4  11  21  35  60  84 113 155 193 236 285 344
#     4  11  20  34  54  86 116 147 183 244 291 327
#
# _framework density 17.979638000000001
#
# number of rings (size 3 to 8) (size 9 to 14) (size 15 to 20)
#    0.000    2.000    4.286    0.857    6.000    2.286 
#    0.000    3.571    0.000    0.000    0.000    1.000 
#    0.000    0.000    0.000    0.000    0.000    0.000 
#
# Total GULP energy -173453.921005 kJ/mol
# GULP energy per Si atom -12389.565786 kJ/mol
# Density = 1.793872 g / cm^3
# Si number density = 17.979638 Si / 1000 Ang^3
#
#
#
# Elastic Constant Matrix: (Units=GPa)
#
#
# Indices 1 2 3 4 5 6 
#
# 1 114.4988 39.2416 49.3085 0.0000 9.4036 0.0000
# 2 39.2416 83.8455 41.0625 0.0000 -11.0850 0.0000
# 3 49.3085 41.0625 104.3470 0.0000 -9.0016 0.0000
# 4 0.0000 0.0000 0.0000 25.6765 0.0000 -1.4828
# 5 9.4036 -11.0850 -9.0016 0.0000 30.2171 0.0000
# 6 0.0000 0.0000 0.0000 -1.4828 0.0000 28.6751
#
#
#
# Elastic Compliance Matrix: (Units=1/GPa)
#
#
# Indices 1 2 3 4 5 6 
#
# 1 0.013058 -0.004634 -0.004972 0.000000 -0.007245 0.000000
# 2 -0.004634 0.016853 -0.003884 0.000000 0.006468 0.000000
# 3 -0.004972 -0.003884 0.013827 0.000000 0.004241 0.000000
# 4 0.000000 0.000000 0.000000 0.039063 0.000000 0.002020
# 5 -0.007245 0.006468 0.004241 0.000000 0.038985 0.000000
# 6 0.000000 0.000000 0.000000 0.002020 0.000000 0.034978
#
#
# Mechanical properties :
#
#
# Convention : Reuss Voigt Hill
#
# Bulk Modulus (GPa) = 59.67411 62.43516 61.05463
# Shear Modulus (GPa) = 26.40891 28.45233 27.43062
#
# Velocity S-wave (km/s) = 3.83668 3.98235 3.91019
# Velocity P-wave (km/s) = 7.27246 7.47973 7.37682
#
# Compressibility (1/GPa) = 0.01675769
#
# Stress axis : x y z
#
# Youngs Moduli (GPa) = 76.58048 59.33669 72.32163
#
# Poissons Ratio (x) = 0.27499 0.35957
# Poissons Ratio (y) = 0.35491 0.28090
# Poissons Ratio (z) = 0.38074 0.23046
#
# Static dielectric constant tensor:
#      x y z
#    x 3.442880 0.000000 -0.049400 
#    y 0.000000 3.246150 0.000000 
#    z -0.049400 0.000000 3.634870 
# 
# 
# High freq. dielectric constant tensor:
#      x y z
#    x 1.696340 0.000000 0.013170 
#    y 0.000000 1.673600 0.000000 
#    z 0.013170 0.000000 1.693280 
# 
# From -- ./inp_files/20317.got.cif
#   From: 2010.03.12/outbox.cif.g09.slc.cpg/sg5_11_cif.got.tgz:20317.got - 2010.03.31 09:47:26.
