data_PCOD8048485
_publ_section_title
;
Structure prediction by ZEFSAII (Michael W. Deem and Ramdas Pophale) SiO2 
 PCOD8048485
Probable space group: C 2
;
_chemical_formula_sum "Si O2"
_cell_formula_units_Z 26
_cell_length_a 25.392731
_cell_length_b 7.970336
_cell_length_c 11.466732
_cell_angle_alpha 90.000000
_cell_angle_beta 27.954000
_cell_angle_gamma 90.000000
_cell_volume 1087.874005
_symmetry_space_group_name_H-M "C 2"
_symmetry_group_IT_number 5
_symmetry_cell_setting 'monoclinic'
loop_
_space_group_symop_operation_xyz
x,y,z
-x,y,-z
1/2+x,1/2+y,z
1/2-x,1/2+y,-z
loop_
_atom_site_type_symbol
_atom_site_label
_atom_site_fract_x
_atom_site_fract_y
_atom_site_fract_z
Si Si1 0.473891 0.468660 0.802327
Si Si2 0.812385 0.060583 0.502079
Si Si3 0.549951 0.085093 0.630945
Si Si4 0.500000 0.450029 0.500000
Si Si5 0.180422 0.437164 0.970189
Si Si6 0.750542 0.941166 0.368759
Si Si7 0.689424 0.188211 0.151806
O O1 0.553505 0.561977 0.740004
O O2 0.502031 0.270144 0.746604
O O3 0.501636 0.549960 0.619868
O O4 0.345818 0.501103 0.091133
O O5 0.758945 0.935767 0.702676
O O6 0.759637 0.242363 0.621073
O O7 0.786749 0.986954 0.426934
O O8 0.618659 0.069218 0.376343
O O9 0.631640 0.030526 0.576103
O O10 0.448136 0.953213 0.818428
O O11 0.612280 0.341830 0.263383
O O12 0.199642 0.260869 0.000275
O O13 0.222654 0.587387 0.971660
#
# Coordination Sequence:
#
# PCOD8048485 Si02
#       7
#     4   4   4   2   4   4   4
#     4  11  23  48  72 101 143 187 232 295 358 418
#     4  12  26  47  71 104 139 193 244 287 356 418
#     4  11  24  46  73 102 141 187 233 292 361 415
#     4  10  18  42  70  98 136 178 224 284 350 416
#     4  12  24  46  74 106 144 186 233 290 359 427
#     4  12  28  47  72 100 145 188 241 298 347 416
#     4  11  23  42  73 104 144 181 228 290 359 423
#
# _framework density 23.899826000000001
#
# number of rings (size 3 to 8) (size 9 to 14) (size 15 to 20)
#    0.000    0.615    7.692    1.385    4.308    1.846 
#    2.769    0.000    0.000    0.000    0.000    0.000 
#    0.000    0.000    0.000    0.000    0.000    0.000 
#
# Total GULP energy -161220.311109 kJ/mol
# GULP energy per Si atom -12401.562393 kJ/mol
# Density = 2.384543 g / cm^3
# Si number density = 23.899826 Si / 1000 Ang^3
#
#
#
# Elastic Constant Matrix: (Units=GPa)
#
#
# Indices 1 2 3 4 5 6 
#
# 1 156.6470 34.4795 53.8035 0.0000 -3.6031 0.0000
# 2 34.4795 21.5412 26.8450 0.0000 -5.2450 0.0000
# 3 53.8035 26.8450 116.7482 0.0000 -10.3725 0.0000
# 4 0.0000 0.0000 0.0000 30.2251 0.0000 -5.8210
# 5 -3.6031 -5.2450 -10.3725 0.0000 51.3048 0.0000
# 6 0.0000 0.0000 0.0000 -5.8210 0.0000 30.4017
#
#
#
# Elastic Compliance Matrix: (Units=1/GPa)
#
#
# Indices 1 2 3 4 5 6 
#
# 1 0.010052 -0.014658 -0.001357 0.000000 -0.001067 0.000000
# 2 -0.014658 0.087139 -0.012812 0.000000 0.005289 0.000000
# 3 -0.001357 -0.012812 0.012231 0.000000 0.001068 0.000000
# 4 0.000000 0.000000 0.000000 0.034352 0.000000 0.006577
# 5 -0.001067 0.005289 0.001068 0.000000 0.020173 0.000000
# 6 0.000000 0.000000 0.000000 0.006577 0.000000 0.034152
#
#
# Mechanical properties :
#
#
# Convention : Reuss Voigt Hill
#
# Bulk Modulus (GPa) = 19.31647 58.35470 38.83558
# Shear Modulus (GPa) = 18.31451 34.37354 26.34402
#
# Velocity S-wave (km/s) = 2.77122 3.79652 3.32364
# Velocity P-wave (km/s) = 4.28245 6.60965 5.56897
#
# Compressibility (1/GPa) = 0.05176929
#
# Stress axis : x y z
#
# Youngs Moduli (GPa) = 99.48687 11.47595 81.75693
#
# Poissons Ratio (x) = 0.16822 0.11091
# Poissons Ratio (y) = 1.45829 1.04743
# Poissons Ratio (z) = 0.13496 0.14702
#
# Static dielectric constant tensor:
#      x y z
#    x 4.705240 0.000000 -0.158120 
#    y 0.000000 4.054600 0.000000 
#    z -0.158120 0.000000 4.252660 
# 
# 
# High freq. dielectric constant tensor:
#      x y z
#    x 1.968990 0.000000 -0.010870 
#    y 0.000000 1.924760 0.000000 
#    z -0.010870 0.000000 1.946340 
# 
# From -- ./inp_files/47262.got.cif
#   From: 2010.03.12/outbox.cif.g09.slc.cpg/sg5_24_cif.got.tgz:47262.got - 2010.03.31 09:47:26.
