data_PCOD8048620
_publ_section_title
;
Structure prediction by ZEFSAII (Michael W. Deem and Ramdas Pophale) SiO2 
 PCOD8048620
Probable space group: C 2
;
_chemical_formula_sum "Si O2"
_cell_formula_units_Z 24
_cell_length_a 12.414491
_cell_length_b 11.039162
_cell_length_c 17.171787
_cell_angle_alpha 90.000000
_cell_angle_beta 151.150260
_cell_angle_gamma 90.000000
_cell_volume 1135.509182
_symmetry_space_group_name_H-M "C 2"
_symmetry_group_IT_number 5
_symmetry_cell_setting 'monoclinic'
loop_
_space_group_symop_operation_xyz
x,y,z
-x,y,-z
1/2+x,1/2+y,z
1/2-x,1/2+y,-z
loop_
_atom_site_type_symbol
_atom_site_label
_atom_site_fract_x
_atom_site_fract_y
_atom_site_fract_z
Si Si1 0.406226 0.444920 0.723695
Si Si2 0.417306 0.758242 0.290861
Si Si3 0.314718 0.107688 0.541073
Si Si4 0.694303 0.176216 0.301318
Si Si5 0.150365 0.566793 0.029385
Si Si6 0.227646 0.018453 0.191682
O O1 0.265079 0.493804 0.561092
O O2 0.383525 0.301742 0.709353
O O3 0.666799 0.471287 0.881097
O O4 0.320184 0.508843 0.747518
O O5 0.671680 0.727815 0.424648
O O6 0.389582 0.708049 0.362851
O O7 0.248621 0.688938 0.128302
O O8 0.350622 0.897274 0.239068
O O9 0.246349 0.087490 0.588744
O O10 0.584212 0.123451 0.701918
O O11 0.488732 0.107998 0.132414
O O12 0.000000 0.501369 0.000000
O O13 0.000000 0.045322 0.000000
#
# Coordination Sequence:
#
# PCOD8048620 Si02
#       6
#     4   4   4   4   4   4
#     4  10  21  37  56  84 117 152 194 240 287 348
#     4   9  19  36  58  82 110 147 195 241 288 345
#     4  11  21  32  54  83 114 148 190 238 285 333
#     4  10  19  35  58  82 112 152 193 236 287 349
#     4   9  18  35  59  85 113 147 191 243 292 342
#     4  11  21  37  61  86 112 152 199 242 288 347
#
# _framework density 21.135892999999999
#
# number of rings (size 3 to 8) (size 9 to 14) (size 15 to 20)
#    0.000    2.000    0.000    5.500    0.000    2.667 
#    0.000    2.500    0.000   38.000    0.000    0.000 
#    0.000    0.000    0.000    0.000    0.000    0.000 
#
# Total GULP energy -148697.656005 kJ/mol
# GULP energy per Si atom -12391.471334 kJ/mol
# Density = 2.108779 g / cm^3
# Si number density = 21.135893 Si / 1000 Ang^3
#
#
#
# Elastic Constant Matrix: (Units=GPa)
#
#
# Indices 1 2 3 4 5 6 
#
# 1 87.1645 42.3715 51.0849 0.0075 3.0207 0.0190
# 2 42.3715 57.2408 43.1063 0.0143 10.7428 0.0138
# 3 51.0849 43.1063 134.8653 0.0316 18.3175 -0.0604
# 4 0.0075 0.0143 0.0316 34.7630 -0.0115 -25.6642
# 5 3.0207 10.7428 18.3175 -0.0115 55.2263 0.0324
# 6 0.0190 0.0138 -0.0604 -25.6642 0.0324 115.5753
#
#
#
# Elastic Compliance Matrix: (Units=1/GPa)
#
#
# Indices 1 2 3 4 5 6 
#
# 1 0.019489 -0.011966 -0.003905 0.000002 0.002557 -0.000004
# 2 -0.011966 0.030597 -0.004741 -0.000011 -0.003725 -0.000006
# 3 -0.003905 -0.004741 0.010739 -0.000003 -0.002426 0.000007
# 4 0.000002 -0.000011 -0.000003 0.034407 0.000006 0.007640
# 5 0.002557 -0.003725 -0.002426 0.000006 0.019497 -0.000005
# 6 -0.000004 -0.000006 0.000007 0.007640 -0.000005 0.010349
#
#
# Mechanical properties :
#
#
# Convention : Reuss Voigt Hill
#
# Bulk Modulus (GPa) = 51.01704 61.37733 56.19719
# Shear Modulus (GPa) = 28.92937 50.62678 39.77808
#
# Velocity S-wave (km/s) = 3.70365 4.89949 4.34293
# Velocity P-wave (km/s) = 6.51762 7.81723 7.19682
#
# Compressibility (1/GPa) = 0.01960129
#
# Stress axis : x y z
#
# Youngs Moduli (GPa) = 51.31061 32.68298 93.11977
#
# Poissons Ratio (x) = 0.39107 0.36363
# Poissons Ratio (y) = 0.61397 0.44150
# Poissons Ratio (z) = 0.20036 0.15496
#
# Static dielectric constant tensor:
#      x y z
#    x 3.694950 -0.000020 -0.309140 
#    y -0.000020 3.421200 -0.000040 
#    z -0.309140 -0.000040 3.867690 
# 
# 
# High freq. dielectric constant tensor:
#      x y z
#    x 1.830150 0.000000 -0.006370 
#    y 0.000000 1.784280 0.000000 
#    z -0.006370 0.000000 1.861700 
# 
# From -- ./inp_files/19262.got.cif
#   From: 2010.03.12/outbox.cif.g09.slc.cpg/sg5_10_cif.got.tgz:19262.got - 2010.03.31 09:47:26.
