data_PCOD8048105
_publ_section_title
;
Structure prediction by ZEFSAII (Michael W. Deem and Ramdas Pophale) SiO2 
 PCOD8048105
Probable space group: C 2
;
_chemical_formula_sum "Si O2"
_cell_formula_units_Z 28
_cell_length_a 22.340920
_cell_length_b 13.903592
_cell_length_c 8.675242
_cell_angle_alpha 90.000000
_cell_angle_beta 149.014996
_cell_angle_gamma 90.000000
_cell_volume 1387.266094
_symmetry_space_group_name_H-M "C 2"
_symmetry_group_IT_number 5
_symmetry_cell_setting 'monoclinic'
loop_
_space_group_symop_operation_xyz
x,y,z
-x,y,-z
1/2+x,1/2+y,z
1/2-x,1/2+y,-z
loop_
_atom_site_type_symbol
_atom_site_label
_atom_site_fract_x
_atom_site_fract_y
_atom_site_fract_z
Si Si1 0.980741 0.963320 0.781946
Si Si2 0.824869 0.862141 0.964083
Si Si3 0.628607 0.816851 0.305915
Si Si4 0.042750 0.168303 0.342257
Si Si5 0.248549 0.468521 0.085931
Si Si6 0.270644 0.174839 0.019153
Si Si7 0.170287 0.286375 0.058657
O O1 0.844780 0.968063 0.435608
O O2 0.027781 0.071410 0.855988
O O3 0.000000 0.933492 0.000000
O O4 0.052164 0.884087 0.843666
O O5 0.713988 0.876582 0.605982
O O6 0.811921 0.939908 0.068752
O O7 0.831792 0.752722 0.043169
O O8 0.603238 0.711737 0.322383
O O9 0.700356 0.802455 0.305282
O O10 0.500000 0.867659 0.000000
O O11 0.137532 0.151549 0.682454
O O12 0.957519 0.244043 0.230806
O O13 0.158439 0.386540 0.939221
O O14 0.175886 0.568016 0.892387
O O15 0.266075 0.216798 0.184785
#
# Coordination Sequence:
#
# PCOD8048105 Si02
#       7
#     4   4   4   4   4   4   4
#     4  11  20  33  55  83 108 139 178 219 262 312
#     4  10  20  34  54  78 108 138 172 222 269 310
#     4   9  18  33  53  80 107 133 171 222 269 309
#     4   9  18  32  54  82 107 131 173 224 266 307
#     4  10  21  34  53  80 108 140 178 215 261 317
#     4   9  19  34  52  77 105 136 176 218 260 313
#     4  10  17  30  53  76 103 137 170 212 262 308
#
# _framework density 20.183584
#
# number of rings (size 3 to 8) (size 9 to 14) (size 15 to 20)
#    0.000    2.286    0.000    3.857    0.000    3.429 
#    0.000    1.429    0.000   35.143    0.000    0.000 
#    0.000    0.000    0.000    0.000    0.000    0.000 
#
# Total GULP energy -173449.264819 kJ/mol
# GULP energy per Si atom -12389.233201 kJ/mol
# Density = 2.013764 g / cm^3
# Si number density = 20.183584 Si / 1000 Ang^3
#
#
#
# Elastic Constant Matrix: (Units=GPa)
#
#
# Indices 1 2 3 4 5 6 
#
# 1 130.9952 54.0553 7.2453 0.0000 -9.4497 0.0000
# 2 54.0553 132.6053 -0.0020 0.0000 9.2246 0.0000
# 3 7.2453 -0.0020 29.2293 0.0000 -6.5948 0.0000
# 4 0.0000 0.0000 0.0000 25.7109 0.0000 3.5522
# 5 -9.4497 9.2246 -6.5948 0.0000 27.6978 0.0000
# 6 0.0000 0.0000 0.0000 3.5522 0.0000 25.9725
#
#
#
# Elastic Compliance Matrix: (Units=1/GPa)
#
#
# Indices 1 2 3 4 5 6 
#
# 1 0.009811 -0.004308 -0.001430 0.000000 0.004442 0.000000
# 2 -0.004308 0.009622 0.000015 0.000000 -0.004671 0.000000
# 3 -0.001430 0.000015 0.036412 0.000000 0.008177 0.000000
# 4 0.000000 0.000000 0.000000 0.039643 0.000000 -0.005422
# 5 0.004442 -0.004671 0.008177 0.000000 0.041122 0.000000
# 6 0.000000 0.000000 0.000000 -0.005422 0.000000 0.039244
#
#
# Mechanical properties :
#
#
# Convention : Reuss Voigt Hill
#
# Bulk Modulus (GPa) = 22.52377 46.15854 34.34116
# Shear Modulus (GPa) = 24.74009 31.31165 28.02587
#
# Velocity S-wave (km/s) = 3.50487 3.94298 3.73036
# Velocity P-wave (km/s) = 5.25000 6.60670 5.96703
#
# Compressibility (1/GPa) = 0.04439753
#
# Stress axis : x y z
#
# Youngs Moduli (GPa) = 101.92346 103.92377 27.46378
#
# Poissons Ratio (x) = 0.44775 0.03928
# Poissons Ratio (y) = 0.43914 -0.00040
# Poissons Ratio (z) = 0.14576 -0.00153
#
# Static dielectric constant tensor:
#      x y z
#    x 3.780810 0.000000 -0.254830 
#    y 0.000000 3.936190 0.000000 
#    z -0.254830 0.000000 3.478410 
# 
# 
# High freq. dielectric constant tensor:
#      x y z
#    x 1.794810 0.000000 -0.020550 
#    y 0.000000 1.781590 0.000000 
#    z -0.020550 0.000000 1.756870 
# 
# From -- ./inp_files/29921.got.cif
#   From: 2010.03.12/outbox.cif.g09.slc.cpg/sg5_15_cif.got.tgz:29921.got - 2010.03.31 09:47:26.
