data_PCOD8048827
_publ_section_title
;
Structure prediction by ZEFSAII (Michael W. Deem and Ramdas Pophale) SiO2 
 PCOD8048827
Probable space group: C 2
;
_chemical_formula_sum "Si O2"
_cell_formula_units_Z 32
_cell_length_a 14.659091
_cell_length_b 9.834471
_cell_length_c 22.091224
_cell_angle_alpha 90.000000
_cell_angle_beta 151.061099
_cell_angle_gamma 90.000000
_cell_volume 1541.035014
_symmetry_space_group_name_H-M "C 2"
_symmetry_group_IT_number 5
_symmetry_cell_setting 'monoclinic'
loop_
_space_group_symop_operation_xyz
x,y,z
-x,y,-z
1/2+x,1/2+y,z
1/2-x,1/2+y,-z
loop_
_atom_site_type_symbol
_atom_site_label
_atom_site_fract_x
_atom_site_fract_y
_atom_site_fract_z
Si Si1 0.395616 0.800680 0.802624
Si Si2 0.324672 0.465278 0.625624
Si Si3 0.472002 0.266111 0.340719
Si Si4 0.560655 0.036250 0.968562
Si Si5 0.552993 0.339894 0.099210
Si Si6 0.552932 0.523939 0.865712
Si Si7 0.680977 0.771859 0.380113
Si Si8 0.963781 0.451162 0.341649
O O1 0.519033 0.664622 0.881921
O O2 0.313590 0.801206 0.687676
O O3 0.234397 0.806507 0.759057
O O4 0.514139 0.934219 0.886884
O O5 0.469698 0.354175 0.683644
O O6 0.362930 0.472646 0.719998
O O7 0.369262 0.618170 0.628485
O O8 0.107972 0.426770 0.482199
O O9 0.611814 0.307580 0.476037
O O10 0.472512 0.106933 0.325889
O O11 0.454216 0.178453 0.895542
O O12 0.500000 0.982022 0.000000
O O13 0.786547 0.050439 0.092070
O O14 0.401878 0.410885 0.056782
O O15 0.754828 0.401114 0.236556
O O16 0.500000 0.378974 0.000000
O O17 0.524094 0.866360 0.318343
#
# Coordination Sequence:
#
# PCOD8048827 Si02
#       8
#     4   4   4   4   4   4   4   4
#     4  11  22  38  64  91 120 162 208 264 310 378
#     4   9  21  38  68  90 126 163 210 266 311 380
#     4  10  19  39  60  96 122 161 211 251 318 370
#     4  11  26  42  64  91 125 169 212 265 319 379
#     4  11  26  43  64  91 130 172 208 262 317 384
#     4  11  23  44  63  95 122 166 213 264 321 375
#     4   9  21  36  65  88 126 163 202 262 312 382
#     4  10  21  40  62  94 125 169 208 254 321 371
#
# _framework density 20.765263000000001
#
# number of rings (size 3 to 8) (size 9 to 14) (size 15 to 20)
#    0.000    1.750    1.250    1.875   10.500    2.000 
#    2.250    0.000    2.750    0.000    0.000    0.000 
#    0.000    0.000    0.000    0.000    0.000    0.000 
#
# Total GULP energy -198322.455531 kJ/mol
# GULP energy per Si atom -12395.153471 kJ/mol
# Density = 2.071800 g / cm^3
# Si number density = 20.765263 Si / 1000 Ang^3
#
#
#
# Elastic Constant Matrix: (Units=GPa)
#
#
# Indices 1 2 3 4 5 6 
#
# 1 87.2568 45.7530 37.8331 0.0000 3.0559 -0.0001
# 2 45.7530 110.2270 41.7984 0.0010 -13.4249 0.0000
# 3 37.8331 41.7984 75.4686 0.0068 3.3713 0.0007
# 4 0.0000 0.0010 0.0068 30.9856 0.0006 -1.9251
# 5 3.0559 -13.4249 3.3713 0.0006 33.2223 -0.0002
# 6 -0.0001 0.0000 0.0007 -1.9251 -0.0002 40.0958
#
#
#
# Elastic Compliance Matrix: (Units=1/GPa)
#
#
# Indices 1 2 3 4 5 6 
#
# 1 0.016625 -0.005284 -0.005268 0.000001 -0.003130 0.000000
# 2 -0.005284 0.014179 -0.005506 0.000001 0.006774 0.000000
# 3 -0.005268 -0.005506 0.019105 -0.000004 -0.003679 -0.000001
# 4 0.000001 0.000001 -0.000004 0.032370 0.000000 0.001554
# 5 -0.003130 0.006774 -0.003679 0.000000 0.033499 0.000000
# 6 0.000000 0.000000 -0.000001 0.001554 0.000000 0.025015
#
#
# Mechanical properties :
#
#
# Convention : Reuss Voigt Hill
#
# Bulk Modulus (GPa) = 56.20468 58.19127 57.19797
# Shear Modulus (GPa) = 27.95796 30.69859 29.32828
#
# Velocity S-wave (km/s) = 3.67329 3.84912 3.76223
# Velocity P-wave (km/s) = 6.71686 6.91654 6.81743
#
# Compressibility (1/GPa) = 0.01779211
#
# Stress axis : x y z
#
# Youngs Moduli (GPa) = 60.15093 70.52818 52.34140
#
# Poissons Ratio (x) = 0.37270 0.27571
# Poissons Ratio (y) = 0.31786 0.28821
# Poissons Ratio (z) = 0.31685 0.38836
#
# Static dielectric constant tensor:
#      x y z
#    x 3.641350 0.000000 0.051780 
#    y 0.000000 3.844630 0.000000 
#    z 0.051780 0.000000 3.789870 
# 
# 
# High freq. dielectric constant tensor:
#      x y z
#    x 1.806130 0.000000 0.003740 
#    y 0.000000 1.818400 0.000000 
#    z 0.003740 0.000000 1.814090 
# 
# From -- ./inp_files/57683.got.cif
#   From: 2010.03.12/outbox.cif.g09.slc.cpg/sg5_29_cif.got.tgz:57683.got - 2010.03.31 09:47:26.
