data_PCOD8048981
_publ_section_title
;
Structure prediction by ZEFSAII (Michael W. Deem and Ramdas Pophale) SiO2 
 PCOD8048981
Probable space group: C 2
;
_chemical_formula_sum "Si O2"
_cell_formula_units_Z 32
_cell_length_a 8.702198
_cell_length_b 9.119029
_cell_length_c 18.206433
_cell_angle_alpha 90.000000
_cell_angle_beta 95.940414
_cell_angle_gamma 90.000000
_cell_volume 1437.023952
_symmetry_space_group_name_H-M "C 2"
_symmetry_group_IT_number 5
_symmetry_cell_setting 'monoclinic'
loop_
_space_group_symop_operation_xyz
x,y,z
-x,y,-z
1/2+x,1/2+y,z
1/2-x,1/2+y,-z
loop_
_atom_site_type_symbol
_atom_site_label
_atom_site_fract_x
_atom_site_fract_y
_atom_site_fract_z
Si Si1 0.665560 0.357210 0.045003
Si Si2 0.511800 0.022630 0.674507
Si Si3 0.059917 0.852460 0.707077
Si Si4 0.046643 0.022496 0.168222
Si Si5 0.171426 0.585989 0.543863
Si Si6 0.279608 0.019363 0.919737
Si Si7 0.103798 0.355541 0.204278
Si Si8 0.217904 0.910697 0.576756
O O1 0.674886 0.448300 0.121819
O O2 0.700480 0.189040 0.062146
O O3 0.500000 0.375089 0.000000
O O4 0.792682 0.426407 0.996010
O O5 0.497429 0.187374 0.704640
O O6 0.653578 0.008741 0.623497
O O7 0.527432 0.912111 0.744644
O O8 0.356971 0.987317 0.624468
O O9 0.232041 0.857128 0.747864
O O10 0.067889 0.916273 0.623481
O O11 0.944412 0.951065 0.750030
O O12 0.883301 0.986240 0.125056
O O13 0.068683 0.194502 0.174438
O O14 0.251586 0.742288 0.559133
O O15 0.295618 0.495671 0.501453
O O16 0.000000 0.601784 0.500000
O O17 0.405542 0.961772 0.867400
#
# Coordination Sequence:
#
# PCOD8048981 Si02
#       8
#     4   4   4   4   4   4   4   4
#     4  10  21  36  53  75 104 137 171 210 254 301
#     4   9  18  35  54  74 104 136 168 210 255 300
#     4   9  19  36  53  74 105 135 167 209 254 302
#     4  10  21  35  53  78 104 133 172 211 251 303
#     4   9  18  34  53  74 102 135 168 208 256 303
#     4  10  21  36  54  77 105 135 170 211 253 301
#     4  10  20  34  54  79 103 132 171 211 253 303
#     4   9  18  34  54  75 103 135 169 210 254 301
#
# _framework density 22.268243999999999
#
# number of rings (size 3 to 8) (size 9 to 14) (size 15 to 20)
#    0.000    2.500    0.000    1.500    0.000    3.000 
#    0.000   13.125    0.000    0.000    0.000    0.000 
#    0.000    0.000    0.000    0.000    0.000    0.000 
#
# Total GULP energy -198290.255799 kJ/mol
# GULP energy per Si atom -12393.140987 kJ/mol
# Density = 2.221756 g / cm^3
# Si number density = 22.268244 Si / 1000 Ang^3
#
#
#
# Elastic Constant Matrix: (Units=GPa)
#
#
# Indices 1 2 3 4 5 6 
#
# 1 15.0070 15.2771 35.9819 0.0000 -14.6185 0.0000
# 2 15.2771 172.1219 101.9759 0.0000 -37.7413 0.0000
# 3 35.9819 101.9759 175.7849 0.0000 -59.3318 0.0000
# 4 0.0000 0.0000 0.0000 58.6481 0.0000 -6.4045
# 5 -14.6185 -37.7413 -59.3318 0.0000 33.6801 0.0000
# 6 0.0000 0.0000 0.0000 -6.4045 0.0000 32.8421
#
#
#
# Elastic Compliance Matrix: (Units=1/GPa)
#
#
# Indices 1 2 3 4 5 6 
#
# 1 0.145964 0.008067 -0.024970 0.000000 0.028406 0.000000
# 2 0.008067 0.009362 -0.005820 0.000000 0.003739 0.000000
# 3 -0.024970 -0.005820 0.020515 0.000000 0.018780 0.000000
# 4 0.000000 0.000000 0.000000 0.017422 0.000000 0.003397
# 5 0.028406 0.003739 0.018780 0.000000 0.079294 0.000000
# 6 0.000000 0.000000 0.000000 0.003397 0.000000 0.031111
#
#
# Mechanical properties :
#
#
# Convention : Reuss Voigt Hill
#
# Bulk Modulus (GPa) = 7.66901 74.37594 41.02248
# Shear Modulus (GPa) = 12.73631 39.01267 25.87449
#
# Velocity S-wave (km/s) = 2.39414 4.19016 3.41243
# Velocity P-wave (km/s) = 3.33076 7.54205 5.82994
#
# Compressibility (1/GPa) = 0.13039489
#
# Stress axis : x y z
#
# Youngs Moduli (GPa) = 6.85102 106.81472 48.74489
#
# Poissons Ratio (x) = -0.86167 1.21714
# Poissons Ratio (y) = -0.05527 0.28371
# Poissons Ratio (z) = 0.17107 0.62169
#
# Static dielectric constant tensor:
#      x y z
#    x 3.682390 0.000000 -0.476080 
#    y 0.000000 3.916990 0.000000 
#    z -0.476080 0.000000 4.947270 
# 
# 
# High freq. dielectric constant tensor:
#      x y z
#    x 1.839180 0.000000 -0.018960 
#    y 0.000000 1.877010 0.000000 
#    z -0.018960 0.000000 1.906940 
# 
# From -- ./inp_files/60208.got.cif
#   From: 2010.03.12/outbox.cif.g09.slc.cpg/sg5_31_cif.got.tgz:60208.got - 2010.03.31 09:47:26.
