data_PCOD8048544
_publ_section_title
;
Structure prediction by ZEFSAII (Michael W. Deem and Ramdas Pophale) SiO2 
 PCOD8048544
Probable space group: C 2
;
_chemical_formula_sum "Si O2"
_cell_formula_units_Z 32
_cell_length_a 14.043261
_cell_length_b 15.594177
_cell_length_c 8.747089
_cell_angle_alpha 90.000000
_cell_angle_beta 58.367769
_cell_angle_gamma 90.000000
_cell_volume 1630.962442
_symmetry_space_group_name_H-M "C 2"
_symmetry_group_IT_number 5
_symmetry_cell_setting 'monoclinic'
loop_
_space_group_symop_operation_xyz
x,y,z
-x,y,-z
1/2+x,1/2+y,z
1/2-x,1/2+y,-z
loop_
_atom_site_type_symbol
_atom_site_label
_atom_site_fract_x
_atom_site_fract_y
_atom_site_fract_z
Si Si1 0.231361 0.214520 0.638810
Si Si2 0.269224 0.910152 0.863144
Si Si3 0.921025 0.518061 0.936097
Si Si4 0.875083 0.065696 0.075796
Si Si5 0.337315 0.279710 0.842781
Si Si6 0.720593 0.633978 0.135172
Si Si7 0.032079 0.661617 0.640517
Si Si8 0.627604 0.766446 0.427126
O O1 0.159002 0.141120 0.780544
O O2 0.280466 0.280459 0.722833
O O3 0.335405 0.175358 0.455500
O O4 0.151296 0.265330 0.588793
O O5 0.299324 0.840598 0.711053
O O6 0.381408 0.943161 0.854599
O O7 0.210111 0.987647 0.824075
O O8 0.181895 0.871588 0.061836
O O9 0.994628 0.589851 0.790458
O O10 0.811883 0.562397 0.104102
O O11 0.000000 0.476818 0.000000
O O12 0.870406 0.093216 0.902264
O O13 0.000000 0.034464 0.000000
O O14 0.467927 0.252778 0.722442
O O15 0.278728 0.209154 0.994261
O O16 0.659403 0.672370 0.334718
O O17 0.000000 0.626665 0.500000
O O18 0.500000 0.787164 0.500000
#
# Coordination Sequence:
#
# PCOD8048544 Si02
#       8
#     4   4   4   4   4   4   4   4
#     4  10  20  35  58  81 101 135 181 218 257 312
#     4  10  22  36  51  78 111 140 173 212 261 317
#     4  10  19  33  55  78 104 140 178 215 256 309
#     4  10  20  37  58  76 102 141 178 214 257 311
#     4   8  17  34  54  76 105 137 170 210 257 311
#     4   8  17  35  54  76 101 134 181 215 248 308
#     4   9  17  33  58  81 103 132 171 224 266 300
#     4  11  22  35  53  78 109 139 172 222 267 302
#
# _framework density 19.620317
#
# number of rings (size 3 to 8) (size 9 to 14) (size 15 to 20)
#    0.000    2.500    0.000    3.750    0.000    3.500 
#    0.000    5.000    0.000    9.000    0.000    0.000 
#    0.000    0.000    0.000    0.000    0.000    0.000 
#
# Total GULP energy -198365.688416 kJ/mol
# GULP energy per Si atom -12397.855526 kJ/mol
# Density = 1.957566 g / cm^3
# Si number density = 19.620317 Si / 1000 Ang^3
#
#
#
# Elastic Constant Matrix: (Units=GPa)
#
#
# Indices 1 2 3 4 5 6 
#
# 1 122.4726 21.5103 24.1918 0.0000 8.6778 0.0000
# 2 21.5103 64.8994 18.2493 0.0000 12.9857 0.0000
# 3 24.1918 18.2493 63.4640 0.0000 6.2805 0.0000
# 4 0.0000 0.0000 0.0000 25.9804 0.0000 4.9137
# 5 8.6778 12.9857 6.2805 0.0000 26.6770 0.0000
# 6 0.0000 0.0000 0.0000 4.9137 0.0000 11.1644
#
#
#
# Elastic Compliance Matrix: (Units=1/GPa)
#
#
# Indices 1 2 3 4 5 6 
#
# 1 0.009160 -0.001980 -0.002788 0.000000 -0.001359 0.000000
# 2 -0.001980 0.018658 -0.003865 0.000000 -0.007528 0.000000
# 3 -0.002788 -0.003865 0.018076 0.000000 -0.001467 0.000000
# 4 0.000000 0.000000 0.000000 0.041985 0.000000 -0.018478
# 5 -0.001359 -0.007528 -0.001467 0.000000 0.041938 0.000000
# 6 0.000000 0.000000 0.000000 -0.018478 0.000000 0.097703
#
#
# Mechanical properties :
#
#
# Convention : Reuss Voigt Hill
#
# Bulk Modulus (GPa) = 34.93111 42.08210 38.50661
# Shear Modulus (GPa) = 19.65961 25.22336 22.44148
#
# Velocity S-wave (km/s) = 3.16888 3.58938 3.38566
# Velocity P-wave (km/s) = 5.58849 6.21876 5.91203
#
# Compressibility (1/GPa) = 0.02862777
#
# Stress axis : x y z
#
# Youngs Moduli (GPa) = 109.17230 53.59652 55.32100
#
# Poissons Ratio (x) = 0.10612 0.15422
# Poissons Ratio (y) = 0.21616 0.21384
# Poissons Ratio (z) = 0.30434 0.20717
#
# Static dielectric constant tensor:
#      x y z
#    x 3.575720 0.000000 -0.007370 
#    y 0.000000 3.522080 0.000000 
#    z -0.007370 0.000000 3.664150 
# 
# 
# High freq. dielectric constant tensor:
#      x y z
#    x 1.767750 0.000000 0.002020 
#    y 0.000000 1.742660 0.000000 
#    z 0.002020 0.000000 1.757510 
# 
# From -- ./inp_files/24629.got.cif
#   From: 2010.03.12/outbox.cif.g09.slc.cpg/sg5_13_cif.got.tgz:24629.got - 2010.03.31 09:47:26.
