data_PCOD8048633
_publ_section_title
;
Structure prediction by ZEFSAII (Michael W. Deem and Ramdas Pophale) SiO2 
 PCOD8048633
Probable space group: C 2
;
_chemical_formula_sum "Si O2"
_cell_formula_units_Z 32
_cell_length_a 23.362879
_cell_length_b 9.139013
_cell_length_c 8.759128
_cell_angle_alpha 90.000000
_cell_angle_beta 126.922026
_cell_angle_gamma 90.000000
_cell_volume 1495.133213
_symmetry_space_group_name_H-M "C 2"
_symmetry_group_IT_number 5
_symmetry_cell_setting 'monoclinic'
loop_
_space_group_symop_operation_xyz
x,y,z
-x,y,-z
1/2+x,1/2+y,z
1/2-x,1/2+y,-z
loop_
_atom_site_type_symbol
_atom_site_label
_atom_site_fract_x
_atom_site_fract_y
_atom_site_fract_z
Si Si1 0.138295 0.244360 0.401212
Si Si2 0.492603 0.766537 0.307401
Si Si3 0.460855 0.445859 0.198371
Si Si4 0.122055 0.906727 0.429481
Si Si5 0.426534 0.910642 0.951396
Si Si6 0.882929 0.729749 0.865795
Si Si7 0.678725 0.450242 0.830285
Si Si8 0.245505 0.242365 0.828573
O O1 0.139524 0.322421 0.235422
O O2 0.204874 0.296747 0.611327
O O3 0.071246 0.312905 0.382577
O O4 0.134305 0.068880 0.379612
O O5 0.500000 0.753124 0.500000
O O6 0.468878 0.617779 0.184956
O O7 0.433132 0.881930 0.146479
O O8 0.540476 0.383976 0.360650
O O9 0.401937 0.428365 0.236955
O O10 0.433359 0.361538 0.004627
O O11 0.145176 0.785754 0.342748
O O12 0.176311 0.881137 0.657246
O O13 0.426111 0.081441 0.913048
O O14 0.500000 0.844164 0.000000
O O15 0.821455 0.685469 0.887655
O O16 0.700306 0.620699 0.847894
O O17 0.739458 0.375190 0.030844
#
# Coordination Sequence:
#
# PCOD8048633 Si02
#       8
#     4   4   4   4   4   4   4   4
#     4   9  20  37  57  78 110 150 193 232 270 340
#     4  10  19  35  60  85 106 140 191 240 284 327
#     4  10  19  37  63  86 109 147 196 247 290 331
#     4  10  19  37  61  86 111 147 199 248 287 331
#     4  10  21  37  55  81 114 146 181 232 291 338
#     4  11  23  36  56  86 121 151 183 234 295 352
#     4  10  22  39  59  83 117 152 194 241 286 347
#     4  10  23  40  56  83 116 155 194 230 285 348
#
# _framework density 21.402777
#
# number of rings (size 3 to 8) (size 9 to 14) (size 15 to 20)
#    0.000    2.000    0.000    4.500    0.000    7.000 
#    0.000    9.375    0.000    0.000    0.000    0.000 
#    0.000    0.000    0.000    0.000    0.000    0.000 
#
# Total GULP energy -198243.239811 kJ/mol
# GULP energy per Si atom -12390.202488 kJ/mol
# Density = 2.135406 g / cm^3
# Si number density = 21.402777 Si / 1000 Ang^3
#
#
#
# Elastic Constant Matrix: (Units=GPa)
#
#
# Indices 1 2 3 4 5 6 
#
# 1 42.7339 16.9908 12.4757 0.0000 -1.1324 0.0000
# 2 16.9908 92.8297 70.8581 0.0000 -9.3703 0.0000
# 3 12.4757 70.8581 154.1141 0.0000 -0.9792 0.0000
# 4 0.0000 0.0000 0.0000 38.6875 0.0000 -1.2313
# 5 -1.1324 -9.3703 -0.9792 0.0000 22.0377 0.0000
# 6 0.0000 0.0000 0.0000 -1.2313 0.0000 22.7216
#
#
#
# Elastic Compliance Matrix: (Units=1/GPa)
#
#
# Indices 1 2 3 4 5 6 
#
# 1 0.025250 -0.004827 0.000171 0.000000 -0.000747 0.000000
# 2 -0.004827 0.018579 -0.008105 0.000000 0.007291 0.000000
# 3 0.000171 -0.008105 0.010182 0.000000 -0.002985 0.000000
# 4 0.000000 0.000000 0.000000 0.025893 0.000000 0.001403
# 5 -0.000747 0.007291 -0.002985 0.000000 0.048306 0.000000
# 6 0.000000 0.000000 0.000000 0.001403 0.000000 0.044087
#
#
# Mechanical properties :
#
#
# Convention : Reuss Voigt Hill
#
# Bulk Modulus (GPa) = 35.10235 54.48076 44.79155
# Shear Modulus (GPa) = 24.11779 29.31292 26.71535
#
# Velocity S-wave (km/s) = 3.36051 3.70480 3.53685
# Velocity P-wave (km/s) = 5.61193 6.61899 6.13616
#
# Compressibility (1/GPa) = 0.02848812
#
# Stress axis : x y z
#
# Youngs Moduli (GPa) = 39.60350 53.82560 98.20919
#
# Poissons Ratio (x) = 0.25984 -0.01677
# Poissons Ratio (y) = 0.19118 0.79597
# Poissons Ratio (z) = -0.00676 0.43625
#
# Static dielectric constant tensor:
#      x y z
#    x 3.700040 0.000000 0.037700 
#    y 0.000000 3.532470 0.000000 
#    z 0.037700 0.000000 4.210370 
# 
# 
# High freq. dielectric constant tensor:
#      x y z
#    x 1.824380 0.000000 0.001870 
#    y 0.000000 1.816420 0.000000 
#    z 0.001870 0.000000 1.855970 
# 
# From -- ./inp_files/31670.got.cif
#   From: 2010.03.12/outbox.cif.g09.slc.cpg/sg5_16_cif.got.tgz:31670.got - 2010.03.31 09:47:26.
