data_PCOD8048687
_publ_section_title
;
Structure prediction by ZEFSAII (Michael W. Deem and Ramdas Pophale) SiO2 
 PCOD8048687
Probable space group: C 2
;
_chemical_formula_sum "Si O2"
_cell_formula_units_Z 32
_cell_length_a 9.151902
_cell_length_b 15.204395
_cell_length_c 21.894514
_cell_angle_alpha 90.000000
_cell_angle_beta 30.352883
_cell_angle_gamma 90.000000
_cell_volume 1539.522370
_symmetry_space_group_name_H-M "C 2"
_symmetry_group_IT_number 5
_symmetry_cell_setting 'monoclinic'
loop_
_space_group_symop_operation_xyz
x,y,z
-x,y,-z
1/2+x,1/2+y,z
1/2-x,1/2+y,-z
loop_
_atom_site_type_symbol
_atom_site_label
_atom_site_fract_x
_atom_site_fract_y
_atom_site_fract_z
Si Si1 0.197098 0.045390 0.759540
Si Si2 0.276636 0.925487 0.251659
Si Si3 0.312174 0.511863 0.011184
Si Si4 0.435509 0.738235 0.190012
Si Si5 0.838904 0.057813 0.366011
Si Si6 0.610284 0.740505 0.264066
Si Si7 0.245606 0.216396 0.958314
Si Si8 0.165025 0.422139 0.632397
O O1 0.245241 0.148875 0.757548
O O2 0.076066 0.038750 0.734852
O O3 0.973933 0.000851 0.887871
O O4 0.501718 0.995579 0.651685
O O5 0.215009 0.820983 0.266932
O O6 0.410490 0.942269 0.270181
O O7 0.977715 0.978143 0.353995
O O8 0.513310 0.957431 0.116650
O O9 0.500000 0.475090 0.000000
O O10 0.229817 0.611921 0.053611
O O11 0.607141 0.735047 0.191711
O O12 0.673911 0.750069 0.051741
O O13 0.500000 0.059019 0.500000
O O14 0.966952 0.151391 0.342129
O O15 0.430987 0.824130 0.352808
O O16 0.935853 0.752915 0.172214
O O17 0.000000 0.251047 0.000000
O O18 0.500000 0.432448 0.500000
#
# Coordination Sequence:
#
# PCOD8048687 Si02
#       8
#     4   4   4   4   4   4   4   4
#     4  10  22  40  60  88 125 156 201 255 307 355
#     4  11  22  39  63  88 120 163 203 247 310 362
#     4  10  19  36  61  90 120 153 197 254 304 365
#     4   9  22  37  58  86 124 158 198 243 308 373
#     4  11  23  41  61  88 126 163 203 252 305 357
#     4  10  21  39  62  88 118 161 203 251 299 360
#     4  10  20  35  58  91 123 152 193 248 310 362
#     4  11  23  40  64  89 117 163 217 249 290 364
#
# _framework density 20.785668000000001
#
# number of rings (size 3 to 8) (size 9 to 14) (size 15 to 20)
#    0.000    1.750    2.500    1.500    1.750    1.500 
#    0.000    0.625    0.000    0.000    0.000    0.000 
#    0.000    0.000    0.000    0.000    0.000    0.000 
#
# Total GULP energy -198406.292331 kJ/mol
# GULP energy per Si atom -12400.393271 kJ/mol
# Density = 2.073836 g / cm^3
# Si number density = 20.785668 Si / 1000 Ang^3
#
#
#
# Elastic Constant Matrix: (Units=GPa)
#
#
# Indices 1 2 3 4 5 6 
#
# 1 51.3379 37.0016 20.7830 0.0385 -10.8985 -0.0043
# 2 37.0016 114.6662 37.9180 0.0633 -22.5864 -0.0179
# 3 20.7830 37.9180 100.7552 -0.2083 -23.7294 -0.0463
# 4 0.0385 0.0633 -0.2083 29.4444 0.0080 -7.3765
# 5 -10.8985 -22.5864 -23.7294 0.0080 36.5762 -0.0191
# 6 -0.0043 -0.0179 -0.0463 -7.3765 -0.0191 27.7767
#
#
#
# Elastic Compliance Matrix: (Units=1/GPa)
#
#
# Indices 1 2 3 4 5 6 
#
# 1 0.026023 -0.007316 -0.002186 -0.000038 0.001818 -0.000013
# 2 -0.007316 0.012653 -0.002273 -0.000036 0.004158 -0.000003
# 3 -0.002186 -0.002273 0.012686 0.000109 0.006175 0.000053
# 4 -0.000038 -0.000036 0.000109 0.036384 0.000035 0.009662
# 5 0.001818 0.004158 0.006175 0.000035 0.034456 0.000046
# 6 -0.000013 -0.000003 0.000053 0.009662 0.000046 0.038567
#
#
# Mechanical properties :
#
#
# Convention : Reuss Voigt Hill
#
# Bulk Modulus (GPa) = 35.95843 50.90717 43.43280
# Shear Modulus (GPa) = 25.82766 30.16326 27.99546
#
# Velocity S-wave (km/s) = 3.52884 3.81354 3.67395
# Velocity P-wave (km/s) = 5.82587 6.62838 6.24004
#
# Compressibility (1/GPa) = 0.02780989
#
# Stress axis : x y z
#
# Youngs Moduli (GPa) = 38.42755 79.03448 78.82625
#
# Poissons Ratio (x) = 0.57824 0.17235
# Poissons Ratio (y) = 0.28115 0.17919
# Poissons Ratio (z) = 0.08402 0.17966
#
# Static dielectric constant tensor:
#      x y z
#    x 3.716080 0.000210 0.090470 
#    y 0.000210 3.895960 -0.000100 
#    z 0.090470 -0.000100 3.533450 
# 
# 
# High freq. dielectric constant tensor:
#      x y z
#    x 1.798790 0.000000 0.002860 
#    y 0.000000 1.819590 -0.000010 
#    z 0.002860 -0.000010 1.802750 
# 
# From -- ./inp_files/68038.got.cif
#   From: 2010.03.12/outbox.cif.g09.slc.cpg/sg5_35_cif.got.tgz:68038.got - 2010.03.31 09:47:26.
