data_PCOD8048902
_publ_section_title
;
Structure prediction by ZEFSAII (Michael W. Deem and Ramdas Pophale) SiO2 
 PCOD8048902
Probable space group: C 2
;
_chemical_formula_sum "Si O2"
_cell_formula_units_Z 32
_cell_length_a 14.439223
_cell_length_b 11.881781
_cell_length_c 17.586494
_cell_angle_alpha 90.000000
_cell_angle_beta 150.651044
_cell_angle_gamma 90.000000
_cell_volume 1478.814238
_symmetry_space_group_name_H-M "C 2"
_symmetry_group_IT_number 5
_symmetry_cell_setting 'monoclinic'
loop_
_space_group_symop_operation_xyz
x,y,z
-x,y,-z
1/2+x,1/2+y,z
1/2-x,1/2+y,-z
loop_
_atom_site_type_symbol
_atom_site_label
_atom_site_fract_x
_atom_site_fract_y
_atom_site_fract_z
Si Si1 0.235268 0.366410 0.473791
Si Si2 0.796882 0.423393 0.390016
Si Si3 0.420213 0.357315 0.067184
Si Si4 0.645331 0.408637 0.804131
Si Si5 0.205979 0.198417 0.168831
Si Si6 0.267482 0.126886 0.959683
Si Si7 0.887748 0.525184 0.195118
Si Si8 0.842869 0.166071 0.693295
O O1 0.195767 0.335862 0.534314
O O2 0.445226 0.418119 0.617586
O O3 0.230522 0.252917 0.421863
O O4 0.081123 0.456643 0.337561
O O5 0.643453 0.385369 0.216585
O O6 0.734283 0.542548 0.381907
O O7 0.000000 0.433830 0.500000
O O8 0.374406 0.363310 0.124085
O O9 0.371500 0.234864 0.998286
O O10 0.295653 0.445235 0.931216
O O11 0.778059 0.324435 0.852523
O O12 0.740049 0.532675 0.874706
O O13 0.234223 0.202414 0.279434
O O14 0.366373 0.116556 0.247593
O O15 0.000000 0.150982 0.000000
O O16 0.069158 0.163904 0.855215
O O17 0.399981 0.084279 0.122354
#
# Coordination Sequence:
#
# PCOD8048902 Si02
#       8
#     4   4   4   4   4   4   4   4
#     4  11  25  38  64 100 136 180 219 277 356 411
#     4  11  24  44  68 102 142 172 229 291 341 403
#     4  10  19  41  67  95 133 183 227 270 341 414
#     4  10  23  40  62  98 140 174 224 281 341 411
#     4  12  23  39  68 105 132 166 228 291 335 384
#     4  11  20  42  69  92 129 186 229 270 336 417
#     4  11  21  36  65  98 130 169 222 285 336 397
#     4  12  23  40  69 100 136 177 226 285 343 399
#
# _framework density 21.638959
#
# number of rings (size 3 to 8) (size 9 to 14) (size 15 to 20)
#    0.000    1.000    7.500    0.750    5.250    0.000 
#    0.000    0.000    2.750    0.000    3.250    0.000 
#    0.000    0.000    0.000    0.000    0.000    0.000 
#
# Total GULP energy -198405.194611 kJ/mol
# GULP energy per Si atom -12400.324663 kJ/mol
# Density = 2.158971 g / cm^3
# Si number density = 21.638959 Si / 1000 Ang^3
#
#
#
# Elastic Constant Matrix: (Units=GPa)
#
#
# Indices 1 2 3 4 5 6 
#
# 1 54.6732 40.5583 34.3759 -0.0028 -2.6864 -0.0006
# 2 40.5583 152.4681 49.2698 -0.0023 0.8690 -0.0007
# 3 34.3759 49.2698 98.2770 -0.0078 2.4324 -0.0023
# 4 -0.0028 -0.0023 -0.0078 36.1469 0.0005 -6.6650
# 5 -2.6864 0.8690 2.4324 0.0005 31.5001 0.0004
# 6 -0.0006 -0.0007 -0.0023 -6.6650 0.0004 30.3891
#
#
#
# Elastic Compliance Matrix: (Units=1/GPa)
#
#
# Indices 1 2 3 4 5 6 
#
# 1 0.026311 -0.004795 -0.006871 0.000000 0.002907 0.000000
# 2 -0.004795 0.008701 -0.002674 0.000000 -0.000443 0.000000
# 3 -0.006871 -0.002674 0.013959 0.000003 -0.001590 0.000001
# 4 0.000000 0.000000 0.000003 0.028831 -0.000001 0.006323
# 5 0.002907 -0.000443 -0.001590 -0.000001 0.032129 -0.000001
# 6 0.000000 0.000000 0.000001 0.006323 -0.000001 0.034293
#
#
# Mechanical properties :
#
#
# Convention : Reuss Voigt Hill
#
# Bulk Modulus (GPa) = 49.28524 61.53625 55.41074
# Shear Modulus (GPa) = 27.82932 31.68818 29.75875
#
# Velocity S-wave (km/s) = 3.59008 3.83090 3.71245
# Velocity P-wave (km/s) = 6.32538 6.93305 6.63618
#
# Compressibility (1/GPa) = 0.02029005
#
# Stress axis : x y z
#
# Youngs Moduli (GPa) = 38.00727 114.93084 71.64055
#
# Poissons Ratio (x) = 0.55111 0.49225
# Poissons Ratio (y) = 0.18225 0.19155
# Poissons Ratio (z) = 0.26115 0.30731
#
# Static dielectric constant tensor:
#      x y z
#    x 3.598520 0.000000 0.009670 
#    y 0.000000 4.027520 0.000000 
#    z 0.009670 0.000000 4.098110 
# 
# 
# High freq. dielectric constant tensor:
#      x y z
#    x 1.816710 0.000000 0.000700 
#    y 0.000000 1.848620 0.000000 
#    z 0.000700 0.000000 1.866570 
# 
# From -- ./inp_files/61719.got.cif
#   From: 2010.03.12/outbox.cif.g09.slc.cpg/sg5_31_cif.got.tgz:61719.got - 2010.03.31 09:47:26.
