data_PCOD8048217
_publ_section_title
;
Structure prediction by ZEFSAII (Michael W. Deem and Ramdas Pophale) SiO2 
 PCOD8048217
Probable space group: C 2
;
_chemical_formula_sum "Si O2"
_cell_formula_units_Z 30
_cell_length_a 16.737916
_cell_length_b 8.629717
_cell_length_c 11.617454
_cell_angle_alpha 90.000000
_cell_angle_beta 62.714455
_cell_angle_gamma 90.000000
_cell_volume 1491.352013
_symmetry_space_group_name_H-M "C 2"
_symmetry_group_IT_number 5
_symmetry_cell_setting 'monoclinic'
loop_
_space_group_symop_operation_xyz
x,y,z
-x,y,-z
1/2+x,1/2+y,z
1/2-x,1/2+y,-z
loop_
_atom_site_type_symbol
_atom_site_label
_atom_site_fract_x
_atom_site_fract_y
_atom_site_fract_z
Si Si1 0.364342 0.209630 0.460380
Si Si2 0.500000 0.483814 0.000000
Si Si3 0.320803 0.357182 0.719434
Si Si4 0.964385 0.185011 0.345146
Si Si5 0.757239 0.431215 0.597174
Si Si6 0.141739 0.180364 0.794315
Si Si7 0.861308 0.204038 0.647844
Si Si8 0.019865 0.851786 0.232588
O O1 0.378327 0.277170 0.579632
O O2 0.280459 0.307760 0.467941
O O3 0.452743 0.216983 0.321824
O O4 0.338142 0.028000 0.483991
O O5 0.586410 0.597751 0.932872
O O6 0.485479 0.371117 0.901192
O O7 0.218738 0.291320 0.795188
O O8 0.314212 0.542205 0.710380
O O9 0.377063 0.316395 0.798051
O O10 0.927777 0.262857 0.250233
O O11 0.894177 0.200419 0.494064
O O12 0.060640 0.258153 0.316317
O O13 0.984527 0.003456 0.319779
O O14 0.680491 0.547540 0.686489
O O15 0.788447 0.341839 0.693198
#
# Coordination Sequence:
#
# PCOD8048217 Si02
#       8
#     4   2   4   4   4   4   4   4
#     4  11  19  34  57  90 127 151 199 251 313 361
#     4  10  20  40  62  82 118 164 220 230 292 370
#     4  10  19  34  62  86 120 147 204 246 313 357
#     4   9  17  32  54  80 120 153 190 219 306 361
#     4  11  21  32  57  92 121 157 199 246 303 355
#     4  10  20  37  60  86 110 162 205 251 289 357
#     4  10  18  32  53  88 120 154 180 234 303 375
#     4  10  19  36  59  87 114 171 192 248 294 365
#
# _framework density 20.115974000000001
#
# number of rings (size 3 to 8) (size 9 to 14) (size 15 to 20)
#    0.000    1.867    4.000    2.800    0.000    0.000 
#    9.600    4.000    0.000    0.800    3.467    0.000 
#    0.000    0.000    0.000    0.000    0.000    0.000 
#
# Total GULP energy -185913.654074 kJ/mol
# GULP energy per Si atom -12394.243605 kJ/mol
# Density = 2.007019 g / cm^3
# Si number density = 20.115974 Si / 1000 Ang^3
#
#
#
# Elastic Constant Matrix: (Units=GPa)
#
#
# Indices 1 2 3 4 5 6 
#
# 1 152.5695 49.6688 40.8768 0.0000 12.8984 0.0000
# 2 49.6688 72.9782 18.8776 0.0000 2.7560 0.0000
# 3 40.8768 18.8776 78.2501 0.0000 4.9081 0.0000
# 4 0.0000 0.0000 0.0000 18.9205 0.0000 1.3421
# 5 12.8984 2.7560 4.9081 0.0000 24.9769 0.0000
# 6 0.0000 0.0000 0.0000 1.3421 0.0000 24.1292
#
#
#
# Elastic Compliance Matrix: (Units=1/GPa)
#
#
# Indices 1 2 3 4 5 6 
#
# 1 0.009574 -0.005486 -0.003448 0.000000 -0.003661 0.000000
# 2 -0.005486 0.017779 -0.001497 0.000000 0.001165 0.000000
# 3 -0.003448 -0.001497 0.015005 0.000000 -0.001003 0.000000
# 4 0.000000 0.000000 0.000000 0.053062 0.000000 -0.002951
# 5 -0.003661 0.001165 -0.001003 0.000000 0.041996 0.000000
# 6 0.000000 0.000000 0.000000 -0.002951 0.000000 0.041608
#
#
# Mechanical properties :
#
#
# Convention : Reuss Voigt Hill
#
# Bulk Modulus (GPa) = 46.51829 58.07160 52.29495
# Shear Modulus (GPa) = 24.14879 26.56363 25.35621
#
# Velocity S-wave (km/s) = 3.46855 3.63784 3.55421
# Velocity P-wave (km/s) = 6.26230 6.82468 6.54953
#
# Compressibility (1/GPa) = 0.02149692
#
# Stress axis : x y z
#
# Youngs Moduli (GPa) = 104.45476 56.24504 66.64561
#
# Poissons Ratio (x) = 0.30853 0.22980
# Poissons Ratio (y) = 0.57299 0.09975
# Poissons Ratio (z) = 0.36017 0.08418
#
# Static dielectric constant tensor:
#      x y z
#    x 4.105220 0.000000 0.056320 
#    y 0.000000 3.521360 0.000000 
#    z 0.056320 0.000000 3.281890 
# 
# 
# High freq. dielectric constant tensor:
#      x y z
#    x 1.809890 0.000000 0.004460 
#    y 0.000000 1.763030 0.000000 
#    z 0.004460 0.000000 1.739430 
# 
# From -- ./inp_files/44302.got.cif
#   From: 2010.03.12/outbox.cif.g09.slc.cpg/sg5_23_cif.got.tgz:44302.got - 2010.03.31 09:47:26.
