data_PCOD8048067
_publ_section_title
;
Structure prediction by ZEFSAII (Michael W. Deem and Ramdas Pophale) SiO2 
 PCOD8048067
Probable space group: C 2
;
_chemical_formula_sum "Si O2"
_cell_formula_units_Z 32
_cell_length_a 14.045684
_cell_length_b 9.640784
_cell_length_c 24.866298
_cell_angle_alpha 90.000000
_cell_angle_beta 29.764367
_cell_angle_gamma 90.000000
_cell_volume 1671.583457
_symmetry_space_group_name_H-M "C 2"
_symmetry_group_IT_number 5
_symmetry_cell_setting 'monoclinic'
loop_
_space_group_symop_operation_xyz
x,y,z
-x,y,-z
1/2+x,1/2+y,z
1/2-x,1/2+y,-z
loop_
_atom_site_type_symbol
_atom_site_label
_atom_site_fract_x
_atom_site_fract_y
_atom_site_fract_z
Si Si1 0.353818 0.270950 0.439874
Si Si2 0.614004 0.818173 0.898722
Si Si3 0.536636 0.965325 0.631712
Si Si4 0.582526 0.522436 0.013457
Si Si5 0.642787 0.498926 0.773529
Si Si6 0.540105 0.308381 0.728070
Si Si7 0.772588 0.318111 0.269380
Si Si8 0.502116 0.014627 0.770665
O O1 0.171759 0.331001 0.560819
O O2 0.345734 0.334037 0.383379
O O3 0.543189 0.318561 0.378998
O O4 0.344955 0.103754 0.442431
O O5 0.485675 0.681330 0.953618
O O6 0.820080 0.777865 0.820849
O O7 0.641251 0.889873 0.827454
O O8 0.500000 0.910349 0.000000
O O9 0.355570 0.943441 0.681558
O O10 0.453625 0.980431 0.732467
O O11 0.501858 0.452651 0.107688
O O12 0.500000 0.447616 0.000000
O O13 0.812246 0.507198 0.900468
O O14 0.570141 0.436795 0.752876
O O15 0.645345 0.663768 0.765477
O O16 0.603644 0.165343 0.725658
O O17 0.839725 0.405890 0.287034
#
# Coordination Sequence:
#
# PCOD8048067 Si02
#       8
#     4   4   4   4   4   4   4   4
#     4   9  21  40  58  76 109 148 187 230 273 325
#     4   9  16  33  56  76 107 152 181 209 266 330
#     4  10  21  39  59  79 106 150 186 226 279 327
#     4  10  16  33  59  79 111 148 182 215 263 332
#     4  10  21  35  56  86 113 143 182 224 279 330
#     4  10  20  35  57  83 107 144 188 225 266 327
#     4   9  21  36  53  83 114 141 184 226 276 326
#     4  11  20  34  59  86 108 147 186 222 270 331
#
# _framework density 19.143523999999999
#
# number of rings (size 3 to 8) (size 9 to 14) (size 15 to 20)
#    0.000    2.250    3.750    1.500    1.750    3.000 
#    0.000    6.250    0.000    0.000    0.000    0.000 
#    0.000    0.000    0.000    0.000    0.000    0.000 
#
# Total GULP energy -198309.728134 kJ/mol
# GULP energy per Si atom -12394.358008 kJ/mol
# Density = 1.909995 g / cm^3
# Si number density = 19.143524 Si / 1000 Ang^3
#
#
#
# Elastic Constant Matrix: (Units=GPa)
#
#
# Indices 1 2 3 4 5 6 
#
# 1 76.4903 34.1724 13.2309 -0.0002 -1.5109 -0.0002
# 2 34.1724 54.1535 29.0789 -0.0001 -5.4399 -0.0001
# 3 13.2309 29.0789 84.5938 -0.0016 -4.1631 -0.0006
# 4 -0.0002 -0.0001 -0.0016 26.0153 0.0001 1.6191
# 5 -1.5109 -5.4399 -4.1631 0.0001 20.9197 0.0003
# 6 -0.0002 -0.0001 -0.0006 1.6191 0.0003 27.4075
#
#
#
# Elastic Compliance Matrix: (Units=1/GPa)
#
#
# Indices 1 2 3 4 5 6 
#
# 1 0.018388 -0.012486 0.001335 0.000000 -0.001653 0.000000
# 2 -0.012486 0.031530 -0.008611 -0.000001 0.005584 0.000000
# 3 0.001335 -0.008611 0.014610 0.000001 0.000765 0.000000
# 4 0.000000 -0.000001 0.000001 0.038581 0.000000 -0.002279
# 5 -0.001653 0.005584 0.000765 0.000000 0.049287 0.000000
# 6 0.000000 0.000000 0.000000 -0.002279 0.000000 0.036621
#
#
# Mechanical properties :
#
#
# Convention : Reuss Voigt Hill
#
# Bulk Modulus (GPa) = 39.99404 40.91135 40.45270
# Shear Modulus (GPa) = 21.10812 24.11885 22.61349
#
# Velocity S-wave (km/s) = 3.32418 3.55335 3.44068
# Velocity P-wave (km/s) = 5.97249 6.18485 6.07959
#
# Compressibility (1/GPa) = 0.02500373
#
# Stress axis : x y z
#
# Youngs Moduli (GPa) = 54.38216 31.71591 68.44651
#
# Poissons Ratio (x) = 0.39602 -0.09136
# Poissons Ratio (y) = 0.67904 0.58937
# Poissons Ratio (z) = -0.07259 0.27309
#
# Static dielectric constant tensor:
#      x y z
#    x 3.441290 0.000000 0.231380 
#    y 0.000000 3.108360 0.000000 
#    z 0.231380 0.000000 3.680520 
# 
# 
# High freq. dielectric constant tensor:
#      x y z
#    x 1.742180 0.000000 0.007300 
#    y 0.000000 1.704490 0.000000 
#    z 0.007300 0.000000 1.752850 
# 
# From -- ./inp_files/68752.got.cif
#   From: 2010.03.12/outbox.cif.g09.slc.cpg/sg5_35_cif.got.tgz:68752.got - 2010.03.31 09:47:26.
