data_PCOD8048327
_publ_section_title
;
Structure prediction by ZEFSAII (Michael W. Deem and Ramdas Pophale) SiO2 
 PCOD8048327
Probable space group: C 2
;
_chemical_formula_sum "Si O2"
_cell_formula_units_Z 30
_cell_length_a 20.042294
_cell_length_b 11.254385
_cell_length_c 14.973940
_cell_angle_alpha 90.000000
_cell_angle_beta 28.903988
_cell_angle_gamma 90.000000
_cell_volume 1632.529372
_symmetry_space_group_name_H-M "C 2"
_symmetry_group_IT_number 5
_symmetry_cell_setting 'monoclinic'
loop_
_space_group_symop_operation_xyz
x,y,z
-x,y,-z
1/2+x,1/2+y,z
1/2-x,1/2+y,-z
loop_
_atom_site_type_symbol
_atom_site_label
_atom_site_fract_x
_atom_site_fract_y
_atom_site_fract_z
Si Si1 0.910932 0.061950 0.324137
Si Si2 0.245140 0.479134 0.345781
Si Si3 0.614834 0.318952 0.569474
Si Si4 0.691920 0.615917 0.904684
Si Si5 0.853424 0.331289 0.149568
Si Si6 0.700890 0.224806 0.656402
Si Si7 0.500000 0.058422 0.000000
Si Si8 0.477948 0.117265 0.628301
O O1 0.842697 0.156937 0.470506
O O2 0.809934 0.033514 0.359662
O O3 0.944655 0.950124 0.347505
O O4 0.054007 0.111583 0.122154
O O5 0.316849 0.532966 0.173370
O O6 0.264503 0.336814 0.320034
O O7 0.082409 0.513524 0.537931
O O8 0.759086 0.324869 0.347870
O O9 0.636989 0.267246 0.640254
O O10 0.501504 0.238688 0.654087
O O11 0.716666 0.753964 0.846530
O O12 0.817733 0.576927 0.822957
O O13 0.889038 0.469092 0.080548
O O14 0.000000 0.266874 0.000000
O O15 0.584473 0.140020 0.833937
O O16 0.500000 0.148940 0.500000
#
# Coordination Sequence:
#
# PCOD8048327 Si02
#       8
#     4   4   4   4   4   4   2   4
#     4  11  21  36  59  90 117 146 201 255 286 344
#     4  10  21  35  63  85 118 156 200 241 297 345
#     4  11  20  37  59  86 118 153 194 247 294 343
#     4  11  21  37  62  88 113 159 203 240 290 356
#     4  10  18  35  60  85 117 146 197 246 292 350
#     4  11  22  36  58  88 123 153 190 252 299 342
#     4  10  24  36  54  94 122 150 190 252 312 342
#     4  10  20  39  61  85 119 160 201 237 287 362
#
# _framework density 18.376391999999999
#
# number of rings (size 3 to 8) (size 9 to 14) (size 15 to 20)
#    0.400    1.067    5.333    2.000    3.733    0.000 
#    2.400    0.000    0.000    7.200    0.000    0.000 
#    0.000    0.000    0.000    0.000    0.000    0.000 
#
# Total GULP energy -185888.794055 kJ/mol
# GULP energy per Si atom -12392.586270 kJ/mol
# Density = 1.833457 g / cm^3
# Si number density = 18.376392 Si / 1000 Ang^3
#
#
#
# Elastic Constant Matrix: (Units=GPa)
#
#
# Indices 1 2 3 4 5 6 
#
# 1 60.8199 37.0147 36.3224 0.0000 -8.5262 0.0000
# 2 37.0147 130.0634 51.2622 0.0000 6.2817 0.0000
# 3 36.3224 51.2622 134.6008 0.0000 9.6118 0.0000
# 4 0.0000 0.0000 0.0000 22.3498 0.0000 3.8647
# 5 -8.5262 6.2817 9.6118 0.0000 23.8975 0.0000
# 6 0.0000 0.0000 0.0000 3.8647 0.0000 19.8559
#
#
#
# Elastic Compliance Matrix: (Units=1/GPa)
#
#
# Indices 1 2 3 4 5 6 
#
# 1 0.024830 -0.005504 -0.005498 0.000000 0.012517 0.000000
# 2 -0.005504 0.010291 -0.002163 0.000000 -0.003799 0.000000
# 3 -0.005498 -0.002163 0.010127 0.000000 -0.005466 0.000000
# 4 0.000000 0.000000 0.000000 0.046301 0.000000 -0.009012
# 5 0.012517 -0.003799 -0.005466 0.000000 0.049508 0.000000
# 6 0.000000 0.000000 0.000000 -0.009012 0.000000 0.052117
#
#
# Mechanical properties :
#
#
# Convention : Reuss Voigt Hill
#
# Bulk Modulus (GPa) = 52.85874 63.85362 58.35618
# Shear Modulus (GPa) = 22.14251 26.61295 24.37773
#
# Velocity S-wave (km/s) = 3.47500 3.80967 3.64617
# Velocity P-wave (km/s) = 6.70281 7.36033 7.03926
#
# Compressibility (1/GPa) = 0.01891835
#
# Stress axis : x y z
#
# Youngs Moduli (GPa) = 40.27410 97.17448 98.74546
#
# Poissons Ratio (x) = 0.53484 0.54291
# Poissons Ratio (y) = 0.22166 0.21356
# Poissons Ratio (z) = 0.22143 0.21016
#
# Static dielectric constant tensor:
#      x y z
#    x 3.492030 0.000000 -0.204520 
#    y 0.000000 3.710360 0.000000 
#    z -0.204520 0.000000 3.649480 
# 
# 
# High freq. dielectric constant tensor:
#      x y z
#    x 1.681710 0.000000 0.003560 
#    y 0.000000 1.718380 0.000000 
#    z 0.003560 0.000000 1.720410 
# 
# From -- ./inp_files/23831.got.cif
#   From: 2010.03.12/outbox.cif.g09.slc.cpg/sg5_12_cif.got.tgz:23831.got - 2010.03.31 09:47:26.
