data_PCOD8048793
_publ_section_title
;
Structure prediction by ZEFSAII (Michael W. Deem and Ramdas Pophale) SiO2 
 PCOD8048793
Probable space group: C 2
;
_chemical_formula_sum "Si O2"
_cell_formula_units_Z 32
_cell_length_a 27.341391
_cell_length_b 8.982772
_cell_length_c 6.769877
_cell_angle_alpha 90.000000
_cell_angle_beta 101.140721
_cell_angle_gamma 90.000000
_cell_volume 1631.359371
_symmetry_space_group_name_H-M "C 2"
_symmetry_group_IT_number 5
_symmetry_cell_setting 'monoclinic'
loop_
_space_group_symop_operation_xyz
x,y,z
-x,y,-z
1/2+x,1/2+y,z
1/2-x,1/2+y,-z
loop_
_atom_site_type_symbol
_atom_site_label
_atom_site_fract_x
_atom_site_fract_y
_atom_site_fract_z
Si Si1 0.950563 0.026580 0.083195
Si Si2 0.883019 0.279688 0.013858
Si Si3 0.554702 0.297275 0.594759
Si Si4 0.767326 0.549277 0.107079
Si Si5 0.625776 0.119629 0.939894
Si Si6 0.705170 0.723505 0.782063
Si Si7 0.685930 0.626525 0.339976
Si Si8 0.120023 0.855032 0.258398
O O1 0.936869 0.201368 0.085410
O O2 0.906725 0.949247 0.930128
O O3 0.000000 0.000256 0.000000
O O4 0.954347 0.956198 0.304947
O O5 0.856228 0.229113 0.791774
O O6 0.892016 0.455106 0.015928
O O7 0.849963 0.222652 0.170710
O O8 0.500000 0.230336 0.500000
O O9 0.582826 0.188651 0.768763
O O10 0.586197 0.317653 0.420241
O O11 0.823227 0.614391 0.145827
O O12 0.766359 0.372811 0.131710
O O13 0.737191 0.628193 0.258382
O O14 0.737980 0.583983 0.881543
O O15 0.635672 0.204436 0.155601
O O16 0.699775 0.712606 0.546766
O O17 0.667012 0.456477 0.362099
#
# Coordination Sequence:
#
# PCOD8048793 Si02
#       8
#     4   4   4   4   4   4   4   4
#     4  10  19  38  62  83 112 149 196 249 297 347
#     4   9  21  40  56  87 121 155 190 245 301 354
#     4  11  22  39  63  88 117 156 205 251 293 357
#     4  10  22  38  57  87 120 159 198 243 297 348
#     4  10  23  39  58  85 127 157 190 251 303 353
#     4  10  21  38  59  83 123 154 199 241 291 349
#     4  10  21  37  63  88 116 161 206 242 285 360
#     4  10  21  38  62  87 115 156 203 242 296 349
#
# _framework density 19.615544
#
# number of rings (size 3 to 8) (size 9 to 14) (size 15 to 20)
#    0.000    2.000    1.250    1.500    0.000   10.000 
#    2.250    0.625    0.000    0.000    0.000    0.000 
#    0.000    0.000    0.000    0.000    0.000    0.000 
#
# Total GULP energy -198380.750419 kJ/mol
# GULP energy per Si atom -12398.796901 kJ/mol
# Density = 1.957090 g / cm^3
# Si number density = 19.615544 Si / 1000 Ang^3
#
#
#
# Elastic Constant Matrix: (Units=GPa)
#
#
# Indices 1 2 3 4 5 6 
#
# 1 82.2295 44.8972 36.2230 0.0000 -3.1861 0.0000
# 2 44.8972 121.5921 47.2866 0.0000 3.7493 0.0000
# 3 36.2230 47.2866 122.1398 0.0000 -4.2321 0.0000
# 4 0.0000 0.0000 0.0000 18.5643 0.0000 -2.2113
# 5 -3.1861 3.7493 -4.2321 0.0000 19.1320 0.0000
# 6 0.0000 0.0000 0.0000 -2.2113 0.0000 23.9709
#
#
#
# Elastic Compliance Matrix: (Units=1/GPa)
#
#
# Indices 1 2 3 4 5 6 
#
# 1 0.016237 -0.005014 -0.002768 0.000000 0.003074 0.000000
# 2 -0.005014 0.011376 -0.003047 0.000000 -0.003738 0.000000
# 3 -0.002768 -0.003047 0.010271 0.000000 0.002408 0.000000
# 4 0.000000 0.000000 0.000000 0.054465 0.000000 0.005024
# 5 0.003074 -0.003738 0.002408 0.000000 0.054046 0.000000
# 6 0.000000 0.000000 0.000000 0.005024 0.000000 0.042181
#
#
# Mechanical properties :
#
#
# Convention : Reuss Voigt Hill
#
# Bulk Modulus (GPa) = 61.62484 64.75277 63.18881
# Shear Modulus (GPa) = 23.18671 25.50377 24.34524
#
# Velocity S-wave (km/s) = 3.44184 3.60972 3.52677
# Velocity P-wave (km/s) = 6.87601 7.10324 6.99055
#
# Compressibility (1/GPa) = 0.01622722
#
# Stress axis : x y z
#
# Youngs Moduli (GPa) = 61.58782 87.90705 97.36022
#
# Poissons Ratio (x) = 0.44075 0.26947
# Poissons Ratio (y) = 0.30879 0.29662
# Poissons Ratio (z) = 0.17046 0.26782
#
# Static dielectric constant tensor:
#      x y z
#    x 3.616050 0.000000 -0.030900 
#    y 0.000000 3.637200 0.000000 
#    z -0.030900 0.000000 3.536510 
# 
# 
# High freq. dielectric constant tensor:
#      x y z
#    x 1.765310 0.000000 -0.005920 
#    y 0.000000 1.760730 0.000000 
#    z -0.005920 0.000000 1.765600 
# 
# From -- ./inp_files/11247.got.cif
#   From: 2010.03.12/outbox.cif.g09.slc.cpg/sg5_6_cif.got.tgz:11247.got - 2010.03.31 09:47:26.
