data_PCOD8048177
_publ_section_title
;
Structure prediction by ZEFSAII (Michael W. Deem and Ramdas Pophale) SiO2 
 PCOD8048177
Probable space group: C 2
;
_chemical_formula_sum "Si O2"
_cell_formula_units_Z 32
_cell_length_a 19.470050
_cell_length_b 22.293143
_cell_length_c 11.350251
_cell_angle_alpha 90.000000
_cell_angle_beta 21.001737
_cell_angle_gamma 90.000000
_cell_volume 1765.660875
_symmetry_space_group_name_H-M "C 2"
_symmetry_group_IT_number 5
_symmetry_cell_setting 'monoclinic'
loop_
_space_group_symop_operation_xyz
x,y,z
-x,y,-z
1/2+x,1/2+y,z
1/2-x,1/2+y,-z
loop_
_atom_site_type_symbol
_atom_site_label
_atom_site_fract_x
_atom_site_fract_y
_atom_site_fract_z
Si Si1 0.044306 0.234140 0.064581
Si Si2 0.538587 0.601690 0.076113
Si Si3 0.259036 0.486930 0.279167
Si Si4 0.295489 0.022904 0.362674
Si Si5 0.327752 0.332816 0.693928
Si Si6 0.281280 0.319581 0.354298
Si Si7 0.116747 0.909859 0.613632
Si Si8 0.479725 0.885035 0.397849
O O1 0.087236 0.167678 0.048980
O O2 0.850729 0.261114 0.427917
O O3 0.228918 0.274805 0.794411
O O4 0.000000 0.228812 0.000000
O O5 0.344391 0.577439 0.446728
O O6 0.500000 0.605786 0.000000
O O7 0.705073 0.552472 0.837299
O O8 0.237771 0.498380 0.451820
O O9 0.064760 0.456699 0.539654
O O10 0.434217 0.440842 0.969792
O O11 0.256031 0.963638 0.347677
O O12 0.500000 0.048796 0.000000
O O13 0.500000 0.310181 0.500000
O O14 0.429289 0.373091 0.431086
O O15 0.170015 0.370087 0.019724
O O16 0.263709 0.366144 0.490510
O O17 0.210021 0.352622 0.350155
O O18 0.500000 0.297367 0.000000
O O19 0.500000 0.864483 0.500000
#
# Coordination Sequence:
#
# PCOD8048177 Si02
#       8
#     4   4   4   4   4   4   4   4
#     4  10  20  36  55  79 107 144 193 228 269 324
#     4   8  18  33  51  76 107 143 184 233 269 318
#     4  10  18  34  54  80 110 145 177 224 283 326
#     4  10  18  28  53  83 112 144 177 229 280 328
#     4  11  24  36  54  82 115 150 180 233 283 331
#     4  11  20  32  56  81 112 146 178 224 276 330
#     4  11  18  32  54  81 113 139 182 221 280 334
#     4  11  22  34  52  83 118 142 181 223 282 342
#
# _framework density 18.123525000000001
#
# number of rings (size 3 to 8) (size 9 to 14) (size 15 to 20)
#    0.000    1.750    3.750    2.625    1.750    0.500 
#    0.000    0.625    0.000    0.000    0.000   28.000 
#    0.000    0.000    0.000    0.000    0.000    0.000 
#
# Total GULP energy -198212.609615 kJ/mol
# GULP energy per Si atom -12388.288101 kJ/mol
# Density = 1.808228 g / cm^3
# Si number density = 18.123525 Si / 1000 Ang^3
#
#
#
# Elastic Constant Matrix: (Units=GPa)
#
#
# Indices 1 2 3 4 5 6 
#
# 1 85.1220 33.6454 23.6088 -0.0226 -2.8584 0.0597
# 2 33.6454 142.5004 50.5667 0.0702 -4.3281 0.0256
# 3 23.6088 50.5667 93.2906 -0.0789 -3.4656 0.0269
# 4 -0.0226 0.0702 -0.0789 25.6304 -0.0179 -4.5706
# 5 -2.8584 -4.3281 -3.4656 -0.0179 26.8085 -0.0335
# 6 0.0597 0.0256 0.0269 -4.5706 -0.0335 17.2335
#
#
#
# Elastic Compliance Matrix: (Units=1/GPa)
#
#
# Indices 1 2 3 4 5 6 
#
# 1 0.013283 -0.002390 -0.002038 0.000006 0.000767 -0.000036
# 2 -0.002390 0.009136 -0.004323 -0.000041 0.000661 -0.000008
# 3 -0.002038 -0.004323 0.013609 0.000054 0.000844 0.000008
# 4 0.000006 -0.000041 0.000054 0.040953 0.000042 0.010862
# 5 0.000767 0.000661 0.000844 0.000042 0.037599 0.000079
# 6 -0.000036 -0.000008 0.000008 0.010862 0.000079 0.060907
#
#
# Mechanical properties :
#
#
# Convention : Reuss Voigt Hill
#
# Bulk Modulus (GPa) = 53.97197 59.61717 56.79457
# Shear Modulus (GPa) = 25.10481 28.14061 26.62271
#
# Velocity S-wave (km/s) = 3.72587 3.94472 3.83686
# Velocity P-wave (km/s) = 6.95372 7.32899 7.14382
#
# Compressibility (1/GPa) = 0.01852813
#
# Stress axis : x y z
#
# Youngs Moduli (GPa) = 75.28173 109.45962 73.47948
#
# Poissons Ratio (x) = 0.26160 0.14973
# Poissons Ratio (y) = 0.17992 0.31762
# Poissons Ratio (z) = 0.15340 0.47315
#
# Static dielectric constant tensor:
#      x y z
#    x 3.128760 -0.000050 -0.070570 
#    y -0.000050 3.751920 0.000140 
#    z -0.070570 0.000140 3.345760 
# 
# 
# High freq. dielectric constant tensor:
#      x y z
#    x 1.669210 0.000000 0.000550 
#    y 0.000000 1.698500 0.000010 
#    z 0.000550 0.000010 1.704870 
# 
# From -- ./inp_files/28050.got.cif
#   From: 2010.03.12/outbox.cif.g09.slc.cpg/sg5_15_cif.got.tgz:28050.got - 2010.03.31 09:47:26.
