data_PCOD8048073
_publ_section_title
;
Structure prediction by ZEFSAII (Michael W. Deem and Ramdas Pophale) SiO2 
 PCOD8048073
Probable space group: C 2
;
_chemical_formula_sum "Si O2"
_cell_formula_units_Z 30
_cell_length_a 9.338280
_cell_length_b 16.593822
_cell_length_c 11.983884
_cell_angle_alpha 90.000000
_cell_angle_beta 119.282224
_cell_angle_gamma 90.000000
_cell_volume 1619.710825
_symmetry_space_group_name_H-M "C 2"
_symmetry_group_IT_number 5
_symmetry_cell_setting 'monoclinic'
loop_
_space_group_symop_operation_xyz
x,y,z
-x,y,-z
1/2+x,1/2+y,z
1/2-x,1/2+y,-z
loop_
_atom_site_type_symbol
_atom_site_label
_atom_site_fract_x
_atom_site_fract_y
_atom_site_fract_z
Si Si1 0.488803 0.844140 0.748499
Si Si2 0.394753 0.157294 0.689473
Si Si3 0.827664 0.114533 0.745441
Si Si4 0.943173 0.500658 0.357062
Si Si5 0.000000 0.322145 0.000000
Si Si6 0.265596 0.191350 0.079259
Si Si7 0.337450 0.674528 0.197303
Si Si8 0.819452 0.753793 0.448226
O O1 0.608924 0.768138 0.775009
O O2 0.313804 0.823422 0.624613
O O3 0.563169 0.922367 0.720942
O O4 0.471159 0.869320 0.872769
O O5 0.446258 0.071561 0.655377
O O6 0.549205 0.201252 0.806109
O O7 0.258820 0.142894 0.732459
O O8 0.307178 0.215678 0.566929
O O9 0.745721 0.027824 0.698920
O O10 0.841126 0.131434 0.882992
O O11 0.702373 0.182349 0.650024
O O12 0.000590 0.118824 0.749278
O O13 0.000000 0.474832 0.500000
O O14 0.168798 0.274631 0.045718
O O15 0.271303 0.159058 0.954626
O O16 0.000000 0.791612 0.500000
#
# Coordination Sequence:
#
# PCOD8048073 Si02
#       8
#     4   4   4   4   2   4   4   4
#     4  10  23  35  62  85 118 152 196 243 297 349
#     4  11  21  34  60  90 119 146 195 252 286 338
#     4  10  17  35  61  80 112 155 191 234 290 353
#     4  11  22  40  55  83 121 158 186 238 314 350
#     4  10  16  38  60  86 114 156 194 244 292 350
#     4  10  16  34  61  85 115 150 197 237 285 345
#     4  10  21  35  60  92 109 150 206 245 276 344
#     4  11  17  36  60  89 106 157 200 235 286 359
#
# _framework density 18.521825
#
# number of rings (size 3 to 8) (size 9 to 14) (size 15 to 20)
#    0.000    1.600    8.000    0.400    1.867    1.600 
#    4.800    1.333    2.933    4.800    0.000    0.000 
#    0.000    0.000    0.000    0.000    0.000    0.000 
#
# Total GULP energy -185903.723877 kJ/mol
# GULP energy per Si atom -12393.581592 kJ/mol
# Density = 1.847967 g / cm^3
# Si number density = 18.521825 Si / 1000 Ang^3
#
#
#
# Elastic Constant Matrix: (Units=GPa)
#
#
# Indices 1 2 3 4 5 6 
#
# 1 109.3304 33.0434 43.4303 0.0000 -10.2234 0.0000
# 2 33.0434 71.9461 33.9958 0.0000 -0.0706 0.0000
# 3 43.4303 33.9958 120.6455 0.0000 -8.4250 0.0000
# 4 0.0000 0.0000 0.0000 16.6391 0.0000 -4.3048
# 5 -10.2234 -0.0706 -8.4250 0.0000 36.8532 0.0000
# 6 0.0000 0.0000 0.0000 -4.3048 0.0000 15.6415
#
#
#
# Elastic Compliance Matrix: (Units=1/GPa)
#
#
# Indices 1 2 3 4 5 6 
#
# 1 0.011764 -0.004020 -0.002921 0.000000 0.002588 0.000000
# 2 -0.004020 0.017446 -0.003602 0.000000 -0.001905 0.000000
# 3 -0.002921 -0.003602 0.010465 0.000000 0.001575 0.000000
# 4 0.000000 0.000000 0.000000 0.064707 0.000000 0.017808
# 5 0.002588 -0.001905 0.001575 0.000000 0.028209 0.000000
# 6 0.000000 0.000000 0.000000 0.017808 0.000000 0.068834
#
#
# Mechanical properties :
#
#
# Convention : Reuss Voigt Hill
#
# Bulk Modulus (GPa) = 53.79631 58.09567 55.94599
# Shear Modulus (GPa) = 21.86201 26.59025 24.22613
#
# Velocity S-wave (km/s) = 3.43933 3.79306 3.62052
# Velocity P-wave (km/s) = 6.69924 7.11458 6.91003
#
# Compressibility (1/GPa) = 0.01858864
#
# Stress axis : x y z
#
# Youngs Moduli (GPa) = 85.00471 57.32082 95.55391
#
# Poissons Ratio (x) = 0.23043 0.27915
# Poissons Ratio (y) = 0.34172 0.34416
# Poissons Ratio (z) = 0.24833 0.20646
#
# Static dielectric constant tensor:
#      x y z
#    x 3.480710 0.000000 0.027610 
#    y 0.000000 2.962380 0.000000 
#    z 0.027610 0.000000 3.994070 
# 
# 
# High freq. dielectric constant tensor:
#      x y z
#    x 1.718950 0.000000 -0.006730 
#    y 0.000000 1.666730 0.000000 
#    z -0.006730 0.000000 1.745610 
# 
# From -- ./inp_files/37020.got.cif
#   From: 2010.03.12/outbox.cif.g09.slc.cpg/sg5_19_cif.got.tgz:37020.got - 2010.03.31 09:47:26.
