data_PCOD8048715
_publ_section_title
;
Structure prediction by ZEFSAII (Michael W. Deem and Ramdas Pophale) SiO2 
 PCOD8048715
Probable space group: C 2
;
_chemical_formula_sum "Si O2"
_cell_formula_units_Z 28
_cell_length_a 28.461043
_cell_length_b 8.566512
_cell_length_c 9.056724
_cell_angle_alpha 90.000000
_cell_angle_beta 144.726237
_cell_angle_gamma 90.000000
_cell_volume 1275.163300
_symmetry_space_group_name_H-M "C 2"
_symmetry_group_IT_number 5
_symmetry_cell_setting 'monoclinic'
loop_
_space_group_symop_operation_xyz
x,y,z
-x,y,-z
1/2+x,1/2+y,z
1/2-x,1/2+y,-z
loop_
_atom_site_type_symbol
_atom_site_label
_atom_site_fract_x
_atom_site_fract_y
_atom_site_fract_z
Si Si1 0.846734 0.261380 0.769258
Si Si2 0.615931 0.275790 0.501548
Si Si3 0.958627 0.708536 0.237315
Si Si4 0.510319 0.863200 0.697956
Si Si5 0.860277 0.430893 0.505654
Si Si6 0.299499 0.264765 0.966439
Si Si7 0.278339 0.493955 0.406274
O O1 0.878184 0.353643 0.707577
O O2 0.779882 0.357157 0.688697
O O3 0.807038 0.097159 0.619358
O O4 0.927108 0.234488 0.075809
O O5 0.519839 0.303520 0.287982
O O6 0.642978 0.417159 0.468214
O O7 0.627055 0.114552 0.442841
O O8 0.667920 0.260595 0.784480
O O9 0.947394 0.529917 0.154327
O O10 0.000000 0.687680 0.500000
O O11 0.872546 0.797216 0.035152
O O12 0.500000 0.826807 0.500000
O O13 0.421040 0.855174 0.541466
O O14 0.767318 0.399494 0.218095
O O15 0.263053 0.096772 0.828441
#
# Coordination Sequence:
#
# PCOD8048715 Si02
#       7
#     4   4   4   4   4   4   4
#     4  11  23  41  65  97 141 174 229 272 343 405
#     4  10  20  36  65  99 132 174 232 272 332 396
#     4   8  16  33  61  97 129 169 214 272 331 387
#     4  10  20  38  70  98 130 180 225 278 327 401
#     4  10  22  37  64  99 131 178 224 275 340 397
#     4  10  19  36  66  97 136 171 225 283 331 398
#     4  11  23  39  68  97 134 185 216 284 335 402
#
# _framework density 21.957972000000002
#
# number of rings (size 3 to 8) (size 9 to 14) (size 15 to 20)
#    0.000    2.000    1.429    3.000    2.000    0.000 
#    0.000    0.000   34.571    3.429    0.000    4.000 
#    0.000    0.000    0.000    0.000    0.000    0.000 
#
# Total GULP energy -173579.289504 kJ/mol
# GULP energy per Si atom -12398.520679 kJ/mol
# Density = 2.190799 g / cm^3
# Si number density = 21.957972 Si / 1000 Ang^3
#
#
#
# Elastic Constant Matrix: (Units=GPa)
#
#
# Indices 1 2 3 4 5 6 
#
# 1 120.0773 31.5521 29.9789 0.0000 23.7081 0.0000
# 2 31.5521 67.0517 21.0901 0.0000 13.2223 0.0000
# 3 29.9789 21.0901 97.4211 0.0000 15.3046 0.0000
# 4 0.0000 0.0000 0.0000 26.2194 0.0000 1.6302
# 5 23.7081 13.2223 15.3046 0.0000 43.1483 0.0000
# 6 0.0000 0.0000 0.0000 1.6302 0.0000 39.4319
#
#
#
# Elastic Compliance Matrix: (Units=1/GPa)
#
#
# Indices 1 2 3 4 5 6 
#
# 1 0.010522 -0.003580 -0.001829 0.000000 -0.004036 0.000000
# 2 -0.003580 0.017864 -0.002345 0.000000 -0.002675 0.000000
# 3 -0.001829 -0.002345 0.011717 0.000000 -0.002433 0.000000
# 4 0.000000 0.000000 0.000000 0.038238 0.000000 -0.001581
# 5 -0.004036 -0.002675 -0.002433 0.000000 0.027076 0.000000
# 6 0.000000 0.000000 0.000000 -0.001581 0.000000 0.025426
#
#
# Mechanical properties :
#
#
# Convention : Reuss Voigt Hill
#
# Bulk Modulus (GPa) = 40.65944 49.97691 45.31818
# Shear Modulus (GPa) = 32.35207 35.22185 33.78696
#
# Velocity S-wave (km/s) = 3.84261 4.00941 3.92690
# Velocity P-wave (km/s) = 6.18422 6.65158 6.42216
#
# Compressibility (1/GPa) = 0.02459453
#
# Stress axis : x y z
#
# Youngs Moduli (GPa) = 95.03774 55.97915 85.34343
#
# Poissons Ratio (x) = 0.20042 0.15608
# Poissons Ratio (y) = 0.34026 0.20015
# Poissons Ratio (z) = 0.17381 0.13128
#
# Static dielectric constant tensor:
#      x y z
#    x 4.349140 0.000000 0.285280 
#    y 0.000000 3.700030 0.000000 
#    z 0.285280 0.000000 4.027470 
# 
# 
# High freq. dielectric constant tensor:
#      x y z
#    x 1.881090 0.000000 0.009540 
#    y 0.000000 1.833490 0.000000 
#    z 0.009540 0.000000 1.862520 
# 
# From -- ./inp_files/31765.got.cif
#   From: 2010.03.12/outbox.cif.g09.slc.cpg/sg5_16_cif.got.tgz:31765.got - 2010.03.31 09:47:26.
