data_PCOD8048944
_publ_section_title
;
Structure prediction by ZEFSAII (Michael W. Deem and Ramdas Pophale) SiO2 
 PCOD8048944
Probable space group: C 2
;
_chemical_formula_sum "Si O2"
_cell_formula_units_Z 28
_cell_length_a 23.469680
_cell_length_b 5.131941
_cell_length_c 22.990454
_cell_angle_alpha 90.000000
_cell_angle_beta 152.411189
_cell_angle_gamma 90.000000
_cell_volume 1282.427099
_symmetry_space_group_name_H-M "C 2"
_symmetry_group_IT_number 5
_symmetry_cell_setting 'monoclinic'
loop_
_space_group_symop_operation_xyz
x,y,z
-x,y,-z
1/2+x,1/2+y,z
1/2-x,1/2+y,-z
loop_
_atom_site_type_symbol
_atom_site_label
_atom_site_fract_x
_atom_site_fract_y
_atom_site_fract_z
Si Si1 0.291331 0.444430 0.345580
Si Si2 0.759318 0.478111 0.829942
Si Si3 0.000000 0.671198 0.000000
Si Si4 0.853140 0.931281 0.763865
Si Si5 0.000000 0.650891 0.500000
Si Si6 0.375934 0.976445 0.277288
Si Si7 0.880602 0.981741 0.663514
Si Si8 0.094329 0.483874 0.385880
O O1 0.305958 0.485120 0.290772
O O2 0.257154 0.717187 0.345509
O O3 0.426354 0.327456 0.482050
O O4 0.189703 0.227087 0.267642
O O5 0.907188 0.490289 0.953545
O O6 0.712608 0.219242 0.820448
O O7 0.708736 0.732154 0.817058
O O8 0.928346 0.852289 0.889335
O O9 0.932238 0.934913 0.775718
O O10 0.909177 0.477869 0.377102
O O11 0.500997 0.960604 0.354430
O O12 0.927120 0.254661 0.680111
O O13 0.732444 0.976878 0.535407
O O14 0.931887 0.756600 0.668986
#
# Coordination Sequence:
#
# PCOD8048944 Si02
#       8
#     4   4   2   4   2   4   4   4
#     4  10  21  33  51  83 117 147 180 225 284 351
#     4  10  22  36  54  83 113 148 188 229 288 343
#     4  10  22  40  62  86 114 148 190 246 290 334
#     4  11  22  37  58  84 114 146 193 241 282 331
#     4  10  20  32  52  82 118 152 180 222 288 356
#     4  11  22  36  56  84 118 152 187 232 287 344
#     4  10  21  37  58  86 114 156 197 227 275 336
#     4  10  21  37  58  83 120 155 188 231 277 336
#
# _framework density 21.833601999999999
#
# number of rings (size 3 to 8) (size 9 to 14) (size 15 to 20)
#    0.000    1.714    0.000    6.000    0.000   14.857 
#    0.000    0.000    0.000    3.429    0.000    0.000 
#    0.000    0.000    0.000    0.000    0.000    0.000 
#
# Total GULP energy -173494.957283 kJ/mol
# GULP energy per Si atom -12392.496949 kJ/mol
# Density = 2.178391 g / cm^3
# Si number density = 21.833602 Si / 1000 Ang^3
#
#
#
# Elastic Constant Matrix: (Units=GPa)
#
#
# Indices 1 2 3 4 5 6 
#
# 1 92.7636 25.8548 22.8152 0.0041 16.2670 0.0097
# 2 25.8548 129.8059 19.9711 0.0008 16.9065 0.0164
# 3 22.8152 19.9711 55.0613 -0.0004 15.3120 -0.0003
# 4 0.0041 0.0008 -0.0004 10.2411 -0.0013 10.3136
# 5 16.2670 16.9065 15.3120 -0.0013 36.9685 -0.0029
# 6 0.0097 0.0164 -0.0003 10.3136 -0.0029 30.6835
#
#
#
# Elastic Compliance Matrix: (Units=1/GPa)
#
#
# Indices 1 2 3 4 5 6 
#
# 1 0.012720 -0.001516 -0.003794 -0.000003 -0.003332 -0.000003
# 2 -0.001516 0.008611 -0.001792 0.000006 -0.002529 -0.000006
# 3 -0.003794 -0.001792 0.022255 0.000000 -0.006729 0.000002
# 4 -0.000003 0.000006 0.000000 0.147614 0.000000 -0.049617
# 5 -0.003332 -0.002529 -0.006729 0.000000 0.032460 0.000006
# 6 -0.000003 -0.000006 0.000002 -0.049617 0.000006 0.049268
#
#
# Mechanical properties :
#
#
# Convention : Reuss Voigt Hill
#
# Bulk Modulus (GPa) = 34.03449 46.10143 40.06796
# Shear Modulus (GPa) = 16.83924 29.51128 23.17526
#
# Velocity S-wave (km/s) = 2.78016 3.68046 3.26152
# Velocity P-wave (km/s) = 5.09192 6.26273 5.70743
#
# Compressibility (1/GPa) = 0.02938196
#
# Stress axis : x y z
#
# Youngs Moduli (GPa) = 78.61550 116.13367 44.93399
#
# Poissons Ratio (x) = 0.17604 0.17049
# Poissons Ratio (y) = 0.11917 0.08052
# Poissons Ratio (z) = 0.29828 0.20810
#
# Static dielectric constant tensor:
#      x y z
#    x 3.818840 -0.000020 0.226690 
#    y -0.000020 4.380380 -0.000040 
#    z 0.226690 -0.000040 3.810660 
# 
# 
# High freq. dielectric constant tensor:
#      x y z
#    x 1.846350 0.000000 0.022450 
#    y 0.000000 1.879490 0.000000 
#    z 0.022450 0.000000 1.815390 
# 
# From -- ./inp_files/69357.got.cif
#   From: 2010.03.12/outbox.cif.g09.slc.cpg/sg5_35_cif.got.tgz:69357.got - 2010.03.31 09:47:26.
