data_PCOD8048634
_publ_section_title
;
Structure prediction by ZEFSAII (Michael W. Deem and Ramdas Pophale) SiO2 
 PCOD8048634
Probable space group: C 2
;
_chemical_formula_sum "Si O2"
_cell_formula_units_Z 26
_cell_length_a 7.480812
_cell_length_b 22.152234
_cell_length_c 10.842081
_cell_angle_alpha 90.000000
_cell_angle_beta 133.628337
_cell_angle_gamma 90.000000
_cell_volume 1300.516661
_symmetry_space_group_name_H-M "C 2"
_symmetry_group_IT_number 5
_symmetry_cell_setting 'monoclinic'
loop_
_space_group_symop_operation_xyz
x,y,z
-x,y,-z
1/2+x,1/2+y,z
1/2-x,1/2+y,-z
loop_
_atom_site_type_symbol
_atom_site_label
_atom_site_fract_x
_atom_site_fract_y
_atom_site_fract_z
Si Si1 0.594161 0.474060 0.800064
Si Si2 0.974708 0.841529 0.686701
Si Si3 0.301731 0.770528 1.000000
Si Si4 0.689846 0.064176 0.689846
Si Si5 0.601306 0.841529 0.313299
Si Si6 0.000000 0.154970 0.000000
Si Si7 0.494034 0.974060 0.199936
O O1 0.466326 0.408908 0.736406
O O2 0.385514 0.524447 0.708088
O O3 0.752268 0.485801 0.752268
O O4 0.760527 0.478567 1.000000
O O5 0.178740 0.835957 0.678741
O O6 0.707804 0.825835 0.500000
O O7 0.034036 0.794930 0.827475
O O8 0.379086 0.794930 0.172526
O O9 0.500000 0.800940 0.000000
O O10 0.321573 0.697591 0.000000
O O11 0.500000 0.092748 0.500000
O O12 0.530659 0.024447 0.708087
O O13 0.828504 0.116879 0.828504
O O14 0.493512 0.908909 0.263593
#
# Coordination Sequence:
#
# PCOD8048634 Si02
#       7
#     4   4   4   4   4   2   4
#     4  10  19  35  60  86 117 152 186 234 300 350
#     4   9  15  26  49  81 108 136 178 227 282 336
#     4   8  16  29  47  71 106 141 185 231 266 326
#     4  12  24  38  56  86 122 154 195 240 282 347
#     4   9  15  26  49  81 108 136 178 227 282 336
#     4  10  22  36  50  78 116 154 208 228 276 342
#     4  10  19  35  60  86 117 152 186 234 300 350
#
# _framework density 19.992056000000002
#
# number of rings (size 3 to 8) (size 9 to 14) (size 15 to 20)
#    0.462    1.846    3.077    0.923    0.000    3.077 
#    0.000    0.000    0.000    0.000    8.000    0.000 
#    0.000    0.000    0.000    0.000    0.000    0.000 
#
# Total GULP energy -161105.800883 kJ/mol
# GULP energy per Si atom -12392.753914 kJ/mol
# Density = 1.994655 g / cm^3
# Si number density = 19.992056 Si / 1000 Ang^3
#
#
#
# Elastic Constant Matrix: (Units=GPa)
#
#
# Indices 1 2 3 4 5 6 
#
# 1 50.0867 26.2943 25.7652 0.0000 0.0583 0.0000
# 2 26.2943 138.8813 84.9361 0.0000 -0.6583 0.0000
# 3 25.7652 84.9361 189.5626 0.0000 -1.6238 0.0000
# 4 0.0000 0.0000 0.0000 15.3929 0.0000 -0.7841
# 5 0.0583 -0.6583 -1.6238 0.0000 9.5882 0.0000
# 6 0.0000 0.0000 0.0000 -0.7841 0.0000 -54.3567
#
#
#
# Elastic Compliance Matrix: (Units=1/GPa)
#
#
# Indices 1 2 3 4 5 6 
#
# 1 0.022513 -0.003293 -0.001590 0.000000 -0.000632 0.000000
# 2 -0.003293 0.010400 -0.004212 0.000000 0.000021 0.000000
# 3 -0.001590 -0.004212 0.007387 0.000000 0.000972 0.000000
# 4 0.000000 0.000000 0.000000 0.064917 0.000000 -0.000936
# 5 -0.000632 0.000021 0.000972 0.000000 0.104465 0.000000
# 6 0.000000 0.000000 0.000000 -0.000936 0.000000 -0.018383
#
#
# Mechanical properties :
#
#
# Convention : Reuss Voigt Hill
#
# Bulk Modulus (GPa) = 45.22883 72.50241 58.86562
# Shear Modulus (GPa) = 23.05657 10.22722 16.64189
#
# Velocity S-wave (km/s) = 3.39969 2.26423 2.88831
# Velocity P-wave (km/s) = 6.17115 6.57115 6.37429
#
# Compressibility (1/GPa) = 0.02210979
#
# Stress axis : x y z
#
# Youngs Moduli (GPa) = 44.41933 96.15430 135.37309
#
# Poissons Ratio (x) = 0.31664 0.21522
# Poissons Ratio (y) = 0.14627 0.57020
# Poissons Ratio (z) = 0.07062 0.40501
#
# Static dielectric constant tensor:
#      x y z
#    x 3.213130 0.000000 -0.010100 
#    y 0.000000 3.375280 0.000000 
#    z -0.010100 0.000000 4.112500 
# 
# 
# High freq. dielectric constant tensor:
#      x y z
#    x 1.744470 0.000000 -0.000690 
#    y 0.000000 1.750800 0.000000 
#    z -0.000690 0.000000 1.805750 
# 
# From -- ./inp_files/37404.got.cif
#   From: 2010.03.12/outbox.cif.g09.slc.cpg/sg5_19_cif.got.tgz:37404.got - 2010.03.31 09:47:26.
