data_PCOD8048248
_publ_section_title
;
Structure prediction by ZEFSAII (Michael W. Deem and Ramdas Pophale) SiO2 
 PCOD8048248
Probable space group: C 2
;
_chemical_formula_sum "Si O2"
_cell_formula_units_Z 28
_cell_length_a 10.937659
_cell_length_b 15.459121
_cell_length_c 9.090808
_cell_angle_alpha 90.000000
_cell_angle_beta 68.861648
_cell_angle_gamma 90.000000
_cell_volume 1433.703650
_symmetry_space_group_name_H-M "C 2"
_symmetry_group_IT_number 5
_symmetry_cell_setting 'monoclinic'
loop_
_space_group_symop_operation_xyz
x,y,z
-x,y,-z
1/2+x,1/2+y,z
1/2-x,1/2+y,-z
loop_
_atom_site_type_symbol
_atom_site_label
_atom_site_fract_x
_atom_site_fract_y
_atom_site_fract_z
Si Si1 0.383314 0.661900 0.940668
Si Si2 0.631794 0.408596 0.588396
Si Si3 0.620171 0.951183 0.344969
Si Si4 0.050302 0.101688 0.628055
Si Si5 0.859888 0.830504 0.725388
Si Si6 0.627815 0.852476 0.044266
Si Si7 0.285442 0.137814 0.726656
O O1 0.424490 0.598571 0.791117
O O2 0.350260 0.757595 0.892903
O O3 0.500000 0.680010 0.000000
O O4 0.269081 0.617409 0.085448
O O5 0.747683 0.405538 0.655686
O O6 0.593993 0.506295 0.568821
O O7 0.506293 0.358479 0.709191
O O8 0.680034 0.368419 0.415054
O O9 0.500000 0.920723 0.500000
O O10 0.607071 0.922171 0.182124
O O11 0.625761 0.055813 0.353436
O O12 0.169689 0.152221 0.655673
O O13 0.000000 0.148281 0.500000
O O14 0.864969 0.726630 0.704660
O O15 0.756900 0.867895 0.888038
O O16 0.500000 0.860004 0.000000
#
# Coordination Sequence:
#
# PCOD8048248 Si02
#       7
#     4   4   4   4   4   4   4
#     4   8  17  34  55  81 114 147 194 235 294 349
#     4  10  22  37  61  90 118 159 202 251 296 354
#     4  11  24  38  59  89 124 154 207 250 303 353
#     4  10  18  33  57  94 118 150 203 251 288 346
#     4  10  20  40  63  85 122 159 204 236 310 359
#     4  10  21  38  61  84 116 164 199 247 300 360
#     4   9  21  36  58  86 119 166 191 244 304 359
#
# _framework density 19.529838999999999
#
# number of rings (size 3 to 8) (size 9 to 14) (size 15 to 20)
#    0.000    2.286    1.429    1.714    4.000    2.286 
#    0.000    0.000    6.286    0.000    0.000    0.000 
#    0.000    0.000    0.000    0.000    0.000    0.000 
#
# Total GULP energy -173501.470301 kJ/mol
# GULP energy per Si atom -12392.962164 kJ/mol
# Density = 1.948539 g / cm^3
# Si number density = 19.529839 Si / 1000 Ang^3
#
#
#
# Elastic Constant Matrix: (Units=GPa)
#
#
# Indices 1 2 3 4 5 6 
#
# 1 104.7408 29.7738 46.6386 0.0000 -3.2321 0.0000
# 2 29.7738 64.7292 33.7365 0.0000 -3.4583 0.0000
# 3 46.6386 33.7365 130.2228 0.0000 -8.4674 0.0000
# 4 0.0000 0.0000 0.0000 30.5541 0.0000 -3.6802
# 5 -3.2321 -3.4583 -8.4674 0.0000 32.4987 0.0000
# 6 0.0000 0.0000 0.0000 -3.6802 0.0000 27.4744
#
#
#
# Elastic Compliance Matrix: (Units=1/GPa)
#
#
# Indices 1 2 3 4 5 6 
#
# 1 0.012129 -0.003834 -0.003356 0.000000 -0.000076 0.000000
# 2 -0.003834 0.019089 -0.003524 0.000000 0.000732 0.000000
# 3 -0.003356 -0.003524 0.009916 0.000000 0.001875 0.000000
# 4 0.000000 0.000000 0.000000 0.033266 0.000000 0.004456
# 5 -0.000076 0.000732 0.001875 0.000000 0.031329 0.000000
# 6 0.000000 0.000000 0.000000 0.004456 0.000000 0.036994
#
#
# Mechanical properties :
#
#
# Convention : Reuss Voigt Hill
#
# Bulk Modulus (GPa) = 50.74829 57.77671 54.26250
# Shear Modulus (GPa) = 29.28777 30.74172 30.01475
#
# Velocity S-wave (km/s) = 3.87672 3.97178 3.92454
# Velocity P-wave (km/s) = 6.78823 7.11909 6.95563
#
# Compressibility (1/GPa) = 0.01970510
#
# Stress axis : x y z
#
# Youngs Moduli (GPa) = 82.44618 52.38719 100.84804
#
# Poissons Ratio (x) = 0.20086 0.33841
# Poissons Ratio (y) = 0.31612 0.35544
# Poissons Ratio (z) = 0.27666 0.18464
#
# Static dielectric constant tensor:
#      x y z
#    x 3.575880 0.000000 -0.073840 
#    y 0.000000 3.435660 0.000000 
#    z -0.073840 0.000000 3.828220 
# 
# 
# High freq. dielectric constant tensor:
#      x y z
#    x 1.746100 0.000000 -0.008880 
#    y 0.000000 1.754850 0.000000 
#    z -0.008880 0.000000 1.766720 
# 
# From -- ./inp_files/20331.got.cif
#   From: 2010.03.12/outbox.cif.g09.slc.cpg/sg5_11_cif.got.tgz:20331.got - 2010.03.31 09:47:26.
