data_PCOD8048750
_publ_section_title
;
Structure prediction by ZEFSAII (Michael W. Deem and Ramdas Pophale) SiO2 
 PCOD8048750
Probable space group: C 2
;
_chemical_formula_sum "Si O2"
_cell_formula_units_Z 30
_cell_length_a 15.338004
_cell_length_b 8.223397
_cell_length_c 16.915157
_cell_angle_alpha 90.000000
_cell_angle_beta 41.110814
_cell_angle_gamma 90.000000
_cell_volume 1402.824777
_symmetry_space_group_name_H-M "C 2"
_symmetry_group_IT_number 5
_symmetry_cell_setting 'monoclinic'
loop_
_space_group_symop_operation_xyz
x,y,z
-x,y,-z
1/2+x,1/2+y,z
1/2-x,1/2+y,-z
loop_
_atom_site_type_symbol
_atom_site_label
_atom_site_fract_x
_atom_site_fract_y
_atom_site_fract_z
Si Si1 0.164901 0.754630 0.523086
Si Si2 0.146913 0.922802 0.115563
Si Si3 0.387327 0.860900 0.701149
Si Si4 0.066315 0.097046 0.636974
Si Si5 0.119664 0.877766 0.961313
Si Si6 0.000000 0.581495 0.500000
Si Si7 0.433546 0.019832 0.967927
Si Si8 0.508262 0.091567 0.236756
O O1 0.320682 0.717506 0.404948
O O2 0.080326 0.689767 0.507062
O O3 0.123132 0.671796 0.635194
O O4 0.139188 0.947342 0.543824
O O5 0.117628 0.733408 0.150555
O O6 0.168267 0.967735 0.008093
O O7 0.027954 0.035950 0.228070
O O8 0.282280 0.960918 0.068456
O O9 0.474025 0.695032 0.637372
O O10 0.232682 0.831341 0.821142
O O11 0.396912 0.963906 0.614584
O O12 0.437849 0.959495 0.740962
O O13 0.053276 0.712133 0.034696
O O14 0.000000 0.978213 0.000000
O O15 0.514364 0.991969 0.830206
O O16 0.500000 0.935413 0.000000
#
# Coordination Sequence:
#
# PCOD8048750 Si02
#       8
#     4   4   4   4   4   2   4   4
#     4  10  22  43  64  95 128 170 222 274 331 386
#     4  10  20  38  65  94 132 169 218 270 332 391
#     4  11  21  41  63  92 131 173 216 267 332 385
#     4  11  23  42  69  92 126 178 221 265 340 395
#     4  10  21  36  63  94 132 168 217 265 330 394
#     4  10  24  40  66  96 134 166 222 278 320 396
#     4  10  19  37  61  94 128 168 217 266 323 388
#     4   9  20  38  60  86 131 170 206 275 324 388
#
# _framework density 21.385422999999999
#
# number of rings (size 3 to 8) (size 9 to 14) (size 15 to 20)
#    0.000    1.867    2.667    1.600    1.867    0.533 
#    4.800    8.667    0.000    0.000    0.000    0.000 
#    0.000    0.000    0.000    0.000    0.000    0.000 
#
# Total GULP energy -185897.854044 kJ/mol
# GULP energy per Si atom -12393.190270 kJ/mol
# Density = 2.133675 g / cm^3
# Si number density = 21.385423 Si / 1000 Ang^3
#
#
#
# Elastic Constant Matrix: (Units=GPa)
#
#
# Indices 1 2 3 4 5 6 
#
# 1 127.9964 28.5102 61.5269 0.0000 -5.4351 0.0000
# 2 28.5102 79.0985 32.9821 0.0000 -2.1975 0.0000
# 3 61.5269 32.9821 116.2793 0.0000 -4.9841 0.0000
# 4 0.0000 0.0000 0.0000 27.6678 0.0000 -4.6182
# 5 -5.4351 -2.1975 -4.9841 0.0000 41.3848 0.0000
# 6 0.0000 0.0000 0.0000 -4.6182 0.0000 16.0130
#
#
#
# Elastic Compliance Matrix: (Units=1/GPa)
#
#
# Indices 1 2 3 4 5 6 
#
# 1 0.010694 -0.001688 -0.005150 0.000000 0.000695 0.000000
# 2 -0.001688 0.014608 -0.003243 0.000000 0.000163 0.000000
# 3 -0.005150 -0.003243 0.012272 0.000000 0.000629 0.000000
# 4 0.000000 0.000000 0.000000 0.037971 0.000000 0.010951
# 5 0.000695 0.000163 0.000629 0.000000 0.024339 0.000000
# 6 0.000000 0.000000 0.000000 0.010951 0.000000 0.065608
#
#
# Mechanical properties :
#
#
# Convention : Reuss Voigt Hill
#
# Bulk Modulus (GPa) = 57.43392 63.26808 60.35100
# Shear Modulus (GPa) = 26.11559 30.37013 28.24286
#
# Velocity S-wave (km/s) = 3.49834 3.77255 3.63803
# Velocity P-wave (km/s) = 6.57516 6.97317 6.77709
#
# Compressibility (1/GPa) = 0.01741131
#
# Stress axis : x y z
#
# Youngs Moduli (GPa) = 93.51359 68.45684 81.48727
#
# Poissons Ratio (x) = 0.11554 0.41965
# Poissons Ratio (y) = 0.15783 0.26429
# Poissons Ratio (z) = 0.48158 0.22203
#
# Static dielectric constant tensor:
#      x y z
#    x 4.139790 0.000000 0.266570 
#    y 0.000000 3.811100 0.000000 
#    z 0.266570 0.000000 4.196320 
# 
# 
# High freq. dielectric constant tensor:
#      x y z
#    x 1.827380 0.000000 0.001840 
#    y 0.000000 1.829360 0.000000 
#    z 0.001840 0.000000 1.848950 
# 
# From -- ./inp_files/47332.got.cif
#   From: 2010.03.12/outbox.cif.g09.slc.cpg/sg5_24_cif.got.tgz:47332.got - 2010.03.31 09:47:26.
