data_PCOD8048081
_publ_section_title
;
Structure prediction by ZEFSAII (Michael W. Deem and Ramdas Pophale) SiO2 
 PCOD8048081
Probable space group: C 2
;
_chemical_formula_sum "Si O2"
_cell_formula_units_Z 22
_cell_length_a 11.964817
_cell_length_b 13.122907
_cell_length_c 9.192982
_cell_angle_alpha 90.000000
_cell_angle_beta 131.977956
_cell_angle_gamma 90.000000
_cell_volume 1073.041134
_symmetry_space_group_name_H-M "C 2"
_symmetry_group_IT_number 5
_symmetry_cell_setting 'monoclinic'
loop_
_space_group_symop_operation_xyz
x,y,z
-x,y,-z
1/2+x,1/2+y,z
1/2-x,1/2+y,-z
loop_
_atom_site_type_symbol
_atom_site_label
_atom_site_fract_x
_atom_site_fract_y
_atom_site_fract_z
Si Si1 0.954179 0.398770 0.619781
Si Si2 0.013792 0.009501 0.350156
Si Si3 0.656947 0.293286 0.423230
Si Si4 0.726268 0.088921 0.612594
Si Si5 0.000000 0.820758 0.000000
Si Si6 0.237991 0.970757 0.071604
O O1 0.836050 0.315479 0.572044
O O2 0.880449 0.509469 0.559779
O O3 0.000000 0.363499 0.500000
O O4 0.108980 0.412736 0.845973
O O5 0.072944 0.893158 0.409373
O O6 0.000000 0.055215 0.500000
O O7 0.113522 0.080579 0.331313
O O8 0.843732 0.013049 0.141896
O O9 0.649510 0.199637 0.528753
O O10 0.575994 0.258223 0.199986
O O11 0.734448 0.063666 0.791180
O O12 0.865399 0.890997 0.935418
#
# Coordination Sequence:
#
# PCOD8048081 Si02
#       6
#     4   4   4   4   2   4
#     4   9  17  34  59  84 113 152 196 234 282 350
#     4  10  21  39  57  82 119 154 189 245 293 339
#     4  10  20  35  59  86 118 153 193 244 285 341
#     4  10  19  36  58  85 117 150 193 238 287 347
#     4  10  16  36  62  80 112 160 192 226 292 348
#     4  10  17  38  65  79 109 162 197 227 294 348
#
# _framework density 20.502476000000001
#
# number of rings (size 3 to 8) (size 9 to 14) (size 15 to 20)
#    0.000    2.182    7.273    0.000    0.000    2.909 
#    3.273    8.182    0.000    0.000    0.000    0.000 
#    0.000    0.000    0.000    0.000    0.000    0.000 
#
# Total GULP energy -136284.710938 kJ/mol
# GULP energy per Si atom -12389.519176 kJ/mol
# Density = 2.045581 g / cm^3
# Si number density = 20.502476 Si / 1000 Ang^3
#
#
#
# Elastic Constant Matrix: (Units=GPa)
#
#
# Indices 1 2 3 4 5 6 
#
# 1 56.4039 -5.6622 35.8337 0.0000 13.4488 0.0000
# 2 -5.6622 77.5835 20.9218 0.0000 -1.8662 0.0000
# 3 35.8337 20.9218 138.5678 0.0000 16.0752 0.0000
# 4 0.0000 0.0000 0.0000 15.7681 0.0000 -6.4306
# 5 13.4488 -1.8662 16.0752 0.0000 35.2418 0.0000
# 6 0.0000 0.0000 0.0000 -6.4306 0.0000 11.7435
#
#
#
# Elastic Compliance Matrix: (Units=1/GPa)
#
#
# Indices 1 2 3 4 5 6 
#
# 1 0.023132 0.003093 -0.005748 0.000000 -0.006042 0.000000
# 2 0.003093 0.013950 -0.003014 0.000000 0.000933 0.000000
# 3 -0.005748 -0.003014 0.009421 0.000000 -0.002263 0.000000
# 4 0.000000 0.000000 0.000000 0.081654 0.000000 0.044713
# 5 -0.006042 0.000933 -0.002263 0.000000 0.031763 0.000000
# 6 0.000000 0.000000 0.000000 0.044713 0.000000 0.109638
#
#
# Mechanical properties :
#
#
# Convention : Reuss Voigt Hill
#
# Bulk Modulus (GPa) = 28.43790 41.63797 35.03794
# Shear Modulus (GPa) = 17.08704 27.31479 22.20092
#
# Velocity S-wave (km/s) = 2.89002 3.65398 3.29422
# Velocity P-wave (km/s) = 5.00369 6.17697 5.62103
#
# Compressibility (1/GPa) = 0.03516434
#
# Stress axis : x y z
#
# Youngs Moduli (GPa) = 43.22981 71.68247 106.14762
#
# Poissons Ratio (x) = -0.22171 0.61014
# Poissons Ratio (y) = -0.13371 0.31998
# Poissons Ratio (z) = 0.24849 0.21608
#
# Static dielectric constant tensor:
#      x y z
#    x 3.808910 0.000000 0.387270 
#    y 0.000000 3.308340 0.000000 
#    z 0.387270 0.000000 4.135140 
# 
# 
# High freq. dielectric constant tensor:
#      x y z
#    x 1.796010 0.000000 0.025370 
#    y 0.000000 1.765570 0.000000 
#    z 0.025370 0.000000 1.802070 
# 
# From -- ./inp_files/19850.got.cif
#   From: 2010.03.12/outbox.cif.g09.slc.cpg/sg5_10_cif.got.tgz:19850.got - 2010.03.31 09:47:26.
