data_PCOD8048405
_publ_section_title
;
Structure prediction by ZEFSAII (Michael W. Deem and Ramdas Pophale) SiO2 
 PCOD8048405
Probable space group: C 2
;
_chemical_formula_sum "Si O2"
_cell_formula_units_Z 32
_cell_length_a 10.977739
_cell_length_b 14.654144
_cell_length_c 8.959656
_cell_angle_alpha 90.000000
_cell_angle_beta 91.603359
_cell_angle_gamma 90.000000
_cell_volume 1440.769883
_symmetry_space_group_name_H-M "C 2"
_symmetry_group_IT_number 5
_symmetry_cell_setting 'monoclinic'
loop_
_space_group_symop_operation_xyz
x,y,z
-x,y,-z
1/2+x,1/2+y,z
1/2-x,1/2+y,-z
loop_
_atom_site_type_symbol
_atom_site_label
_atom_site_fract_x
_atom_site_fract_y
_atom_site_fract_z
Si Si1 0.660285 0.164860 0.781278
Si Si2 0.429465 0.655606 0.845578
Si Si3 0.368318 0.320060 0.034940
Si Si4 0.075060 0.038529 0.639462
Si Si5 0.720821 0.955068 0.181275
Si Si6 0.233974 0.681992 0.468449
Si Si7 0.893218 0.647533 0.831448
Si Si8 0.401093 0.817148 0.617998
O O1 0.785791 0.136090 0.870171
O O2 0.641999 0.275466 0.798825
O O3 0.669190 0.135396 0.609411
O O4 0.537872 0.123789 0.855148
O O5 0.487155 0.566573 0.772332
O O6 0.447425 0.737619 0.728968
O O7 0.500000 0.679817 0.000000
O O8 0.263401 0.398365 0.033171
O O9 0.500000 0.363314 0.000000
O O10 0.344158 0.231500 0.929614
O O11 0.149052 0.125109 0.579420
O O12 0.000000 0.995243 0.500000
O O13 0.161907 0.961324 0.707869
O O14 0.619906 0.904810 0.277405
O O15 0.677612 0.055063 0.129395
O O16 0.132556 0.682974 0.336759
O O17 0.282286 0.781598 0.521897
O O18 0.500000 0.846923 0.500000
#
# Coordination Sequence:
#
# PCOD8048405 Si02
#       8
#     4   4   4   4   4   4   4   4
#     4  10  20  40  70  95 133 180 226 279 343 415
#     4  11  22  38  75  97 131 192 232 271 350 410
#     4  10  22  45  65  93 142 185 220 285 344 405
#     4  11  21  42  65 101 134 178 238 285 334 408
#     4  11  25  42  70 105 141 172 238 292 340 407
#     4  10  18  37  72  98 127 183 230 273 349 406
#     4  10  24  41  74  97 140 186 227 279 356 413
#     4  11  21  42  67 100 143 175 230 299 333 408
#
# _framework density 22.210348
#
# number of rings (size 3 to 8) (size 9 to 14) (size 15 to 20)
#    0.000    1.500    6.250    0.375    3.500    2.500 
#    4.500    1.875    2.750    0.000    0.000    0.000 
#    0.000    0.000    0.000    0.000    0.000    0.000 
#
# Total GULP energy -198231.452643 kJ/mol
# GULP energy per Si atom -12389.465790 kJ/mol
# Density = 2.215980 g / cm^3
# Si number density = 22.210348 Si / 1000 Ang^3
#
#
#
# Elastic Constant Matrix: (Units=GPa)
#
#
# Indices 1 2 3 4 5 6 
#
# 1 128.3444 41.5314 61.9179 0.0000 -11.4514 0.0000
# 2 41.5314 92.3359 42.6436 0.0000 -6.3095 0.0000
# 3 61.9179 42.6436 109.5152 0.0000 -9.7872 0.0000
# 4 0.0000 0.0000 0.0000 28.6140 0.0000 -0.2624
# 5 -11.4514 -6.3095 -9.7872 0.0000 43.8613 0.0000
# 6 0.0000 0.0000 0.0000 -0.2624 0.0000 30.6039
#
#
#
# Elastic Compliance Matrix: (Units=1/GPa)
#
#
# Indices 1 2 3 4 5 6 
#
# 1 0.011279 -0.002548 -0.005259 0.000000 0.001405 0.000000
# 2 -0.002548 0.013806 -0.003895 0.000000 0.000452 0.000000
# 3 -0.005259 -0.003895 0.013722 0.000000 0.001129 0.000000
# 4 0.000000 0.000000 0.000000 0.034951 0.000000 0.000300
# 5 0.001405 0.000452 0.001129 0.000000 0.023483 0.000000
# 6 0.000000 0.000000 0.000000 0.000300 0.000000 0.032678
#
#
# Mechanical properties :
#
#
# Convention : Reuss Voigt Hill
#
# Bulk Modulus (GPa) = 64.92455 69.15347 67.03901
# Shear Modulus (GPa) = 31.55463 32.88933 32.22198
#
# Velocity S-wave (km/s) = 3.77333 3.85231 3.81302
# Velocity P-wave (km/s) = 6.94832 7.14075 7.04519
#
# Compressibility (1/GPa) = 0.01540249
#
# Stress axis : x y z
#
# Youngs Moduli (GPa) = 88.66400 72.43381 72.87653
#
# Poissons Ratio (x) = 0.18458 0.38325
# Poissons Ratio (y) = 0.22594 0.28383
# Poissons Ratio (z) = 0.46628 0.28211
#
# Static dielectric constant tensor:
#      x y z
#    x 4.161520 0.000000 -0.128350 
#    y 0.000000 3.646810 0.000000 
#    z -0.128350 0.000000 4.277940 
# 
# 
# High freq. dielectric constant tensor:
#      x y z
#    x 1.881030 0.000000 -0.020220 
#    y 0.000000 1.843030 0.000000 
#    z -0.020220 0.000000 1.883380 
# 
# From -- ./inp_files/20634.got.cif
#   From: 2010.03.12/outbox.cif.g09.slc.cpg/sg5_11_cif.got.tgz:20634.got - 2010.03.31 09:47:26.
