data_PCOD8048580
_publ_section_title
;
Structure prediction by ZEFSAII (Michael W. Deem and Ramdas Pophale) SiO2 
 PCOD8048580
Probable space group: C 2
;
_chemical_formula_sum "Si O2"
_cell_formula_units_Z 32
_cell_length_a 24.593534
_cell_length_b 12.929922
_cell_length_c 16.528321
_cell_angle_alpha 90.000000
_cell_angle_beta 161.133740
_cell_angle_gamma 90.000000
_cell_volume 1699.543160
_symmetry_space_group_name_H-M "C 2"
_symmetry_group_IT_number 5
_symmetry_cell_setting 'monoclinic'
loop_
_space_group_symop_operation_xyz
x,y,z
-x,y,-z
1/2+x,1/2+y,z
1/2-x,1/2+y,-z
loop_
_atom_site_type_symbol
_atom_site_label
_atom_site_fract_x
_atom_site_fract_y
_atom_site_fract_z
Si Si1 0.194991 0.528100 0.774264
Si Si2 0.190514 0.276060 0.515001
Si Si3 0.848567 0.200634 0.088936
Si Si4 0.527934 0.530621 0.447434
Si Si5 0.305410 0.050429 0.719157
Si Si6 0.380110 0.359423 0.144861
Si Si7 0.363275 0.372894 0.618607
Si Si8 0.872522 0.943221 0.881827
O O1 0.257523 0.523726 0.769031
O O2 0.000000 0.505733 0.500000
O O3 0.233614 0.642917 0.861046
O O4 0.281612 0.438781 0.948572
O O5 0.285987 0.169096 0.666173
O O6 0.219980 0.305908 0.461822
O O7 0.256815 0.362169 0.670621
O O8 0.989118 0.269580 0.242253
O O9 0.940567 0.116584 0.271292
O O10 0.735115 0.266072 0.989939
O O11 0.500000 0.562325 0.500000
O O12 0.721871 0.529226 0.690030
O O13 0.441455 0.419642 0.311330
O O14 0.213180 0.981576 0.520538
O O15 0.500000 0.019910 0.000000
O O16 0.545062 0.316830 0.328691
O O17 0.509610 0.382882 0.890324
O O18 0.000000 0.002795 0.000000
#
# Coordination Sequence:
#
# PCOD8048580 Si02
#       8
#     4   4   4   4   4   4   4   4
#     4  10  20  36  54  77 108 140 172 215 262 310
#     4  10  19  34  57  83 104 134 176 217 262 311
#     4  10  21  35  53  80 107 136 176 218 259 310
#     4   9  20  35  53  76 104 135 174 217 261 307
#     4  10  20  35  54  79 107 138 175 215 259 312
#     4   9  19  36  54  74 104 138 173 213 260 312
#     4   9  19  35  54  78 108 137 171 220 263 304
#     4   9  17  32  56  81 104 132 171 217 263 306
#
# _framework density 18.828589000000001
#
# number of rings (size 3 to 8) (size 9 to 14) (size 15 to 20)
#    0.000    2.500    0.000    4.125    0.000    7.000 
#    0.000    7.500    0.000    2.250    0.000    0.000 
#    0.000    0.000    0.000    0.000    0.000    0.000 
#
# Total GULP energy -198285.676970 kJ/mol
# GULP energy per Si atom -12392.854811 kJ/mol
# Density = 1.878573 g / cm^3
# Si number density = 18.828589 Si / 1000 Ang^3
#
#
#
# Elastic Constant Matrix: (Units=GPa)
#
#
# Indices 1 2 3 4 5 6 
#
# 1 144.4554 44.0141 41.6525 0.0000 29.4948 0.0000
# 2 44.0141 45.0502 25.1595 0.0000 6.7948 0.0000
# 3 41.6525 25.1595 54.4368 0.0000 17.6606 0.0000
# 4 0.0000 0.0000 0.0000 14.2715 0.0000 0.8678
# 5 29.4948 6.7948 17.6606 0.0000 24.6698 0.0000
# 6 0.0000 0.0000 0.0000 0.8678 0.0000 20.1898
#
#
#
# Elastic Compliance Matrix: (Units=1/GPa)
#
#
# Indices 1 2 3 4 5 6 
#
# 1 0.012667 -0.009852 -0.001441 0.000000 -0.011400 0.000000
# 2 -0.009852 0.037672 -0.013452 0.000000 0.011033 0.000000
# 3 -0.001441 -0.013452 0.031167 0.000000 -0.016885 0.000000
# 4 0.000000 0.000000 0.000000 0.070253 0.000000 -0.003020
# 5 -0.011400 0.011033 -0.016885 0.000000 0.063214 0.000000
# 6 0.000000 0.000000 0.000000 -0.003020 0.000000 0.049660
#
#
# Mechanical properties :
#
#
# Convention : Reuss Voigt Hill
#
# Bulk Modulus (GPa) = 31.23372 51.73272 41.48322
# Shear Modulus (GPa) = 15.39433 20.70064 18.04749
#
# Velocity S-wave (km/s) = 2.86248 3.31936 3.09935
# Velocity P-wave (km/s) = 5.24876 6.49816 5.90659
#
# Compressibility (1/GPa) = 0.03201668
#
# Stress axis : x y z
#
# Youngs Moduli (GPa) = 78.94252 26.54521 32.08493
#
# Poissons Ratio (x) = 0.26153 0.04622
# Poissons Ratio (y) = 0.77775 0.43161
# Poissons Ratio (z) = 0.11373 0.35709
#
# Static dielectric constant tensor:
#      x y z
#    x 3.955590 0.000000 0.246390 
#    y 0.000000 3.281960 0.000000 
#    z 0.246390 0.000000 3.466020 
# 
# 
# High freq. dielectric constant tensor:
#      x y z
#    x 1.746520 0.000000 0.017510 
#    y 0.000000 1.708050 0.000000 
#    z 0.017510 0.000000 1.727240 
# 
# From -- ./inp_files/63396.got.cif
#   From: 2010.03.12/outbox.cif.g09.slc.cpg/sg5_32_cif.got.tgz:63396.got - 2010.03.31 09:47:26.
