data_PCOD8048578
_publ_section_title
;
Structure prediction by ZEFSAII (Michael W. Deem and Ramdas Pophale) SiO2 
 PCOD8048578
Probable space group: C 2
;
_chemical_formula_sum "Si O2"
_cell_formula_units_Z 28
_cell_length_a 9.449619
_cell_length_b 32.090955
_cell_length_c 5.102498
_cell_angle_alpha 90.000000
_cell_angle_beta 110.813437
_cell_angle_gamma 90.000000
_cell_volume 1446.344380
_symmetry_space_group_name_H-M "C 2"
_symmetry_group_IT_number 5
_symmetry_cell_setting 'monoclinic'
loop_
_space_group_symop_operation_xyz
x,y,z
-x,y,-z
1/2+x,1/2+y,z
1/2-x,1/2+y,-z
loop_
_atom_site_type_symbol
_atom_site_label
_atom_site_fract_x
_atom_site_fract_y
_atom_site_fract_z
Si Si1 0.680693 0.463350 0.591574
Si Si2 0.900936 0.631078 0.679401
Si Si3 0.399882 0.036259 0.677109
Si Si4 0.671934 0.418289 0.081435
Si Si5 0.676881 0.755710 0.125410
Si Si6 0.099040 0.829491 0.826806
Si Si7 0.675790 0.703202 0.622553
O O1 0.500000 0.466634 0.500000
O O2 0.747894 0.509001 0.586439
O O3 0.740986 0.430474 0.409640
O O4 0.750609 0.445704 0.907544
O O5 0.845142 0.583800 0.600231
O O6 0.755190 0.659637 0.618877
O O7 0.000000 0.646709 0.500000
O O8 0.000000 0.635240 0.000000
O O9 0.500000 0.021225 0.500000
O O10 0.500000 0.031077 0.000000
O O11 0.500000 0.432579 0.000000
O O12 0.680474 0.370056 0.003217
O O13 0.769965 0.797882 0.161651
O O14 0.721982 0.736497 0.433146
O O15 0.500000 0.767208 0.000000
O O16 0.722371 0.722603 0.931988
O O17 0.000000 0.840448 0.500000
O O18 0.000000 0.810232 0.000000
O O19 0.500000 0.692791 0.500000
#
# Coordination Sequence:
#
# PCOD8048578 Si02
#       7
#     4   4   4   4   4   4   4
#     4  10  19  34  57  78 102 140 180 216 259 315
#     4  10  21  36  56  80 109 141 176 221 268 313
#     4  10  21  37  54  79 113 142 171 219 273 316
#     4   9  18  33  53  79 106 133 174 225 265 300
#     4  10  22  38  54  78 113 144 173 220 274 316
#     4  11  21  35  57  82 106 140 183 224 263 314
#     4  10  21  37  56  78 108 144 179 219 266 316
#
# _framework density 19.359148999999999
#
# number of rings (size 3 to 8) (size 9 to 14) (size 15 to 20)
#    0.000    2.000    0.000    4.714    0.000    4.000 
#    0.000    2.143    0.000   10.286    0.000    0.000 
#    0.000    0.000    0.000    0.000    0.000    0.000 
#
# Total GULP energy -173557.665109 kJ/mol
# GULP energy per Si atom -12396.976079 kJ/mol
# Density = 1.931509 g / cm^3
# Si number density = 19.359149 Si / 1000 Ang^3
#
#
#
# Elastic Constant Matrix: (Units=GPa)
#
#
# Indices 1 2 3 4 5 6 
#
# 1 88.2425 76.4001 45.1950 0.0000 -24.1771 0.0000
# 2 76.4001 124.7244 33.3360 0.0000 -6.7213 0.0000
# 3 45.1950 33.3360 89.1855 0.0000 -29.7015 0.0000
# 4 0.0000 0.0000 0.0000 26.3504 0.0000 -5.0662
# 5 -24.1771 -6.7213 -29.7015 0.0000 29.8937 0.0000
# 6 0.0000 0.0000 0.0000 -5.0662 0.0000 43.2804
#
#
#
# Elastic Compliance Matrix: (Units=1/GPa)
#
#
# Indices 1 2 3 4 5 6 
#
# 1 0.036780 -0.020324 -0.003971 0.000000 0.021231 0.000000
# 2 -0.020324 0.020215 -0.001819 0.000000 -0.013700 0.000000
# 3 -0.003971 -0.001819 0.018979 0.000000 0.015237 0.000000
# 4 0.000000 0.000000 0.000000 0.038824 0.000000 0.004545
# 5 0.021231 -0.013700 0.015237 0.000000 0.062681 0.000000
# 6 0.000000 0.000000 0.000000 0.004545 0.000000 0.023637
#
#
# Mechanical properties :
#
#
# Convention : Reuss Voigt Hill
#
# Bulk Modulus (GPa) = 42.11277 68.00163 55.05720
# Shear Modulus (GPa) = 19.13808 29.71966 24.42887
#
# Velocity S-wave (km/s) = 3.14758 3.92238 3.55614
# Velocity P-wave (km/s) = 5.91695 7.46432 6.73522
#
# Compressibility (1/GPa) = 0.02374577
#
# Stress axis : x y z
#
# Youngs Moduli (GPa) = 27.18902 49.46790 52.68971
#
# Poissons Ratio (x) = 1.00538 0.20922
# Poissons Ratio (y) = 0.55259 0.09586
# Poissons Ratio (z) = 0.10796 0.09000
#
# Static dielectric constant tensor:
#      x y z
#    x 3.440450 0.000000 -0.415040 
#    y 0.000000 3.448420 0.000000 
#    z -0.415040 0.000000 3.917190 
# 
# 
# High freq. dielectric constant tensor:
#      x y z
#    x 1.741360 0.000000 -0.030660 
#    y 0.000000 1.752780 0.000000 
#    z -0.030660 0.000000 1.766630 
# 
# From -- ./inp_files/3769.got.cif
#   From: 2010.03.12/outbox.cif.g09.slc.cpg/sg5_2_cif.got.tgz:3769.got - 2010.03.31 09:47:26.
