data_PCOD8048893
_publ_section_title
;
Structure prediction by ZEFSAII (Michael W. Deem and Ramdas Pophale) SiO2 
 PCOD8048893
Probable space group: C 2
;
_chemical_formula_sum "Si O2"
_cell_formula_units_Z 18
_cell_length_a 9.078375
_cell_length_b 16.842471
_cell_length_c 7.808208
_cell_angle_alpha 90.000000
_cell_angle_beta 131.886763
_cell_angle_gamma 90.000000
_cell_volume 888.812309
_symmetry_space_group_name_H-M "C 2"
_symmetry_group_IT_number 5
_symmetry_cell_setting 'monoclinic'
loop_
_space_group_symop_operation_xyz
x,y,z
-x,y,-z
1/2+x,1/2+y,z
1/2-x,1/2+y,-z
loop_
_atom_site_type_symbol
_atom_site_label
_atom_site_fract_x
_atom_site_fract_y
_atom_site_fract_z
Si Si1 0.060105 0.814750 0.868115
Si Si2 0.661017 0.443570 0.479107
Si Si3 0.802773 0.067560 0.755263
Si Si4 0.000000 0.701978 0.500000
Si Si5 0.416495 0.918296 0.256338
O O1 0.050077 0.754417 0.704004
O O2 0.893603 0.882573 0.716043
O O3 0.274460 0.857056 0.047970
O O4 0.000000 0.771591 0.000000
O O5 0.500000 0.429248 0.500000
O O6 0.640482 0.530735 0.384266
O O7 0.888870 0.430034 0.715137
O O8 0.687935 0.146884 0.617242
O O9 0.681590 0.004760 0.779677
O O10 0.000000 0.095864 0.000000
O O11 0.500000 0.883058 0.500000
#
# Coordination Sequence:
#
# PCOD8048893 Si02
#       5
#     4   4   4   2   4
#     4  12  23  45  70 105 141 181 233 294 344 415
#     4  11  21  40  73 104 132 183 246 275 332 432
#     4  11  21  46  69  96 141 188 224 288 349 408
#     4  12  28  44  68 108 150 172 230 302 360 388
#     4  10  19  40  78  94 129 189 235 274 338 417
#
# _framework density 20.251745
#
# number of rings (size 3 to 8) (size 9 to 14) (size 15 to 20)
#    0.000    0.889   11.111    0.000    0.000    2.667 
#    4.000    0.000    0.000    0.000    0.000    0.000 
#    0.000    0.000    0.000    0.000    0.000    0.000 
#
# Total GULP energy -111531.531513 kJ/mol
# GULP energy per Si atom -12392.392390 kJ/mol
# Density = 2.020565 g / cm^3
# Si number density = 20.251745 Si / 1000 Ang^3
#
#
#
# Elastic Constant Matrix: (Units=GPa)
#
#
# Indices 1 2 3 4 5 6 
#
# 1 105.0342 28.5611 37.4595 0.0000 2.9796 0.0000
# 2 28.5611 112.8836 65.3594 0.0000 -6.0393 0.0000
# 3 37.4595 65.3594 131.2317 0.0000 14.3535 0.0000
# 4 0.0000 0.0000 0.0000 55.4363 0.0000 -3.4187
# 5 2.9796 -6.0393 14.3535 0.0000 41.6160 0.0000
# 6 0.0000 0.0000 0.0000 -3.4187 0.0000 34.7695
#
#
#
# Elastic Compliance Matrix: (Units=1/GPa)
#
#
# Indices 1 2 3 4 5 6 
#
# 1 0.010740 -0.001348 -0.002379 0.000000 -0.000144 0.000000
# 2 -0.001348 0.013329 -0.006730 0.000000 0.004352 0.000000
# 3 -0.002379 -0.006730 0.012199 0.000000 -0.005014 0.000000
# 4 0.000000 0.000000 0.000000 0.018149 0.000000 0.001784
# 5 -0.000144 0.004352 -0.005014 0.000000 0.026400 0.000000
# 6 0.000000 0.000000 0.000000 0.001784 0.000000 0.028936
#
#
# Mechanical properties :
#
#
# Convention : Reuss Voigt Hill
#
# Bulk Modulus (GPa) = 65.12270 67.98993 66.55632
# Shear Modulus (GPa) = 36.82324 40.88234 38.85279
#
# Velocity S-wave (km/s) = 4.26875 4.49788 4.38481
# Velocity P-wave (km/s) = 7.51816 7.78587 7.65318
#
# Compressibility (1/GPa) = 0.01535563
#
# Stress axis : x y z
#
# Youngs Moduli (GPa) = 93.11355 75.02426 81.97291
#
# Poissons Ratio (x) = 0.10112 0.19497
# Poissons Ratio (y) = 0.12550 0.55166
# Poissons Ratio (z) = 0.22147 0.50489
#
# Static dielectric constant tensor:
#      x y z
#    x 3.574460 0.000000 0.421570 
#    y 0.000000 3.532100 0.000000 
#    z 0.421570 0.000000 3.836110 
# 
# 
# High freq. dielectric constant tensor:
#      x y z
#    x 1.791200 0.000000 0.019700 
#    y 0.000000 1.763970 0.000000 
#    z 0.019700 0.000000 1.808480 
# 
# From -- ./inp_files/15576.got.cif
#   From: 2010.03.12/outbox.cif.g09.slc.cpg/sg5_8_cif.got.tgz:15576.got - 2010.03.31 09:47:26.
