data_PCOD8049353
_publ_section_title
;
Structure prediction by ZEFSAII (Michael W. Deem and Ramdas Pophale) SiO2 
 PCOD8049353
Probable space group: C 2
;
_chemical_formula_sum "Si O2"
_cell_formula_units_Z 30
_cell_length_a 25.476855
_cell_length_b 8.210907
_cell_length_c 15.965624
_cell_angle_alpha 90.000000
_cell_angle_beta 25.195224
_cell_angle_gamma 90.000000
_cell_volume 1421.773582
_symmetry_space_group_name_H-M "C 2"
_symmetry_group_IT_number 5
_symmetry_cell_setting 'monoclinic'
loop_
_space_group_symop_operation_xyz
x,y,z
-x,y,-z
1/2+x,1/2+y,z
1/2-x,1/2+y,-z
loop_
_atom_site_type_symbol
_atom_site_label
_atom_site_fract_x
_atom_site_fract_y
_atom_site_fract_z
Si Si1 0.110736 0.883920 0.085360
Si Si2 0.320735 0.037131 0.313476
Si Si3 0.877811 0.245068 0.727213
Si Si4 0.646159 0.751210 0.052701
Si Si5 0.599235 0.366757 0.289703
Si Si6 0.425376 0.898513 0.007385
Si Si7 0.000000 0.109087 0.000000
Si Si8 0.607760 0.369649 0.714131
O O1 0.056018 0.842429 0.256254
O O2 0.020096 0.808181 0.145411
O O3 0.252614 0.824685 0.870327
O O4 0.098476 0.077733 0.090137
O O5 0.343195 0.027591 0.179891
O O6 0.192162 0.951807 0.521166
O O7 0.320915 0.222130 0.344509
O O8 0.431037 0.942632 0.199830
O O9 0.000000 0.296125 0.500000
O O10 0.856609 0.051282 0.757922
O O11 0.906338 0.304361 0.780802
O O12 0.792413 0.739307 0.851013
O O13 0.614809 0.891995 0.030984
O O14 0.500000 0.312000 0.500000
O O15 0.409809 0.721493 0.073734
O O16 0.913768 0.998853 0.181966
#
# Coordination Sequence:
#
# PCOD8049353 Si02
#       8
#     4   4   4   4   4   4   2   4
#     4  10  22  38  64  90 125 161 204 255 313 375
#     4  10  24  40  62  86 129 158 221 258 316 368
#     4   9  20  42  60  93 126 161 203 256 306 379
#     4  10  20  38  64  87 128 160 201 255 313 372
#     4   9  20  38  62  92 121 158 202 251 308 383
#     4  10  21  42  62  91 116 172 204 264 316 375
#     4  10  20  40  62  82 130 148 216 262 312 358
#     4  12  23  43  61  93 123 171 209 272 312 375
#
# _framework density 21.100408000000002
#
# number of rings (size 3 to 8) (size 9 to 14) (size 15 to 20)
#    0.000    2.133    1.333    2.400    3.733    0.533 
#    2.400    0.000    0.000    0.000    0.000    0.000 
#    0.000    0.000    0.000    0.000    0.000    0.000 
#
# Total GULP energy -185950.422002 kJ/mol
# GULP energy per Si atom -12396.694800 kJ/mol
# Density = 2.105238 g / cm^3
# Si number density = 21.100408 Si / 1000 Ang^3
#
#
#
# Elastic Constant Matrix: (Units=GPa)
#
#
# Indices 1 2 3 4 5 6 
#
# 1 84.1657 17.7518 38.2183 0.0000 11.7031 0.0000
# 2 17.7518 50.4492 20.9843 -0.0007 2.1009 0.0002
# 3 38.2183 20.9843 137.7252 -0.0005 16.4634 0.0002
# 4 0.0000 -0.0007 -0.0005 30.6838 0.0002 -1.2730
# 5 11.7031 2.1009 16.4634 0.0002 25.7682 -0.0001
# 6 0.0000 0.0002 0.0002 -1.2730 -0.0001 26.2113
#
#
#
# Elastic Compliance Matrix: (Units=1/GPa)
#
#
# Indices 1 2 3 4 5 6 
#
# 1 0.014631 -0.003732 -0.002960 0.000000 -0.004450 0.000000
# 2 -0.003732 0.022118 -0.002513 0.000000 0.001497 0.000000
# 3 -0.002960 -0.002513 0.008965 0.000000 -0.004178 0.000000
# 4 0.000000 0.000000 0.000000 0.032656 0.000000 0.001586
# 5 -0.004450 0.001497 -0.004178 0.000000 0.043376 0.000000
# 6 0.000000 0.000000 0.000000 0.001586 0.000000 0.038228
#
#
# Mechanical properties :
#
#
# Convention : Reuss Voigt Hill
#
# Bulk Modulus (GPa) = 36.62473 47.36100 41.99286
# Shear Modulus (GPa) = 26.66870 29.55837 28.11354
#
# Velocity S-wave (km/s) = 3.55899 3.74685 3.65412
# Velocity P-wave (km/s) = 5.85522 6.41971 6.14395
#
# Compressibility (1/GPa) = 0.02730396
#
# Stress axis : x y z
#
# Youngs Moduli (GPa) = 68.34768 45.21169 111.55078
#
# Poissons Ratio (x) = 0.16873 0.33014
# Poissons Ratio (y) = 0.25507 0.28037
# Poissons Ratio (z) = 0.20228 0.11363
#
# Static dielectric constant tensor:
#      x y z
#    x 3.792710 0.000000 0.233560 
#    y 0.000000 3.755580 0.000000 
#    z 0.233560 0.000000 3.841600 
# 
# 
# High freq. dielectric constant tensor:
#      x y z
#    x 1.823340 0.000000 0.014630 
#    y 0.000000 1.820260 0.000000 
#    z 0.014630 0.000000 1.822940 
# 
# From -- ./inp_files/57595.got.cif
#   From: 2010.03.12/outbox.cif.g09.slc.cpg/sg5_29_cif.got.tgz:57595.got - 2010.03.31 09:47:26.
