data_PCOD8049216
_publ_section_title
;
Structure prediction by ZEFSAII (Michael W. Deem and Ramdas Pophale) SiO2 
 PCOD8049216
Probable space group: C 2
;
_chemical_formula_sum "Si O2"
_cell_formula_units_Z 28
_cell_length_a 17.975849
_cell_length_b 7.856117
_cell_length_c 12.623177
_cell_angle_alpha 90.000000
_cell_angle_beta 43.710843
_cell_angle_gamma 90.000000
_cell_volume 1231.845244
_symmetry_space_group_name_H-M "C 2"
_symmetry_group_IT_number 5
_symmetry_cell_setting 'monoclinic'
loop_
_space_group_symop_operation_xyz
x,y,z
-x,y,-z
1/2+x,1/2+y,z
1/2-x,1/2+y,-z
loop_
_atom_site_type_symbol
_atom_site_label
_atom_site_fract_x
_atom_site_fract_y
_atom_site_fract_z
Si Si1 0.616855 0.701790 0.402551
Si Si2 0.665119 0.049644 0.853944
Si Si3 0.774138 0.492659 0.837130
Si Si4 0.884161 0.173577 0.151148
Si Si5 0.834007 0.316163 0.420812
Si Si6 0.108643 0.695007 0.700637
Si Si7 0.126375 0.739145 0.103196
O O1 0.500000 0.622659 0.500000
O O2 0.706113 0.554552 0.298729
O O3 0.641383 0.855660 0.295043
O O4 0.609792 0.762852 0.529641
O O5 0.622805 0.860621 0.890104
O O6 0.607557 0.180317 0.830484
O O7 0.638649 0.100810 0.999272
O O8 0.706388 0.552859 0.805343
O O9 0.834703 0.653064 0.827283
O O10 0.695667 0.407797 0.006445
O O11 0.869722 0.183457 0.292439
O O12 0.000000 0.096228 0.000000
O O13 0.873592 0.504145 0.356662
O O14 0.704538 0.316781 0.563325
O O15 0.001209 0.779568 0.762095
#
# Coordination Sequence:
#
# PCOD8049216 Si02
#       7
#     4   4   4   4   4   4   4
#     4  10  21  39  62  90 127 167 205 254 310 368
#     4   9  20  37  60  87 119 162 214 250 302 377
#     4  11  25  39  61  94 125 165 218 252 303 380
#     4  11  23  40  61  89 124 162 208 262 311 365
#     4  10  21  38  61  90 123 161 212 257 306 372
#     4  10  20  37  61  87 122 165 206 257 310 361
#     4  11  22  40  61  87 126 166 203 260 311 357
#
# _framework density 22.730125999999998
#
# number of rings (size 3 to 8) (size 9 to 14) (size 15 to 20)
#    0.000    1.714    0.000    4.714    0.000    6.857 
#    0.000   10.714    0.000    0.000    0.000    0.000 
#    0.000    0.000    0.000    0.000    0.000    0.000 
#
# Total GULP energy -173615.327014 kJ/mol
# GULP energy per Si atom -12401.094787 kJ/mol
# Density = 2.267839 g / cm^3
# Si number density = 22.730126 Si / 1000 Ang^3
#
#
#
# Elastic Constant Matrix: (Units=GPa)
#
#
# Indices 1 2 3 4 5 6 
#
# 1 109.8210 7.3932 40.3681 0.0003 -17.7830 -0.0002
# 2 7.3932 28.4845 4.5640 0.0007 -1.8516 -0.0006
# 3 40.3681 4.5640 74.9759 0.0005 -13.7334 -0.0003
# 4 0.0003 0.0007 0.0005 21.7694 -0.0001 1.1986
# 5 -17.7830 -1.8516 -13.7334 -0.0001 51.0551 0.0000
# 6 -0.0002 -0.0006 -0.0003 1.1986 0.0000 32.3162
#
#
#
# Elastic Compliance Matrix: (Units=1/GPa)
#
#
# Indices 1 2 3 4 5 6 
#
# 1 0.011755 -0.001968 -0.005756 0.000000 0.002475 0.000000
# 2 -0.001968 0.035809 -0.001060 -0.000001 0.000328 0.000001
# 3 -0.005756 -0.001060 0.016963 0.000000 0.002520 0.000000
# 4 0.000000 -0.000001 0.000000 0.046030 0.000000 -0.001707
# 5 0.002475 0.000328 0.002520 0.000000 0.021138 0.000000
# 6 0.000000 0.000001 0.000000 -0.001707 0.000000 0.031008
#
#
# Mechanical properties :
#
#
# Convention : Reuss Voigt Hill
#
# Bulk Modulus (GPa) = 21.29541 35.32579 28.31060
# Shear Modulus (GPa) = 25.52031 31.75856 28.63943
#
# Velocity S-wave (km/s) = 3.35439 3.74197 3.55347
# Velocity P-wave (km/s) = 4.93879 5.85192 5.41464
#
# Compressibility (1/GPa) = 0.04695847
#
# Stress axis : x y z
#
# Youngs Moduli (GPa) = 85.07286 27.92610 58.95300
#
# Poissons Ratio (x) = 0.05495 0.33932
# Poissons Ratio (y) = 0.16741 0.06250
# Poissons Ratio (z) = 0.48966 0.02961
#
# Static dielectric constant tensor:
#      x y z
#    x 4.278520 0.000000 0.000330 
#    y 0.000000 3.796510 0.000000 
#    z 0.000330 0.000000 4.221510 
# 
# 
# High freq. dielectric constant tensor:
#      x y z
#    x 1.902550 0.000000 0.000420 
#    y 0.000000 1.880090 0.000000 
#    z 0.000420 0.000000 1.902370 
# 
# From -- ./inp_files/55729.got.cif
#   From: 2010.03.12/outbox.cif.g09.slc.cpg/sg5_28_cif.got.tgz:55729.got - 2010.03.31 09:47:26.
