data_PCOD8049264
_publ_section_title
;
Structure prediction by ZEFSAII (Michael W. Deem and Ramdas Pophale) SiO2 
 PCOD8049264
Probable space group: C 2
;
_chemical_formula_sum "Si O2"
_cell_formula_units_Z 22
_cell_length_a 5.682347
_cell_length_b 18.896056
_cell_length_c 8.995100
_cell_angle_alpha 90.000000
_cell_angle_beta 90.000113
_cell_angle_gamma 90.000000
_cell_volume 965.839392
_symmetry_space_group_name_H-M "C 2"
_symmetry_group_IT_number 5
_symmetry_cell_setting 'monoclinic'
loop_
_space_group_symop_operation_xyz
x,y,z
-x,y,-z
1/2+x,1/2+y,z
1/2-x,1/2+y,-z
loop_
_atom_site_type_symbol
_atom_site_label
_atom_site_fract_x
_atom_site_fract_y
_atom_site_fract_z
Si Si1 0.500000 0.425951 0.000000
Si Si2 0.869693 0.520000 0.849351
Si Si3 0.685116 0.777904 0.258778
Si Si4 0.314884 0.899684 0.258779
Si Si5 0.630307 0.657588 0.849351
Si Si6 0.500000 0.338794 0.500000
Si Si7 0.500000 0.251638 0.000000
O O1 0.349579 0.470430 0.116256
O O2 0.675432 0.381204 0.105762
O O3 0.750000 0.588794 0.770363
O O4 0.058563 0.477178 0.747717
O O5 0.000000 0.545289 0.000000
O O6 0.499999 0.838794 0.277506
O O7 0.558565 0.700410 0.252282
O O8 0.851364 0.783262 0.401869
O O9 0.824568 0.796385 0.105761
O O10 0.148639 0.894327 0.401870
O O11 0.500000 0.632299 0.000000
O O12 0.849577 0.707159 0.883745
#
# Coordination Sequence:
#
# PCOD8049264 Si02
#       7
#     2   4   4   4   4   2   2
#     4  10  22  39  66 106 135 162 214 286 335 410
#     4  10  20  37  65 106 140 173 211 276 354 410
#     4  11  25  41  67 103 136 179 232 278 345 397
#     4  11  25  41  67 103 136 179 232 278 345 397
#     4  10  20  37  65 106 140 173 211 276 354 410
#     4  12  26  46  60  98 140 190 230 294 328 404
#     4  10  22  39  66 106 135 162 214 286 335 410
#
# _framework density 22.778113999999999
#
# number of rings (size 3 to 8) (size 9 to 14) (size 15 to 20)
#    0.000    1.455    1.818    2.727    0.000   17.455 
#    0.000    0.000    0.000    0.000  132.364    0.000 
#    0.000    0.000    0.000    0.000    0.000    0.000 
#
# Total GULP energy -136335.258249 kJ/mol
# GULP energy per Si atom -12394.114386 kJ/mol
# Density = 2.272627 g / cm^3
# Si number density = 22.778114 Si / 1000 Ang^3
#
#
#
# Elastic Constant Matrix: (Units=GPa)
#
#
# Indices 1 2 3 4 5 6 
#
# 1 137.0829 63.8466 63.5845 0.0000 1.7220 0.0000
# 2 63.8466 142.8162 60.6699 0.0000 -0.2726 0.0000
# 3 63.5845 60.6699 118.9030 0.0000 -3.2825 0.0000
# 4 0.0000 0.0000 0.0000 7.9274 0.0000 -2.3667
# 5 1.7220 -0.2726 -3.2825 0.0000 46.3678 0.0000
# 6 0.0000 0.0000 0.0000 -2.3667 0.0000 35.5336
#
#
#
# Elastic Compliance Matrix: (Units=1/GPa)
#
#
# Indices 1 2 3 4 5 6 
#
# 1 0.010632 -0.002976 -0.004187 0.000000 -0.000709 0.000000
# 2 -0.002976 0.009776 -0.003399 0.000000 -0.000073 0.000000
# 3 -0.004187 -0.003399 0.012411 0.000000 0.001014 0.000000
# 4 0.000000 0.000000 0.000000 0.128704 0.000000 0.008572
# 5 -0.000709 -0.000073 0.001014 0.000000 0.021664 0.000000
# 6 0.000000 0.000000 0.000000 0.008572 0.000000 0.028713
#
#
# Mechanical properties :
#
#
# Convention : Reuss Voigt Hill
#
# Bulk Modulus (GPa) = 85.49525 86.11157 85.80341
# Shear Modulus (GPa) = 21.10398 32.01250 26.55824
#
# Velocity S-wave (km/s) = 3.04715 3.75294 3.41831
# Velocity P-wave (km/s) = 7.07076 7.52768 7.30280
#
# Compressibility (1/GPa) = 0.01169656
#
# Stress axis : x y z
#
# Youngs Moduli (GPa) = 94.05912 102.29038 80.57178
#
# Poissons Ratio (x) = 0.30439 0.33732
# Poissons Ratio (y) = 0.27990 0.27386
# Poissons Ratio (z) = 0.39378 0.34768
#
# Static dielectric constant tensor:
#      x y z
#    x 4.896830 0.000000 -0.091270 
#    y 0.000000 4.048650 0.000000 
#    z -0.091270 0.000000 3.832310 
# 
# 
# High freq. dielectric constant tensor:
#      x y z
#    x 1.936700 0.000000 -0.007300 
#    y 0.000000 1.892680 0.000000 
#    z -0.007300 0.000000 1.851570 
# 
# From -- ./inp_files/12518.got.cif
#   From: 2010.03.12/outbox.cif.g09.slc.cpg/sg5_7_cif.got.tgz:12518.got - 2010.03.31 09:47:26.
