data_PCOD8049304
_publ_section_title
;
Structure prediction by ZEFSAII (Michael W. Deem and Ramdas Pophale) SiO2 
 PCOD8049304
Probable space group: C 2
;
_chemical_formula_sum "Si O2"
_cell_formula_units_Z 24
_cell_length_a 24.193106
_cell_length_b 9.030125
_cell_length_c 16.907211
_cell_angle_alpha 90.000000
_cell_angle_beta 162.002355
_cell_angle_gamma 90.000000
_cell_volume 1141.260496
_symmetry_space_group_name_H-M "C 2"
_symmetry_group_IT_number 5
_symmetry_cell_setting 'monoclinic'
loop_
_space_group_symop_operation_xyz
x,y,z
-x,y,-z
1/2+x,1/2+y,z
1/2-x,1/2+y,-z
loop_
_atom_site_type_symbol
_atom_site_label
_atom_site_fract_x
_atom_site_fract_y
_atom_site_fract_z
Si Si1 0.202707 0.331150 0.773371
Si Si2 0.880669 0.509981 0.768200
Si Si3 0.687593 0.328710 0.253126
Si Si4 0.865240 0.029543 0.246197
Si Si5 0.488028 0.875400 0.210030
Si Si6 0.009090 0.036915 0.758546
O O1 0.257275 0.282090 0.759784
O O2 0.221959 0.187806 0.854188
O O3 0.000000 0.392300 0.500000
O O4 0.330003 0.456988 0.979342
O O5 0.855814 0.684531 0.752129
O O6 0.990549 0.472384 0.839331
O O7 0.677841 0.447567 0.482928
O O8 0.000000 0.435718 0.000000
O O9 0.850101 0.423431 0.511006
O O10 0.500000 0.421895 0.000000
O O11 0.970825 0.046185 0.308350
O O12 0.000000 0.980717 0.500000
O O13 0.705981 0.911915 0.017599
O O14 0.498100 0.699144 0.211557
#
# Coordination Sequence:
#
# PCOD8049304 Si02
#       6
#     4   4   4   4   4   4
#     4  11  22  40  63  87 119 162 198 236 294 363
#     4  10  20  38  60  84 115 156 198 239 289 355
#     4  10  20  38  60  85 116 157 198 236 288 357
#     4  11  21  39  64  89 118 162 200 235 290 362
#     4  11  22  38  62  91 119 151 199 253 293 339
#     4  11  23  39  59  92 123 152 197 251 296 340
#
# _framework density 21.029378999999999
#
# number of rings (size 3 to 8) (size 9 to 14) (size 15 to 20)
#    0.000    1.333    0.000   10.000    0.000    2.000 
#    0.000    9.167    0.000    0.000    0.000    0.000 
#    0.000    0.000    0.000    0.000    0.000    0.000 
#
# Total GULP energy -148746.466048 kJ/mol
# GULP energy per Si atom -12395.538837 kJ/mol
# Density = 2.098152 g / cm^3
# Si number density = 21.029379 Si / 1000 Ang^3
#
#
#
# Elastic Constant Matrix: (Units=GPa)
#
#
# Indices 1 2 3 4 5 6 
#
# 1 99.9667 17.3238 7.1760 0.0000 -0.2136 0.0000
# 2 17.3238 52.0925 44.4132 0.0000 -4.8005 0.0000
# 3 7.1760 44.4132 168.6351 0.0000 2.9681 0.0000
# 4 0.0000 0.0000 0.0000 28.5760 0.0000 5.9880
# 5 -0.2136 -4.8005 2.9681 0.0000 36.7841 0.0000
# 6 0.0000 0.0000 0.0000 5.9880 0.0000 20.0253
#
#
#
# Elastic Compliance Matrix: (Units=1/GPa)
#
#
# Indices 1 2 3 4 5 6 
#
# 1 0.010675 -0.004152 0.000649 0.000000 -0.000532 0.000000
# 2 -0.004152 0.026901 -0.006980 0.000000 0.004050 0.000000
# 3 0.000649 -0.006980 0.007768 0.000000 -0.001534 0.000000
# 4 0.000000 0.000000 0.000000 0.037334 0.000000 -0.011164
# 5 -0.000532 0.004050 -0.001534 0.000000 0.027835 0.000000
# 6 0.000000 0.000000 0.000000 -0.011164 0.000000 0.053275
#
#
# Mechanical properties :
#
#
# Convention : Reuss Voigt Hill
#
# Bulk Modulus (GPa) = 41.02080 50.94670 45.98375
# Shear Modulus (GPa) = 25.92291 33.86251 29.89271
#
# Velocity S-wave (km/s) = 3.51479 4.01714 3.77433
# Velocity P-wave (km/s) = 6.00170 6.76725 6.39594
#
# Compressibility (1/GPa) = 0.02437787
#
# Stress axis : x y z
#
# Youngs Moduli (GPa) = 93.67515 37.17290 128.74062
#
# Poissons Ratio (x) = 0.15435 -0.08351
# Poissons Ratio (y) = 0.38896 0.89855
# Poissons Ratio (z) = -0.06076 0.25945
#
# Static dielectric constant tensor:
#      x y z
#    x 3.891540 0.000000 0.157500 
#    y 0.000000 3.299120 0.000000 
#    z 0.157500 0.000000 4.668760 
# 
# 
# High freq. dielectric constant tensor:
#      x y z
#    x 1.833720 0.000000 0.007790 
#    y 0.000000 1.776460 0.000000 
#    z 0.007790 0.000000 1.859850 
# 
# From -- ./inp_files/22865.got.cif
#   From: 2010.03.12/outbox.cif.g09.slc.cpg/sg5_12_cif.got.tgz:22865.got - 2010.03.31 09:47:26.
