data_PCOD8049805
_publ_section_title
;
Structure prediction by ZEFSAII (Michael W. Deem and Ramdas Pophale) SiO2 
 PCOD8049805
Probable space group: C 2
;
_chemical_formula_sum "Si O2"
_cell_formula_units_Z 30
_cell_length_a 11.112930
_cell_length_b 16.488758
_cell_length_c 8.577608
_cell_angle_alpha 90.000000
_cell_angle_beta 110.222480
_cell_angle_gamma 90.000000
_cell_volume 1474.860806
_symmetry_space_group_name_H-M "C 2"
_symmetry_group_IT_number 5
_symmetry_cell_setting 'monoclinic'
loop_
_space_group_symop_operation_xyz
x,y,z
-x,y,-z
1/2+x,1/2+y,z
1/2-x,1/2+y,-z
loop_
_atom_site_type_symbol
_atom_site_label
_atom_site_fract_x
_atom_site_fract_y
_atom_site_fract_z
Si Si1 0.875053 0.977950 0.090300
Si Si2 0.204887 0.193390 0.673328
Si Si3 0.502548 0.897369 0.815125
Si Si4 0.093356 0.935800 0.412640
Si Si5 0.500000 0.620561 0.000000
Si Si6 0.774053 0.862689 0.804139
Si Si7 0.433390 0.721911 0.688345
Si Si8 0.211007 0.518652 0.288287
O O1 0.004835 0.979360 0.247722
O O2 0.750020 0.974942 0.143283
O O3 0.875549 0.901193 0.971689
O O4 0.883243 0.064504 0.008968
O O5 0.268551 0.265267 0.805385
O O6 0.188627 0.208960 0.480285
O O7 0.296181 0.115413 0.738685
O O8 0.062080 0.182725 0.674552
O O9 0.641158 0.905156 0.796298
O O10 0.436658 0.818403 0.712581
O O11 0.424418 0.978155 0.727023
O O12 0.500000 0.889095 0.000000
O O13 0.188625 0.877563 0.360182
O O14 0.000000 0.891540 0.500000
O O15 0.179228 0.003861 0.534139
O O16 0.419590 0.677238 0.846436
#
# Coordination Sequence:
#
# PCOD8049805 Si02
#       8
#     4   4   4   4   2   4   4   4
#     4  11  21  35  63  95 121 158 210 270 317 368
#     4  10  22  37  59  90 124 172 208 267 313 375
#     4  11  22  39  62  91 129 170 205 253 319 390
#     4  10  22  38  65  92 117 159 210 271 313 361
#     4  12  18  32  62  92 116 148 214 284 310 344
#     4  11  22  41  63  90 130 171 213 250 319 391
#     4  10  21  36  60  91 123 157 221 270 314 353
#     4  11  22  39  62  93 130 160 211 261 322 375
#
# _framework density 20.340902
#
# number of rings (size 3 to 8) (size 9 to 14) (size 15 to 20)
#    0.000    1.333    4.667    1.600    3.733    1.600 
#    0.000    1.333    2.933    0.000    0.000    0.000 
#    0.000    0.000    0.000    0.000    0.000    0.000 
#
# Total GULP energy -185862.020403 kJ/mol
# GULP energy per Si atom -12390.801360 kJ/mol
# Density = 2.029460 g / cm^3
# Si number density = 20.340902 Si / 1000 Ang^3
#
#
#
# Elastic Constant Matrix: (Units=GPa)
#
#
# Indices 1 2 3 4 5 6 
#
# 1 104.7406 35.9717 25.8402 0.0000 -14.6422 0.0000
# 2 35.9717 122.5293 45.2303 0.0000 5.1551 0.0000
# 3 25.8402 45.2303 103.4830 0.0000 -11.2255 0.0000
# 4 0.0000 0.0000 0.0000 27.9174 0.0000 1.9221
# 5 -14.6422 5.1551 -11.2255 0.0000 23.8553 0.0000
# 6 0.0000 0.0000 0.0000 1.9221 0.0000 30.6815
#
#
#
# Elastic Compliance Matrix: (Units=1/GPa)
#
#
# Indices 1 2 3 4 5 6 
#
# 1 0.012052 -0.003671 -0.000544 0.000000 0.007934 0.000000
# 2 -0.003671 0.011292 -0.004772 0.000000 -0.006939 0.000000
# 3 -0.000544 -0.004772 0.012604 0.000000 0.006628 0.000000
# 4 0.000000 0.000000 0.000000 0.035975 0.000000 -0.002254
# 5 0.007934 -0.006939 0.006628 0.000000 0.051408 0.000000
# 6 0.000000 0.000000 0.000000 -0.002254 0.000000 0.032734
#
#
# Mechanical properties :
#
#
# Convention : Reuss Voigt Hill
#
# Bulk Modulus (GPa) = 55.63529 60.53746 58.08637
# Shear Modulus (GPa) = 27.77307 31.40486 29.58896
#
# Velocity S-wave (km/s) = 3.69911 3.93355 3.81813
# Velocity P-wave (km/s) = 6.75688 7.10327 6.93224
#
# Compressibility (1/GPa) = 0.01797420
#
# Stress axis : x y z
#
# Youngs Moduli (GPa) = 82.97649 88.55502 79.34041
#
# Poissons Ratio (x) = 0.32509 0.04317
# Poissons Ratio (y) = 0.30461 0.37859
# Poissons Ratio (z) = 0.04515 0.42256
#
# Static dielectric constant tensor:
#      x y z
#    x 3.687950 0.000000 -0.326080 
#    y 0.000000 3.514890 0.000000 
#    z -0.326080 0.000000 3.901050 
# 
# 
# High freq. dielectric constant tensor:
#      x y z
#    x 1.776040 0.000000 -0.019560 
#    y 0.000000 1.781600 0.000000 
#    z -0.019560 0.000000 1.803510 
# 
# From -- ./inp_files/21475.got.cif
#   From: 2010.03.12/outbox.cif.g09.slc.cpg/sg5_11_cif.got.tgz:21475.got - 2010.03.31 09:47:26.
