data_PCOD8049827
_publ_section_title
;
Structure prediction by ZEFSAII (Michael W. Deem and Ramdas Pophale) SiO2 
 PCOD8049827
Probable space group: C 2
;
_chemical_formula_sum "Si O2"
_cell_formula_units_Z 32
_cell_length_a 8.305888
_cell_length_b 24.284474
_cell_length_c 14.089738
_cell_angle_alpha 90.000000
_cell_angle_beta 147.517850
_cell_angle_gamma 90.000000
_cell_volume 1526.236237
_symmetry_space_group_name_H-M "C 2"
_symmetry_group_IT_number 5
_symmetry_cell_setting 'monoclinic'
loop_
_space_group_symop_operation_xyz
x,y,z
-x,y,-z
1/2+x,1/2+y,z
1/2-x,1/2+y,-z
loop_
_atom_site_type_symbol
_atom_site_label
_atom_site_fract_x
_atom_site_fract_y
_atom_site_fract_z
Si Si1 0.225164 0.605490 0.192715
Si Si2 0.650074 0.324866 0.807890
Si Si3 0.302186 0.529344 0.495182
Si Si4 0.838652 0.223237 0.182207
Si Si5 0.834083 0.905327 0.517225
Si Si6 0.123908 0.318870 0.666043
Si Si7 0.635828 0.220766 0.674686
Si Si8 0.648490 0.111706 0.801998
O O1 0.495889 0.562201 0.328936
O O2 0.380586 0.662852 0.244909
O O3 0.038972 0.615502 0.195192
O O4 0.000000 0.584773 0.000000
O O5 0.555886 0.380608 0.706872
O O6 0.484405 0.323531 0.828974
O O7 0.537265 0.273770 0.686463
O O8 0.000000 0.324160 0.000000
O O9 0.500000 0.528391 0.500000
O O10 0.248403 0.467456 0.504383
O O11 0.979779 0.558875 0.319361
O O12 0.981788 0.266179 0.326750
O O13 0.005052 0.225812 0.163358
O O14 0.500000 0.240762 0.000000
O O15 0.518788 0.872540 0.355006
O O16 0.000000 0.902321 0.500000
O O17 0.000000 0.311853 0.500000
O O18 0.500000 0.218354 0.500000
O O19 0.573391 0.165924 0.703646
O O20 0.000000 0.104318 0.000000
#
# Coordination Sequence:
#
# PCOD8049827 Si02
#       8
#     4   4   4   4   4   4   4   4
#     4  10  21  39  61  88 120 157 198 244 302 367
#     4  11  22  38  59  89 122 156 197 253 307 359
#     4   9  21  40  62  83 114 158 201 248 305 357
#     4  11  21  35  55  85 116 149 189 234 290 355
#     4  10  21  41  61  82 114 155 204 251 297 362
#     4  10  21  37  57  82 115 154 192 238 294 352
#     4  12  23  37  60  90 122 161 199 244 304 364
#     4  11  22  39  60  89 123 156 199 254 302 360
#
# _framework density 20.966608999999998
#
# number of rings (size 3 to 8) (size 9 to 14) (size 15 to 20)
#    0.000    1.500    0.000    6.750    0.000    2.000 
#    0.000   13.750    0.000    0.000    0.000    0.000 
#    0.000    0.000    0.000    0.000    0.000    0.000 
#
# Total GULP energy -198345.358171 kJ/mol
# GULP energy per Si atom -12396.584886 kJ/mol
# Density = 2.091889 g / cm^3
# Si number density = 20.966609 Si / 1000 Ang^3
#
#
#
# Elastic Constant Matrix: (Units=GPa)
#
#
# Indices 1 2 3 4 5 6 
#
# 1 97.0663 27.8707 12.1814 0.0000 4.8160 0.0000
# 2 27.8707 159.1302 50.8358 0.0000 -11.1109 0.0000
# 3 12.1814 50.8358 102.5115 0.0000 2.9217 0.0000
# 4 0.0000 0.0000 0.0000 22.8385 0.0000 6.4976
# 5 4.8160 -11.1109 2.9217 0.0000 31.0092 0.0000
# 6 0.0000 0.0000 0.0000 6.4976 0.0000 21.2596
#
#
#
# Elastic Compliance Matrix: (Units=1/GPa)
#
#
# Indices 1 2 3 4 5 6 
#
# 1 0.011034 -0.002025 -0.000238 0.000000 -0.002417 0.000000
# 2 -0.002025 0.008135 -0.003896 0.000000 0.003596 0.000000
# 3 -0.000238 -0.003896 0.011786 0.000000 -0.002469 0.000000
# 4 0.000000 0.000000 0.000000 0.047956 0.000000 -0.014657
# 5 -0.002417 0.003596 -0.002469 0.000000 0.034145 0.000000
# 6 0.000000 0.000000 0.000000 -0.014657 0.000000 0.051517
#
#
# Mechanical properties :
#
#
# Convention : Reuss Voigt Hill
#
# Bulk Modulus (GPa) = 53.66012 60.05374 56.85693
# Shear Modulus (GPa) = 27.30729 32.87611 30.09170
#
# Velocity S-wave (km/s) = 3.61282 3.96412 3.79254
# Velocity P-wave (km/s) = 6.56140 7.04678 6.80842
#
# Compressibility (1/GPa) = 0.01863582
#
# Stress axis : x y z
#
# Youngs Moduli (GPa) = 90.63303 122.93298 84.84944
#
# Poissons Ratio (x) = 0.24896 0.02019
# Poissons Ratio (y) = 0.18355 0.33055
# Poissons Ratio (z) = 0.02156 0.47892
#
# Static dielectric constant tensor:
#      x y z
#    x 4.451000 0.000000 0.369040 
#    y 0.000000 3.928110 0.000000 
#    z 0.369040 0.000000 3.959180 
# 
# 
# High freq. dielectric constant tensor:
#      x y z
#    x 1.834720 0.000000 0.012240 
#    y 0.000000 1.816500 0.000000 
#    z 0.012240 0.000000 1.822610 
# 
# From -- ./inp_files/51677.got.cif
#   From: 2010.03.12/outbox.cif.g09.slc.cpg/sg5_26_cif.got.tgz:51677.got - 2010.03.31 09:47:26.
