data_PCOD8049181
_publ_section_title
;
Structure prediction by ZEFSAII (Michael W. Deem and Ramdas Pophale) SiO2 
 PCOD8049181
Probable space group: C 2
;
_chemical_formula_sum "Si O2"
_cell_formula_units_Z 20
_cell_length_a 22.435920
_cell_length_b 10.101917
_cell_length_c 7.926030
_cell_angle_alpha 90.000000
_cell_angle_beta 146.532749
_cell_angle_gamma 90.000000
_cell_volume 990.644004
_symmetry_space_group_name_H-M "C 2"
_symmetry_group_IT_number 5
_symmetry_cell_setting 'monoclinic'
loop_
_space_group_symop_operation_xyz
x,y,z
-x,y,-z
1/2+x,1/2+y,z
1/2-x,1/2+y,-z
loop_
_atom_site_type_symbol
_atom_site_label
_atom_site_fract_x
_atom_site_fract_y
_atom_site_fract_z
Si Si1 0.758961 0.409810 0.240161
Si Si2 0.794857 0.669005 0.488831
Si Si3 0.053900 0.832256 0.959963
Si Si4 0.663637 0.395269 0.650181
Si Si5 0.620926 0.657688 0.349279
O O1 0.818798 0.549065 0.417024
O O2 0.841666 0.294010 0.476944
O O3 0.650602 0.409099 0.098252
O O4 0.730940 0.400601 0.978538
O O5 0.771372 0.806909 0.333599
O O6 0.691152 0.628735 0.350481
O O7 0.898746 0.692818 0.857568
O O8 0.952296 0.819204 0.592842
O O9 0.000000 0.908665 0.000000
O O10 0.641088 0.543848 0.534833
O O11 0.500000 0.674181 0.000000
#
# Coordination Sequence:
#
# PCOD8049181 Si02
#       5
#     4   4   4   4   4
#     4  11  22  36  58  88 115 140 185 244 279 312
#     4  10  20  37  58  82 112 150 188 226 276 341
#     4   9  19  35  59  81 108 148 187 217 271 343
#     4  11  21  38  59  85 112 146 188 234 279 328
#     4  11  22  38  59  82 112 152 190 225 276 340
#
# _framework density 20.188887999999999
#
# number of rings (size 3 to 8) (size 9 to 14) (size 15 to 20)
#    0.000    1.600    0.000    8.400    0.000    2.400 
#    0.000    3.000    0.000    0.000    0.000    0.000 
#    0.000    0.000    0.000    0.000    0.000    0.000 
#
# Total GULP energy -123894.316165 kJ/mol
# GULP energy per Si atom -12389.431616 kJ/mol
# Density = 2.014294 g / cm^3
# Si number density = 20.188888 Si / 1000 Ang^3
#
#
#
# Elastic Constant Matrix: (Units=GPa)
#
#
# Indices 1 2 3 4 5 6 
#
# 1 72.5269 26.7976 39.1578 0.0000 1.0154 0.0000
# 2 26.7976 112.9658 68.1312 0.0000 -19.8394 0.0000
# 3 39.1578 68.1312 126.3703 0.0000 -17.5255 0.0000
# 4 0.0000 0.0000 0.0000 17.4747 0.0000 -14.1810
# 5 1.0154 -19.8394 -17.5255 0.0000 33.1646 0.0000
# 6 0.0000 0.0000 0.0000 -14.1810 0.0000 23.2279
#
#
#
# Elastic Compliance Matrix: (Units=1/GPa)
#
#
# Indices 1 2 3 4 5 6 
#
# 1 0.017185 -0.001859 -0.004910 0.000000 -0.004233 0.000000
# 2 -0.001859 0.013952 -0.006238 0.000000 0.005107 0.000000
# 3 -0.004910 -0.006238 0.013274 0.000000 0.003433 0.000000
# 4 0.000000 0.000000 0.000000 0.113417 0.000000 0.069243
# 5 -0.004233 0.005107 0.003433 0.000000 0.035152 0.000000
# 6 0.000000 0.000000 0.000000 0.069243 0.000000 0.085326
#
#
# Mechanical properties :
#
#
# Convention : Reuss Voigt Hill
#
# Bulk Modulus (GPa) = 54.35418 64.44849 59.40134
# Shear Modulus (GPa) = 16.10558 26.62518 21.36538
#
# Velocity S-wave (km/s) = 2.82750 3.63547 3.25664
# Velocity P-wave (km/s) = 6.13522 7.04374 6.60512
#
# Compressibility (1/GPa) = 0.01839785
#
# Stress axis : x y z
#
# Youngs Moduli (GPa) = 58.19057 71.67279 75.33543
#
# Poissons Ratio (x) = 0.13322 0.36989
# Poissons Ratio (y) = 0.10816 0.46995
# Poissons Ratio (z) = 0.28571 0.44710
#
# Static dielectric constant tensor:
#      x y z
#    x 3.748870 0.000000 0.021110 
#    y 0.000000 3.703280 0.000000 
#    z 0.021110 0.000000 3.875500 
# 
# 
# High freq. dielectric constant tensor:
#      x y z
#    x 1.778270 0.000000 -0.004140 
#    y 0.000000 1.788830 0.000000 
#    z -0.004140 0.000000 1.791960 
# 
# From -- ./inp_files/22640.got.cif
#   From: 2010.03.12/outbox.cif.g09.slc.cpg/sg5_12_cif.got.tgz:22640.got - 2010.03.31 09:47:26.
