data_PCOD8049259
_publ_section_title
;
Structure prediction by ZEFSAII (Michael W. Deem and Ramdas Pophale) SiO2 
 PCOD8049259
Probable space group: C 2
;
_chemical_formula_sum "Si O2"
_cell_formula_units_Z 32
_cell_length_a 12.344326
_cell_length_b 8.701978
_cell_length_c 31.348094
_cell_angle_alpha 90.000000
_cell_angle_beta 152.518722
_cell_angle_gamma 90.000000
_cell_volume 1553.922617
_symmetry_space_group_name_H-M "C 2"
_symmetry_group_IT_number 5
_symmetry_cell_setting 'monoclinic'
loop_
_space_group_symop_operation_xyz
x,y,z
-x,y,-z
1/2+x,1/2+y,z
1/2-x,1/2+y,-z
loop_
_atom_site_type_symbol
_atom_site_label
_atom_site_fract_x
_atom_site_fract_y
_atom_site_fract_z
Si Si1 0.722944 0.829560 0.547730
Si Si2 0.355134 0.926499 0.713257
Si Si3 0.434294 0.652064 0.084249
Si Si4 0.906403 0.363161 0.290700
Si Si5 0.301761 0.199105 0.277620
Si Si6 0.104958 0.812238 0.907047
Si Si7 0.418730 0.629384 0.579703
Si Si8 0.715200 0.584898 0.099742
O O1 0.500000 0.819147 0.500000
O O2 0.706078 0.708358 0.503583
O O3 0.959710 0.781718 0.656200
O O4 0.742992 0.000876 0.536302
O O5 0.421964 0.908521 0.687584
O O6 0.250912 0.764984 0.693539
O O7 0.568508 0.970739 0.819238
O O8 0.164824 0.060975 0.650022
O O9 0.579673 0.746889 0.170462
O O10 0.341253 0.493475 0.072374
O O11 0.632786 0.628931 0.117878
O O12 0.210095 0.740967 0.987393
O O13 0.829103 0.515612 0.289298
O O14 0.674284 0.280847 0.190756
O O15 0.043655 0.252656 0.370045
O O16 0.219751 0.737132 0.905051
O O17 0.500000 0.499704 0.000000
#
# Coordination Sequence:
#
# PCOD8049259 Si02
#       8
#     4   4   4   4   4   4   4   4
#     4  11  25  43  66  95 123 165 207 258 318 370
#     4  11  22  40  65  93 122 168 205 252 317 364
#     4  10  22  39  62  89 130 165 210 255 307 362
#     4  11  22  42  63  92 129 163 204 258 309 366
#     4  10  23  40  63  94 122 161 210 254 307 371
#     4  10  21  37  62  92 122 169 206 250 304 368
#     4  11  25  42  67  91 127 159 208 260 312 377
#     4  10  20  37  64  87 127 167 206 246 307 365
#
# _framework density 20.593046999999999
#
# number of rings (size 3 to 8) (size 9 to 14) (size 15 to 20)
#    0.000    1.500    3.750    1.500    3.500    3.000 
#    0.000   11.875    0.000    0.000    0.000    0.000 
#    0.000    0.000    0.000    0.000    0.000    0.000 
#
# Total GULP energy -198382.845688 kJ/mol
# GULP energy per Si atom -12398.927856 kJ/mol
# Density = 2.054618 g / cm^3
# Si number density = 20.593047 Si / 1000 Ang^3
#
#
#
# Elastic Constant Matrix: (Units=GPa)
#
#
# Indices 1 2 3 4 5 6 
#
# 1 78.4050 48.0636 26.3080 -0.0002 -1.6418 0.0000
# 2 48.0636 107.8979 42.6581 -0.0003 -5.7933 0.0000
# 3 26.3080 42.6581 85.2786 -0.0008 -1.7298 0.0002
# 4 -0.0002 -0.0003 -0.0008 38.0795 0.0004 -7.0137
# 5 -1.6418 -5.7933 -1.7298 0.0004 27.1860 -0.0001
# 6 0.0000 0.0000 0.0002 -7.0137 -0.0001 24.8133
#
#
#
# Elastic Compliance Matrix: (Units=1/GPa)
#
#
# Indices 1 2 3 4 5 6 
#
# 1 0.017798 -0.007210 -0.001896 0.000000 -0.000582 0.000000
# 2 -0.007210 0.014594 -0.005028 0.000000 0.002355 0.000000
# 3 -0.001896 -0.005028 0.014821 0.000000 -0.000243 0.000000
# 4 0.000000 0.000000 0.000000 0.027703 0.000000 0.007831
# 5 -0.000582 0.002355 -0.000243 0.000000 0.037235 0.000000
# 6 0.000000 0.000000 0.000000 0.007831 0.000000 0.042514
#
#
# Mechanical properties :
#
#
# Convention : Reuss Voigt Hill
#
# Bulk Modulus (GPa) = 52.78310 56.18232 54.48271
# Shear Modulus (GPa) = 26.42018 28.31920 27.36969
#
# Velocity S-wave (km/s) = 3.58574 3.71237 3.64960
# Velocity P-wave (km/s) = 6.54450 6.76143 6.65385
#
# Compressibility (1/GPa) = 0.01894546
#
# Stress axis : x y z
#
# Youngs Moduli (GPa) = 56.18600 68.52078 67.46976
#
# Poissons Ratio (x) = 0.49403 0.12791
# Poissons Ratio (y) = 0.40510 0.33926
# Poissons Ratio (z) = 0.10652 0.34454
#
# Static dielectric constant tensor:
#      x y z
#    x 3.592400 0.000000 -0.002580 
#    y 0.000000 3.712100 0.000000 
#    z -0.002580 0.000000 4.064820 
# 
# 
# High freq. dielectric constant tensor:
#      x y z
#    x 1.795700 0.000000 0.002160 
#    y 0.000000 1.798400 0.000000 
#    z 0.002160 0.000000 1.826730 
# 
# From -- ./inp_files/71759.got.cif
#   From: 2010.03.12/outbox.cif.g09.slc.cpg/sg5_36_cif.got.tgz:71759.got - 2010.03.31 09:47:26.
