data_PCOD8049971
_publ_section_title
;
Structure prediction by ZEFSAII (Michael W. Deem and Ramdas Pophale) SiO2 
 PCOD8049971
Probable space group: C 2
;
_chemical_formula_sum "Si O2"
_cell_formula_units_Z 28
_cell_length_a 9.066801
_cell_length_b 5.256801
_cell_length_c 21.799437
_cell_angle_alpha 90.000000
_cell_angle_beta 85.952242
_cell_angle_gamma 90.000000
_cell_volume 1036.421045
_symmetry_space_group_name_H-M "C 2"
_symmetry_group_IT_number 5
_symmetry_cell_setting 'monoclinic'
loop_
_space_group_symop_operation_xyz
x,y,z
-x,y,-z
1/2+x,1/2+y,z
1/2-x,1/2+y,-z
loop_
_atom_site_type_symbol
_atom_site_label
_atom_site_fract_x
_atom_site_fract_y
_atom_site_fract_z
Si Si1 0.325623 0.791290 0.344885
Si Si2 0.793626 0.296179 0.115012
Si Si3 0.468442 0.302566 0.071965
Si Si4 0.282532 0.919302 0.753566
Si Si5 0.917012 0.507139 0.223308
Si Si6 0.626789 0.704052 0.367355
Si Si7 0.671257 0.005711 0.479239
O O1 0.248140 0.621410 0.297261
O O2 0.451035 0.665220 0.384693
O O3 0.416859 0.987494 0.297323
O O4 0.213376 0.955313 0.390945
O O5 0.623846 0.341448 0.102519
O O6 0.820111 0.285379 0.189476
O O7 0.860724 0.045671 0.082164
O O8 0.890162 0.545286 0.096392
O O9 0.500000 0.269310 0.000000
O O10 0.145193 0.787955 0.793891
O O11 0.346515 0.693622 0.707047
O O12 0.408393 0.993760 0.800224
O O13 0.683673 0.955466 0.404072
O O14 0.500000 0.055563 0.500000
O O15 0.726407 0.743842 0.508482
#
# Coordination Sequence:
#
# PCOD8049971 Si02
#       7
#     4   4   4   4   4   4   4
#     4  10  21  39  64  90 129 170 217 274 328 428
#     4  12  26  44  74 102 142 187 231 301 351 411
#     4  12  26  47  71 103 140 190 244 291 349 413
#     4  10  21  39  62  90 131 168 219 272 331 425
#     4  10  23  37  60  98 128 171 223 273 347 403
#     4  10  23  39  63  93 123 176 222 268 347 400
#     4  12  28  49  73 105 139 181 233 300 346 411
#
# _framework density 27.016045999999999
#
# number of rings (size 3 to 8) (size 9 to 14) (size 15 to 20)
#    0.000    1.143    0.000    5.143    8.000    0.000 
#    0.000    0.000    0.000    0.000    0.000    0.000 
#    0.000    0.000    0.000    0.000    0.000    0.000 
#
# Total GULP energy -173492.214979 kJ/mol
# GULP energy per Si atom -12392.301070 kJ/mol
# Density = 2.695456 g / cm^3
# Si number density = 27.016046 Si / 1000 Ang^3
#
#
#
# Elastic Constant Matrix: (Units=GPa)
#
#
# Indices 1 2 3 4 5 6 
#
# 1 165.1155 52.2056 -10.2307 0.0000 39.6369 0.0000
# 2 52.2056 109.5630 -5.5635 0.0000 6.8351 0.0000
# 3 -10.2307 -5.5635 89.2782 0.0000 3.9403 0.0000
# 4 0.0000 0.0000 0.0000 19.3822 0.0000 -3.9104
# 5 39.6369 6.8351 3.9403 0.0000 36.3173 0.0000
# 6 0.0000 0.0000 0.0000 -3.9104 0.0000 56.7160
#
#
#
# Elastic Compliance Matrix: (Units=1/GPa)
#
#
# Indices 1 2 3 4 5 6 
#
# 1 0.009827 -0.003984 0.001324 0.000000 -0.010119 0.000000
# 2 -0.003984 0.010889 0.000121 0.000000 0.002286 0.000000
# 3 0.001324 0.000121 0.011480 0.000000 -0.002714 0.000000
# 4 0.000000 0.000000 0.000000 0.052322 0.000000 0.003607
# 5 -0.010119 0.002286 -0.002714 0.000000 0.038444 0.000000
# 6 0.000000 0.000000 0.000000 0.003607 0.000000 0.017880
#
#
# Mechanical properties :
#
#
# Convention : Reuss Voigt Hill
#
# Bulk Modulus (GPa) = 36.87364 48.53105 42.70234
# Shear Modulus (GPa) = 32.26660 44.31945 38.29303
#
# Velocity S-wave (km/s) = 3.45969 4.05469 3.76895
# Velocity P-wave (km/s) = 5.44405 6.31850 5.89750
#
# Compressibility (1/GPa) = 0.02711965
#
# Stress axis : x y z
#
# Youngs Moduli (GPa) = 101.75701 91.83509 87.10764
#
# Poissons Ratio (x) = 0.36588 -0.11537
# Poissons Ratio (y) = 0.40541 -0.01055
# Poissons Ratio (z) = -0.13478 -0.01113
#
# Static dielectric constant tensor:
#      x y z
#    x 5.703810 0.000000 -0.378520 
#    y 0.000000 5.130190 0.000000 
#    z -0.378520 0.000000 6.930020 
# 
# 
# High freq. dielectric constant tensor:
#      x y z
#    x 2.107760 0.000000 0.002330 
#    y 0.000000 2.099140 0.000000 
#    z 0.002330 0.000000 2.098240 
# 
# From -- ./inp_files/70082.got.cif
#   From: 2010.03.12/outbox.cif.g09.slc.cpg/sg5_36_cif.got.tgz:70082.got - 2010.03.31 09:47:26.
