data_PCOD8049561
_publ_section_title
;
Structure prediction by ZEFSAII (Michael W. Deem and Ramdas Pophale) SiO2 
 PCOD8049561
Probable space group: C 2
;
_chemical_formula_sum "Si O2"
_cell_formula_units_Z 24
_cell_length_a 7.994731
_cell_length_b 18.141386
_cell_length_c 7.779849
_cell_angle_alpha 90.000000
_cell_angle_beta 61.199578
_cell_angle_gamma 90.000000
_cell_volume 988.780405
_symmetry_space_group_name_H-M "C 2"
_symmetry_group_IT_number 5
_symmetry_cell_setting 'monoclinic'
loop_
_space_group_symop_operation_xyz
x,y,z
-x,y,-z
1/2+x,1/2+y,z
1/2-x,1/2+y,-z
loop_
_atom_site_type_symbol
_atom_site_label
_atom_site_fract_x
_atom_site_fract_y
_atom_site_fract_z
Si Si1 0.783097 0.641540 0.467532
Si Si2 0.706771 0.011740 0.967926
Si Si3 0.700021 0.987872 0.364441
Si Si4 0.909632 0.723239 0.862211
Si Si5 0.407300 0.655005 0.797626
Si Si6 0.544160 0.387264 0.279764
O O1 0.791389 0.553499 0.496171
O O2 0.635529 0.673711 0.684581
O O3 0.686782 0.669828 0.340037
O O4 0.997319 0.676844 0.345760
O O5 0.695841 0.018672 0.176115
O O6 0.500000 0.036861 0.000000
O O7 0.877267 0.067146 0.834626
O O8 0.763074 0.932914 0.857229
O O9 0.500000 0.945917 0.500000
O O10 0.865442 0.928314 0.286720
O O11 0.931069 0.809166 0.821176
O O12 0.687807 0.700503 0.998199
O O13 0.000000 0.700068 0.000000
O O14 0.500000 0.376789 0.500000
#
# Coordination Sequence:
#
# PCOD8049561 Si02
#       6
#     4   4   4   4   4   4
#     4  10  21  40  69 101 135 178 227 279 336 407
#     4  12  24  43  71 100 134 178 230 286 341 405
#     4  12  24  42  71 102 132 180 231 281 342 410
#     4  10  22  43  66  99 141 181 224 281 341 404
#     4  10  20  40  70 100 136 179 225 280 337 401
#     4  12  26  46  66  98 142 181 226 284 343 406
#
# _framework density 24.272324999999999
#
# number of rings (size 3 to 8) (size 9 to 14) (size 15 to 20)
#    0.000    1.000    1.667    7.000    0.000    2.000 
#   12.000    0.000    0.000    0.000    0.000    0.000 
#    0.000    0.000    0.000    0.000    0.000    0.000 
#
# Total GULP energy -148702.829038 kJ/mol
# GULP energy per Si atom -12391.902420 kJ/mol
# Density = 2.421708 g / cm^3
# Si number density = 24.272325 Si / 1000 Ang^3
#
#
#
# Elastic Constant Matrix: (Units=GPa)
#
#
# Indices 1 2 3 4 5 6 
#
# 1 59.3396 12.1695 54.5000 0.0000 -20.4851 0.0000
# 2 12.1695 150.8578 67.2770 0.0000 -27.9318 0.0000
# 3 54.5000 67.2770 186.2373 0.0000 -40.2465 0.0000
# 4 0.0000 0.0000 0.0000 50.0428 0.0000 -0.7654
# 5 -20.4851 -27.9318 -40.2465 0.0000 51.6149 0.0000
# 6 0.0000 0.0000 0.0000 -0.7654 0.0000 28.1200
#
#
#
# Elastic Compliance Matrix: (Units=1/GPa)
#
#
# Indices 1 2 3 4 5 6 
#
# 1 0.024529 0.002052 -0.006705 0.000000 0.005617 0.000000
# 2 0.002052 0.008343 -0.002962 0.000000 0.003020 0.000000
# 3 -0.006705 -0.002962 0.008996 0.000000 0.002751 0.000000
# 4 0.000000 0.000000 0.000000 0.019991 0.000000 0.000544
# 5 0.005617 0.003020 0.002751 0.000000 0.025383 0.000000
# 6 0.000000 0.000000 0.000000 0.000544 0.000000 0.035577
#
#
# Mechanical properties :
#
#
# Convention : Reuss Voigt Hill
#
# Bulk Modulus (GPa) = 37.54135 73.81417 55.67776
# Shear Modulus (GPa) = 34.03010 43.45475 38.74242
#
# Velocity S-wave (km/s) = 3.74841 4.23578 3.99953
# Velocity P-wave (km/s) = 5.85102 7.37559 6.65709
#
# Compressibility (1/GPa) = 0.02663729
#
# Stress axis : x y z
#
# Youngs Moduli (GPa) = 40.76812 119.85797 111.15967
#
# Poissons Ratio (x) = -0.24590 0.74537
# Poissons Ratio (y) = -0.08364 0.32922
# Poissons Ratio (z) = 0.27337 0.35498
#
# Static dielectric constant tensor:
#      x y z
#    x 3.804620 0.000000 -0.596000 
#    y 0.000000 3.979320 0.000000 
#    z -0.596000 0.000000 5.059880 
# 
# 
# High freq. dielectric constant tensor:
#      x y z
#    x 1.965450 0.000000 -0.005630 
#    y 0.000000 1.927090 0.000000 
#    z -0.005630 0.000000 2.009290 
# 
# From -- ./inp_files/16687.got.cif
#   From: 2010.03.12/outbox.cif.g09.slc.cpg/sg5_9_cif.got.tgz:16687.got - 2010.03.31 09:47:26.
