data_PCOD8049539
_publ_section_title
;
Structure prediction by ZEFSAII (Michael W. Deem and Ramdas Pophale) SiO2 
 PCOD8049539
Probable space group: C 2
;
_chemical_formula_sum "Si O2"
_cell_formula_units_Z 26
_cell_length_a 13.698541
_cell_length_b 14.419319
_cell_length_c 5.977956
_cell_angle_alpha 90.000000
_cell_angle_beta 128.735067
_cell_angle_gamma 90.000000
_cell_volume 921.070511
_symmetry_space_group_name_H-M "C 2"
_symmetry_group_IT_number 5
_symmetry_cell_setting 'monoclinic'
loop_
_space_group_symop_operation_xyz
x,y,z
-x,y,-z
1/2+x,1/2+y,z
1/2-x,1/2+y,-z
loop_
_atom_site_type_symbol
_atom_site_label
_atom_site_fract_x
_atom_site_fract_y
_atom_site_fract_z
Si Si1 0.093164 0.820180 0.343453
Si Si2 0.726660 0.491392 0.451940
Si Si3 0.447557 0.110705 0.678908
Si Si4 0.500000 0.609744 0.000000
Si Si5 0.874954 0.219827 0.194173
Si Si6 0.714756 0.051554 0.999013
Si Si7 0.168841 0.871242 0.928078
O O1 0.197115 0.881191 0.342398
O O2 0.118730 0.712069 0.420910
O O3 0.105266 0.875585 0.593222
O O4 0.941550 0.827601 0.064975
O O5 0.832632 0.541721 0.446408
O O6 0.592899 0.544822 0.278612
O O7 0.798030 0.490408 0.795043
O O8 0.500000 0.092043 0.000000
O O9 0.577644 0.093277 0.717266
O O10 0.409840 0.679415 0.003713
O O11 0.795654 0.138633 0.196968
O O12 0.000000 0.246287 0.500000
O O13 0.793313 0.311710 0.076018
O O14 0.793532 0.979057 0.945738
#
# Coordination Sequence:
#
# PCOD8049539 Si02
#       7
#     4   4   4   2   4   4   4
#     4  10  20  40  67  93 133 175 232 276 341 410
#     4  10  22  40  64 102 132 177 225 283 338 406
#     4  10  21  40  65  94 131 176 222 285 341 400
#     4  12  24  40  68 108 134 180 232 278 340 416
#     4  12  24  45  70  98 143 181 226 286 343 410
#     4  10  21  45  67  92 136 181 225 282 345 402
#     4  10  22  40  68  94 125 187 224 273 347 406
#
# _framework density 28.228024000000001
#
# number of rings (size 3 to 8) (size 9 to 14) (size 15 to 20)
#    0.000    1.538    3.077    1.846    3.231    0.000 
#    9.692    4.615    0.000    0.000    0.000    0.000 
#    0.000    0.000    0.000    0.000    0.000    0.000 
#
# Total GULP energy -161193.647044 kJ/mol
# GULP energy per Si atom -12399.511311 kJ/mol
# Density = 2.816378 g / cm^3
# Si number density = 28.228024 Si / 1000 Ang^3
#
#
#
# Elastic Constant Matrix: (Units=GPa)
#
#
# Indices 1 2 3 4 5 6 
#
# 1 125.0102 49.2299 42.2294 0.0000 27.3984 0.0000
# 2 49.2299 173.7161 79.2423 0.0000 21.6752 0.0000
# 3 42.2294 79.2423 162.2215 0.0000 28.5453 0.0000
# 4 0.0000 0.0000 0.0000 63.6360 0.0000 7.3998
# 5 27.3984 21.6752 28.5453 0.0000 41.6764 0.0000
# 6 0.0000 0.0000 0.0000 7.3998 0.0000 50.2702
#
#
#
# Elastic Compliance Matrix: (Units=1/GPa)
#
#
# Indices 1 2 3 4 5 6 
#
# 1 0.010134 -0.001853 -0.000830 0.000000 -0.005130 0.000000
# 2 -0.001853 0.007836 -0.003232 0.000000 -0.000643 0.000000
# 3 -0.000830 -0.003232 0.008605 0.000000 -0.003667 0.000000
# 4 0.000000 0.000000 0.000000 0.015988 0.000000 -0.002353
# 5 -0.005130 -0.000643 -0.003667 0.000000 0.030213 0.000000
# 6 0.000000 0.000000 0.000000 -0.002353 0.000000 0.020239
#
#
# Mechanical properties :
#
#
# Convention : Reuss Voigt Hill
#
# Bulk Modulus (GPa) = 67.82569 89.15011 78.48790
# Shear Modulus (GPa) = 45.55377 50.46626 48.01002
#
# Velocity S-wave (km/s) = 4.02154 4.23283 4.12854
# Velocity P-wave (km/s) = 6.75601 7.45251 7.11279
#
# Compressibility (1/GPa) = 0.01474368
#
# Stress axis : x y z
#
# Youngs Moduli (GPa) = 98.67949 127.60933 116.21599
#
# Poissons Ratio (x) = 0.23647 0.09648
# Poissons Ratio (y) = 0.18286 0.37565
# Poissons Ratio (z) = 0.08192 0.41247
#
# Static dielectric constant tensor:
#      x y z
#    x 6.398280 0.000000 -0.023860 
#    y 0.000000 4.954310 0.000000 
#    z -0.023860 0.000000 5.769870 
# 
# 
# High freq. dielectric constant tensor:
#      x y z
#    x 2.194210 0.000000 -0.036680 
#    y 0.000000 2.130640 0.000000 
#    z -0.036680 0.000000 2.209660 
# 
# From -- ./inp_files/24799.got.cif
#   From: 2010.03.12/outbox.cif.g09.slc.cpg/sg5_13_cif.got.tgz:24799.got - 2010.03.31 09:47:26.
