data_PCOD8049044
_publ_section_title
;
Structure prediction by ZEFSAII (Michael W. Deem and Ramdas Pophale) SiO2 
 PCOD8049044
Probable space group: C 2
;
_chemical_formula_sum "Si O2"
_cell_formula_units_Z 28
_cell_length_a 9.118109
_cell_length_b 11.352842
_cell_length_c 14.070035
_cell_angle_alpha 90.000000
_cell_angle_beta 71.366877
_cell_angle_gamma 90.000000
_cell_volume 1380.137021
_symmetry_space_group_name_H-M "C 2"
_symmetry_group_IT_number 5
_symmetry_cell_setting 'monoclinic'
loop_
_space_group_symop_operation_xyz
x,y,z
-x,y,-z
1/2+x,1/2+y,z
1/2-x,1/2+y,-z
loop_
_atom_site_type_symbol
_atom_site_label
_atom_site_fract_x
_atom_site_fract_y
_atom_site_fract_z
Si Si1 0.069063 0.631810 0.130762
Si Si2 0.739966 0.326822 0.187080
Si Si3 0.148307 0.539339 0.315985
Si Si4 0.024101 0.299539 0.600097
Si Si5 0.635039 0.291933 0.404577
Si Si6 0.036955 0.140556 0.768493
Si Si7 0.218200 0.564932 0.911472
O O1 0.129415 0.763706 0.134103
O O2 0.075817 0.556862 0.226221
O O3 0.895218 0.648081 0.126680
O O4 0.178451 0.568085 0.030667
O O5 0.638347 0.360077 0.302187
O O6 0.878385 0.242060 0.189924
O O7 0.818593 0.435901 0.120404
O O8 0.108522 0.652105 0.390821
O O9 0.337383 0.535487 0.273894
O O10 0.077223 0.419171 0.370885
O O11 0.205606 0.323366 0.575896
O O12 0.970728 0.198179 0.684967
O O13 0.000000 0.248018 0.500000
O O14 0.500000 0.340944 0.500000
O O15 0.897055 0.093739 0.860099
#
# Coordination Sequence:
#
# PCOD8049044 Si02
#       7
#     4   4   4   4   4   4   4
#     4   9  21  36  56  85 113 143 187 231 274 328
#     4   9  21  40  56  79 115 149 180 226 280 327
#     4   9  19  38  57  79 114 151 181 227 281 325
#     4  10  20  35  57  84 112 146 184 229 280 323
#     4   9  19  36  57  82 110 145 189 227 272 335
#     4   9  22  38  56  83 111 146 192 225 268 338
#     4  11  21  37  59  85 112 146 186 230 277 324
#
# _framework density 20.287839999999999
#
# number of rings (size 3 to 8) (size 9 to 14) (size 15 to 20)
#    0.000    3.143    0.000    2.143    0.000   10.286 
#    0.000   10.714    0.000    0.000    0.000    0.000 
#    0.000    0.000    0.000    0.000    0.000    0.000 
#
# Total GULP energy -173509.734561 kJ/mol
# GULP energy per Si atom -12393.552469 kJ/mol
# Density = 2.024166 g / cm^3
# Si number density = 20.287840 Si / 1000 Ang^3
#
#
#
# Elastic Constant Matrix: (Units=GPa)
#
#
# Indices 1 2 3 4 5 6 
#
# 1 101.1958 34.5100 52.4015 0.0000 -7.9638 0.0000
# 2 34.5100 53.9856 25.0420 0.0000 6.5649 0.0000
# 3 52.4015 25.0420 105.6139 0.0000 -3.1801 0.0000
# 4 0.0000 0.0000 0.0000 11.3041 0.0000 -0.7674
# 5 -7.9638 6.5649 -3.1801 0.0000 41.4537 0.0000
# 6 0.0000 0.0000 0.0000 -0.7674 0.0000 23.6459
#
#
#
# Elastic Compliance Matrix: (Units=1/GPa)
#
#
# Indices 1 2 3 4 5 6 
#
# 1 0.015953 -0.007922 -0.005921 0.000000 0.003865 0.000000
# 2 -0.007922 0.025323 -0.002246 0.000000 -0.005704 0.000000
# 3 -0.005921 -0.002246 0.012945 0.000000 0.000211 0.000000
# 4 0.000000 0.000000 0.000000 0.088659 0.000000 0.002877
# 5 0.003865 -0.005704 0.000211 0.000000 0.025785 0.000000
# 6 0.000000 0.000000 0.000000 0.002877 0.000000 0.042384
#
#
# Mechanical properties :
#
#
# Convention : Reuss Voigt Hill
#
# Bulk Modulus (GPa) = 45.36191 53.85580 49.60885
# Shear Modulus (GPa) = 19.95421 25.20352 22.57887
#
# Velocity S-wave (km/s) = 3.13957 3.52845 3.33967
# Velocity P-wave (km/s) = 5.96240 6.57293 6.27510
#
# Compressibility (1/GPa) = 0.02204493
#
# Stress axis : x y z
#
# Youngs Moduli (GPa) = 62.68261 39.49028 77.25048
#
# Poissons Ratio (x) = 0.31283 0.45738
# Poissons Ratio (y) = 0.49655 0.17347
# Poissons Ratio (z) = 0.37113 0.08868
#
# Static dielectric constant tensor:
#      x y z
#    x 3.739100 0.000000 0.036210 
#    y 0.000000 3.409750 0.000000 
#    z 0.036210 0.000000 3.772000 
# 
# 
# High freq. dielectric constant tensor:
#      x y z
#    x 1.796180 0.000000 0.004270 
#    y 0.000000 1.765960 0.000000 
#    z 0.004270 0.000000 1.800640 
# 
# From -- ./inp_files/50268.got.cif
#   From: 2010.03.12/outbox.cif.g09.slc.cpg/sg5_26_cif.got.tgz:50268.got - 2010.03.31 09:47:26.
