data_PCOD8049698
_publ_section_title
;
Structure prediction by ZEFSAII (Michael W. Deem and Ramdas Pophale) SiO2 
 PCOD8049698
Probable space group: C 2
;
_chemical_formula_sum "Si O2"
_cell_formula_units_Z 28
_cell_length_a 15.844879
_cell_length_b 13.001730
_cell_length_c 9.783936
_cell_angle_alpha 90.000000
_cell_angle_beta 133.821960
_cell_angle_gamma 90.000000
_cell_volume 1454.242844
_symmetry_space_group_name_H-M "C 2"
_symmetry_group_IT_number 5
_symmetry_cell_setting 'monoclinic'
loop_
_space_group_symop_operation_xyz
x,y,z
-x,y,-z
1/2+x,1/2+y,z
1/2-x,1/2+y,-z
loop_
_atom_site_type_symbol
_atom_site_label
_atom_site_fract_x
_atom_site_fract_y
_atom_site_fract_z
Si Si1 0.068200 0.877930 0.444289
Si Si2 0.522360 0.599629 0.736554
Si Si3 0.434722 0.265385 0.069669
Si Si4 0.000000 0.263874 0.500000
Si Si5 0.295710 0.886938 0.140021
Si Si6 0.500000 0.688229 0.000000
Si Si7 0.210652 0.615654 0.925036
Si Si8 0.723010 0.797547 0.175141
O O1 0.204555 0.866665 0.636404
O O2 0.000000 0.838574 0.500000
O O3 0.036513 0.803298 0.284729
O O4 0.036570 0.995042 0.377496
O O5 0.463601 0.692634 0.587281
O O6 0.499429 0.612610 0.870673
O O7 0.661351 0.603704 0.862005
O O8 0.378306 0.157139 0.057563
O O9 0.500000 0.247757 0.000000
O O10 0.334044 0.354177 0.953795
O O11 0.888795 0.333089 0.341469
O O12 0.322150 0.007722 0.180074
O O13 0.312834 0.859735 0.000423
O O14 0.609415 0.763818 0.129652
O O15 0.207284 0.696451 0.796665
#
# Coordination Sequence:
#
# PCOD8049698 Si02
#       8
#     4   4   4   2   4   2   4   4
#     4  12  21  39  70  94 121 178 223 260 328 405
#     4  11  22  38  71  95 122 172 233 260 315 403
#     4  11  24  40  64 103 135 160 221 289 323 375
#     4  12  22  38  66 100 118 174 226 264 318 404
#     4  11  22  40  66  92 132 173 214 262 333 393
#     4  10  22  44  60  94 138 164 206 290 326 370
#     4  10  20  43  65  89 131 176 205 264 331 388
#     4  10  22  41  64  90 129 173 211 268 322 390
#
# _framework density 19.254006
#
# number of rings (size 3 to 8) (size 9 to 14) (size 15 to 20)
#    0.000    1.143    9.286    0.000    1.000    2.286 
#    1.286    0.000    0.000    0.000    0.000    0.000 
#    0.000    0.000    0.000    0.000    0.000    0.000 
#
# Total GULP energy -173576.822745 kJ/mol
# GULP energy per Si atom -12398.344482 kJ/mol
# Density = 1.921018 g / cm^3
# Si number density = 19.254006 Si / 1000 Ang^3
#
#
#
# Elastic Constant Matrix: (Units=GPa)
#
#
# Indices 1 2 3 4 5 6 
#
# 1 111.8691 33.0587 37.1655 0.0000 -7.9773 0.0000
# 2 33.0587 126.0298 49.3055 0.0000 0.8700 0.0000
# 3 37.1655 49.3055 137.4032 0.0000 1.2611 0.0000
# 4 0.0000 0.0000 0.0000 39.3640 0.0000 1.4699
# 5 -7.9773 0.8700 1.2611 0.0000 26.5718 0.0000
# 6 0.0000 0.0000 0.0000 1.4699 0.0000 13.8486
#
#
#
# Elastic Compliance Matrix: (Units=1/GPa)
#
#
# Indices 1 2 3 4 5 6 
#
# 1 0.010463 -0.001918 -0.002172 0.000000 0.003307 0.000000
# 2 -0.001918 0.009582 -0.002913 0.000000 -0.000751 0.000000
# 3 -0.002172 -0.002913 0.008920 0.000000 -0.000980 0.000000
# 4 0.000000 0.000000 0.000000 0.025505 0.000000 -0.002707
# 5 0.003307 -0.000751 -0.000980 0.000000 0.038698 0.000000
# 6 0.000000 0.000000 0.000000 -0.002707 0.000000 0.072497
#
#
# Mechanical properties :
#
#
# Convention : Reuss Voigt Hill
#
# Bulk Modulus (GPa) = 66.84701 68.26241 67.55471
# Shear Modulus (GPa) = 27.07717 33.00837 30.04277
#
# Velocity S-wave (km/s) = 3.75415 4.14498 3.95440
# Velocity P-wave (km/s) = 7.32021 7.64450 7.48411
#
# Compressibility (1/GPa) = 0.01495953
#
# Stress axis : x y z
#
# Youngs Moduli (GPa) = 95.57283 104.35779 112.11091
#
# Poissons Ratio (x) = 0.20011 0.24355
# Poissons Ratio (y) = 0.18326 0.32658
# Poissons Ratio (z) = 0.20762 0.30399
#
# Static dielectric constant tensor:
#      x y z
#    x 3.416590 0.000000 0.088700 
#    y 0.000000 3.709960 0.000000 
#    z 0.088700 0.000000 3.720850 
# 
# 
# High freq. dielectric constant tensor:
#      x y z
#    x 1.729280 0.000000 -0.000040 
#    y 0.000000 1.752980 0.000000 
#    z -0.000040 0.000000 1.754750 
# 
# From -- ./inp_files/24716.got.cif
#   From: 2010.03.12/outbox.cif.g09.slc.cpg/sg5_13_cif.got.tgz:24716.got - 2010.03.31 09:47:26.
