data_PCOD8049133
_publ_section_title
;
Structure prediction by ZEFSAII (Michael W. Deem and Ramdas Pophale) SiO2 
 PCOD8049133
Probable space group: C 2
;
_chemical_formula_sum "Si O2"
_cell_formula_units_Z 26
_cell_length_a 20.986123
_cell_length_b 8.421586
_cell_length_c 8.941278
_cell_angle_alpha 90.000000
_cell_angle_beta 125.893314
_cell_angle_gamma 90.000000
_cell_volume 1280.176131
_symmetry_space_group_name_H-M "C 2"
_symmetry_group_IT_number 5
_symmetry_cell_setting 'monoclinic'
loop_
_space_group_symop_operation_xyz
x,y,z
-x,y,-z
1/2+x,1/2+y,z
1/2-x,1/2+y,-z
loop_
_atom_site_type_symbol
_atom_site_label
_atom_site_fract_x
_atom_site_fract_y
_atom_site_fract_z
Si Si1 0.737820 0.201830 0.076742
Si Si2 0.888927 0.508673 0.921420
Si Si3 0.763137 0.278660 0.639159
Si Si4 0.000000 0.787383 0.500000
Si Si5 0.701693 0.930730 0.609950
Si Si6 0.957485 0.549516 0.704681
Si Si7 0.835139 0.908179 0.260090
O O1 0.666156 0.135580 0.074634
O O2 0.775747 0.360377 0.199099
O O3 0.806085 0.072398 0.149153
O O4 0.705133 0.253584 0.871412
O O5 0.843987 0.342958 0.827050
O O6 0.914562 0.597922 0.802118
O O7 0.962125 0.462973 0.131231
O O8 0.768098 0.303423 0.469276
O O9 0.691010 0.386815 0.603193
O O10 0.747369 0.094827 0.647626
O O11 0.980518 0.689881 0.623501
O O12 0.928044 0.903680 0.365881
O O13 0.606250 0.942958 0.471853
#
# Coordination Sequence:
#
# PCOD8049133 Si02
#       7
#     4   4   4   2   4   4   4
#     4  11  23  40  61  90 119 165 206 257 303 358
#     4   9  20  39  60  90 123 164 207 248 295 363
#     4  10  20  36  62  90 120 158 206 253 291 359
#     4  12  22  38  60  92 126 168 194 256 304 370
#     4  11  21  39  64  92 119 163 207 252 301 363
#     4  10  20  36  63  90 125 165 200 243 308 366
#     4  11  23  39  60  88 125 158 208 252 305 360
#
# _framework density 20.309707
#
# number of rings (size 3 to 8) (size 9 to 14) (size 15 to 20)
#    0.000    1.538    3.077    3.692    0.000    0.000 
#    0.000    5.385    0.000    9.231    0.000    0.000 
#    0.000    0.000    0.000    0.000    0.000    0.000 
#
# Total GULP energy -161116.462617 kJ/mol
# GULP energy per Si atom -12393.574047 kJ/mol
# Density = 2.026348 g / cm^3
# Si number density = 20.309707 Si / 1000 Ang^3
#
#
#
# Elastic Constant Matrix: (Units=GPa)
#
#
# Indices 1 2 3 4 5 6 
#
# 1 106.1448 33.2339 45.7237 0.0000 25.0520 0.0000
# 2 33.2339 90.1297 24.0654 0.0000 16.7115 0.0000
# 3 45.7237 24.0654 89.0771 0.0000 26.5461 0.0000
# 4 0.0000 0.0000 0.0000 29.5555 0.0000 -0.4026
# 5 25.0520 16.7115 26.5461 0.0000 33.0177 0.0000
# 6 0.0000 0.0000 0.0000 -0.4026 0.0000 33.7562
#
#
#
# Elastic Compliance Matrix: (Units=1/GPa)
#
#
# Indices 1 2 3 4 5 6 
#
# 1 0.013503 -0.002792 -0.004662 0.000000 -0.005085 0.000000
# 2 -0.002792 0.013077 -0.000998 0.000000 -0.003698 0.000000
# 3 -0.004662 -0.000998 0.016681 0.000000 -0.009369 0.000000
# 4 0.000000 0.000000 0.000000 0.033840 0.000000 0.000404
# 5 -0.005085 -0.003698 -0.009369 0.000000 0.043549 0.000000
# 6 0.000000 0.000000 0.000000 0.000404 0.000000 0.029629
#
#
# Mechanical properties :
#
#
# Convention : Reuss Voigt Hill
#
# Bulk Modulus (GPa) = 37.93870 54.59973 46.26922
# Shear Modulus (GPa) = 28.41429 31.42113 29.91771
#
# Velocity S-wave (km/s) = 3.74444 3.93759 3.84223
# Velocity P-wave (km/s) = 6.11679 6.90034 6.52035
#
# Compressibility (1/GPa) = 0.02635831
#
# Stress axis : x y z
#
# Youngs Moduli (GPa) = 74.05559 76.47235 59.94887
#
# Poissons Ratio (x) = 0.21348 0.27948
# Poissons Ratio (y) = 0.20674 0.05981
# Poissons Ratio (z) = 0.34524 0.07630
#
# Static dielectric constant tensor:
#      x y z
#    x 3.903660 0.000000 0.060520 
#    y 0.000000 3.337550 0.000000 
#    z 0.060520 0.000000 4.012800 
# 
# 
# High freq. dielectric constant tensor:
#      x y z
#    x 1.804540 0.000000 -0.002710 
#    y 0.000000 1.762590 0.000000 
#    z -0.002710 0.000000 1.807140 
# 
# From -- ./inp_files/26685.got.cif
#   From: 2010.03.12/outbox.cif.g09.slc.cpg/sg5_14_cif.got.tgz:26685.got - 2010.03.31 09:47:26.
