data_PCOD8049705
_publ_section_title
;
Structure prediction by ZEFSAII (Michael W. Deem and Ramdas Pophale) SiO2 
 PCOD8049705
Probable space group: C 2
;
_chemical_formula_sum "Si O2"
_cell_formula_units_Z 32
_cell_length_a 14.647089
_cell_length_b 11.332242
_cell_length_c 16.808145
_cell_angle_alpha 90.000000
_cell_angle_beta 150.623158
_cell_angle_gamma 90.000000
_cell_volume 1368.584536
_symmetry_space_group_name_H-M "C 2"
_symmetry_group_IT_number 5
_symmetry_cell_setting 'monoclinic'
loop_
_space_group_symop_operation_xyz
x,y,z
-x,y,-z
1/2+x,1/2+y,z
1/2-x,1/2+y,-z
loop_
_atom_site_type_symbol
_atom_site_label
_atom_site_fract_x
_atom_site_fract_y
_atom_site_fract_z
Si Si1 0.846952 0.342970 0.778367
Si Si2 0.290204 0.567497 0.721629
Si Si3 0.245116 0.926282 0.865271
Si Si4 0.409930 0.163028 0.014538
Si Si5 0.619092 0.747437 0.514479
Si Si6 0.514590 0.984191 0.634747
Si Si7 0.846579 0.540208 0.668269
Si Si8 0.990005 0.870257 0.168326
O O1 0.826801 0.205233 0.749991
O O2 0.716414 0.385341 0.752655
O O3 0.778948 0.410739 0.646263
O O4 0.061366 0.372644 0.957249
O O5 0.146828 0.537803 0.542738
O O6 0.486384 0.499715 0.853706
O O7 0.211121 0.525143 0.747376
O O8 0.077687 0.877979 0.792125
O O9 0.244229 0.069766 0.871892
O O10 0.558888 0.097887 0.183296
O O11 0.347765 0.285911 0.010177
O O12 0.500000 0.199223 0.000000
O O13 0.500000 0.711265 0.500000
O O14 0.672499 0.624537 0.510100
O O15 0.807672 0.812572 0.683225
O O16 0.499495 0.840703 0.371831
O O17 0.493389 0.032514 0.707840
#
# Coordination Sequence:
#
# PCOD8049705 Si02
#       8
#     4   4   4   4   4   4   4   4
#     4  10  22  43  63  94 132 167 208 268 326 377
#     4  10  22  43  63  94 132 167 208 268 326 377
#     4  10  21  43  64  91 131 165 214 271 314 378
#     4  10  20  44  61  87 132 164 213 271 306 371
#     4  10  20  44  61  87 132 164 213 271 306 371
#     4  10  21  43  64  91 131 165 214 271 314 378
#     4  10  22  39  67  93 120 173 213 256 326 373
#     4  10  22  39  67  93 120 173 213 256 326 373
#
# _framework density 23.381820999999999
#
# number of rings (size 3 to 8) (size 9 to 14) (size 15 to 20)
#    0.000    2.000    5.000    0.000    7.000    0.000 
#   13.500    0.000    0.000    0.000    0.000    0.000 
#    0.000    0.000    0.000    0.000    0.000    0.000 
#
# Total GULP energy -198271.682738 kJ/mol
# GULP energy per Si atom -12391.980171 kJ/mol
# Density = 2.332860 g / cm^3
# Si number density = 23.381821 Si / 1000 Ang^3
#
#
#
# Elastic Constant Matrix: (Units=GPa)
#
#
# Indices 1 2 3 4 5 6 
#
# 1 194.1609 62.2873 12.4536 -0.0032 4.5643 0.0006
# 2 62.2873 181.8733 7.4618 -0.0233 1.8598 -0.0005
# 3 12.4536 7.4618 14.1079 -0.0342 1.5373 -0.0007
# 4 -0.0032 -0.0233 -0.0342 7.1747 0.0000 0.7821
# 5 4.5643 1.8598 1.5373 0.0000 23.7402 0.0011
# 6 0.0006 -0.0005 -0.0007 0.7821 0.0011 30.3024
#
#
#
# Elastic Compliance Matrix: (Units=1/GPa)
#
#
# Indices 1 2 3 4 5 6 
#
# 1 0.006047 -0.001889 -0.004258 -0.000024 -0.000739 0.000000
# 2 -0.001889 0.006212 -0.001616 0.000012 -0.000019 0.000000
# 3 -0.004258 -0.001616 0.075930 0.000356 -0.003971 -0.000007
# 4 -0.000024 0.000012 0.000356 0.139775 -0.000019 -0.003607
# 5 -0.000739 -0.000019 -0.003971 -0.000019 0.042523 -0.000001
# 6 0.000000 0.000000 -0.000007 -0.003607 -0.000001 0.033094
#
#
# Mechanical properties :
#
#
# Convention : Reuss Voigt Hill
#
# Bulk Modulus (GPa) = 13.76237 61.61638 37.68938
# Shear Modulus (GPa) = 14.56339 32.77276 23.66808
#
# Velocity S-wave (km/s) = 2.49841 3.74790 3.18503
# Velocity P-wave (km/s) = 3.77113 6.71852 5.44793
#
# Compressibility (1/GPa) = 0.07266189
#
# Stress axis : x y z
#
# Youngs Moduli (GPa) = 165.37842 160.98821 13.17008
#
# Poissons Ratio (x) = 0.30404 0.05608
# Poissons Ratio (y) = 0.31233 0.02128
# Poissons Ratio (z) = 0.70424 0.26018
#
# Static dielectric constant tensor:
#      x y z
#    x 4.264400 -0.000010 0.013460 
#    y -0.000010 5.262620 -0.000020 
#    z 0.013460 -0.000020 3.869550 
# 
# 
# High freq. dielectric constant tensor:
#      x y z
#    x 1.932530 0.000000 0.001930 
#    y 0.000000 1.945350 0.000000 
#    z 0.001930 0.000000 1.875600 
# 
# From -- ./inp_files/61720.got.cif
#   From: 2010.03.12/outbox.cif.g09.slc.cpg/sg5_31_cif.got.tgz:61720.got - 2010.03.31 09:47:26.
