data_PCOD8049192
_publ_section_title
;
Structure prediction by ZEFSAII (Michael W. Deem and Ramdas Pophale) SiO2 
 PCOD8049192
Probable space group: C 2
;
_chemical_formula_sum "Si O2"
_cell_formula_units_Z 28
_cell_length_a 10.231543
_cell_length_b 13.063111
_cell_length_c 10.348135
_cell_angle_alpha 90.000000
_cell_angle_beta 74.722629
_cell_angle_gamma 90.000000
_cell_volume 1334.211900
_symmetry_space_group_name_H-M "C 2"
_symmetry_group_IT_number 5
_symmetry_cell_setting 'monoclinic'
loop_
_space_group_symop_operation_xyz
x,y,z
-x,y,-z
1/2+x,1/2+y,z
1/2-x,1/2+y,-z
loop_
_atom_site_type_symbol
_atom_site_label
_atom_site_fract_x
_atom_site_fract_y
_atom_site_fract_z
Si Si1 0.695630 0.695670 0.687608
Si Si2 0.612899 0.006127 0.369775
Si Si3 0.306806 0.251419 0.923120
Si Si4 0.155718 0.280523 0.433040
Si Si5 0.378511 0.672200 0.806894
Si Si6 0.627713 0.475203 0.049037
Si Si7 0.414702 0.035529 0.900680
O O1 0.761068 0.583184 0.670201
O O2 0.753298 0.759727 0.791456
O O3 0.736678 0.751237 0.542263
O O4 0.535866 0.694193 0.750312
O O5 0.500000 0.042932 0.500000
O O6 0.530373 0.000555 0.253998
O O7 0.679500 0.898378 0.390932
O O8 0.390994 0.355862 0.916684
O O9 0.412597 0.158611 0.912711
O O10 0.182278 0.235469 0.055502
O O11 0.201590 0.208340 0.301209
O O12 0.000000 0.258519 0.500000
O O13 0.357874 0.549772 0.830036
O O14 0.500000 0.515410 0.000000
O O15 0.764534 0.488870 0.933301
O O16 0.500000 0.990712 0.000000
#
# Coordination Sequence:
#
# PCOD8049192 Si02
#       7
#     4   4   4   4   4   4   4
#     4  10  21  39  59  85 120 159 202 246 295 357
#     4  10  21  38  58  83 118 158 200 250 298 347
#     4  10  21  36  59  87 116 151 194 249 304 355
#     4   9  20  36  56  82 115 153 195 241 293 350
#     4  10  20  37  59  86 119 158 199 244 296 358
#     4  11  22  37  61  92 122 154 195 251 304 350
#     4  10  22  39  59  87 118 155 202 247 296 359
#
# _framework density 20.986172
#
# number of rings (size 3 to 8) (size 9 to 14) (size 15 to 20)
#    0.000    2.000    0.000    4.286    0.000    8.000 
#    0.000    6.429    0.000    0.857    0.000    0.000 
#    0.000    0.000    0.000    0.000    0.000    0.000 
#
# Total GULP energy -173532.925615 kJ/mol
# GULP energy per Si atom -12395.208972 kJ/mol
# Density = 2.093841 g / cm^3
# Si number density = 20.986172 Si / 1000 Ang^3
#
#
#
# Elastic Constant Matrix: (Units=GPa)
#
#
# Indices 1 2 3 4 5 6 
#
# 1 69.0337 6.8423 49.4394 0.0000 14.6280 0.0000
# 2 6.8423 106.4976 45.2925 0.0000 12.7748 0.0000
# 3 49.4394 45.2925 169.3607 0.0000 33.0166 0.0000
# 4 0.0000 0.0000 0.0000 28.4538 0.0000 2.8681
# 5 14.6280 12.7748 33.0166 0.0000 30.5652 0.0000
# 6 0.0000 0.0000 0.0000 2.8681 0.0000 21.7472
#
#
#
# Elastic Compliance Matrix: (Units=1/GPa)
#
#
# Indices 1 2 3 4 5 6 
#
# 1 0.018862 0.001448 -0.005087 0.000000 -0.004137 0.000000
# 2 0.001448 0.010779 -0.002903 0.000000 -0.002062 0.000000
# 3 -0.005087 -0.002903 0.009443 0.000000 -0.006553 0.000000
# 4 0.000000 0.000000 0.000000 0.035618 0.000000 -0.004697
# 5 -0.004137 -0.002062 -0.006553 0.000000 0.042637 0.000000
# 6 0.000000 0.000000 0.000000 -0.004697 0.000000 0.046602
#
#
# Mechanical properties :
#
#
# Convention : Reuss Voigt Hill
#
# Bulk Modulus (GPa) = 38.46208 60.89336 49.67772
# Shear Modulus (GPa) = 26.92616 32.37443 29.65030
#
# Velocity S-wave (km/s) = 3.58585 3.93193 3.76287
# Velocity P-wave (km/s) = 5.95915 7.04928 6.52701
#
# Compressibility (1/GPa) = 0.02599963
#
# Stress axis : x y z
#
# Youngs Moduli (GPa) = 53.01730 92.77344 105.89439
#
# Poissons Ratio (x) = -0.13432 0.53865
# Poissons Ratio (y) = -0.07676 0.30745
# Poissons Ratio (z) = 0.26968 0.26935
#
# Static dielectric constant tensor:
#      x y z
#    x 3.521030 0.000000 0.180250 
#    y 0.000000 3.793120 0.000000 
#    z 0.180250 0.000000 4.307350 
# 
# 
# High freq. dielectric constant tensor:
#      x y z
#    x 1.796430 0.000000 0.007410 
#    y 0.000000 1.822130 0.000000 
#    z 0.007410 0.000000 1.836520 
# 
# From -- ./inp_files/20336.got.cif
#   From: 2010.03.12/outbox.cif.g09.slc.cpg/sg5_11_cif.got.tgz:20336.got - 2010.03.31 09:47:26.
