data_PCOD8049608
_publ_section_title
;
Structure prediction by ZEFSAII (Michael W. Deem and Ramdas Pophale) SiO2 
 PCOD8049608
Probable space group: C 2
;
_chemical_formula_sum "Si O2"
_cell_formula_units_Z 24
_cell_length_a 25.329448
_cell_length_b 8.664687
_cell_length_c 5.433112
_cell_angle_alpha 90.000000
_cell_angle_beta 117.898267
_cell_angle_gamma 90.000000
_cell_volume 1053.831861
_symmetry_space_group_name_H-M "C 2"
_symmetry_group_IT_number 5
_symmetry_cell_setting 'monoclinic'
loop_
_space_group_symop_operation_xyz
x,y,z
-x,y,-z
1/2+x,1/2+y,z
1/2-x,1/2+y,-z
loop_
_atom_site_type_symbol
_atom_site_label
_atom_site_fract_x
_atom_site_fract_y
_atom_site_fract_z
Si Si1 0.847774 0.514270 0.954811
Si Si2 0.436007 0.213738 0.466948
Si Si3 0.221703 0.790896 0.340937
Si Si4 0.164896 0.277095 0.684059
Si Si5 0.831119 0.922884 0.278298
Si Si6 0.562499 0.918572 0.222757
O O1 0.894337 0.631282 0.179358
O O2 0.811614 0.403504 0.064991
O O3 0.800956 0.612899 0.686626
O O4 0.888842 0.404109 0.883010
O O5 0.500000 0.265601 0.500000
O O6 0.399386 0.364952 0.475550
O O7 0.447877 0.095043 0.716181
O O8 0.293874 0.798130 0.471567
O O9 0.204223 0.885074 0.545826
O O10 0.195986 0.845638 0.022386
O O11 0.093923 0.313012 0.498855
O O12 0.170810 0.103223 0.788450
O O13 0.500000 0.845077 0.000000
#
# Coordination Sequence:
#
# PCOD8049608 Si02
#       6
#     4   4   4   4   4   4
#     4  10  22  42  67  97 130 185 229 281 344 419
#     4  10  20  41  67  96 131 180 237 284 339 423
#     4  11  25  45  71  98 144 183 235 276 361 430
#     4  11  27  40  68 103 141 179 231 299 356 415
#     4  11  26  45  68 107 138 183 229 300 353 415
#     4  11  22  42  70  95 132 182 238 281 344 421
#
# _framework density 22.774031999999998
#
# number of rings (size 3 to 8) (size 9 to 14) (size 15 to 20)
#    0.000    1.333    3.333    1.000    7.000    0.000 
#    3.000    0.833    0.000    0.000    0.000    0.000 
#    0.000    0.000    0.000    0.000    0.000    0.000 
#
# Total GULP energy -148710.343016 kJ/mol
# GULP energy per Si atom -12392.528585 kJ/mol
# Density = 2.272220 g / cm^3
# Si number density = 22.774032 Si / 1000 Ang^3
#
#
#
# Elastic Constant Matrix: (Units=GPa)
#
#
# Indices 1 2 3 4 5 6 
#
# 1 137.6470 26.4520 25.4442 0.0000 7.3320 0.0000
# 2 26.4520 89.6045 9.5893 0.0000 8.2560 0.0000
# 3 25.4442 9.5893 81.3584 0.0000 0.5629 0.0000
# 4 0.0000 0.0000 0.0000 5.7241 0.0000 1.1883
# 5 7.3320 8.2560 0.5629 0.0000 38.0353 0.0000
# 6 0.0000 0.0000 0.0000 1.1883 0.0000 30.8317
#
#
#
# Elastic Compliance Matrix: (Units=1/GPa)
#
#
# Indices 1 2 3 4 5 6 
#
# 1 0.008143 -0.002058 -0.002297 0.000000 -0.001089 0.000000
# 2 -0.002058 0.012053 -0.000762 0.000000 -0.002208 0.000000
# 3 -0.002297 -0.000762 0.013096 0.000000 0.000414 0.000000
# 4 0.000000 0.000000 0.000000 0.176108 0.000000 -0.006787
# 5 -0.001089 -0.002208 0.000414 0.000000 0.026974 0.000000
# 6 0.000000 0.000000 0.000000 -0.006787 0.000000 0.032696
#
#
# Mechanical properties :
#
#
# Convention : Reuss Voigt Hill
#
# Bulk Modulus (GPa) = 43.36544 47.95345 45.65944
# Shear Modulus (GPa) = 17.42228 31.39319 24.40774
#
# Velocity S-wave (km/s) = 2.76888 3.71680 3.27729
# Velocity P-wave (km/s) = 5.41343 6.28660 5.86628
#
# Compressibility (1/GPa) = 0.02305984
#
# Stress axis : x y z
#
# Youngs Moduli (GPa) = 122.80582 82.96969 76.35659
#
# Poissons Ratio (x) = 0.17073 0.17536
# Poissons Ratio (y) = 0.25270 0.05817
# Poissons Ratio (z) = 0.28203 0.06320
#
# Static dielectric constant tensor:
#      x y z
#    x 4.309760 0.000000 0.079750 
#    y 0.000000 4.065370 0.000000 
#    z 0.079750 0.000000 4.033360 
# 
# 
# High freq. dielectric constant tensor:
#      x y z
#    x 1.910050 0.000000 0.005260 
#    y 0.000000 1.879380 0.000000 
#    z 0.005260 0.000000 1.898940 
# 
# From -- ./inp_files/10151.got.cif
#   From: 2010.03.12/outbox.cif.g09.slc.cpg/sg5_6_cif.got.tgz:10151.got - 2010.03.31 09:47:26.
