data_PCOD8049416
_publ_section_title
;
Structure prediction by ZEFSAII (Michael W. Deem and Ramdas Pophale) SiO2 
 PCOD8049416
Probable space group: C 2
;
_chemical_formula_sum "Si O2"
_cell_formula_units_Z 26
_cell_length_a 10.451928
_cell_length_b 13.774937
_cell_length_c 17.375808
_cell_angle_alpha 90.000000
_cell_angle_beta 146.338173
_cell_angle_gamma 90.000000
_cell_volume 1386.653967
_symmetry_space_group_name_H-M "C 2"
_symmetry_group_IT_number 5
_symmetry_cell_setting 'monoclinic'
loop_
_space_group_symop_operation_xyz
x,y,z
-x,y,-z
1/2+x,1/2+y,z
1/2-x,1/2+y,-z
loop_
_atom_site_type_symbol
_atom_site_label
_atom_site_fract_x
_atom_site_fract_y
_atom_site_fract_z
Si Si1 0.992588 0.598500 0.403904
Si Si2 0.303392 0.295992 0.345516
Si Si3 0.248127 0.476744 0.844125
Si Si4 0.385394 0.988707 0.794668
Si Si5 0.014070 0.130521 0.421960
Si Si6 0.000000 0.602798 0.000000
Si Si7 0.863297 0.255119 0.216516
O O1 0.903783 0.708247 0.344973
O O2 0.820581 0.524623 0.272641
O O3 0.000000 0.574345 0.500000
O O4 0.243047 0.594147 0.490358
O O5 0.500000 0.341741 0.500000
O O6 0.177637 0.374687 0.228226
O O7 0.114172 0.250290 0.306206
O O8 0.254327 0.360229 0.840190
O O9 0.058138 0.508883 0.810951
O O10 0.500000 0.511493 0.000000
O O11 0.500646 0.030572 0.928470
O O12 0.140277 0.035151 0.656330
O O13 0.000000 0.172692 0.500000
O O14 0.893735 0.219367 0.318335
O O15 0.783680 0.674198 0.902373
#
# Coordination Sequence:
#
# PCOD8049416 Si02
#       7
#     4   4   4   4   4   2   4
#     4  11  23  40  65  96 125 166 213 265 314 367
#     4  10  20  39  63  88 121 166 203 259 317 369
#     4  11  24  41  62  93 129 172 207 262 317 383
#     4  10  23  38  64  88 124 170 212 249 320 379
#     4  11  20  38  64  95 121 160 214 265 311 369
#     4  10  22  42  60  88 118 170 208 260 304 384
#     4  10  21  40  63  84 126 166 208 253 326 369
#
# _framework density 18.750171000000002
#
# number of rings (size 3 to 8) (size 9 to 14) (size 15 to 20)
#    0.000    1.538    5.385    0.462    4.308    0.615 
#    1.385    1.538    0.000    0.000    0.000    0.000 
#    0.000    0.000    0.000    0.000    0.000    0.000 
#
# Total GULP energy -161118.673041 kJ/mol
# GULP energy per Si atom -12393.744080 kJ/mol
# Density = 1.870750 g / cm^3
# Si number density = 18.750171 Si / 1000 Ang^3
#
#
#
# Elastic Constant Matrix: (Units=GPa)
#
#
# Indices 1 2 3 4 5 6 
#
# 1 120.1088 48.8414 62.5350 0.0006 4.9120 -0.0001
# 2 48.8414 103.7399 57.6088 0.0000 -13.6966 -0.0001
# 3 62.5350 57.6088 131.1451 0.0014 -3.2778 -0.0002
# 4 0.0006 0.0000 0.0014 27.7164 0.0002 0.8447
# 5 4.9120 -13.6966 -3.2778 0.0002 32.7238 -0.0002
# 6 -0.0001 -0.0001 -0.0002 0.8447 -0.0002 30.6203
#
#
#
# Elastic Compliance Matrix: (Units=1/GPa)
#
#
# Indices 1 2 3 4 5 6 
#
# 1 0.012295 -0.003964 -0.004220 0.000000 -0.003927 0.000000
# 2 -0.003964 0.014822 -0.004462 0.000000 0.006352 0.000000
# 3 -0.004220 -0.004462 0.011596 0.000000 -0.000073 0.000000
# 4 0.000000 0.000000 0.000000 0.036110 0.000000 -0.000996
# 5 -0.003927 0.006352 -0.000073 0.000000 0.033800 0.000000
# 6 0.000000 0.000000 0.000000 -0.000996 0.000000 0.032686
#
#
# Mechanical properties :
#
#
# Convention : Reuss Voigt Hill
#
# Bulk Modulus (GPa) = 74.50739 76.99602 75.75171
# Shear Modulus (GPa) = 29.22709 30.61267 29.91988
#
# Velocity S-wave (km/s) = 3.95240 4.04500 3.99897
# Velocity P-wave (km/s) = 7.78793 7.93533 7.86197
#
# Compressibility (1/GPa) = 0.01342149
#
# Stress axis : x y z
#
# Youngs Moduli (GPa) = 81.33161 67.46600 86.23963
#
# Poissons Ratio (x) = 0.26743 0.36391
# Poissons Ratio (y) = 0.32239 0.38481
# Poissons Ratio (z) = 0.34320 0.30104
#
# Static dielectric constant tensor:
#      x y z
#    x 3.392740 0.000000 0.162190 
#    y 0.000000 3.413300 0.000000 
#    z 0.162190 0.000000 3.603730 
# 
# 
# High freq. dielectric constant tensor:
#      x y z
#    x 1.725320 0.000000 0.012950 
#    y 0.000000 1.728710 0.000000 
#    z 0.012950 0.000000 1.737570 
# 
# From -- ./inp_files/36029.got.cif
#   From: 2010.03.12/outbox.cif.g09.slc.cpg/sg5_19_cif.got.tgz:36029.got - 2010.03.31 09:47:26.
