data_PCOD8049109
_publ_section_title
;
Structure prediction by ZEFSAII (Michael W. Deem and Ramdas Pophale) SiO2 
 PCOD8049109
Probable space group: C 2
;
_chemical_formula_sum "Si O2"
_cell_formula_units_Z 28
_cell_length_a 5.060559
_cell_length_b 34.512725
_cell_length_c 9.209221
_cell_angle_alpha 90.000000
_cell_angle_beta 60.559122
_cell_angle_gamma 90.000000
_cell_volume 1400.717818
_symmetry_space_group_name_H-M "C 2"
_symmetry_group_IT_number 5
_symmetry_cell_setting 'monoclinic'
loop_
_space_group_symop_operation_xyz
x,y,z
-x,y,-z
1/2+x,1/2+y,z
1/2-x,1/2+y,-z
loop_
_atom_site_type_symbol
_atom_site_label
_atom_site_fract_x
_atom_site_fract_y
_atom_site_fract_z
Si Si1 0.891554 0.897120 0.189653
Si Si2 0.844464 0.522453 0.389123
Si Si3 0.236114 0.438602 0.685311
Si Si4 0.150450 0.820351 0.612869
Si Si5 0.355873 0.086938 0.882390
Si Si6 0.852192 0.670716 0.885897
Si Si7 0.144878 0.754777 0.118429
O O1 0.554192 0.913968 0.282390
O O2 0.893203 0.857742 0.277443
O O3 0.134933 0.927210 0.191455
O O4 0.000000 0.887371 0.000000
O O5 0.500000 0.537132 0.500000
O O6 0.849202 0.483872 0.289499
O O7 0.000000 0.512374 0.500000
O O8 0.036152 0.555518 0.260963
O O9 0.500000 0.429432 0.500000
O O10 0.500000 0.809155 0.500000
O O11 0.000000 0.829463 0.500000
O O12 0.980624 0.784696 0.732209
O O13 0.453409 0.129427 0.788375
O O14 0.500000 0.079815 0.000000
O O15 0.000000 0.082733 0.000000
O O16 0.928087 0.712009 0.789641
O O17 0.500000 0.667287 0.000000
O O18 0.000000 0.673725 0.000000
O O19 0.500000 0.761140 0.000000
O O20 0.000000 0.760636 0.000000
#
# Coordination Sequence:
#
# PCOD8049109 Si02
#       7
#     4   4   4   4   4   4   4
#     4  12  25  41  62  87 112 145 193 239 280 332
#     4  11  23  39  58  84 118 154 188 229 288 343
#     4  11  23  42  62  82 114 154 189 230 287 343
#     4  12  25  40  59  85 119 152 185 229 288 343
#     4  10  20  36  59  86 115 150 194 236 277 331
#     4   8  16  32  56  83 111 147 187 231 281 329
#     4  10  20  38  62  85 113 150 194 236 277 331
#
# _framework density 19.989751999999999
#
# number of rings (size 3 to 8) (size 9 to 14) (size 15 to 20)
#    0.000    1.429    0.000    6.857    0.000    2.857 
#    0.000    1.429    0.000    0.000    0.000    0.000 
#    0.000    0.000    0.000    0.000    0.000    0.000 
#
# Total GULP energy -173539.645254 kJ/mol
# GULP energy per Si atom -12395.688947 kJ/mol
# Density = 1.994425 g / cm^3
# Si number density = 19.989752 Si / 1000 Ang^3
#
#
#
# Elastic Constant Matrix: (Units=GPa)
#
#
# Indices 1 2 3 4 5 6 
#
# 1 151.3248 53.1229 44.1980 0.0000 2.1720 0.0000
# 2 53.1229 178.5491 85.6201 0.0000 -8.3986 0.0000
# 3 44.1980 85.6201 93.9369 0.0000 2.6180 0.0000
# 4 0.0000 0.0000 0.0000 51.7182 0.0000 -3.5539
# 5 2.1720 -8.3986 2.6180 0.0000 30.2371 0.0000
# 6 0.0000 0.0000 0.0000 -3.5539 0.0000 30.9159
#
#
#
# Elastic Compliance Matrix: (Units=1/GPa)
#
#
# Indices 1 2 3 4 5 6 
#
# 1 0.007770 -0.001059 -0.002673 0.000000 -0.000621 0.000000
# 2 -0.001059 0.010491 -0.009169 0.000000 0.003784 0.000000
# 3 -0.002673 -0.009169 0.020375 0.000000 -0.004119 0.000000
# 4 0.000000 0.000000 0.000000 0.019490 0.000000 0.002240
# 5 -0.000621 0.003784 -0.004119 0.000000 0.034524 0.000000
# 6 0.000000 0.000000 0.000000 0.002240 0.000000 0.032603
#
#
# Mechanical properties :
#
#
# Convention : Reuss Voigt Hill
#
# Bulk Modulus (GPa) = 77.92292 87.74365 82.83329
# Shear Modulus (GPa) = 32.18902 38.63222 35.41062
#
# Velocity S-wave (km/s) = 4.01718 4.40091 4.21341
# Velocity P-wave (km/s) = 7.78351 8.35545 8.07455
#
# Compressibility (1/GPa) = 0.01283319
#
# Stress axis : x y z
#
# Youngs Moduli (GPa) = 128.70432 95.32361 49.07945
#
# Poissons Ratio (x) = 0.10095 0.13120
# Poissons Ratio (y) = 0.13630 0.45001
# Poissons Ratio (z) = 0.34404 0.87402
#
# Static dielectric constant tensor:
#      x y z
#    x 3.947570 0.000000 -0.028600 
#    y 0.000000 4.231700 0.000000 
#    z -0.028600 0.000000 3.311250 
# 
# 
# High freq. dielectric constant tensor:
#      x y z
#    x 1.812240 0.000000 0.002120 
#    y 0.000000 1.803460 0.000000 
#    z 0.002120 0.000000 1.746020 
# 
# From -- ./inp_files/13294.got.cif
#   From: 2010.03.12/outbox.cif.g09.slc.cpg/sg5_7_cif.got.tgz:13294.got - 2010.03.31 09:47:26.
