data_PCOD8049846
_publ_section_title
;
Structure prediction by ZEFSAII (Michael W. Deem and Ramdas Pophale) SiO2 
 PCOD8049846
Probable space group: C 2
;
_chemical_formula_sum "Si O2"
_cell_formula_units_Z 26
_cell_length_a 15.576503
_cell_length_b 16.002855
_cell_length_c 5.156946
_cell_angle_alpha 90.000000
_cell_angle_beta 113.422247
_cell_angle_gamma 90.000000
_cell_volume 1179.542485
_symmetry_space_group_name_H-M "C 2"
_symmetry_group_IT_number 5
_symmetry_cell_setting 'monoclinic'
loop_
_space_group_symop_operation_xyz
x,y,z
-x,y,-z
1/2+x,1/2+y,z
1/2-x,1/2+y,-z
loop_
_atom_site_type_symbol
_atom_site_label
_atom_site_fract_x
_atom_site_fract_y
_atom_site_fract_z
Si Si1 0.209101 0.518100 0.562477
Si Si2 0.085305 0.017227 0.266387
Si Si3 0.337856 0.302268 0.076306
Si Si4 0.720320 0.838074 0.447154
Si Si5 0.900898 0.190834 0.484008
Si Si6 0.500000 0.393106 0.500000
Si Si7 0.285543 0.122581 0.943286
O O1 0.317689 0.504065 0.757602
O O2 0.167214 0.427894 0.426294
O O3 0.193653 0.585152 0.315560
O O4 0.177431 0.555587 0.799821
O O5 0.067411 0.113891 0.302705
O O6 0.083745 0.954561 0.507831
O O7 0.000000 0.981979 0.000000
O O8 0.265056 0.329948 0.215595
O O9 0.443815 0.334387 0.233712
O O10 0.302062 0.334115 0.757010
O O11 0.348536 0.202537 0.075925
O O12 0.645952 0.763840 0.401462
O O13 0.824627 0.153563 0.183006
O O14 0.000000 0.227243 0.500000
#
# Coordination Sequence:
#
# PCOD8049846 Si02
#       7
#     4   4   4   4   4   2   4
#     4  11  21  38  62  85 120 163 205 244 299 362
#     4  11  21  34  57  90 126 153 192 248 313 366
#     4  11  23  41  58  95 124 162 200 249 310 360
#     4  11  23  39  61  91 127 160 206 244 302 366
#     4  10  21  37  60  91 124 158 199 247 308 364
#     4  12  24  36  62  92 124 156 200 254 302 368
#     4  10  22  39  62  87 120 163 202 252 299 360
#
# _framework density 22.042446000000002
#
# number of rings (size 3 to 8) (size 9 to 14) (size 15 to 20)
#    0.000    1.231    2.308    5.538    4.308    1.231 
#    0.000    0.000    1.692    0.000    0.000    0.000 
#    0.000    0.000    0.000    0.000    0.000    0.000 
#
# Total GULP energy -161048.359172 kJ/mol
# GULP energy per Si atom -12388.335321 kJ/mol
# Density = 2.199228 g / cm^3
# Si number density = 22.042446 Si / 1000 Ang^3
#
#
#
# Elastic Constant Matrix: (Units=GPa)
#
#
# Indices 1 2 3 4 5 6 
#
# 1 38.4959 13.9842 2.5309 0.0000 5.5288 0.0000
# 2 13.9842 143.6107 22.3982 0.0000 5.5575 0.0000
# 3 2.5309 22.3982 73.2149 0.0000 -8.4662 0.0000
# 4 0.0000 0.0000 0.0000 32.6030 0.0000 2.6318
# 5 5.5288 5.5575 -8.4662 0.0000 28.4053 0.0000
# 6 0.0000 0.0000 0.0000 2.6318 0.0000 31.0652
#
#
#
# Elastic Compliance Matrix: (Units=1/GPa)
#
#
# Indices 1 2 3 4 5 6 
#
# 1 0.027631 -0.002361 -0.000830 0.000000 -0.005163 0.000000
# 2 -0.002361 0.007646 -0.002462 0.000000 -0.001770 0.000000
# 3 -0.000830 -0.002462 0.015033 0.000000 0.005124 0.000000
# 4 0.000000 0.000000 0.000000 0.030883 0.000000 -0.002616
# 5 -0.005163 -0.001770 0.005124 0.000000 0.038083 0.000000
# 6 0.000000 0.000000 0.000000 -0.002616 0.000000 0.032412
#
#
# Mechanical properties :
#
#
# Convention : Reuss Voigt Hill
#
# Bulk Modulus (GPa) = 25.63918 37.01644 31.32781
# Shear Modulus (GPa) = 28.40993 32.84194 30.62593
#
# Velocity S-wave (km/s) = 3.59398 3.86416 3.73152
# Velocity P-wave (km/s) = 5.37394 6.06125 5.72791
#
# Compressibility (1/GPa) = 0.03900281
#
# Stress axis : x y z
#
# Youngs Moduli (GPa) = 36.19164 130.79246 66.52127
#
# Poissons Ratio (x) = 0.30884 0.05520
# Poissons Ratio (y) = 0.08546 0.16378
# Poissons Ratio (z) = 0.03003 0.32202
#
# Static dielectric constant tensor:
#      x y z
#    x 3.711290 0.000000 -0.029240 
#    y 0.000000 4.416700 0.000000 
#    z -0.029240 0.000000 3.873790 
# 
# 
# High freq. dielectric constant tensor:
#      x y z
#    x 1.821550 0.000000 -0.013220 
#    y 0.000000 1.893790 0.000000 
#    z -0.013220 0.000000 1.862400 
# 
# From -- ./inp_files/8586.got.cif
#   From: 2010.03.12/outbox.cif.g09.slc.cpg/sg5_5_cif.got.tgz:8586.got - 2010.03.31 09:47:26.
