data_PCOD8049129
_publ_section_title
;
Structure prediction by ZEFSAII (Michael W. Deem and Ramdas Pophale) SiO2 
 PCOD8049129
Probable space group: C 2
;
_chemical_formula_sum "Si O2"
_cell_formula_units_Z 22
_cell_length_a 20.000994
_cell_length_b 9.198706
_cell_length_c 16.941082
_cell_angle_alpha 90.000000
_cell_angle_beta 158.824468
_cell_angle_gamma 90.000000
_cell_volume 1125.897707
_symmetry_space_group_name_H-M "C 2"
_symmetry_group_IT_number 5
_symmetry_cell_setting 'monoclinic'
loop_
_space_group_symop_operation_xyz
x,y,z
-x,y,-z
1/2+x,1/2+y,z
1/2-x,1/2+y,-z
loop_
_atom_site_type_symbol
_atom_site_label
_atom_site_fract_x
_atom_site_fract_y
_atom_site_fract_z
Si Si1 0.090380 0.105560 0.843773
Si Si2 0.235941 0.440053 0.393457
Si Si3 0.780356 0.193135 0.852249
Si Si4 0.103201 0.657041 0.501083
Si Si5 0.949067 0.434561 0.215871
Si Si6 0.500000 0.922787 0.000000
O O1 0.099334 0.267956 0.818803
O O2 0.104897 0.100426 0.956219
O O3 0.900216 0.035277 0.607643
O O4 0.258935 0.019255 0.989988
O O5 0.294704 0.272455 0.443067
O O6 0.072046 0.443019 0.274546
O O7 0.156250 0.509256 0.222495
O O8 0.732597 0.109357 0.717787
O O9 0.585651 0.237255 0.678819
O O10 0.899338 0.332102 0.958664
O O11 0.059756 0.506326 0.410052
#
# Coordination Sequence:
#
# PCOD8049129 Si02
#       6
#     4   4   4   4   4   2
#     4  11  22  38  63  87 121 155 197 244 298 346
#     4  11  22  37  63  90 116 157 198 251 288 350
#     4   9  18  36  61  89 113 156 200 245 278 355
#     4   9  20  38  64  87 121 150 201 243 296 343
#     4  11  22  38  61  92 119 155 197 244 295 356
#     4  10  20  36  62  86 116 152 210 240 286 348
#
# _framework density 19.539963
#
# number of rings (size 3 to 8) (size 9 to 14) (size 15 to 20)
#    0.000    1.818    1.818    3.273    2.545    0.000 
#    0.000    0.000   24.000    0.000    0.000    0.000 
#    0.000    0.000    0.000    0.000    0.000    0.000 
#
# Total GULP energy -136287.674697 kJ/mol
# GULP energy per Si atom -12389.788609 kJ/mol
# Density = 1.949549 g / cm^3
# Si number density = 19.539963 Si / 1000 Ang^3
#
#
#
# Elastic Constant Matrix: (Units=GPa)
#
#
# Indices 1 2 3 4 5 6 
#
# 1 116.2585 48.4536 61.3878 0.0009 2.3829 0.0008
# 2 48.4536 104.5517 57.8220 0.0009 -8.4416 0.0009
# 3 61.3878 57.8220 165.2319 0.0013 -27.1998 0.0012
# 4 0.0009 0.0009 0.0013 36.5384 0.0011 -3.8170
# 5 2.3829 -8.4416 -27.1998 0.0011 36.3356 0.0011
# 6 0.0008 0.0009 0.0012 -3.8170 0.0011 23.3757
#
#
#
# Elastic Compliance Matrix: (Units=1/GPa)
#
#
# Indices 1 2 3 4 5 6 
#
# 1 0.012470 -0.003928 -0.004041 0.000000 -0.004755 0.000000
# 2 -0.003928 0.013103 -0.002945 0.000000 0.001097 0.000000
# 3 -0.004041 -0.002945 0.009712 0.000000 0.006851 -0.000001
# 4 0.000000 0.000000 0.000000 0.027843 -0.000001 0.004547
# 5 -0.004755 0.001097 0.006851 -0.000001 0.033216 -0.000002
# 6 0.000000 0.000000 -0.000001 0.004547 -0.000002 0.043522
#
#
# Mechanical properties :
#
#
# Convention : Reuss Voigt Hill
#
# Bulk Modulus (GPa) = 74.31897 80.15212 77.23554
# Shear Modulus (GPa) = 30.08788 33.80851 31.94820
#
# Velocity S-wave (km/s) = 3.92830 4.16411 4.04792
# Velocity P-wave (km/s) = 7.66109 8.01426 7.83966
#
# Compressibility (1/GPa) = 0.01345551
#
# Stress axis : x y z
#
# Youngs Moduli (GPa) = 80.19280 76.32131 102.96686
#
# Poissons Ratio (x) = 0.29980 0.41610
# Poissons Ratio (y) = 0.31501 0.30326
# Poissons Ratio (z) = 0.32407 0.22478
#
# Static dielectric constant tensor:
#      x y z
#    x 3.746750 0.000000 -0.083280 
#    y 0.000000 3.404050 0.000000 
#    z -0.083280 0.000000 4.195430 
# 
# 
# High freq. dielectric constant tensor:
#      x y z
#    x 1.771790 0.000000 0.001700 
#    y 0.000000 1.707920 0.000000 
#    z 0.001700 0.000000 1.797870 
# 
# From -- ./inp_files/26256.got.cif
#   From: 2010.03.12/outbox.cif.g09.slc.cpg/sg5_14_cif.got.tgz:26256.got - 2010.03.31 09:47:26.
