data_PCOD8049217
_publ_section_title
;
Structure prediction by ZEFSAII (Michael W. Deem and Ramdas Pophale) SiO2 
 PCOD8049217
Probable space group: C 2
;
_chemical_formula_sum "Si O2"
_cell_formula_units_Z 32
_cell_length_a 15.147688
_cell_length_b 13.055759
_cell_length_c 12.781463
_cell_angle_alpha 90.000000
_cell_angle_beta 38.715230
_cell_angle_gamma 90.000000
_cell_volume 1580.962970
_symmetry_space_group_name_H-M "C 2"
_symmetry_group_IT_number 5
_symmetry_cell_setting 'monoclinic'
loop_
_space_group_symop_operation_xyz
x,y,z
-x,y,-z
1/2+x,1/2+y,z
1/2-x,1/2+y,-z
loop_
_atom_site_type_symbol
_atom_site_label
_atom_site_fract_x
_atom_site_fract_y
_atom_site_fract_z
Si Si1 0.271620 0.710920 0.926414
Si Si2 0.222200 0.085400 0.876872
Si Si3 0.644336 0.254257 0.645485
Si Si4 0.449897 0.762964 0.431279
Si Si5 0.557963 0.384521 0.058390
Si Si6 0.041840 0.578820 0.077256
Si Si7 0.361323 0.163758 0.560009
Si Si8 0.003531 0.486454 0.674854
O O1 0.437692 0.714048 0.751180
O O2 0.204141 0.617163 0.922121
O O3 0.261071 0.679032 0.057733
O O4 0.197002 0.820087 0.967666
O O5 0.224418 0.141532 0.760655
O O6 0.359520 0.013430 0.748838
O O7 0.092624 0.006889 0.018811
O O8 0.792639 0.222598 0.559741
O O9 0.574413 0.364798 0.740092
O O10 0.534810 0.175192 0.798394
O O11 0.661464 0.255324 0.502909
O O12 0.500000 0.735845 0.500000
O O13 0.437188 0.882239 0.422547
O O14 0.500000 0.344932 0.000000
O O15 0.020312 0.483596 0.176570
O O16 0.000000 0.545217 0.000000
O O17 0.500000 0.188809 0.500000
O O18 0.378466 0.067787 0.466601
#
# Coordination Sequence:
#
# PCOD8049217 Si02
#       8
#     4   4   4   4   4   4   4   4
#     4  10  21  36  59  87 117 156 200 252 307 362
#     4  10  20  37  61  88 117 157 204 258 306 361
#     4  10  22  34  57  91 118 152 198 244 303 368
#     4  12  21  35  57  84 118 148 191 248 302 353
#     4  11  21  36  61  93 117 157 209 260 303 367
#     4   9  17  37  57  78 111 152 195 237 293 358
#     4   9  18  37  61  84 118 160 196 245 307 368
#     4   9  19  32  58  84 108 149 199 235 292 367
#
# _framework density 20.240829000000002
#
# number of rings (size 3 to 8) (size 9 to 14) (size 15 to 20)
#    0.000    2.000    1.250    6.375    1.750    1.000 
#    2.250    1.250    2.750    0.000    0.000    0.000 
#    0.000    0.000    0.000    0.000    0.000    0.000 
#
# Total GULP energy -198228.722402 kJ/mol
# GULP energy per Si atom -12389.295150 kJ/mol
# Density = 2.019476 g / cm^3
# Si number density = 20.240829 Si / 1000 Ang^3
#
#
#
# Elastic Constant Matrix: (Units=GPa)
#
#
# Indices 1 2 3 4 5 6 
#
# 1 97.2257 21.1945 51.1338 0.0000 18.5655 0.0000
# 2 21.1945 41.5273 29.6420 0.0000 7.7830 0.0000
# 3 51.1338 29.6420 99.8920 0.0000 7.2104 0.0000
# 4 0.0000 0.0000 0.0000 28.5858 0.0000 -1.4706
# 5 18.5655 7.7830 7.2104 0.0000 43.5212 0.0000
# 6 0.0000 0.0000 0.0000 -1.4706 0.0000 17.5310
#
#
#
# Elastic Compliance Matrix: (Units=1/GPa)
#
#
# Indices 1 2 3 4 5 6 
#
# 1 0.015293 -0.001945 -0.006888 0.000000 -0.005035 0.000000
# 2 -0.001945 0.031507 -0.008104 0.000000 -0.003462 0.000000
# 3 -0.006888 -0.008104 0.015814 0.000000 0.001768 0.000000
# 4 0.000000 0.000000 0.000000 0.035134 0.000000 0.002947
# 5 -0.005035 -0.003462 0.001768 0.000000 0.025451 0.000000
# 6 0.000000 0.000000 0.000000 0.002947 0.000000 0.057289
#
#
# Mechanical properties :
#
#
# Convention : Reuss Voigt Hill
#
# Bulk Modulus (GPa) = 34.79445 49.17618 41.98531
# Shear Modulus (GPa) = 22.32726 27.03925 24.68326
#
# Velocity S-wave (km/s) = 3.32487 3.65893 3.49589
# Velocity P-wave (km/s) = 5.65396 6.49605 6.08958
#
# Compressibility (1/GPa) = 0.02874021
#
# Stress axis : x y z
#
# Youngs Moduli (GPa) = 65.38797 31.73947 63.23616
#
# Poissons Ratio (x) = 0.06174 0.43556
# Poissons Ratio (y) = 0.12719 0.51244
# Poissons Ratio (z) = 0.45038 0.25721
#
# Static dielectric constant tensor:
#      x y z
#    x 3.738800 0.000000 0.086820 
#    y 0.000000 3.387850 0.000000 
#    z 0.086820 0.000000 3.949890 
# 
# 
# High freq. dielectric constant tensor:
#      x y z
#    x 1.786210 0.000000 0.006780 
#    y 0.000000 1.750100 0.000000 
#    z 0.006780 0.000000 1.794580 
# 
# From -- ./inp_files/43081.got.cif
#   From: 2010.03.12/outbox.cif.g09.slc.cpg/sg5_22_cif.got.tgz:43081.got - 2010.03.31 09:47:26.
