data_PCOD8049709
_publ_section_title
;
Structure prediction by ZEFSAII (Michael W. Deem and Ramdas Pophale) SiO2 
 PCOD8049709
Probable space group: C 2
;
_chemical_formula_sum "Si O2"
_cell_formula_units_Z 24
_cell_length_a 12.543137
_cell_length_b 14.101341
_cell_length_c 14.580271
_cell_angle_alpha 90.000000
_cell_angle_beta 27.836464
_cell_angle_gamma 90.000000
_cell_volume 1204.209639
_symmetry_space_group_name_H-M "C 2"
_symmetry_group_IT_number 5
_symmetry_cell_setting 'monoclinic'
loop_
_space_group_symop_operation_xyz
x,y,z
-x,y,-z
1/2+x,1/2+y,z
1/2-x,1/2+y,-z
loop_
_atom_site_type_symbol
_atom_site_label
_atom_site_fract_x
_atom_site_fract_y
_atom_site_fract_z
Si Si1 0.561990 0.102400 0.661686
Si Si2 0.782824 0.531419 0.039906
Si Si3 0.960234 0.784605 0.637045
Si Si4 0.500000 0.827423 0.500000
Si Si5 0.038119 0.149866 0.373144
Si Si6 0.684994 0.426459 0.604212
Si Si7 0.500000 0.893014 0.000000
O O1 0.455196 0.173432 0.667790
O O2 0.792830 0.154708 0.513241
O O3 0.621469 0.998384 0.579365
O O4 0.379664 0.092890 0.882689
O O5 0.728499 0.600215 0.167003
O O6 0.548862 0.478864 0.189429
O O7 0.977925 0.458721 0.925798
O O8 0.712653 0.825284 0.840135
O O9 0.000000 0.795048 0.500000
O O10 0.139105 0.846439 0.561626
O O11 0.612639 0.758892 0.336180
O O12 0.291384 0.886604 0.616961
O O13 0.000000 0.094657 0.500000
#
# Coordination Sequence:
#
# PCOD8049709 Si02
#       7
#     4   4   4   2   4   4   2
#     4  11  22  40  63  90 125 163 203 253 310 365
#     4  10  21  39  62  93 124 158 208 254 305 367
#     4  11  23  42  63  90 126 164 205 254 307 365
#     4  10  20  44  64  90 122 164 202 256 312 362
#     4   9  19  37  66  90 118 159 203 255 304 354
#     4  10  23  42  63  89 126 163 207 251 306 367
#     4  10  22  36  62  94 120 160 206 256 300 364
#
# _framework density 19.930084000000001
#
# number of rings (size 3 to 8) (size 9 to 14) (size 15 to 20)
#    0.500    1.333    1.667    2.000    1.167    7.333 
#    6.000    1.667    0.000    0.000    0.000    0.000 
#    0.000    0.000    0.000    0.000    0.000    0.000 
#
# Total GULP energy -148700.246566 kJ/mol
# GULP energy per Si atom -12391.687214 kJ/mol
# Density = 1.988472 g / cm^3
# Si number density = 19.930084 Si / 1000 Ang^3
#
#
#
# Elastic Constant Matrix: (Units=GPa)
#
#
# Indices 1 2 3 4 5 6 
#
# 1 111.5150 54.7612 35.0878 -0.0306 -11.7695 -0.0039
# 2 54.7612 119.5223 44.4921 -0.0511 -2.4173 -0.0017
# 3 35.0878 44.4921 74.1184 -0.0079 3.5471 0.0225
# 4 -0.0306 -0.0511 -0.0079 14.0912 0.0162 4.1122
# 5 -11.7695 -2.4173 3.5471 0.0162 25.8225 -0.0012
# 6 -0.0039 -0.0017 0.0225 4.1122 -0.0012 44.1010
#
#
#
# Elastic Compliance Matrix: (Units=1/GPa)
#
#
# Indices 1 2 3 4 5 6 
#
# 1 0.012954 -0.004409 -0.003774 0.000002 0.006010 0.000003
# 2 -0.004409 0.012369 -0.005332 0.000032 -0.000119 0.000000
# 3 -0.003774 -0.005332 0.018708 -0.000009 -0.004789 -0.000009
# 4 0.000002 0.000032 -0.000009 0.072951 -0.000041 -0.006802
# 5 0.006010 -0.000119 -0.004789 -0.000041 0.042112 0.000008
# 6 0.000003 0.000000 -0.000009 -0.006802 0.000008 0.023310
#
#
# Mechanical properties :
#
#
# Convention : Reuss Voigt Hill
#
# Bulk Modulus (GPa) = 58.81500 63.75975 61.28737
# Shear Modulus (GPa) = 23.24494 28.19060 25.71777
#
# Velocity S-wave (km/s) = 3.41885 3.76503 3.59611
# Velocity P-wave (km/s) = 6.72008 7.13875 6.93258
#
# Compressibility (1/GPa) = 0.01700247
#
# Stress axis : x y z
#
# Youngs Moduli (GPa) = 77.19573 80.84649 53.45232
#
# Poissons Ratio (x) = 0.35644 0.20170
# Poissons Ratio (y) = 0.34035 0.28501
# Poissons Ratio (z) = 0.29130 0.43108
#
# Static dielectric constant tensor:
#      x y z
#    x 3.712700 0.000010 -0.158250 
#    y 0.000010 3.745110 0.000150 
#    z -0.158250 0.000150 3.288410 
# 
# 
# High freq. dielectric constant tensor:
#      x y z
#    x 1.780650 0.000000 -0.012350 
#    y 0.000000 1.783250 0.000010 
#    z -0.012350 0.000010 1.758720 
# 
# From -- ./inp_files/53163.got.cif
#   From: 2010.03.12/outbox.cif.g09.slc.cpg/sg5_27_cif.got.tgz:53163.got - 2010.03.31 09:47:26.
