data_PCOD8050466
_publ_section_title
;
Structure prediction by ZEFSAII (Michael W. Deem and Ramdas Pophale) SiO2 
 PCOD8050466
Probable space group: C 2
;
_chemical_formula_sum "Si O2"
_cell_formula_units_Z 28
_cell_length_a 21.165982
_cell_length_b 5.292538
_cell_length_c 18.942080
_cell_angle_alpha 90.000000
_cell_angle_beta 144.159302
_cell_angle_gamma 90.000000
_cell_volume 1242.458590
_symmetry_space_group_name_H-M "C 2"
_symmetry_group_IT_number 5
_symmetry_cell_setting 'monoclinic'
loop_
_space_group_symop_operation_xyz
x,y,z
-x,y,-z
1/2+x,1/2+y,z
1/2-x,1/2+y,-z
loop_
_atom_site_type_symbol
_atom_site_label
_atom_site_fract_x
_atom_site_fract_y
_atom_site_fract_z
Si Si1 0.084700 0.520010 0.013491
Si Si2 0.670045 0.593972 0.738232
Si Si3 0.892262 0.311540 0.587767
Si Si4 0.113985 0.919835 0.534957
Si Si5 0.999500 0.015416 0.915328
Si Si6 0.939269 0.611964 0.320906
Si Si7 0.198043 0.116050 0.353921
O O1 0.202598 0.560668 0.151924
O O2 0.069177 0.261090 0.954412
O O3 0.000000 0.491579 0.000000
O O4 0.056725 0.760183 0.938324
O O5 0.617534 0.545700 0.614469
O O6 0.629273 0.369384 0.754407
O O7 0.640561 0.881249 0.731904
O O8 0.985391 0.527811 0.677423
O O9 0.775159 0.401373 0.455073
O O10 0.935509 0.112272 0.568304
O O11 0.881114 0.203404 0.655558
O O12 0.032199 0.679735 0.463876
O O13 0.233029 0.843373 0.616671
O O14 0.876869 0.013542 0.776565
O O15 0.000000 0.989624 0.000000
#
# Coordination Sequence:
#
# PCOD8050466 Si02
#       7
#     4   4   4   4   4   4   4
#     4  10  22  41  62  98 128 167 220 274 348 384
#     4  12  25  41  69  95 142 176 218 293 336 401
#     4  11  24  42  64 104 137 186 221 267 340 420
#     4  11  24  39  65 100 139 174 228 267 345 407
#     4  10  22  39  65  98 133 167 219 279 339 388
#     4  11  26  42  63  99 137 187 224 266 341 415
#     4  11  24  41  70 101 144 177 223 281 343 403
#
# _framework density 22.535961
#
# number of rings (size 3 to 8) (size 9 to 14) (size 15 to 20)
#    0.000    1.143    2.857    3.000   12.000    0.000 
#    0.000    0.000    0.000    3.429    0.000    0.000 
#    0.000    0.000    0.000    0.000    0.000    0.000 
#
# Total GULP energy -173463.283838 kJ/mol
# GULP energy per Si atom -12390.234560 kJ/mol
# Density = 2.248467 g / cm^3
# Si number density = 22.535961 Si / 1000 Ang^3
#
#
#
# Elastic Constant Matrix: (Units=GPa)
#
#
# Indices 1 2 3 4 5 6 
#
# 1 51.8383 15.2599 12.1588 -0.0013 8.6401 -0.0047
# 2 15.2599 144.9370 10.9364 -0.0013 10.4207 -0.0079
# 3 12.1588 10.9364 87.2972 -0.0014 18.4446 -0.0056
# 4 -0.0013 -0.0013 -0.0014 17.4618 -0.0004 -30.1723
# 5 8.6401 10.4207 18.4446 -0.0004 30.9244 -0.0019
# 6 -0.0047 -0.0079 -0.0056 -30.1723 -0.0019 -82.1489
#
#
#
# Elastic Compliance Matrix: (Units=1/GPa)
#
#
# Indices 1 2 3 4 5 6 
#
# 1 0.020931 -0.001767 -0.001813 0.000000 -0.004172 -0.000001
# 2 -0.001767 0.007235 -0.000285 0.000000 -0.001774 0.000000
# 3 -0.001813 -0.000285 0.013291 0.000000 -0.007325 -0.000001
# 4 0.000000 0.000000 0.000000 0.035034 0.000000 -0.012868
# 5 -0.004172 -0.001774 -0.007325 0.000000 0.038469 0.000000
# 6 -0.000001 0.000000 -0.000001 -0.012868 0.000000 -0.007447
#
#
# Mechanical properties :
#
#
# Convention : Reuss Voigt Hill
#
# Bulk Modulus (GPa) = 29.64998 40.08698 34.86848
# Shear Modulus (GPa) = 39.53025 9.62862 24.57944
#
# Velocity S-wave (km/s) = 4.19274 2.06926 3.30612
# Velocity P-wave (km/s) = 6.05178 4.85136 5.48451
#
# Compressibility (1/GPa) = 0.03372684
#
# Stress axis : x y z
#
# Youngs Moduli (GPa) = 47.77518 138.22313 75.23927
#
# Poissons Ratio (x) = 0.24425 0.13638
# Poissons Ratio (y) = 0.08442 0.02147
# Poissons Ratio (z) = 0.08660 0.03945
#
# Static dielectric constant tensor:
#      x y z
#    x 3.843790 0.000010 0.396600 
#    y 0.000010 5.527810 0.000020 
#    z 0.396600 0.000020 3.988400 
# 
# 
# High freq. dielectric constant tensor:
#      x y z
#    x 1.852830 0.000000 0.033360 
#    y 0.000000 1.915120 0.000000 
#    z 0.033360 0.000000 1.876210 
# 
# From -- ./inp_files/69527.got.cif
#   From: 2010.03.12/outbox.cif.g09.slc.cpg/sg5_35_cif.got.tgz:69527.got - 2010.03.31 09:47:26.
