data_PCOD8050272
_publ_section_title
;
Structure prediction by ZEFSAII (Michael W. Deem and Ramdas Pophale) SiO2 
 PCOD8050272
Probable space group: C 2
;
_chemical_formula_sum "Si O2"
_cell_formula_units_Z 24
_cell_length_a 11.840963
_cell_length_b 9.075746
_cell_length_c 12.256294
_cell_angle_alpha 90.000000
_cell_angle_beta 51.610209
_cell_angle_gamma 90.000000
_cell_volume 1032.371650
_symmetry_space_group_name_H-M "C 2"
_symmetry_group_IT_number 5
_symmetry_cell_setting 'monoclinic'
loop_
_space_group_symop_operation_xyz
x,y,z
-x,y,-z
1/2+x,1/2+y,z
1/2-x,1/2+y,-z
loop_
_atom_site_type_symbol
_atom_site_label
_atom_site_fract_x
_atom_site_fract_y
_atom_site_fract_z
Si Si1 0.146492 0.334010 0.266200
Si Si2 0.856335 0.080188 0.154824
Si Si3 0.152662 0.272870 0.513646
Si Si4 0.091948 0.967875 0.632312
Si Si5 0.350710 0.128083 0.024518
Si Si6 0.703675 0.335297 0.143888
O O1 0.234721 0.476000 0.173615
O O2 0.143114 0.329497 0.397549
O O3 0.977531 0.340672 0.333128
O O4 0.219320 0.187079 0.176349
O O5 0.885942 0.036565 0.260810
O O6 0.797676 0.246562 0.177312
O O7 0.000000 0.055720 0.000000
O O8 0.135675 0.096644 0.522847
O O9 0.306778 0.330474 0.462748
O O10 0.929606 0.911743 0.714800
O O11 0.358656 0.224041 0.909847
O O12 0.500000 0.144406 0.000000
O O13 0.310614 0.956917 0.025632
#
# Coordination Sequence:
#
# PCOD8050272 Si02
#       6
#     4   4   4   4   4   4
#     4  10  21  43  66  92 136 177 223 276 337 399
#     4  11  24  45  69 101 135 176 227 284 343 405
#     4  10  23  41  67  95 134 182 224 277 335 400
#     4  11  24  46  67 101 137 180 229 280 338 401
#     4  12  24  43  70 102 135 178 221 281 344 401
#     4  12  26  44  71 103 138 176 227 286 340 402
#
# _framework density 23.247440999999998
#
# number of rings (size 3 to 8) (size 9 to 14) (size 15 to 20)
#    0.000    1.000    1.667    6.000    2.333    1.333 
#    6.000    0.000    0.000    0.000    0.000    0.000 
#    0.000    0.000    0.000    0.000    0.000    0.000 
#
# Total GULP energy -148758.248613 kJ/mol
# GULP energy per Si atom -12396.520718 kJ/mol
# Density = 2.319453 g / cm^3
# Si number density = 23.247441 Si / 1000 Ang^3
#
#
#
# Elastic Constant Matrix: (Units=GPa)
#
#
# Indices 1 2 3 4 5 6 
#
# 1 44.6357 14.1009 32.9368 0.0000 -10.9221 0.0000
# 2 14.1009 134.4957 44.1014 0.0000 -11.9292 0.0000
# 3 32.9368 44.1014 107.0557 0.0000 -36.4304 0.0000
# 4 0.0000 0.0000 0.0000 40.0861 0.0000 -10.1945
# 5 -10.9221 -11.9292 -36.4304 0.0000 25.7426 0.0000
# 6 0.0000 0.0000 0.0000 -10.1945 0.0000 45.2428
#
#
#
# Elastic Compliance Matrix: (Units=1/GPa)
#
#
# Indices 1 2 3 4 5 6 
#
# 1 0.028990 -0.000117 -0.009073 0.000000 -0.000594 0.000000
# 2 -0.000117 0.008650 -0.004205 0.000000 -0.001993 0.000000
# 3 -0.009073 -0.004205 0.022938 0.000000 0.026663 0.000000
# 4 0.000000 0.000000 0.000000 0.026463 0.000000 0.005963
# 5 -0.000594 -0.001993 0.026663 0.000000 0.075404 0.000000
# 6 0.000000 0.000000 0.000000 0.005963 0.000000 0.023447
#
#
# Mechanical properties :
#
#
# Convention : Reuss Voigt Hill
#
# Bulk Modulus (GPa) = 29.59720 52.05168 40.82444
# Shear Modulus (GPa) = 22.32697 35.21749 28.77223
#
# Velocity S-wave (km/s) = 3.10240 3.89639 3.52184
# Velocity P-wave (km/s) = 5.05888 6.53310 5.84267
#
# Compressibility (1/GPa) = 0.03378698
#
# Stress axis : x y z
#
# Youngs Moduli (GPa) = 34.49431 115.61190 43.59569
#
# Poissons Ratio (x) = 0.01353 0.39555
# Poissons Ratio (y) = 0.00404 0.18333
# Poissons Ratio (z) = 0.31297 0.48618
#
# Static dielectric constant tensor:
#      x y z
#    x 4.402200 0.000000 -0.341020 
#    y 0.000000 4.414730 0.000000 
#    z -0.341020 0.000000 4.738690 
# 
# 
# High freq. dielectric constant tensor:
#      x y z
#    x 1.910360 0.000000 -0.019760 
#    y 0.000000 1.927150 0.000000 
#    z -0.019760 0.000000 1.924740 
# 
# From -- ./inp_files/54064.got.cif
#   From: 2010.03.12/outbox.cif.g09.slc.cpg/sg5_28_cif.got.tgz:54064.got - 2010.03.31 09:47:26.
