data_PCOD8050881
_publ_section_title
;
Structure prediction by ZEFSAII (Michael W. Deem and Ramdas Pophale) SiO2 
 PCOD8050881
Probable space group: C 2
;
_chemical_formula_sum "Si O2"
_cell_formula_units_Z 28
_cell_length_a 11.819429
_cell_length_b 8.610034
_cell_length_c 14.181885
_cell_angle_alpha 90.000000
_cell_angle_beta 116.656457
_cell_angle_gamma 90.000000
_cell_volume 1289.832163
_symmetry_space_group_name_H-M "C 2"
_symmetry_group_IT_number 5
_symmetry_cell_setting 'monoclinic'
loop_
_space_group_symop_operation_xyz
x,y,z
-x,y,-z
1/2+x,1/2+y,z
1/2-x,1/2+y,-z
loop_
_atom_site_type_symbol
_atom_site_label
_atom_site_fract_x
_atom_site_fract_y
_atom_site_fract_z
Si Si1 0.972154 0.747820 0.668726
Si Si2 0.178338 0.758607 0.125331
Si Si3 0.746035 0.931381 0.680484
Si Si4 0.846922 0.272097 0.016762
Si Si5 0.000000 0.553785 0.500000
Si Si6 0.500000 0.510969 0.000000
Si Si7 0.254753 0.771382 0.769016
Si Si8 0.044789 0.501398 0.176906
O O1 0.862072 0.869259 0.657260
O O2 0.939919 0.664264 0.558201
O O3 0.997748 0.612809 0.754785
O O4 0.109468 0.830547 0.708190
O O5 0.277847 0.802115 0.245910
O O6 0.228472 0.743047 0.038925
O O7 0.105889 0.600025 0.115576
O O8 0.085787 0.905220 0.098077
O O9 0.614450 0.941954 0.574970
O O10 0.774564 0.099322 0.736155
O O11 0.930240 0.116625 0.051570
O O12 0.923725 0.417011 0.087080
O O13 0.802421 0.293544 0.893709
O O14 0.347490 0.883247 0.743540
#
# Coordination Sequence:
#
# PCOD8050881 Si02
#       8
#     4   4   4   4   2   2   4   4
#     4  10  25  45  70  96 131 167 215 282 332 392
#     4  11  27  39  64  93 135 177 222 269 317 381
#     4  10  22  48  66  98 133 168 215 279 334 386
#     4  12  24  38  61  91 131 185 224 258 308 379
#     4  10  22  44  76  98 122 166 216 278 348 394
#     4  12  26  38  58  92 130 182 222 264 314 366
#     4  11  23  39  62  91 133 174 218 260 320 380
#     4  11  25  41  61  96 133 175 222 267 317 384
#
# _framework density 21.708252000000002
#
# number of rings (size 3 to 8) (size 9 to 14) (size 15 to 20)
#    0.000    1.143    2.857    1.714    8.000    3.429 
#    0.000    4.286    0.000    1.714    0.000    0.000 
#    0.000    0.000    0.000    0.000    0.000    0.000 
#
# Total GULP energy -173536.071371 kJ/mol
# GULP energy per Si atom -12395.433669 kJ/mol
# Density = 2.165884 g / cm^3
# Si number density = 21.708252 Si / 1000 Ang^3
#
#
#
# Elastic Constant Matrix: (Units=GPa)
#
#
# Indices 1 2 3 4 5 6 
#
# 1 75.0122 25.3172 29.0342 0.0000 12.1063 0.0000
# 2 25.3172 87.6684 26.1533 0.0000 0.8717 0.0000
# 3 29.0342 26.1533 99.8741 0.0000 8.0761 0.0000
# 4 0.0000 0.0000 0.0000 27.2985 0.0000 -4.1495
# 5 12.1063 0.8717 8.0761 0.0000 25.2614 0.0000
# 6 0.0000 0.0000 0.0000 -4.1495 0.0000 20.9847
#
#
#
# Elastic Compliance Matrix: (Units=1/GPa)
#
#
# Indices 1 2 3 4 5 6 
#
# 1 0.017066 -0.003848 -0.003391 0.000000 -0.006962 0.000000
# 2 -0.003848 0.013250 -0.002529 0.000000 0.002195 0.000000
# 3 -0.003391 -0.002529 0.011828 0.000000 -0.002069 0.000000
# 4 0.000000 0.000000 0.000000 0.037767 0.000000 0.007468
# 5 -0.006962 0.002195 -0.002069 0.000000 0.043508 0.000000
# 6 0.000000 0.000000 0.000000 0.007468 0.000000 0.049131
#
#
# Mechanical properties :
#
#
# Convention : Reuss Voigt Hill
#
# Bulk Modulus (GPa) = 44.22849 47.06268 45.64559
# Shear Modulus (GPa) = 25.04753 26.84556 25.94655
#
# Velocity S-wave (km/s) = 3.40049 3.52042 3.46097
# Velocity P-wave (km/s) = 5.98632 6.18475 6.08635
#
# Compressibility (1/GPa) = 0.02260986
#
# Stress axis : x y z
#
# Youngs Moduli (GPa) = 58.59698 75.47001 84.54664
#
# Poissons Ratio (x) = 0.29038 0.28667
# Poissons Ratio (y) = 0.22546 0.21380
# Poissons Ratio (z) = 0.19868 0.19084
#
# Static dielectric constant tensor:
#      x y z
#    x 4.186590 0.000000 0.040560 
#    y 0.000000 4.044030 0.000000 
#    z 0.040560 0.000000 3.916680 
# 
# 
# High freq. dielectric constant tensor:
#      x y z
#    x 1.860670 0.000000 0.003820 
#    y 0.000000 1.857020 0.000000 
#    z 0.003820 0.000000 1.844140 
# 
# From -- ./inp_files/52248.got.cif
#   From: 2010.03.12/outbox.cif.g09.slc.cpg/sg5_27_cif.got.tgz:52248.got - 2010.03.31 09:47:26.
