data_PCOD8050896
_publ_section_title
;
Structure prediction by ZEFSAII (Michael W. Deem and Ramdas Pophale) SiO2 
 PCOD8050896
Probable space group: C 2
;
_chemical_formula_sum "Si O2"
_cell_formula_units_Z 24
_cell_length_a 17.379119
_cell_length_b 8.062780
_cell_length_c 14.086120
_cell_angle_alpha 90.000000
_cell_angle_beta 32.010450
_cell_angle_gamma 90.000000
_cell_volume 1046.261861
_symmetry_space_group_name_H-M "C 2"
_symmetry_group_IT_number 5
_symmetry_cell_setting 'monoclinic'
loop_
_space_group_symop_operation_xyz
x,y,z
-x,y,-z
1/2+x,1/2+y,z
1/2-x,1/2+y,-z
loop_
_atom_site_type_symbol
_atom_site_label
_atom_site_fract_x
_atom_site_fract_y
_atom_site_fract_z
Si Si1 0.020285 0.868140 0.579180
Si Si2 0.833676 0.980643 0.192421
Si Si3 0.869784 0.225424 0.526775
Si Si4 0.061983 0.426114 0.210462
Si Si5 0.244385 0.191535 0.905088
Si Si6 0.707045 0.139663 0.506971
O O1 0.145450 0.797349 0.514662
O O2 0.000000 0.771272 0.500000
O O3 0.862410 0.840164 0.790109
O O4 0.066248 0.053857 0.503519
O O5 0.740783 0.808664 0.281317
O O6 0.786180 0.123878 0.168660
O O7 0.808938 0.039336 0.326845
O O8 0.000000 0.933272 0.000000
O O9 0.799915 0.205688 0.496053
O O10 0.006337 0.349502 0.368959
O O11 0.201958 0.539200 0.085854
O O12 0.927686 0.533472 0.309939
O O13 0.099433 0.276311 0.098822
#
# Coordination Sequence:
#
# PCOD8050896 Si02
#       6
#     4   4   4   4   4   4
#     4  11  22  40  67  98 133 169 222 274 330 390
#     4  11  24  42  67  92 136 173 224 275 328 396
#     4  11  24  41  67  98 131 179 219 270 336 398
#     4  10  23  39  69  91 133 168 215 273 332 395
#     4  11  23  43  66 100 128 173 221 276 331 395
#     4  10  22  45  68  95 133 179 218 272 340 398
#
# _framework density 22.938808000000002
#
# number of rings (size 3 to 8) (size 9 to 14) (size 15 to 20)
#    0.000    1.333    1.667    4.000    2.333    2.667 
#    3.000    0.833    0.000    0.000    0.000    0.000 
#    0.000    0.000    0.000    0.000    0.000    0.000 
#
# Total GULP energy -148705.940598 kJ/mol
# GULP energy per Si atom -12392.161717 kJ/mol
# Density = 2.288660 g / cm^3
# Si number density = 22.938808 Si / 1000 Ang^3
#
#
#
# Elastic Constant Matrix: (Units=GPa)
#
#
# Indices 1 2 3 4 5 6 
#
# 1 108.0710 21.8020 29.8244 0.0000 0.6466 0.0000
# 2 21.8020 129.4602 68.5940 0.0000 -7.4937 -0.0001
# 3 29.8244 68.5940 134.2866 0.0000 1.6221 0.0000
# 4 0.0000 0.0000 0.0000 55.8188 0.0000 2.1217
# 5 0.6466 -7.4937 1.6221 0.0000 20.7707 0.0000
# 6 0.0000 -0.0001 0.0000 2.1217 0.0000 22.8245
#
#
#
# Elastic Compliance Matrix: (Units=1/GPa)
#
#
# Indices 1 2 3 4 5 6 
#
# 1 0.009906 -0.000727 -0.001824 0.000000 -0.000428 0.000000
# 2 -0.000727 0.011032 -0.005527 0.000000 0.004434 0.000000
# 3 -0.001824 -0.005527 0.010709 0.000000 -0.002774 0.000000
# 4 0.000000 0.000000 0.000000 0.017979 0.000000 -0.001671
# 5 -0.000428 0.004434 -0.002774 0.000000 0.049974 0.000000
# 6 0.000000 0.000000 0.000000 -0.001671 0.000000 0.043968
#
#
# Mechanical properties :
#
#
# Convention : Reuss Voigt Hill
#
# Bulk Modulus (GPa) = 64.55377 68.02871 66.29124
# Shear Modulus (GPa) = 30.32389 36.65597 33.48993
#
# Velocity S-wave (km/s) = 3.63980 4.00182 3.82510
# Velocity P-wave (km/s) = 6.77252 7.14659 6.96207
#
# Compressibility (1/GPa) = 0.01549096
#
# Stress axis : x y z
#
# Youngs Moduli (GPa) = 100.95289 90.64437 93.38211
#
# Poissons Ratio (x) = 0.06587 0.17029
# Poissons Ratio (y) = 0.07336 0.51616
# Poissons Ratio (z) = 0.18410 0.50103
#
# Static dielectric constant tensor:
#      x y z
#    x 3.874930 0.000000 -0.125360 
#    y 0.000000 4.250320 0.000000 
#    z -0.125360 0.000000 4.117400 
# 
# 
# High freq. dielectric constant tensor:
#      x y z
#    x 1.897980 0.000000 -0.009460 
#    y 0.000000 1.912980 0.000000 
#    z -0.009460 0.000000 1.906600 
# 
# From -- ./inp_files/55700.got.cif
#   From: 2010.03.12/outbox.cif.g09.slc.cpg/sg5_28_cif.got.tgz:55700.got - 2010.03.31 09:47:26.
