data_PCOD8050758
_publ_section_title
;
Structure prediction by ZEFSAII (Michael W. Deem and Ramdas Pophale) SiO2 
 PCOD8050758
Probable space group: C 2
;
_chemical_formula_sum "Si O2"
_cell_formula_units_Z 28
_cell_length_a 19.750826
_cell_length_b 8.138513
_cell_length_c 9.430954
_cell_angle_alpha 90.000000
_cell_angle_beta 125.529354
_cell_angle_gamma 90.000000
_cell_volume 1233.710301
_symmetry_space_group_name_H-M "C 2"
_symmetry_group_IT_number 5
_symmetry_cell_setting 'monoclinic'
loop_
_space_group_symop_operation_xyz
x,y,z
-x,y,-z
1/2+x,1/2+y,z
1/2-x,1/2+y,-z
loop_
_atom_site_type_symbol
_atom_site_label
_atom_site_fract_x
_atom_site_fract_y
_atom_site_fract_z
Si Si1 0.500000 0.778530 0.000000
Si Si2 0.161154 0.455290 0.232813
Si Si3 0.329939 0.314505 0.842847
Si Si4 0.840631 0.463416 0.449026
Si Si5 0.575591 0.285901 0.769568
Si Si6 0.000000 0.505206 0.500000
Si Si7 0.165442 0.847829 0.604624
Si Si8 0.435313 0.491410 0.751770
O O1 0.577121 0.896084 0.051931
O O2 0.527363 0.671180 0.170788
O O3 0.170641 0.650324 0.250224
O O4 0.161740 0.392013 0.395598
O O5 0.237744 0.373911 0.242019
O O6 0.241142 0.404840 0.733771
O O7 0.403029 0.428605 0.866276
O O8 0.349050 0.264522 0.028047
O O9 0.924533 0.395688 0.472881
O O10 0.848485 0.660683 0.459483
O O11 0.538849 0.112495 0.675492
O O12 0.609932 0.386026 0.675538
O O13 0.503558 0.380804 0.761006
O O14 0.142443 0.980312 0.452532
#
# Coordination Sequence:
#
# PCOD8050758 Si02
#       8
#     2   4   4   4   4   2   4   4
#     4  12  30  40  74 100 148 172 260 296 340 408
#     4  12  26  45  66 108 138 192 232 302 345 428
#     4  12  25  41  77 100 141 185 243 283 360 424
#     4  11  22  45  73 101 139 189 232 291 357 431
#     4  11  22  43  71 106 137 182 229 295 356 420
#     4  10  22  42  74 106 142 184 226 304 362 426
#     4  11  24  43  74  99 146 180 235 283 366 426
#     4  12  21  45  71 102 128 194 229 292 343 422
#
# _framework density 22.695765000000002
#
# number of rings (size 3 to 8) (size 9 to 14) (size 15 to 20)
#    0.000    0.571    7.143    0.857    6.000    2.286 
#    0.000    0.000    0.000    0.000    0.000    0.000 
#    0.000    0.000    0.000    0.000    0.000    0.000 
#
# Total GULP energy -173593.360242 kJ/mol
# GULP energy per Si atom -12399.525732 kJ/mol
# Density = 2.264411 g / cm^3
# Si number density = 22.695765 Si / 1000 Ang^3
#
#
#
# Elastic Constant Matrix: (Units=GPa)
#
#
# Indices 1 2 3 4 5 6 
#
# 1 152.4545 31.1831 41.8386 0.0000 20.6634 0.0000
# 2 31.1831 42.6570 26.0048 0.0000 10.7770 0.0000
# 3 41.8386 26.0048 129.5792 0.0000 4.8997 0.0000
# 4 0.0000 0.0000 0.0000 35.7843 0.0000 13.0355
# 5 20.6634 10.7770 4.8997 0.0000 39.3550 0.0000
# 6 0.0000 0.0000 0.0000 13.0355 0.0000 29.7839
#
#
#
# Elastic Compliance Matrix: (Units=1/GPa)
#
#
# Indices 1 2 3 4 5 6 
#
# 1 0.008307 -0.004277 -0.001711 0.000000 -0.002977 0.000000
# 2 -0.004277 0.030782 -0.004584 0.000000 -0.005613 0.000000
# 3 -0.001711 -0.004584 0.009151 0.000000 0.001015 0.000000
# 4 0.000000 0.000000 0.000000 0.033246 0.000000 -0.014551
# 5 -0.002977 -0.005613 0.001015 0.000000 0.028384 0.000000
# 6 0.000000 0.000000 0.000000 -0.014551 0.000000 0.039944
#
#
# Mechanical properties :
#
#
# Convention : Reuss Voigt Hill
#
# Bulk Modulus (GPa) = 36.90669 58.08264 47.49467
# Shear Modulus (GPa) = 27.77897 36.02891 31.90394
#
# Velocity S-wave (km/s) = 3.50233 3.98863 3.75336
# Velocity P-wave (km/s) = 5.71418 6.84541 6.30522
#
# Compressibility (1/GPa) = 0.02709536
#
# Stress axis : x y z
#
# Youngs Moduli (GPa) = 120.37410 32.48602 109.27194
#
# Poissons Ratio (x) = 0.13896 0.18700
# Poissons Ratio (y) = 0.51489 0.50094
# Poissons Ratio (z) = 0.20600 0.14893
#
# Static dielectric constant tensor:
#      x y z
#    x 4.391650 0.000000 0.101100 
#    y 0.000000 3.739780 0.000000 
#    z 0.101100 0.000000 4.449240 
# 
# 
# High freq. dielectric constant tensor:
#      x y z
#    x 1.908430 0.000000 0.015420 
#    y 0.000000 1.865640 0.000000 
#    z 0.015420 0.000000 1.901810 
# 
# From -- ./inp_files/29173.got.cif
#   From: 2010.03.12/outbox.cif.g09.slc.cpg/sg5_15_cif.got.tgz:29173.got - 2010.03.31 09:47:26.
