data_PCOD8050961
_publ_section_title
;
Structure prediction by ZEFSAII (Michael W. Deem and Ramdas Pophale) SiO2 
 PCOD8050961
Probable space group: C 2
;
_chemical_formula_sum "Si O2"
_cell_formula_units_Z 28
_cell_length_a 11.249838
_cell_length_b 8.447888
_cell_length_c 14.074837
_cell_angle_alpha 90.000000
_cell_angle_beta 117.265023
_cell_angle_gamma 90.000000
_cell_volume 1189.020269
_symmetry_space_group_name_H-M "C 2"
_symmetry_group_IT_number 5
_symmetry_cell_setting 'monoclinic'
loop_
_space_group_symop_operation_xyz
x,y,z
-x,y,-z
1/2+x,1/2+y,z
1/2-x,1/2+y,-z
loop_
_atom_site_type_symbol
_atom_site_label
_atom_site_fract_x
_atom_site_fract_y
_atom_site_fract_z
Si Si1 0.240283 0.277240 0.862984
Si Si2 0.043032 0.407172 0.316304
Si Si3 0.000000 0.520537 0.500000
Si Si4 0.197442 0.474701 0.015148
Si Si5 0.000000 0.211363 0.000000
Si Si6 0.446775 0.458858 0.821848
Si Si7 0.251438 0.175713 0.318518
Si Si8 0.909217 0.677735 0.188526
O O1 0.232066 0.089688 0.882462
O O2 0.356013 0.317629 0.831409
O O3 0.091273 0.324768 0.774744
O O4 0.289626 0.382648 0.972282
O O5 0.041088 0.401920 0.429993
O O6 0.181484 0.338485 0.325869
O O7 0.036783 0.592942 0.284840
O O8 0.120488 0.638956 0.570872
O O9 0.125776 0.329722 0.043329
O O10 0.105864 0.590210 0.917953
O O11 0.998892 0.100223 0.091753
O O12 0.359946 0.539461 0.706616
O O13 0.571563 0.365973 0.820730
O O14 0.284406 0.166919 0.216870
#
# Coordination Sequence:
#
# PCOD8050961 Si02
#       8
#     4   4   2   4   2   4   4   4
#     4  11  22  41  68 101 142 193 239 296 358 421
#     4  10  23  48  73 106 142 185 239 301 363 436
#     4  10  22  48  76 102 146 178 236 310 372 414
#     4  11  22  41  62  99 147 193 245 290 342 427
#     4  12  26  40  66 102 146 202 246 292 348 420
#     4  12  22  44  69 100 143 190 236 297 356 419
#     4  11  24  47  72 103 140 185 240 302 360 434
#     4  10  23  45  68 102 142 189 239 295 353 422
#
# _framework density 23.5488
#
# number of rings (size 3 to 8) (size 9 to 14) (size 15 to 20)
#    0.000    1.143    4.286    4.286    0.000    3.429 
#    5.143    0.000    0.000    0.000    0.000    0.000 
#    0.000    0.000    0.000    0.000    0.000    0.000 
#
# Total GULP energy -173465.465394 kJ/mol
# GULP energy per Si atom -12390.390385 kJ/mol
# Density = 2.349520 g / cm^3
# Si number density = 23.548800 Si / 1000 Ang^3
#
#
#
# Elastic Constant Matrix: (Units=GPa)
#
#
# Indices 1 2 3 4 5 6 
#
# 1 62.8250 42.5354 14.9998 0.0000 1.7713 0.0000
# 2 42.5354 161.4389 56.6643 0.0000 -1.2778 0.0000
# 3 14.9998 56.6643 96.3766 0.0000 2.4568 0.0000
# 4 0.0000 0.0000 0.0000 26.8363 0.0000 5.0418
# 5 1.7713 -1.2778 2.4568 0.0000 29.6292 0.0000
# 6 0.0000 0.0000 0.0000 5.0418 0.0000 61.3744
#
#
#
# Elastic Compliance Matrix: (Units=1/GPa)
#
#
# Indices 1 2 3 4 5 6 
#
# 1 0.019430 -0.005142 0.000035 0.000000 -0.001386 0.000000
# 2 -0.005142 0.009181 -0.004625 0.000000 0.001087 0.000000
# 3 0.000035 -0.004625 0.013123 0.000000 -0.001290 0.000000
# 4 0.000000 0.000000 0.000000 0.037847 0.000000 -0.003109
# 5 -0.001386 0.001087 -0.001290 0.000000 0.033987 0.000000
# 6 0.000000 0.000000 0.000000 -0.003109 0.000000 0.016549
#
#
# Mechanical properties :
#
#
# Convention : Reuss Voigt Hill
#
# Bulk Modulus (GPa) = 44.90798 61.00440 52.95619
# Shear Modulus (GPa) = 31.84595 37.33071 34.58833
#
# Velocity S-wave (km/s) = 3.68141 3.98584 3.83664
# Velocity P-wave (km/s) = 6.09770 6.86617 6.49331
#
# Compressibility (1/GPa) = 0.02226776
#
# Stress axis : x y z
#
# Youngs Moduli (GPa) = 51.46765 108.91649 76.20240
#
# Poissons Ratio (x) = 0.56010 -0.00266
# Poissons Ratio (y) = 0.26467 0.35247
# Poissons Ratio (z) = -0.00179 0.50379
#
# Static dielectric constant tensor:
#      x y z
#    x 4.506450 0.000000 -0.132840 
#    y 0.000000 4.574310 0.000000 
#    z -0.132840 0.000000 4.186050 
# 
# 
# High freq. dielectric constant tensor:
#      x y z
#    x 1.934250 0.000000 0.007930 
#    y 0.000000 1.947550 0.000000 
#    z 0.007930 0.000000 1.907590 
# 
# From -- ./inp_files/52353.got.cif
#   From: 2010.03.12/outbox.cif.g09.slc.cpg/sg5_27_cif.got.tgz:52353.got - 2010.03.31 09:47:26.
