data_PCOD8050378
_publ_section_title
;
Structure prediction by ZEFSAII (Michael W. Deem and Ramdas Pophale) SiO2 
 PCOD8050378
Probable space group: C 2
;
_chemical_formula_sum "Si O2"
_cell_formula_units_Z 30
_cell_length_a 8.977216
_cell_length_b 23.317196
_cell_length_c 11.747411
_cell_angle_alpha 90.000000
_cell_angle_beta 36.870362
_cell_angle_gamma 90.000000
_cell_volume 1475.421490
_symmetry_space_group_name_H-M "C 2"
_symmetry_group_IT_number 5
_symmetry_cell_setting 'monoclinic'
loop_
_space_group_symop_operation_xyz
x,y,z
-x,y,-z
1/2+x,1/2+y,z
1/2-x,1/2+y,-z
loop_
_atom_site_type_symbol
_atom_site_label
_atom_site_fract_x
_atom_site_fract_y
_atom_site_fract_z
Si Si1 0.462436 0.198000 0.894806
Si Si2 0.863245 0.301897 0.266949
Si Si3 0.361659 0.309703 0.828227
Si Si4 0.264782 0.076622 0.783037
Si Si5 0.263909 0.609399 0.584801
Si Si6 0.315365 0.874472 0.521463
Si Si7 0.500000 0.984158 0.500000
Si Si8 0.083619 0.169883 0.737718
O O1 0.480112 0.250403 0.797105
O O2 0.686915 0.156571 0.724982
O O3 0.500000 0.220898 0.000000
O O4 0.200574 0.163969 0.044187
O O5 0.649343 0.306568 0.303174
O O6 0.841392 0.346617 0.382002
O O7 0.860598 0.236903 0.313141
O O8 0.109768 0.319739 0.048647
O O9 0.542518 0.363227 0.740584
O O10 0.513401 0.072875 0.710465
O O11 0.258123 0.139370 0.726316
O O12 0.285813 0.024592 0.681127
O O13 0.000000 0.064408 0.000000
O O14 0.500000 0.575825 0.500000
O O15 0.372080 0.637437 0.405714
O O16 0.500000 0.844699 0.500000
O O17 0.370831 0.942973 0.483281
#
# Coordination Sequence:
#
# PCOD8050378 Si02
#       8
#     4   4   4   4   4   4   2   4
#     4  11  22  34  58  99 142 184 218 273 342 427
#     4  10  22  39  63 101 136 178 218 275 341 421
#     4  10  22  37  62  93 136 175 220 270 344 403
#     4  12  24  44  71  95 132 182 235 287 341 417
#     4  12  23  37  60  95 136 177 219 275 342 403
#     4  10  24  41  65  93 127 169 233 284 335 388
#     4  10  26  46  68  98 122 182 250 284 332 398
#     4  11  22  38  64  96 141 174 225 268 346 426
#
# _framework density 20.333172000000001
#
# number of rings (size 3 to 8) (size 9 to 14) (size 15 to 20)
#    0.400    0.800    4.000    2.000    5.600    3.200 
#    0.000    1.333    0.000    0.000    0.000    0.000 
#    0.000    0.000    0.000    0.000    0.000    0.000 
#
# Total GULP energy -185862.017825 kJ/mol
# GULP energy per Si atom -12390.801188 kJ/mol
# Density = 2.028689 g / cm^3
# Si number density = 20.333172 Si / 1000 Ang^3
#
#
#
# Elastic Constant Matrix: (Units=GPa)
#
#
# Indices 1 2 3 4 5 6 
#
# 1 131.3421 36.2204 40.0261 0.0000 -5.1350 0.0000
# 2 36.2204 97.1917 44.2717 0.0000 1.6530 0.0000
# 3 40.0261 44.2717 78.9198 0.0000 3.3151 0.0000
# 4 0.0000 0.0000 0.0000 18.9169 0.0000 -1.0085
# 5 -5.1350 1.6530 3.3151 0.0000 39.4002 0.0000
# 6 0.0000 0.0000 0.0000 -1.0085 0.0000 28.3416
#
#
#
# Elastic Compliance Matrix: (Units=1/GPa)
#
#
# Indices 1 2 3 4 5 6 
#
# 1 0.009324 -0.001769 -0.003804 0.000000 0.001609 0.000000
# 2 -0.001769 0.014156 -0.007034 0.000000 -0.000233 0.000000
# 3 -0.003804 -0.007034 0.018620 0.000000 -0.001767 0.000000
# 4 0.000000 0.000000 0.000000 0.052963 0.000000 0.001885
# 5 0.001609 -0.000233 -0.001767 0.000000 0.025749 0.000000
# 6 0.000000 0.000000 0.000000 0.001885 0.000000 0.035351
#
#
# Mechanical properties :
#
#
# Convention : Reuss Voigt Hill
#
# Bulk Modulus (GPa) = 59.22087 60.94333 60.08210
# Shear Modulus (GPa) = 26.73699 29.79413 28.26556
#
# Velocity S-wave (km/s) = 3.63015 3.83207 3.73248
# Velocity P-wave (km/s) = 6.83807 7.04394 6.94177
#
# Compressibility (1/GPa) = 0.01688594
#
# Stress axis : x y z
#
# Youngs Moduli (GPa) = 107.25278 70.63925 53.70430
#
# Poissons Ratio (x) = 0.12499 0.20428
# Poissons Ratio (y) = 0.18977 0.37777
# Poissons Ratio (z) = 0.40797 0.49689
#
# Static dielectric constant tensor:
#      x y z
#    x 3.936040 0.000000 -0.128620 
#    y 0.000000 3.312760 0.000000 
#    z -0.128620 0.000000 3.887840 
# 
# 
# High freq. dielectric constant tensor:
#      x y z
#    x 1.804300 0.000000 -0.005040 
#    y 0.000000 1.750240 0.000000 
#    z -0.005040 0.000000 1.816240 
# 
# From -- ./inp_files/37538.got.cif
#   From: 2010.03.12/outbox.cif.g09.slc.cpg/sg5_19_cif.got.tgz:37538.got - 2010.03.31 09:47:26.
