data_PCOD8050849
_publ_section_title
;
Structure prediction by ZEFSAII (Michael W. Deem and Ramdas Pophale) SiO2 
 PCOD8050849
Probable space group: C 2
;
_chemical_formula_sum "Si O2"
_cell_formula_units_Z 28
_cell_length_a 11.526461
_cell_length_b 8.293764
_cell_length_c 14.253837
_cell_angle_alpha 90.000000
_cell_angle_beta 113.383860
_cell_angle_gamma 90.000000
_cell_volume 1250.716701
_symmetry_space_group_name_H-M "C 2"
_symmetry_group_IT_number 5
_symmetry_cell_setting 'monoclinic'
loop_
_space_group_symop_operation_xyz
x,y,z
-x,y,-z
1/2+x,1/2+y,z
1/2-x,1/2+y,-z
loop_
_atom_site_type_symbol
_atom_site_label
_atom_site_fract_x
_atom_site_fract_y
_atom_site_fract_z
Si Si1 0.731511 0.753610 0.424152
Si Si2 0.000000 0.028039 0.000000
Si Si3 0.500000 0.222393 0.500000
Si Si4 0.763771 0.387155 0.374137
Si Si5 0.591164 0.080665 0.884149
Si Si6 0.002421 0.477456 0.343296
Si Si7 0.352108 0.268034 0.845430
Si Si8 0.314371 0.742905 0.044092
O O1 0.871122 0.819752 0.432699
O O2 0.717303 0.567813 0.386623
O O3 0.726422 0.769584 0.534465
O O4 0.618507 0.863893 0.345500
O O5 0.933100 0.131655 0.059026
O O6 0.108630 0.928098 0.086119
O O7 0.552409 0.117420 0.428610
O O8 0.901374 0.379469 0.371770
O O9 0.666561 0.308002 0.269798
O O10 0.459776 0.133800 0.888474
O O11 0.573077 0.051263 0.768108
O O12 0.639373 0.924723 0.954420
O O13 0.696268 0.219254 0.934702
O O14 0.227521 0.206665 0.861030
#
# Coordination Sequence:
#
# PCOD8050849 Si02
#       8
#     4   2   2   4   4   4   4   4
#     4  11  22  44  71 102 143 192 239 296 359 430
#     4  12  26  44  72 104 146 186 234 302 364 432
#     4  10  22  44  68  98 144 184 228 304 346 428
#     4  11  24  44  73 101 144 190 242 299 365 423
#     4  12  25  46  76 101 145 194 243 303 369 427
#     4  11  21  45  70 101 142 188 237 299 359 422
#     4  12  25  47  69 104 145 187 241 308 357 439
#     4  12  25  47  70 104 144 189 240 298 362 434
#
# _framework density 22.387165
#
# number of rings (size 3 to 8) (size 9 to 14) (size 15 to 20)
#    0.000    0.571    7.143    0.857    4.000    0.000 
#    2.571    1.429    0.000    0.000    0.000    0.000 
#    0.000    0.000    0.000    0.000    0.000    0.000 
#
# Total GULP energy -173554.442025 kJ/mol
# GULP energy per Si atom -12396.745859 kJ/mol
# Density = 2.233621 g / cm^3
# Si number density = 22.387165 Si / 1000 Ang^3
#
#
#
# Elastic Constant Matrix: (Units=GPa)
#
#
# Indices 1 2 3 4 5 6 
#
# 1 141.0495 58.1497 20.7420 0.0000 -9.6472 0.0000
# 2 58.1497 84.5519 48.9242 0.0000 -1.8329 0.0000
# 3 20.7420 48.9242 132.3990 0.0000 0.6753 0.0000
# 4 0.0000 0.0000 0.0000 39.8150 0.0000 1.2807
# 5 -9.6472 -1.8329 0.6753 0.0000 31.0077 0.0000
# 6 0.0000 0.0000 0.0000 1.2807 0.0000 35.3585
#
#
#
# Elastic Compliance Matrix: (Units=1/GPa)
#
#
# Indices 1 2 3 4 5 6 
#
# 1 0.010278 -0.007721 0.001229 0.000000 0.002714 0.000000
# 2 -0.007721 0.020875 -0.006499 0.000000 -0.001027 0.000000
# 3 0.001229 -0.006499 0.009763 0.000000 -0.000214 0.000000
# 4 0.000000 0.000000 0.000000 0.025145 0.000000 -0.000911
# 5 0.002714 -0.001027 -0.000214 0.000000 0.033039 0.000000
# 6 0.000000 0.000000 0.000000 -0.000911 0.000000 0.028315
#
#
# Mechanical properties :
#
#
# Convention : Reuss Voigt Hill
#
# Bulk Modulus (GPa) = 66.95949 68.18134 67.57042
# Shear Modulus (GPa) = 31.57090 36.58188 34.07639
#
# Velocity S-wave (km/s) = 3.75937 4.04673 3.90569
# Velocity P-wave (km/s) = 6.98702 7.23577 7.11248
#
# Compressibility (1/GPa) = 0.01493440
#
# Stress axis : x y z
#
# Youngs Moduli (GPa) = 97.29952 47.90413 102.42747
#
# Poissons Ratio (x) = 0.36985 -0.12588
# Poissons Ratio (y) = 0.75120 0.66568
# Poissons Ratio (z) = -0.11958 0.31133
#
# Static dielectric constant tensor:
#      x y z
#    x 4.325910 0.000000 0.050790 
#    y 0.000000 3.910010 0.000000 
#    z 0.050790 0.000000 4.183550 
# 
# 
# High freq. dielectric constant tensor:
#      x y z
#    x 1.902450 0.000000 0.005380 
#    y 0.000000 1.860420 0.000000 
#    z 0.005380 0.000000 1.882960 
# 
# From -- ./inp_files/52249.got.cif
#   From: 2010.03.12/outbox.cif.g09.slc.cpg/sg5_27_cif.got.tgz:52249.got - 2010.03.31 09:47:26.
