data_PCOD8050673
_publ_section_title
;
Structure prediction by ZEFSAII (Michael W. Deem and Ramdas Pophale) SiO2 
 PCOD8050673
Probable space group: C 2
;
_chemical_formula_sum "Si O2"
_cell_formula_units_Z 30
_cell_length_a 22.643198
_cell_length_b 9.297378
_cell_length_c 7.818004
_cell_angle_alpha 90.000000
_cell_angle_beta 58.795004
_cell_angle_gamma 90.000000
_cell_volume 1407.739525
_symmetry_space_group_name_H-M "C 2"
_symmetry_group_IT_number 5
_symmetry_cell_setting 'monoclinic'
loop_
_space_group_symop_operation_xyz
x,y,z
-x,y,-z
1/2+x,1/2+y,z
1/2-x,1/2+y,-z
loop_
_atom_site_type_symbol
_atom_site_label
_atom_site_fract_x
_atom_site_fract_y
_atom_site_fract_z
Si Si1 0.174349 0.731300 0.061710
Si Si2 0.968256 0.500537 0.217390
Si Si3 0.000000 0.015619 0.500000
Si Si4 0.303447 0.902356 0.990743
Si Si5 0.692030 0.252544 0.656676
Si Si6 0.816121 0.427001 0.357634
Si Si7 0.415478 0.271149 0.479450
Si Si8 0.446507 0.794260 0.713554
O O1 0.203186 0.571079 0.027255
O O2 0.111617 0.745491 0.287206
O O3 0.233701 0.838887 0.025852
O O4 0.152207 0.769005 0.899037
O O5 0.893722 0.424107 0.313524
O O6 0.962157 0.633204 0.359950
O O7 0.025664 0.374893 0.159522
O O8 0.000000 0.574375 0.000000
O O9 0.041167 0.917880 0.573398
O O10 0.047501 0.119970 0.307867
O O11 0.368260 0.837959 0.789021
O O12 0.314251 0.858630 0.171823
O O13 0.764059 0.338472 0.556157
O O14 0.643587 0.302193 0.572708
O O15 0.712870 0.087936 0.598768
O O16 0.500000 0.866863 0.500000
#
# Coordination Sequence:
#
# PCOD8050673 Si02
#       8
#     4   4   2   4   4   4   4   4
#     4  11  26  41  70 102 132 186 220 293 346 410
#     4  11  23  43  74  99 134 183 239 282 348 419
#     4  10  28  42  68  94 144 182 218 294 346 410
#     4  11  23  42  67  97 137 173 234 277 347 410
#     4  10  24  41  66  99 136 171 227 276 348 402
#     4  10  22  42  63  98 132 174 220 285 333 410
#     4  11  25  47  67 100 138 180 237 285 346 415
#     4  10  24  43  64  99 134 183 225 283 347 412
#
# _framework density 21.310760999999999
#
# number of rings (size 3 to 8) (size 9 to 14) (size 15 to 20)
#    0.400    1.067    2.667    0.800   10.267    1.067 
#    0.000    2.000    0.000    0.000    0.000    0.000 
#    0.000    0.000    0.000    0.000    0.000    0.000 
#
# Total GULP energy -185901.267636 kJ/mol
# GULP energy per Si atom -12393.417842 kJ/mol
# Density = 2.126226 g / cm^3
# Si number density = 21.310761 Si / 1000 Ang^3
#
#
#
# Elastic Constant Matrix: (Units=GPa)
#
#
# Indices 1 2 3 4 5 6 
#
# 1 60.1419 30.8651 9.5500 0.0000 -0.7505 0.0000
# 2 30.8651 93.6655 20.5845 0.0000 2.5022 0.0000
# 3 9.5500 20.5845 107.3329 0.0000 4.8703 0.0000
# 4 0.0000 0.0000 0.0000 28.3840 0.0000 2.2391
# 5 -0.7505 2.5022 4.8703 0.0000 25.0445 0.0000
# 6 0.0000 0.0000 0.0000 2.2391 0.0000 27.6454
#
#
#
# Elastic Compliance Matrix: (Units=1/GPa)
#
#
# Indices 1 2 3 4 5 6 
#
# 1 0.020088 -0.006525 -0.000598 0.000000 0.001370 0.000000
# 2 -0.006525 0.013278 -0.001914 0.000000 -0.001150 0.000000
# 3 -0.000598 -0.001914 0.009816 0.000000 -0.001736 0.000000
# 4 0.000000 0.000000 0.000000 0.035458 0.000000 -0.002872
# 5 0.001370 -0.001150 -0.001736 0.000000 0.040422 0.000000
# 6 0.000000 0.000000 0.000000 -0.002872 0.000000 0.036405
#
#
# Mechanical properties :
#
#
# Convention : Reuss Voigt Hill
#
# Bulk Modulus (GPa) = 39.82747 42.57105 41.19926
# Shear Modulus (GPa) = 27.48633 29.55751 28.52192
#
# Velocity S-wave (km/s) = 3.59526 3.72825 3.66236
# Velocity P-wave (km/s) = 5.99700 6.20909 6.10397
#
# Compressibility (1/GPa) = 0.02510830
#
# Stress axis : x y z
#
# Youngs Moduli (GPa) = 49.78129 75.31493 101.87659
#
# Poissons Ratio (x) = 0.49140 0.06094
# Poissons Ratio (y) = 0.32480 0.19496
# Poissons Ratio (z) = 0.02978 0.14413
#
# Static dielectric constant tensor:
#      x y z
#    x 3.839390 0.000000 0.103650 
#    y 0.000000 3.751430 0.000000 
#    z 0.103650 0.000000 4.062580 
# 
# 
# High freq. dielectric constant tensor:
#      x y z
#    x 1.833180 0.000000 0.000640 
#    y 0.000000 1.830790 0.000000 
#    z 0.000640 0.000000 1.843780 
# 
# From -- ./inp_files/30678.got.cif
#   From: 2010.03.12/outbox.cif.g09.slc.cpg/sg5_16_cif.got.tgz:30678.got - 2010.03.31 09:47:26.
