data_PCOD8050579
_publ_section_title
;
Structure prediction by ZEFSAII (Michael W. Deem and Ramdas Pophale) SiO2 
 PCOD8050579
Probable space group: C 2
;
_chemical_formula_sum "Si O2"
_cell_formula_units_Z 30
_cell_length_a 30.471921
_cell_length_b 8.333801
_cell_length_c 17.931409
_cell_angle_alpha 90.000000
_cell_angle_beta 162.450813
_cell_angle_gamma 90.000000
_cell_volume 1373.029545
_symmetry_space_group_name_H-M "C 2"
_symmetry_group_IT_number 5
_symmetry_cell_setting 'monoclinic'
loop_
_space_group_symop_operation_xyz
x,y,z
-x,y,-z
1/2+x,1/2+y,z
1/2-x,1/2+y,-z
loop_
_atom_site_type_symbol
_atom_site_label
_atom_site_fract_x
_atom_site_fract_y
_atom_site_fract_z
Si Si1 0.949474 0.460390 0.338809
Si Si2 0.867092 0.195949 0.413094
Si Si3 0.925689 0.169086 0.127798
Si Si4 0.792315 0.759286 0.098751
Si Si5 0.343138 0.893109 0.562620
Si Si6 0.399458 0.180179 0.768589
Si Si7 0.000000 0.008458 0.500000
Si Si8 0.634855 0.396477 0.090152
O O1 0.868784 0.616456 0.175672
O O2 0.000000 0.523526 0.500000
O O3 0.075927 0.384877 0.493549
O O4 0.834129 0.315005 0.162082
O O5 0.698943 0.228358 0.158916
O O6 0.953424 0.099683 0.617817
O O7 0.890770 0.116442 0.371677
O O8 0.998918 0.325741 0.208135
O O9 0.778516 0.214016 0.935311
O O10 0.881977 0.037429 0.996789
O O11 0.906539 0.901434 0.292881
O O12 0.259642 0.741766 0.464482
O O13 0.239756 0.955787 0.327532
O O14 0.375286 0.037665 0.670917
O O15 0.500000 0.115807 0.000000
O O16 0.476260 0.340102 0.859775
#
# Coordination Sequence:
#
# PCOD8050579 Si02
#       8
#     4   4   4   4   4   4   2   4
#     4  11  21  41  60  83 118 163 213 266 317 365
#     4  10  23  40  61  87 126 166 214 267 308 366
#     4  10  22  41  59  91 127 161 207 256 309 371
#     4  11  24  39  62  88 122 167 216 266 319 374
#     4  10  22  41  65  97 125 157 203 244 303 377
#     4  10  22  41  68  95 124 159 196 246 305 372
#     4  12  24  40  60  94 124 170 228 266 316 378
#     4  10  22  42  63  88 128 164 198 253 312 362
#
# _framework density 21.849494
#
# number of rings (size 3 to 8) (size 9 to 14) (size 15 to 20)
#    0.000    1.600    1.333    3.200    1.867    1.067 
#    2.400    0.000    0.000    0.000    0.000    0.000 
#    0.000    0.000    0.000    0.000    0.000    0.000 
#
# Total GULP energy -185857.710733 kJ/mol
# GULP energy per Si atom -12390.514049 kJ/mol
# Density = 2.179976 g / cm^3
# Si number density = 21.849494 Si / 1000 Ang^3
#
#
#
# Elastic Constant Matrix: (Units=GPa)
#
#
# Indices 1 2 3 4 5 6 
#
# 1 72.2755 39.0132 18.8919 0.0000 -5.0022 0.0000
# 2 39.0132 87.5146 22.2536 0.0000 -11.2151 0.0000
# 3 18.8919 22.2536 57.9015 0.0000 -6.7583 0.0000
# 4 0.0000 0.0000 0.0000 32.8922 0.0000 -7.9907
# 5 -5.0022 -11.2151 -6.7583 0.0000 35.9899 0.0000
# 6 0.0000 0.0000 0.0000 -7.9907 0.0000 39.4951
#
#
#
# Elastic Compliance Matrix: (Units=1/GPa)
#
#
# Indices 1 2 3 4 5 6 
#
# 1 0.018751 -0.007580 -0.003247 0.000000 -0.000366 0.000000
# 2 -0.007580 0.016076 -0.003316 0.000000 0.003333 0.000000
# 3 -0.003247 -0.003316 0.019867 0.000000 0.002246 0.000000
# 4 0.000000 0.000000 0.000000 0.031974 0.000000 0.006469
# 5 -0.000366 0.003333 0.002246 0.000000 0.029195 0.000000
# 6 0.000000 0.000000 0.000000 0.006469 0.000000 0.026628
#
#
# Mechanical properties :
#
#
# Convention : Reuss Voigt Hill
#
# Bulk Modulus (GPa) = 37.86946 42.00098 39.93522
# Shear Modulus (GPa) = 27.84242 30.84430 29.34336
#
# Velocity S-wave (km/s) = 3.57358 3.76130 3.66864
# Velocity P-wave (km/s) = 5.86489 6.17477 6.02182
#
# Compressibility (1/GPa) = 0.02640651
#
# Stress axis : x y z
#
# Youngs Moduli (GPa) = 53.33009 62.20332 50.33474
#
# Poissons Ratio (x) = 0.47151 0.16346
# Poissons Ratio (y) = 0.40425 0.16693
# Poissons Ratio (z) = 0.17318 0.20629
#
# Static dielectric constant tensor:
#      x y z
#    x 4.036160 0.000000 0.179560 
#    y 0.000000 3.721070 0.000000 
#    z 0.179560 0.000000 4.161920 
# 
# 
# High freq. dielectric constant tensor:
#      x y z
#    x 1.857890 0.000000 0.004260 
#    y 0.000000 1.841800 0.000000 
#    z 0.004260 0.000000 1.870380 
# 
# From -- ./inp_files/63808.got.cif
#   From: 2010.03.12/outbox.cif.g09.slc.cpg/sg5_32_cif.got.tgz:63808.got - 2010.03.31 09:47:26.
