data_PCOD8050427
_publ_section_title
;
Structure prediction by ZEFSAII (Michael W. Deem and Ramdas Pophale) SiO2 
 PCOD8050427
Probable space group: C 2
;
_chemical_formula_sum "Si O2"
_cell_formula_units_Z 28
_cell_length_a 16.900699
_cell_length_b 5.856204
_cell_length_c 14.639420
_cell_angle_alpha 90.000000
_cell_angle_beta 67.846865
_cell_angle_gamma 90.000000
_cell_volume 1341.960766
_symmetry_space_group_name_H-M "C 2"
_symmetry_group_IT_number 5
_symmetry_cell_setting 'monoclinic'
loop_
_space_group_symop_operation_xyz
x,y,z
-x,y,-z
1/2+x,1/2+y,z
1/2-x,1/2+y,-z
loop_
_atom_site_type_symbol
_atom_site_label
_atom_site_fract_x
_atom_site_fract_y
_atom_site_fract_z
Si Si1 0.500000 0.421520 0.000000
Si Si2 0.500000 0.046446 0.500000
Si Si3 0.705986 0.539119 0.498968
Si Si4 0.455649 0.720830 0.858138
Si Si5 0.033195 0.198505 0.636692
Si Si6 0.138372 0.603752 0.003105
Si Si7 0.622669 0.394733 0.359221
Si Si8 0.195839 0.905766 0.137101
O O1 0.491050 0.559800 0.097769
O O2 0.588831 0.285587 0.963353
O O3 0.582192 0.180991 0.428375
O O4 0.542321 0.909802 0.564722
O O5 0.748230 0.289213 0.505147
O O6 0.618714 0.546383 0.595967
O O7 0.685198 0.531573 0.399899
O O8 0.516820 0.784720 0.746871
O O9 0.367628 0.610339 0.861444
O O10 0.434865 0.942539 0.925425
O O11 0.954180 0.053227 0.637182
O O12 0.188827 0.702615 0.067896
O O13 0.206118 0.485873 0.906720
O O14 0.675397 0.312787 0.247373
#
# Coordination Sequence:
#
# PCOD8050427 Si02
#       8
#     2   2   4   4   4   4   4   4
#     4  10  24  40  64  90 138 172 208 268 338 410
#     4  12  18  40  72  94 132 166 242 288 324 404
#     4  12  26  46  65 101 148 176 222 291 356 413
#     4  10  22  42  65  96 127 171 226 267 337 401
#     4  11  23  42  71  93 125 184 230 280 331 418
#     4  11  20  43  63  94 133 166 215 278 329 400
#     4  11  23  42  67  96 127 178 232 275 340 410
#     4  10  22  38  68  97 122 170 223 280 331 387
#
# _framework density 20.864991
#
# number of rings (size 3 to 8) (size 9 to 14) (size 15 to 20)
#    0.000    1.143    4.286    2.143    0.000    1.143 
#    5.143    0.000    0.000    0.000    0.000    0.000 
#    0.000    0.000    0.000    0.000    0.000    0.000 
#
# Total GULP energy -173542.748678 kJ/mol
# GULP energy per Si atom -12395.910620 kJ/mol
# Density = 2.081750 g / cm^3
# Si number density = 20.864991 Si / 1000 Ang^3
#
#
#
# Elastic Constant Matrix: (Units=GPa)
#
#
# Indices 1 2 3 4 5 6 
#
# 1 109.6365 47.0186 64.8415 0.0006 3.6822 -0.0015
# 2 47.0186 110.3293 55.1402 0.0028 2.3490 -0.0086
# 3 64.8415 55.1402 168.6820 0.0002 4.9952 -0.0010
# 4 0.0006 0.0028 0.0002 20.2548 0.0000 -25.6935
# 5 3.6822 2.3490 4.9952 0.0000 6.9349 0.0003
# 6 -0.0015 -0.0086 -0.0010 -25.6935 0.0003 40.1745
#
#
#
# Elastic Compliance Matrix: (Units=1/GPa)
#
#
# Indices 1 2 3 4 5 6 
#
# 1 0.012966 -0.003604 -0.003717 -0.000002 -0.002986 -0.000001
# 2 -0.003604 0.011844 -0.002477 0.000008 -0.000314 0.000007
# 3 -0.003717 -0.002477 0.008260 -0.000001 -0.003137 -0.000001
# 4 -0.000002 0.000008 -0.000001 0.261598 -0.000007 0.167304
# 5 -0.002986 -0.000314 -0.003137 -0.000007 0.148150 -0.000006
# 6 -0.000001 0.000007 -0.000001 0.167304 -0.000006 0.131890
#
#
# Mechanical properties :
#
#
# Convention : Reuss Voigt Hill
#
# Bulk Modulus (GPa) = 74.22397 80.29427 77.25912
# Shear Modulus (GPa) = 8.35009 28.24934 18.29971
#
# Velocity S-wave (km/s) = 2.00266 3.68354 2.96472
# Velocity P-wave (km/s) = 6.40298 7.52713 6.98770
#
# Compressibility (1/GPa) = 0.01347274
#
# Stress axis : x y z
#
# Youngs Moduli (GPa) = 77.12768 84.42832 121.06647
#
# Poissons Ratio (x) = 0.30428 0.45006
# Poissons Ratio (y) = 0.27797 0.29989
# Poissons Ratio (z) = 0.28672 0.20914
#
# Static dielectric constant tensor:
#      x y z
#    x 3.798720 0.000000 0.092910 
#    y 0.000000 3.922150 -0.000010 
#    z 0.092910 -0.000010 3.970950 
# 
# 
# High freq. dielectric constant tensor:
#      x y z
#    x 1.815990 0.000000 0.002240 
#    y 0.000000 1.818240 0.000000 
#    z 0.002240 0.000000 1.822810 
# 
# From -- ./inp_files/55259.got.cif
#   From: 2010.03.12/outbox.cif.g09.slc.cpg/sg5_28_cif.got.tgz:55259.got - 2010.03.31 09:47:26.
