data_PCOD8050605
_publ_section_title
;
Structure prediction by ZEFSAII (Michael W. Deem and Ramdas Pophale) SiO2 
 PCOD8050605
Probable space group: C 2
;
_chemical_formula_sum "Si O2"
_cell_formula_units_Z 26
_cell_length_a 5.099257
_cell_length_b 14.091414
_cell_length_c 19.545764
_cell_angle_alpha 90.000000
_cell_angle_beta 112.600637
_cell_angle_gamma 90.000000
_cell_volume 1296.620006
_symmetry_space_group_name_H-M "C 2"
_symmetry_group_IT_number 5
_symmetry_cell_setting 'monoclinic'
loop_
_space_group_symop_operation_xyz
x,y,z
-x,y,-z
1/2+x,1/2+y,z
1/2-x,1/2+y,-z
loop_
_atom_site_type_symbol
_atom_site_label
_atom_site_fract_x
_atom_site_fract_y
_atom_site_fract_z
Si Si1 0.000000 0.752131 0.000000
Si Si2 0.881344 0.191493 0.413252
Si Si3 0.618122 0.311677 0.586706
Si Si4 0.746109 0.501875 0.677613
Si Si5 0.545649 0.688834 0.860075
Si Si6 0.980272 0.803712 0.143821
Si Si7 0.388759 0.498105 0.774303
O O1 0.734781 0.686746 0.948835
O O2 0.096652 0.816935 0.944891
O O3 0.622510 0.265592 0.389959
O O4 0.000000 0.168442 0.500000
O O5 0.122220 0.237852 0.390111
O O6 0.771556 0.093967 0.371247
O O7 0.500000 0.334326 0.500000
O O8 0.719508 0.409929 0.628072
O O9 0.492405 0.505423 0.706806
O O10 0.049421 0.499176 0.745175
O O11 0.243291 0.736541 0.841136
O O12 0.511706 0.582689 0.831539
O O13 0.713925 0.750982 0.819608
O O14 0.982429 0.903786 0.180408
#
# Coordination Sequence:
#
# PCOD8050605 Si02
#       7
#     2   4   4   4   4   4   4
#     4   8  22  44  66  88 116 160 202 264 306 336
#     4  10  22  41  65  92 122 165 213 255 298 352
#     4  10  22  41  65  92 122 165 213 255 298 352
#     4  12  25  40  61  94 128 167 202 249 310 364
#     4  10  22  43  62  90 121 155 205 255 303 365
#     4  10  22  43  62  90 121 155 205 255 303 365
#     4  12  26  40  62  94 126 167 200 243 320 372
#
# _framework density 20.052136000000001
#
# number of rings (size 3 to 8) (size 9 to 14) (size 15 to 20)
#    0.923    0.615    0.000    4.615    0.000    7.385 
#    5.538    6.154    0.000    0.000    0.000    0.000 
#    0.000    0.000    0.000    0.000    0.000    0.000 
#
# Total GULP energy -161198.200347 kJ/mol
# GULP energy per Si atom -12399.861565 kJ/mol
# Density = 2.000650 g / cm^3
# Si number density = 20.052136 Si / 1000 Ang^3
#
#
#
# Elastic Constant Matrix: (Units=GPa)
#
#
# Indices 1 2 3 4 5 6 
#
# 1 101.2541 9.7303 16.3157 0.0000 -3.5525 0.0000
# 2 9.7303 111.0477 52.1846 0.0000 2.7275 0.0000
# 3 16.3157 52.1846 68.3414 0.0000 4.7598 0.0000
# 4 0.0000 0.0000 0.0000 46.7568 0.0000 6.7413
# 5 -3.5525 2.7275 4.7598 0.0000 14.0115 0.0000
# 6 0.0000 0.0000 0.0000 6.7413 0.0000 26.7551
#
#
#
# Elastic Compliance Matrix: (Units=1/GPa)
#
#
# Indices 1 2 3 4 5 6 
#
# 1 0.010458 0.000447 -0.003090 0.000000 0.003614 0.000000
# 2 0.000447 0.014076 -0.010930 0.000000 0.001086 0.000000
# 3 -0.003090 -0.010930 0.024195 0.000000 -0.006875 0.000000
# 4 0.000000 0.000000 0.000000 0.022193 0.000000 -0.005592
# 5 0.003614 0.001086 -0.006875 0.000000 0.074410 0.000000
# 6 0.000000 0.000000 0.000000 -0.005592 0.000000 0.038785
#
#
# Mechanical properties :
#
#
# Convention : Reuss Voigt Hill
#
# Bulk Modulus (GPa) = 46.33404 48.56716 47.45060
# Shear Modulus (GPa) = 22.88768 30.99886 26.94327
#
# Velocity S-wave (km/s) = 3.38214 3.93608 3.66957
# Velocity P-wave (km/s) = 6.19748 6.70298 6.45518
#
# Compressibility (1/GPa) = 0.02158240
#
# Stress axis : x y z
#
# Youngs Moduli (GPa) = 95.62197 71.04353 41.33047
#
# Poissons Ratio (x) = -0.03174 0.12769
# Poissons Ratio (y) = -0.04272 0.45176
# Poissons Ratio (z) = 0.29543 0.77654
#
# Static dielectric constant tensor:
#      x y z
#    x 3.848190 0.000000 0.035010 
#    y 0.000000 3.495820 0.000000 
#    z 0.035010 0.000000 3.633570 
# 
# 
# High freq. dielectric constant tensor:
#      x y z
#    x 1.800340 0.000000 0.001590 
#    y 0.000000 1.781450 0.000000 
#    z 0.001590 0.000000 1.780340 
# 
# From -- ./inp_files/63966.got.cif
#   From: 2010.03.12/outbox.cif.g09.slc.cpg/sg5_32_cif.got.tgz:63966.got - 2010.03.31 09:47:26.
