data_PCOD8050784
_publ_section_title
;
Structure prediction by ZEFSAII (Michael W. Deem and Ramdas Pophale) SiO2 
 PCOD8050784
Probable space group: C 2
;
_chemical_formula_sum "Si O2"
_cell_formula_units_Z 32
_cell_length_a 32.043470
_cell_length_b 8.312600
_cell_length_c 12.938146
_cell_angle_alpha 90.000000
_cell_angle_beta 25.121660
_cell_angle_gamma 90.000000
_cell_volume 1463.082642
_symmetry_space_group_name_H-M "C 2"
_symmetry_group_IT_number 5
_symmetry_cell_setting 'monoclinic'
loop_
_space_group_symop_operation_xyz
x,y,z
-x,y,-z
1/2+x,1/2+y,z
1/2-x,1/2+y,-z
loop_
_atom_site_type_symbol
_atom_site_label
_atom_site_fract_x
_atom_site_fract_y
_atom_site_fract_z
Si Si1 0.492239 0.739670 0.397472
Si Si2 0.031434 0.523661 0.677848
Si Si3 0.719020 0.792464 0.574912
Si Si4 0.097074 0.610963 0.852983
Si Si5 0.795982 0.310751 0.612998
Si Si6 0.715683 0.614333 0.170493
Si Si7 0.831578 0.116524 0.104776
Si Si8 0.193258 0.741138 0.236728
O O1 0.500000 0.712697 0.500000
O O2 0.379434 0.721782 0.627090
O O3 0.519042 0.921757 0.301677
O O4 0.556858 0.611696 0.187764
O O5 0.104186 0.404945 0.579175
O O6 0.088032 0.678524 0.508749
O O7 0.942088 0.596713 0.943445
O O8 0.839381 0.773622 0.313191
O O9 0.680943 0.975273 0.647988
O O10 0.687150 0.717268 0.534162
O O11 0.667268 0.710420 0.788854
O O12 0.000000 0.599194 0.000000
O O13 0.748541 0.180286 0.798512
O O14 0.708730 0.438774 0.790173
O O15 0.688473 0.429194 0.228937
O O16 0.787302 0.650420 0.914824
O O17 0.773111 0.209954 0.145901
#
# Coordination Sequence:
#
# PCOD8050784 Si02
#       8
#     4   4   4   4   4   4   4   4
#     4  11  22  38  64  93 133 181 226 288 355 425
#     4  10  22  43  67  92 138 185 231 295 361 421
#     4  12  24  43  74 100 141 190 234 294 363 421
#     4  12  24  47  71 103 145 189 238 301 354 434
#     4  10  23  43  67  98 136 187 233 292 360 425
#     4  11  24  41  67  97 139 183 230 290 362 425
#     4  11  22  40  66  93 134 176 232 284 348 425
#     4  11  23  43  66  97 134 182 230 289 355 427
#
# _framework density 21.871627
#
# number of rings (size 3 to 8) (size 9 to 14) (size 15 to 20)
#    0.000    1.000    5.000    3.000    1.750    1.000 
#    0.000    1.250    0.000    0.000    0.000    0.000 
#    0.000    0.000    0.000    0.000    0.000    0.000 
#
# Total GULP energy -198257.079827 kJ/mol
# GULP energy per Si atom -12391.067489 kJ/mol
# Density = 2.182185 g / cm^3
# Si number density = 21.871627 Si / 1000 Ang^3
#
#
#
# Elastic Constant Matrix: (Units=GPa)
#
#
# Indices 1 2 3 4 5 6 
#
# 1 97.7854 24.2091 34.6167 0.0000 36.1200 0.0000
# 2 24.2091 73.6450 23.3940 0.0000 7.4302 0.0000
# 3 34.6167 23.3940 129.8863 0.0000 19.1590 0.0000
# 4 0.0000 0.0000 0.0000 35.0425 0.0000 1.2172
# 5 36.1200 7.4302 19.1590 0.0000 45.7686 0.0000
# 6 0.0000 0.0000 0.0000 1.2172 0.0000 28.7925
#
#
#
# Elastic Compliance Matrix: (Units=1/GPa)
#
#
# Indices 1 2 3 4 5 6 
#
# 1 0.015909 -0.003478 -0.001966 0.000000 -0.011167 0.000000
# 2 -0.003478 0.015240 -0.001980 0.000000 0.001100 0.000000
# 3 -0.001966 -0.001980 0.008850 0.000000 -0.001831 0.000000
# 4 0.000000 0.000000 0.000000 0.028579 0.000000 -0.001208
# 5 -0.011167 0.001100 -0.001831 0.000000 0.031250 0.000000
# 6 0.000000 0.000000 0.000000 -0.001208 0.000000 0.034782
#
#
# Mechanical properties :
#
#
# Convention : Reuss Voigt Hill
#
# Bulk Modulus (GPa) = 39.76259 51.75069 45.75664
# Shear Modulus (GPa) = 31.67724 36.52718 34.10221
#
# Velocity S-wave (km/s) = 3.80982 4.09108 3.95295
# Velocity P-wave (km/s) = 6.12963 6.78443 6.46532
#
# Compressibility (1/GPa) = 0.02514927
#
# Stress axis : x y z
#
# Youngs Moduli (GPa) = 62.85923 65.61624 112.99627
#
# Poissons Ratio (x) = 0.22824 0.22217
# Poissons Ratio (y) = 0.21865 0.22375
# Poissons Ratio (z) = 0.12359 0.12993
#
# Static dielectric constant tensor:
#      x y z
#    x 3.662290 0.000000 0.144870 
#    y 0.000000 3.782780 0.000000 
#    z 0.144870 0.000000 4.209480 
# 
# 
# High freq. dielectric constant tensor:
#      x y z
#    x 1.864630 0.000000 0.023230 
#    y 0.000000 1.842130 0.000000 
#    z 0.023230 0.000000 1.873140 
# 
# From -- ./inp_files/48381.got.cif
#   From: 2010.03.12/outbox.cif.g09.slc.cpg/sg5_25_cif.got.tgz:48381.got - 2010.03.31 09:47:26.
