data_PCOD8050668
_publ_section_title
;
Structure prediction by ZEFSAII (Michael W. Deem and Ramdas Pophale) SiO2 
 PCOD8050668
Probable space group: C 2
;
_chemical_formula_sum "Si O2"
_cell_formula_units_Z 24
_cell_length_a 8.790902
_cell_length_b 11.757143
_cell_length_c 10.983546
_cell_angle_alpha 90.000000
_cell_angle_beta 107.324138
_cell_angle_gamma 90.000000
_cell_volume 1083.715695
_symmetry_space_group_name_H-M "C 2"
_symmetry_group_IT_number 5
_symmetry_cell_setting 'monoclinic'
loop_
_space_group_symop_operation_xyz
x,y,z
-x,y,-z
1/2+x,1/2+y,z
1/2-x,1/2+y,-z
loop_
_atom_site_type_symbol
_atom_site_label
_atom_site_fract_x
_atom_site_fract_y
_atom_site_fract_z
Si Si1 0.029995 0.017830 0.274832
Si Si2 0.251469 0.658217 0.118074
Si Si3 0.000000 0.471620 0.500000
Si Si4 0.500000 0.367703 0.500000
Si Si5 0.670930 0.895930 0.767074
Si Si6 0.705114 0.167964 0.604608
Si Si7 0.075201 0.619693 0.836831
O O1 0.108788 0.140135 0.332662
O O2 0.874498 0.052546 0.159902
O O3 0.151348 0.940436 0.225514
O O4 0.976728 0.945730 0.377971
O O5 0.335822 0.775248 0.171916
O O6 0.107593 0.643718 0.177829
O O7 0.192008 0.672006 0.966016
O O8 0.950563 0.391514 0.376532
O O9 0.853543 0.559525 0.490772
O O10 0.659009 0.286539 0.527487
O O11 0.599252 0.984156 0.846841
O O12 0.615776 0.170322 0.714364
#
# Coordination Sequence:
#
# PCOD8050668 Si02
#       7
#     4   4   2   2   4   4   4
#     4  10  24  37  59  94 116 153 207 237 286 364
#     4  11  23  39  63  91 117 154 202 246 289 349
#     4   7  16  35  58  82 110 153 196 221 284 356
#     4  11  22  37  62  90 124 153 188 251 300 340
#     4  10  22  42  63  83 123 163 186 245 302 339
#     4   9  20  40  61  84 122 162 191 240 298 348
#     4   9  22  42  60  86 121 156 200 242 293 355
#
# _framework density 22.146028999999999
#
# number of rings (size 3 to 8) (size 9 to 14) (size 15 to 20)
#    0.000    2.667    0.000    1.000    0.000   19.333 
#    0.000    5.000    0.000    0.000    0.000    0.000 
#    0.000    0.000    0.000    0.000    0.000    0.000 
#
# Total GULP energy -148698.557112 kJ/mol
# GULP energy per Si atom -12391.546426 kJ/mol
# Density = 2.209562 g / cm^3
# Si number density = 22.146029 Si / 1000 Ang^3
#
#
#
# Elastic Constant Matrix: (Units=GPa)
#
#
# Indices 1 2 3 4 5 6 
#
# 1 36.3105 11.9990 22.4024 0.0000 21.1050 0.0000
# 2 11.9990 89.9011 40.5512 0.0000 -2.8620 0.0000
# 3 22.4024 40.5512 94.9784 0.0000 18.6503 0.0000
# 4 0.0000 0.0000 0.0000 29.5377 0.0000 -0.8755
# 5 21.1050 -2.8620 18.6503 0.0000 27.8085 0.0000
# 6 0.0000 0.0000 0.0000 -0.8755 0.0000 24.3974
#
#
#
# Elastic Compliance Matrix: (Units=1/GPa)
#
#
# Indices 1 2 3 4 5 6 
#
# 1 0.055512 -0.008133 -0.001364 0.000000 -0.042052 0.000000
# 2 -0.008133 0.015955 -0.007403 0.000000 0.012779 0.000000
# 3 -0.001364 -0.007403 0.016074 0.000000 -0.010508 0.000000
# 4 0.000000 0.000000 0.000000 0.033891 0.000000 0.001216
# 5 -0.042052 0.012779 -0.010508 0.000000 0.076238 0.000000
# 6 0.000000 0.000000 0.000000 0.001216 0.000000 0.041032
#
#
# Mechanical properties :
#
#
# Convention : Reuss Voigt Hill
#
# Bulk Modulus (GPa) = 18.60741 41.23279 29.92010
# Shear Modulus (GPa) = 17.21679 26.09789 21.65734
#
# Velocity S-wave (km/s) = 2.79125 3.43657 3.13059
# Velocity P-wave (km/s) = 4.33688 5.86564 5.15821
#
# Compressibility (1/GPa) = 0.05374203
#
# Stress axis : x y z
#
# Youngs Moduli (GPa) = 18.01428 62.67662 62.21065
#
# Poissons Ratio (x) = 0.50973 0.08483
# Poissons Ratio (y) = 0.14650 0.46055
# Poissons Ratio (z) = 0.02456 0.46400
#
# Static dielectric constant tensor:
#      x y z
#    x 3.872580 0.000000 0.258890 
#    y 0.000000 3.947780 0.000000 
#    z 0.258890 0.000000 4.066520 
# 
# 
# High freq. dielectric constant tensor:
#      x y z
#    x 1.855720 0.000000 0.020540 
#    y 0.000000 1.868700 0.000000 
#    z 0.020540 0.000000 1.872640 
# 
# From -- ./inp_files/35500.got.cif
#   From: 2010.03.12/outbox.cif.g09.slc.cpg/sg5_18_cif.got.tgz:35500.got - 2010.03.31 09:47:26.
