data_PCOD8050179
_publ_section_title
;
Structure prediction by ZEFSAII (Michael W. Deem and Ramdas Pophale) SiO2 
 PCOD8050179
Probable space group: C 2
;
_chemical_formula_sum "Si O2"
_cell_formula_units_Z 26
_cell_length_a 15.429573
_cell_length_b 10.058586
_cell_length_c 10.318821
_cell_angle_alpha 90.000000
_cell_angle_beta 47.144867
_cell_angle_gamma 90.000000
_cell_volume 1174.004501
_symmetry_space_group_name_H-M "C 2"
_symmetry_group_IT_number 5
_symmetry_cell_setting 'monoclinic'
loop_
_space_group_symop_operation_xyz
x,y,z
-x,y,-z
1/2+x,1/2+y,z
1/2-x,1/2+y,-z
loop_
_atom_site_type_symbol
_atom_site_label
_atom_site_fract_x
_atom_site_fract_y
_atom_site_fract_z
Si Si1 0.281442 0.087340 0.833525
Si Si2 0.083504 0.899657 0.700141
Si Si3 0.500000 0.972563 0.500000
Si Si4 0.102496 0.170765 0.803854
Si Si5 0.633761 0.511475 0.387618
Si Si6 0.816830 0.282207 0.544083
Si Si7 0.173128 0.851610 0.092973
O O1 0.218817 0.130772 0.764644
O O2 0.263057 0.207796 0.956097
O O3 0.421784 0.070529 0.668471
O O4 0.235133 0.942435 0.922825
O O5 0.182038 0.833418 0.690229
O O6 0.961743 0.818607 0.810279
O O7 0.043343 0.041078 0.799369
O O8 0.144313 0.912924 0.498069
O O9 0.409550 0.884575 0.509397
O O10 0.140503 0.265605 0.647721
O O11 0.000000 0.235440 0.000000
O O12 0.500000 0.553556 0.500000
O O13 0.697862 0.649157 0.356336
O O14 0.687690 0.434977 0.210930
#
# Coordination Sequence:
#
# PCOD8050179 Si02
#       7
#     4   4   2   4   4   4   4
#     4  12  28  44  72 100 145 177 236 289 346 404
#     4  10  21  41  66  98 133 183 226 279 341 407
#     4  12  28  44  66 106 140 182 232 294 342 406
#     4  11  23  42  67  97 138 188 227 278 342 415
#     4   9  20  38  67  95 133 181 228 269 339 415
#     4  11  23  40  72  99 139 181 233 282 346 407
#     4  11  26  44  70 100 138 183 231 284 350 409
#
# _framework density 22.146422999999999
#
# number of rings (size 3 to 8) (size 9 to 14) (size 15 to 20)
#    0.000    1.231    3.846    0.923    9.692    0.000 
#    0.000    0.000    0.000    0.000    0.000    0.000 
#    0.000    0.000    0.000    0.000    0.000    0.000 
#
# Total GULP energy -161166.237115 kJ/mol
# GULP energy per Si atom -12397.402855 kJ/mol
# Density = 2.209602 g / cm^3
# Si number density = 22.146423 Si / 1000 Ang^3
#
#
#
# Elastic Constant Matrix: (Units=GPa)
#
#
# Indices 1 2 3 4 5 6 
#
# 1 119.0231 39.7341 18.1065 0.0000 -6.6835 0.0000
# 2 39.7341 84.6896 28.5562 0.0000 -9.8808 0.0000
# 3 18.1065 28.5562 68.6367 0.0000 -1.6395 0.0000
# 4 0.0000 0.0000 0.0000 27.8502 0.0000 0.6005
# 5 -6.6835 -9.8808 -1.6395 0.0000 27.7326 0.0000
# 6 0.0000 0.0000 0.0000 0.6005 0.0000 29.7643
#
#
#
# Elastic Compliance Matrix: (Units=1/GPa)
#
#
# Indices 1 2 3 4 5 6 
#
# 1 0.010017 -0.004326 -0.000823 0.000000 0.000824 0.000000
# 2 -0.004326 0.016205 -0.005495 0.000000 0.004406 0.000000
# 3 -0.000823 -0.005495 0.017045 0.000000 -0.001149 0.000000
# 4 0.000000 0.000000 0.000000 0.035922 0.000000 -0.000725
# 5 0.000824 0.004406 -0.001149 0.000000 0.037759 0.000000
# 6 0.000000 0.000000 0.000000 -0.000725 0.000000 0.033612
#
#
# Mechanical properties :
#
#
# Convention : Reuss Voigt Hill
#
# Bulk Modulus (GPa) = 45.49955 49.46036 47.47995
# Shear Modulus (GPa) = 27.90549 29.46624 28.68587
#
# Velocity S-wave (km/s) = 3.55356 3.65159 3.60291
# Velocity P-wave (km/s) = 6.11772 6.33724 6.22845
#
# Compressibility (1/GPa) = 0.02197824
#
# Stress axis : x y z
#
# Youngs Moduli (GPa) = 99.82557 61.71080 58.66658
#
# Poissons Ratio (x) = 0.26698 0.04828
# Poissons Ratio (y) = 0.43187 0.32240
# Poissons Ratio (z) = 0.08216 0.33912
#
# Static dielectric constant tensor:
#      x y z
#    x 4.328720 0.000000 0.159700 
#    y 0.000000 3.906330 0.000000 
#    z 0.159700 0.000000 3.840710 
# 
# 
# High freq. dielectric constant tensor:
#      x y z
#    x 1.888030 0.000000 0.005440 
#    y 0.000000 1.862450 0.000000 
#    z 0.005440 0.000000 1.860260 
# 
# From -- ./inp_files/44575.got.cif
#   From: 2010.03.12/outbox.cif.g09.slc.cpg/sg5_23_cif.got.tgz:44575.got - 2010.03.31 09:47:26.
