data_PCOD8050679
_publ_section_title
;
Structure prediction by ZEFSAII (Michael W. Deem and Ramdas Pophale) SiO2 
 PCOD8050679
Probable space group: C 2
;
_chemical_formula_sum "Si O2"
_cell_formula_units_Z 28
_cell_length_a 10.380352
_cell_length_b 8.794955
_cell_length_c 14.919473
_cell_angle_alpha 90.000000
_cell_angle_beta 89.695000
_cell_angle_gamma 90.000000
_cell_volume 1362.049942
_symmetry_space_group_name_H-M "C 2"
_symmetry_group_IT_number 5
_symmetry_cell_setting 'monoclinic'
loop_
_space_group_symop_operation_xyz
x,y,z
-x,y,-z
1/2+x,1/2+y,z
1/2-x,1/2+y,-z
loop_
_atom_site_type_symbol
_atom_site_label
_atom_site_fract_x
_atom_site_fract_y
_atom_site_fract_z
Si Si1 0.754891 0.543890 0.411246
Si Si2 0.098960 0.995791 0.129716
Si Si3 0.000000 0.748938 0.000000
Si Si4 0.486575 0.402669 0.684203
Si Si5 0.114612 0.497577 0.885306
Si Si6 0.000000 0.246235 0.000000
Si Si7 0.506207 0.045214 0.296613
Si Si8 0.737996 0.901393 0.398285
O O1 0.627645 0.458996 0.378624
O O2 0.877892 0.499979 0.351010
O O3 0.727894 0.722335 0.412877
O O4 0.788246 0.490739 0.510629
O O5 0.246225 0.000890 0.161361
O O6 0.069234 0.146945 0.074879
O O7 0.013351 0.985811 0.219406
O O8 0.080723 0.849670 0.068115
O O9 0.102086 0.646674 0.946568
O O10 0.467356 0.223602 0.695832
O O11 0.621977 0.446072 0.639464
O O12 0.008907 0.498466 0.807178
O O13 0.103408 0.350622 0.948685
O O14 0.628717 0.950819 0.328999
#
# Coordination Sequence:
#
# PCOD8050679 Si02
#       8
#     4   4   2   4   4   2   4   4
#     4  11  24  46  67  95 130 167 215 264 320 380
#     4  11  22  43  64  93 130 167 211 264 318 371
#     4  10  22  42  64  90 124 174 206 260 322 370
#     4  11  24  42  67  96 131 169 212 266 315 383
#     4  11  22  42  64  94 128 167 214 259 317 379
#     4  10  26  38  62  98 124 166 218 266 308 382
#     4  11  24  42  67  96 131 170 212 264 318 382
#     4  11  26  43  68  98 128 168 214 264 319 387
#
# _framework density 20.55725
#
# number of rings (size 3 to 8) (size 9 to 14) (size 15 to 20)
#    0.000    1.143    2.857    2.571    2.000    6.857 
#   10.286    0.000    0.000    0.000    0.000    0.000 
#    0.000    0.000    0.000    0.000    0.000    0.000 
#
# Total GULP energy -173676.225800 kJ/mol
# GULP energy per Si atom -12405.444700 kJ/mol
# Density = 2.051046 g / cm^3
# Si number density = 20.557250 Si / 1000 Ang^3
#
#
#
# Elastic Constant Matrix: (Units=GPa)
#
#
# Indices 1 2 3 4 5 6 
#
# 1 102.3150 31.9586 14.4707 0.0000 2.0198 0.0000
# 2 31.9586 96.5119 27.2760 0.0000 -2.5295 0.0000
# 3 14.4707 27.2760 98.3185 0.0000 2.4377 0.0000
# 4 0.0000 0.0000 0.0000-1074.3974 0.0000 408.4010
# 5 2.0198 -2.5295 2.4377 0.0000 40.2395 0.0000
# 6 0.0000 0.0000 0.0000 408.4010 0.0000 -127.0256
#
#
#
# Elastic Compliance Matrix: (Units=1/GPa)
#
#
# Indices 1 2 3 4 5 6 
#
# 1 0.010962 -0.003470 -0.000633 0.000000 -0.000730 0.000000
# 2 -0.003470 0.012374 -0.002950 0.000000 0.001131 0.000000
# 3 -0.000633 -0.002950 0.011103 0.000000 -0.000826 0.000000
# 4 0.000000 0.000000 0.000000 0.004190 0.000000 0.013472
# 5 -0.000730 0.001131 -0.000826 0.000000 0.025009 0.000000
# 6 0.000000 0.000000 0.000000 0.013472 0.000000 0.035441
#
#
# Mechanical properties :
#
#
# Convention : Reuss Voigt Hill
#
# Bulk Modulus (GPa) = 49.18137 49.39509 49.28823
# Shear Modulus (GPa) = 41.68003 -217.34071 -87.83034
#
# Velocity S-wave (km/s) = 4.50767 -10.29340 -6.54351
# Velocity P-wave (km/s) = 7.14620 10.82552 5.74995
#
# Compressibility (1/GPa) = 0.02033290
#
# Stress axis : x y z
#
# Youngs Moduli (GPa) = 91.22817 80.81523 90.06529
#
# Poissons Ratio (x) = 0.28044 0.05697
# Poissons Ratio (y) = 0.31657 0.26570
# Poissons Ratio (z) = 0.05770 0.23842
#
# Static dielectric constant tensor:
#      x y z
#    x 4.295600 0.000000 0.589690 
#    y 0.000000 3.850460 0.000000 
#    z 0.589690 0.000000 4.455280 
# 
# 
# High freq. dielectric constant tensor:
#      x y z
#    x 1.805430 0.000000 0.000980 
#    y 0.000000 1.813290 0.000000 
#    z 0.000980 0.000000 1.821740 
# 
# From -- ./inp_files/59352.got.cif
#   From: 2010.03.12/outbox.cif.g09.slc.cpg/sg5_30_cif.got.tgz:59352.got - 2010.03.31 09:47:26.
