data_PCOD8050742
_publ_section_title
;
Structure prediction by ZEFSAII (Michael W. Deem and Ramdas Pophale) SiO2 
 PCOD8050742
Probable space group: C 2
;
_chemical_formula_sum "Si O2"
_cell_formula_units_Z 28
_cell_length_a 10.528282
_cell_length_b 14.766825
_cell_length_c 9.185749
_cell_angle_alpha 90.000000
_cell_angle_beta 121.474725
_cell_angle_gamma 90.000000
_cell_volume 1217.986125
_symmetry_space_group_name_H-M "C 2"
_symmetry_group_IT_number 5
_symmetry_cell_setting 'monoclinic'
loop_
_space_group_symop_operation_xyz
x,y,z
-x,y,-z
1/2+x,1/2+y,z
1/2-x,1/2+y,-z
loop_
_atom_site_type_symbol
_atom_site_label
_atom_site_fract_x
_atom_site_fract_y
_atom_site_fract_z
Si Si1 0.173847 0.340430 0.130113
Si Si2 0.160428 0.150523 0.593829
Si Si3 0.936085 0.755109 0.805892
Si Si4 0.178730 0.051447 0.332387
Si Si5 0.353362 0.388751 0.505822
Si Si6 0.656209 0.517830 0.834912
Si Si7 0.201323 0.648171 0.867955
O O1 0.228142 0.339829 0.331631
O O2 0.272169 0.417668 0.106737
O O3 0.202267 0.240348 0.084594
O O4 0.000000 0.363361 0.000000
O O5 0.272910 0.217083 0.742258
O O6 0.197811 0.139246 0.445913
O O7 0.151481 0.049959 0.662954
O O8 0.000000 0.198635 0.500000
O O9 0.928359 0.830342 0.678176
O O10 0.029719 0.674078 0.786882
O O11 0.000000 0.790099 0.000000
O O12 0.273877 0.076321 0.247769
O O13 0.007048 0.025784 0.189896
O O14 0.237538 0.966640 0.461823
O O15 0.500000 0.419963 0.500000
O O16 0.758314 0.594235 0.964740
#
# Coordination Sequence:
#
# PCOD8050742 Si02
#       7
#     4   4   4   4   4   4   4
#     4  12  26  46  73 109 153 193 250 307 371 442
#     4  10  22  42  71 101 143 195 241 296 370 440
#     4  12  26  45  75 108 152 189 253 311 374 444
#     4  11  22  42  71 101 143 192 249 294 365 447
#     4  12  23  48  74 108 143 205 248 304 373 452
#     4  11  22  43  72 102 147 195 245 300 371 443
#     4  12  26  43  73 112 148 192 250 308 377 437
#
# _framework density 22.988766999999999
#
# number of rings (size 3 to 8) (size 9 to 14) (size 15 to 20)
#    0.000    0.571    5.714    2.571    2.000    3.429 
#    0.000    0.000    3.143    0.000    0.000    0.000 
#    0.000    0.000    0.000    0.000    0.000    0.000 
#
# Total GULP energy -173458.605589 kJ/mol
# GULP energy per Si atom -12389.900399 kJ/mol
# Density = 2.293644 g / cm^3
# Si number density = 22.988767 Si / 1000 Ang^3
#
#
#
# Elastic Constant Matrix: (Units=GPa)
#
#
# Indices 1 2 3 4 5 6 
#
# 1 87.2678 28.0859 58.4137 0.0000 -3.3075 0.0000
# 2 28.0859 110.9448 53.7700 0.0000 -7.1376 0.0000
# 3 58.4137 53.7700 145.9546 0.0000 9.9924 0.0000
# 4 0.0000 0.0000 0.0000 27.5791 0.0000 -8.9988
# 5 -3.3075 -7.1376 9.9924 0.0000 38.9101 0.0000
# 6 0.0000 0.0000 0.0000 -8.9988 0.0000 29.5154
#
#
#
# Elastic Compliance Matrix: (Units=1/GPa)
#
#
# Indices 1 2 3 4 5 6 
#
# 1 0.016061 -0.000820 -0.006320 0.000000 0.002838 0.000000
# 2 -0.000820 0.011396 -0.004080 0.000000 0.003069 0.000000
# 3 -0.006320 -0.004080 0.011168 0.000000 -0.004154 0.000000
# 4 0.000000 0.000000 0.000000 0.040265 0.000000 0.012276
# 5 0.002838 0.003069 -0.004154 0.000000 0.027571 0.000000
# 6 0.000000 0.000000 0.000000 0.012276 0.000000 0.037623
#
#
# Mechanical properties :
#
#
# Convention : Reuss Voigt Hill
#
# Bulk Modulus (GPa) = 61.78743 69.41181 65.59962
# Shear Modulus (GPa) = 29.08327 32.79408 30.93867
#
# Velocity S-wave (km/s) = 3.56069 3.78104 3.67252
# Velocity P-wave (km/s) = 6.62120 7.02289 6.82500
#
# Compressibility (1/GPa) = 0.01618452
#
# Stress axis : x y z
#
# Youngs Moduli (GPa) = 62.26318 87.75008 89.53922
#
# Poissons Ratio (x) = 0.07198 0.56588
# Poissons Ratio (y) = 0.05107 0.36533
# Poissons Ratio (z) = 0.39350 0.35803
#
# Static dielectric constant tensor:
#      x y z
#    x 3.955720 0.000000 0.041110 
#    y 0.000000 4.031040 0.000000 
#    z 0.041110 0.000000 4.409100 
# 
# 
# High freq. dielectric constant tensor:
#      x y z
#    x 1.887930 0.000000 0.000200 
#    y 0.000000 1.906280 0.000000 
#    z 0.000200 0.000000 1.925770 
# 
# From -- ./inp_files/20712.got.cif
#   From: 2010.03.12/outbox.cif.g09.slc.cpg/sg5_11_cif.got.tgz:20712.got - 2010.03.31 09:47:26.
