data_PCOD8050722
_publ_section_title
;
Structure prediction by ZEFSAII (Michael W. Deem and Ramdas Pophale) SiO2 
 PCOD8050722
Probable space group: C 2
;
_chemical_formula_sum "Si O2"
_cell_formula_units_Z 28
_cell_length_a 8.393160
_cell_length_b 13.874690
_cell_length_c 20.669147
_cell_angle_alpha 90.000000
_cell_angle_beta 147.699157
_cell_angle_gamma 90.000000
_cell_volume 1286.201985
_symmetry_space_group_name_H-M "C 2"
_symmetry_group_IT_number 5
_symmetry_cell_setting 'monoclinic'
loop_
_space_group_symop_operation_xyz
x,y,z
-x,y,-z
1/2+x,1/2+y,z
1/2-x,1/2+y,-z
loop_
_atom_site_type_symbol
_atom_site_label
_atom_site_fract_x
_atom_site_fract_y
_atom_site_fract_z
Si Si1 0.213566 0.139050 0.304656
Si Si2 0.673962 0.908461 0.890238
Si Si3 0.841062 0.034429 0.277785
Si Si4 0.479241 0.211471 0.170216
Si Si5 0.530423 0.718081 0.907759
Si Si6 0.731135 0.503197 0.527756
Si Si7 0.987517 0.330131 0.695155
O O1 0.060111 0.148986 0.182032
O O2 0.534439 0.089406 0.405298
O O3 0.015605 0.062699 0.273919
O O4 0.216222 0.239613 0.347837
O O5 0.702338 0.808612 0.937122
O O6 0.550292 0.901358 0.775387
O O7 0.427470 0.970449 0.842500
O O8 0.000000 0.958269 0.000000
O O9 0.692246 0.124173 0.264999
O O10 0.063892 0.979989 0.403066
O O11 0.272492 0.246741 0.158253
O O12 0.692843 0.298031 0.222351
O O13 0.272380 0.172908 0.039719
O O14 0.500000 0.546855 0.500000
O O15 0.839005 0.397312 0.589117
#
# Coordination Sequence:
#
# PCOD8050722 Si02
#       7
#     4   4   4   4   4   4   4
#     4  10  25  46  69  99 139 187 232 291 360 422
#     4  11  22  41  65  99 137 173 224 290 349 425
#     4  11  25  42  65  99 136 179 236 284 347 422
#     4  10  22  43  68 101 133 180 230 284 362 424
#     4  10  22  42  68  98 137 174 229 289 355 431
#     4  12  24  44  70  98 139 181 243 290 345 426
#     4  10  23  43  70  96 139 182 226 290 359 413
#
# _framework density 21.76952
#
# number of rings (size 3 to 8) (size 9 to 14) (size 15 to 20)
#    0.000    1.429    2.857    1.286    4.000    2.286 
#    0.000    0.000    0.000    0.000    0.000    0.000 
#    0.000    0.000    0.000    0.000    0.000    0.000 
#
# Total GULP energy -173504.359929 kJ/mol
# GULP energy per Si atom -12393.168566 kJ/mol
# Density = 2.171997 g / cm^3
# Si number density = 21.769520 Si / 1000 Ang^3
#
#
#
# Elastic Constant Matrix: (Units=GPa)
#
#
# Indices 1 2 3 4 5 6 
#
# 1 142.1059 45.1279 69.4621 -0.0003 15.3025 0.0003
# 2 45.1279 74.4166 52.1394 -0.0012 9.5604 -0.0003
# 3 69.4621 52.1394 128.6359 -0.0028 9.4046 0.0009
# 4 -0.0003 -0.0012 -0.0028 36.6921 -0.0015 1.4449
# 5 15.3025 9.5604 9.4046 -0.0015 41.9767 -0.0001
# 6 0.0003 -0.0003 0.0009 1.4449 -0.0001 25.9654
#
#
#
# Elastic Compliance Matrix: (Units=1/GPa)
#
#
# Indices 1 2 3 4 5 6 
#
# 1 0.010261 -0.003040 -0.004154 0.000000 -0.002118 0.000000
# 2 -0.003040 0.019955 -0.006298 0.000000 -0.002025 0.000000
# 3 -0.004154 -0.006298 0.012560 0.000001 0.000135 -0.000001
# 4 0.000000 0.000000 0.000001 0.027314 0.000001 -0.001520
# 5 -0.002118 -0.002025 0.000135 0.000001 0.025026 0.000000
# 6 0.000000 0.000000 -0.000001 -0.001520 0.000000 0.038597
#
#
# Mechanical properties :
#
#
# Convention : Reuss Voigt Hill
#
# Bulk Modulus (GPa) = 63.32764 75.40191 69.36478
# Shear Modulus (GPa) = 30.12772 32.82210 31.47491
#
# Velocity S-wave (km/s) = 3.72417 3.88714 3.80653
# Velocity P-wave (km/s) = 6.90259 7.40662 7.15905
#
# Compressibility (1/GPa) = 0.01579089
#
# Stress axis : x y z
#
# Youngs Moduli (GPa) = 97.45820 50.11384 79.61853
#
# Poissons Ratio (x) = 0.15235 0.33071
# Poissons Ratio (y) = 0.29628 0.50147
# Poissons Ratio (z) = 0.40481 0.31564
#
# Static dielectric constant tensor:
#      x y z
#    x 4.130660 0.000000 0.136130 
#    y 0.000000 3.734120 0.000000 
#    z 0.136130 0.000000 3.991150 
# 
# 
# High freq. dielectric constant tensor:
#      x y z
#    x 1.868860 0.000000 0.011360 
#    y 0.000000 1.838290 0.000000 
#    z 0.011360 0.000000 1.861960 
# 
# From -- ./inp_files/64694.got.cif
#   From: 2010.03.12/outbox.cif.g09.slc.cpg/sg5_33_cif.got.tgz:64694.got - 2010.03.31 09:47:26.
