data_PCOD8050851
_publ_section_title
;
Structure prediction by ZEFSAII (Michael W. Deem and Ramdas Pophale) SiO2 
 PCOD8050851
Probable space group: C 2
;
_chemical_formula_sum "Si O2"
_cell_formula_units_Z 26
_cell_length_a 23.935770
_cell_length_b 8.495224
_cell_length_c 17.306999
_cell_angle_alpha 90.000000
_cell_angle_beta 161.367408
_cell_angle_gamma 90.000000
_cell_volume 1124.378862
_symmetry_space_group_name_H-M "C 2"
_symmetry_group_IT_number 5
_symmetry_cell_setting 'monoclinic'
loop_
_space_group_symop_operation_xyz
x,y,z
-x,y,-z
1/2+x,1/2+y,z
1/2-x,1/2+y,-z
loop_
_atom_site_type_symbol
_atom_site_label
_atom_site_fract_x
_atom_site_fract_y
_atom_site_fract_z
Si Si1 0.000000 0.712970 0.500000
Si Si2 0.272639 0.480390 0.810910
Si Si3 0.405618 0.513440 0.667054
Si Si4 0.500000 0.735016 0.500000
Si Si5 0.795238 0.553669 0.976464
Si Si6 0.000000 0.167095 0.000000
Si Si7 0.441696 0.335404 0.260491
Si Si8 0.058169 0.350456 0.232757
O O1 0.822278 0.612985 0.261760
O O2 0.015363 0.813856 0.442880
O O3 0.133293 0.338109 0.620503
O O4 0.443494 0.429878 0.083278
O O5 0.337299 0.553759 0.813276
O O6 0.416525 0.445562 0.595253
O O7 0.220494 0.465595 0.459928
O O8 0.426425 0.701468 0.690034
O O9 0.619089 0.631196 0.712194
O O10 0.920841 0.676793 0.183661
O O11 0.890383 0.457520 0.032492
O O12 0.741662 0.428982 0.973008
O O13 0.054590 0.279503 0.141755
#
# Coordination Sequence:
#
# PCOD8050851 Si02
#       8
#     2   4   4   2   4   2   4   4
#     4  11  23  42  74  98 144 188 248 298 366 440
#     4  10  22  44  69 109 143 189 241 300 369 425
#     4  11  23  45  71 107 141 194 240 298 367 437
#     4  11  25  46  72 106 156 186 252 306 346 446
#     4  12  26  45  72 107 146 191 249 302 364 430
#     4  10  22  46  76 106 146 194 238 296 382 434
#     4  12  24  44  71 104 140 195 242 304 366 426
#     4  11  25  46  75 106 148 190 244 298 368 444
#
# _framework density 23.123875999999999
#
# number of rings (size 3 to 8) (size 9 to 14) (size 15 to 20)
#    0.000    0.923    1.538    6.000    2.154    2.462 
#    5.538    0.769    0.000    0.000    0.000    0.000 
#    0.000    0.000    0.000    0.000    0.000    0.000 
#
# Total GULP energy -161159.969522 kJ/mol
# GULP energy per Si atom -12396.920732 kJ/mol
# Density = 2.307125 g / cm^3
# Si number density = 23.123876 Si / 1000 Ang^3
#
#
#
# Elastic Constant Matrix: (Units=GPa)
#
#
# Indices 1 2 3 4 5 6 
#
# 1 122.6976 64.2384 29.9622 0.0000 6.0628 0.0000
# 2 64.2384 134.9698 55.8891 0.0000 4.8546 0.0000
# 3 29.9622 55.8891 100.4658 0.0000 18.6147 0.0000
# 4 0.0000 0.0000 0.0000 37.6666 0.0000 14.1697
# 5 6.0628 4.8546 18.6147 0.0000 42.0340 0.0000
# 6 0.0000 0.0000 0.0000 14.1697 0.0000 47.4952
#
#
#
# Elastic Compliance Matrix: (Units=1/GPa)
#
#
# Indices 1 2 3 4 5 6 
#
# 1 0.010901 -0.005038 -0.000289 0.000000 -0.000863 0.000000
# 2 -0.005038 0.012028 -0.005519 0.000000 0.001781 0.000000
# 3 -0.000289 -0.005519 0.014145 0.000000 -0.005585 0.000000
# 4 0.000000 0.000000 0.000000 0.029905 0.000000 -0.008922
# 5 -0.000863 0.001781 -0.005585 0.000000 0.026182 0.000000
# 6 0.000000 0.000000 0.000000 -0.008922 0.000000 0.023717
#
#
# Mechanical properties :
#
#
# Convention : Reuss Voigt Hill
#
# Bulk Modulus (GPa) = 65.00682 73.14586 69.07634
# Shear Modulus (GPa) = 34.79601 39.30874 37.05237
#
# Velocity S-wave (km/s) = 3.88334 4.12748 4.00727
# Velocity P-wave (km/s) = 6.94842 7.37670 7.16576
#
# Compressibility (1/GPa) = 0.01538300
#
# Stress axis : x y z
#
# Youngs Moduli (GPa) = 91.73762 83.14033 70.69816
#
# Poissons Ratio (x) = 0.41882 0.02041
# Poissons Ratio (y) = 0.46213 0.39017
# Poissons Ratio (z) = 0.02649 0.45884
#
# Static dielectric constant tensor:
#      x y z
#    x 4.198930 0.000000 0.334410 
#    y 0.000000 4.441130 0.000000 
#    z 0.334410 0.000000 4.055370 
# 
# 
# High freq. dielectric constant tensor:
#      x y z
#    x 1.911740 0.000000 0.019650 
#    y 0.000000 1.923010 0.000000 
#    z 0.019650 0.000000 1.911320 
# 
# From -- ./inp_files/63332.got.cif
#   From: 2010.03.12/outbox.cif.g09.slc.cpg/sg5_32_cif.got.tgz:63332.got - 2010.03.31 09:47:26.
