data_PCOD8051927
_publ_section_title
;
Structure prediction by ZEFSAII (Michael W. Deem and Ramdas Pophale) SiO2 
 PCOD8051927
Probable space group: C 2
;
_chemical_formula_sum "Si O2"
_cell_formula_units_Z 20
_cell_length_a 14.755549
_cell_length_b 12.767148
_cell_length_c 5.008707
_cell_angle_alpha 90.000000
_cell_angle_beta 72.712381
_cell_angle_gamma 90.000000
_cell_volume 900.945853
_symmetry_space_group_name_H-M "C 2"
_symmetry_group_IT_number 5
_symmetry_cell_setting 'monoclinic'
loop_
_space_group_symop_operation_xyz
x,y,z
-x,y,-z
1/2+x,1/2+y,z
1/2-x,1/2+y,-z
loop_
_atom_site_type_symbol
_atom_site_label
_atom_site_fract_x
_atom_site_fract_y
_atom_site_fract_z
Si Si1 0.765235 0.420360 0.434315
Si Si2 0.500000 0.343090 0.500000
Si Si3 0.319692 0.213339 0.657415
Si Si4 0.301323 0.539406 0.006518
Si Si5 0.000000 0.982961 0.000000
Si Si6 0.563848 0.043417 0.700961
O O1 0.748918 0.296987 0.420833
O O2 0.743379 0.453752 0.755627
O O3 0.877620 0.438295 0.279962
O O4 0.701979 0.488960 0.284108
O O5 0.413596 0.271548 0.689961
O O6 0.535332 0.411374 0.720488
O O7 0.258179 0.148330 0.930237
O O8 0.356035 0.132240 0.403626
O O9 0.412206 0.556124 0.985171
O O10 0.500000 0.025453 0.500000
O O11 0.500000 0.079727 0.000000
#
# Coordination Sequence:
#
# PCOD8051927 Si02
#       6
#     4   2   4   4   2   4
#     4  11  24  42  63  95 133 162 208 270 317 368
#     4  12  24  38  70  94 120 168 220 260 314 370
#     4  11  24  42  67  97 126 169 211 265 317 375
#     4  11  24  41  64  96 130 165 210 266 315 371
#     4  12  22  44  64  92 128 168 214 264 308 374
#     4  11  24  42  66  94 127 169 215 261 314 378
#
# _framework density 22.198893999999999
#
# number of rings (size 3 to 8) (size 9 to 14) (size 15 to 20)
#    0.000    0.800    5.000    2.400    1.400    6.400 
#    1.800    0.000    2.200    0.000    0.000    0.000 
#    0.000    0.000    0.000    0.000    0.000    0.000 
#
# Total GULP energy -123990.089178 kJ/mol
# GULP energy per Si atom -12399.008918 kJ/mol
# Density = 2.214837 g / cm^3
# Si number density = 22.198894 Si / 1000 Ang^3
#
#
#
# Elastic Constant Matrix: (Units=GPa)
#
#
# Indices 1 2 3 4 5 6 
#
# 1 139.2851 61.6054 32.8791 0.0000 -2.0224 0.0000
# 2 61.6054 104.1047 13.4571 0.0000 -6.1640 0.0000
# 3 32.8791 13.4571 78.9634 0.0000 5.7808 0.0000
# 4 0.0000 0.0000 0.0000 17.2896 0.0000 -10.7130
# 5 -2.0224 -6.1640 5.7808 0.0000 38.3609 0.0000
# 6 0.0000 0.0000 0.0000 -10.7130 0.0000 51.1843
#
#
#
# Elastic Compliance Matrix: (Units=1/GPa)
#
#
# Indices 1 2 3 4 5 6 
#
# 1 0.010550 -0.005793 -0.003416 0.000000 0.000140 0.000000
# 2 -0.005793 0.013135 0.000042 0.000000 0.001799 0.000000
# 3 -0.003416 0.000042 0.014249 0.000000 -0.002321 0.000000
# 4 0.000000 0.000000 0.000000 0.066457 0.000000 0.013910
# 5 0.000140 0.001799 -0.002321 0.000000 0.026714 0.000000
# 6 0.000000 0.000000 0.000000 0.013910 0.000000 0.022449
#
#
# Mechanical properties :
#
#
# Convention : Reuss Voigt Hill
#
# Bulk Modulus (GPa) = 51.02026 59.80406 55.41216
# Shear Modulus (GPa) = 28.02339 35.66106 31.84222
#
# Velocity S-wave (km/s) = 3.55685 4.01238 3.79146
# Velocity P-wave (km/s) = 6.31675 6.96162 6.64701
#
# Compressibility (1/GPa) = 0.01960006
#
# Stress axis : x y z
#
# Youngs Moduli (GPa) = 94.78376 76.13171 70.17971
#
# Poissons Ratio (x) = 0.44107 0.23973
# Poissons Ratio (y) = 0.54913 -0.00295
# Poissons Ratio (z) = 0.32377 -0.00320
#
# Static dielectric constant tensor:
#      x y z
#    x 4.307390 0.000000 -0.224900 
#    y 0.000000 4.073270 0.000000 
#    z -0.224900 0.000000 3.729940 
# 
# 
# High freq. dielectric constant tensor:
#      x y z
#    x 1.889040 0.000000 -0.004090 
#    y 0.000000 1.848430 0.000000 
#    z -0.004090 0.000000 1.871250 
# 
# From -- ./inp_files/6497.got.cif
#   From: 2010.03.12/outbox.cif.g09.slc.cpg/sg5_4_cif.got.tgz:6497.got - 2010.03.31 09:47:26.
