data_PCOD8051000
_publ_section_title
;
Structure prediction by ZEFSAII (Michael W. Deem and Ramdas Pophale) SiO2 
 PCOD8051000
Probable space group: C 2
;
_chemical_formula_sum "Si O2"
_cell_formula_units_Z 30
_cell_length_a 9.467265
_cell_length_b 26.754582
_cell_length_c 5.799113
_cell_angle_alpha 90.000000
_cell_angle_beta 71.011502
_cell_angle_gamma 90.000000
_cell_volume 1388.942767
_symmetry_space_group_name_H-M "C 2"
_symmetry_group_IT_number 5
_symmetry_cell_setting 'monoclinic'
loop_
_space_group_symop_operation_xyz
x,y,z
-x,y,-z
1/2+x,1/2+y,z
1/2-x,1/2+y,-z
loop_
_atom_site_type_symbol
_atom_site_label
_atom_site_fract_x
_atom_site_fract_y
_atom_site_fract_z
Si Si1 0.846593 0.168500 0.439980
Si Si2 0.641431 0.475587 0.542057
Si Si3 0.500000 0.735327 0.000000
Si Si4 0.092228 0.739744 0.703513
Si Si5 0.850945 0.304631 0.728433
Si Si6 0.851890 0.417163 0.725261
Si Si7 0.661287 0.012275 0.960100
Si Si8 0.642760 0.570905 0.806711
O O1 0.703162 0.191701 0.647004
O O2 0.795194 0.112108 0.403741
O O3 0.000000 0.167434 0.500000
O O4 0.882522 0.202099 0.201079
O O5 0.500000 0.449771 0.500000
O O6 0.714434 0.429536 0.632606
O O7 0.753658 0.506203 0.322652
O O8 0.577658 0.519630 0.736038
O O9 0.380776 0.768990 0.927036
O O10 0.203569 0.787834 0.662828
O O11 0.000000 0.742179 0.500000
O O12 0.000000 0.737596 0.000000
O O13 0.828910 0.361268 0.831866
O O14 0.000000 0.301287 0.500000
O O15 0.000000 0.423525 0.500000
O O16 0.851288 0.456465 0.931413
O O17 0.500000 0.034606 0.000000
O O18 0.729470 0.054954 0.084549
O O19 0.500000 0.597431 0.000000
#
# Coordination Sequence:
#
# PCOD8051000 Si02
#       8
#     4   4   2   4   4   4   4   4
#     4  12  25  46  75 101 133 192 245 300 358 447
#     4  11  22  42  66  95 138 177 227 288 351 429
#     4  12  20  42  78  98 140 176 264 302 354 432
#     4  12  27  50  72 108 159 190 235 310 388 439
#     4  11  24  44  72 104 135 192 249 300 356 451
#     4  10  23  40  68 102 132 179 241 287 358 422
#     4  11  23  44  66  94 139 183 223 290 360 432
#     4  11  24  41  69 102 130 174 242 293 353 423
#
# _framework density 21.599163000000001
#
# number of rings (size 3 to 8) (size 9 to 14) (size 15 to 20)
#    0.000    0.800    6.000    1.200    0.933    0.533 
#    4.800    0.000    0.000    0.000    0.000    0.000 
#    0.000    0.000    0.000    0.000    0.000    0.000 
#
# Total GULP energy -185858.330244 kJ/mol
# GULP energy per Si atom -12390.555350 kJ/mol
# Density = 2.155000 g / cm^3
# Si number density = 21.599163 Si / 1000 Ang^3
#
#
#
# Elastic Constant Matrix: (Units=GPa)
#
#
# Indices 1 2 3 4 5 6 
#
# 1 147.8450 42.6904 35.9819 0.0000 9.2122 0.0000
# 2 42.6904 121.8320 22.2817 0.0000 3.9002 0.0000
# 3 35.9819 22.2817 85.8745 0.0000 -1.4430 0.0000
# 4 0.0000 0.0000 0.0000 44.3673 0.0000 9.0804
# 5 9.2122 3.9002 -1.4430 0.0000 39.5068 0.0000
# 6 0.0000 0.0000 0.0000 9.0804 0.0000 29.3790
#
#
#
# Elastic Compliance Matrix: (Units=1/GPa)
#
#
# Indices 1 2 3 4 5 6 
#
# 1 0.008244 -0.002303 -0.002887 0.000000 -0.001800 0.000000
# 2 -0.002303 0.009295 -0.001454 0.000000 -0.000434 0.000000
# 3 -0.002887 -0.001454 0.013254 0.000000 0.001301 0.000000
# 4 0.000000 0.000000 0.000000 0.024061 0.000000 -0.007437
# 5 -0.001800 -0.000434 0.001301 0.000000 0.025822 0.000000
# 6 0.000000 0.000000 0.000000 -0.007437 0.000000 0.036336
#
#
# Mechanical properties :
#
#
# Convention : Reuss Voigt Hill
#
# Bulk Modulus (GPa) = 57.12863 61.93997 59.53430
# Shear Modulus (GPa) = 36.72844 39.62378 38.17611
#
# Velocity S-wave (km/s) = 4.12813 4.28776 4.20870
# Velocity P-wave (km/s) = 7.01633 7.29743 7.15826
#
# Compressibility (1/GPa) = 0.01750436
#
# Stress axis : x y z
#
# Youngs Moduli (GPa) = 121.30641 107.58687 75.45108
#
# Poissons Ratio (x) = 0.24777 0.21781
# Poissons Ratio (y) = 0.27937 0.10971
# Poissons Ratio (z) = 0.35019 0.15644
#
# Static dielectric constant tensor:
#      x y z
#    x 4.227230 0.000000 0.150400 
#    y 0.000000 3.930560 0.000000 
#    z 0.150400 0.000000 4.134970 
# 
# 
# High freq. dielectric constant tensor:
#      x y z
#    x 1.859510 0.000000 0.003480 
#    y 0.000000 1.847210 0.000000 
#    z 0.003480 0.000000 1.850610 
# 
# From -- ./inp_files/3939.got.cif
#   From: 2010.03.12/outbox.cif.g09.slc.cpg/sg5_2_cif.got.tgz:3939.got - 2010.03.31 09:47:26.
