data_PCOD8051819
_publ_section_title
;
Structure prediction by ZEFSAII (Michael W. Deem and Ramdas Pophale) SiO2 
 PCOD8051819
Probable space group: C 2
;
_chemical_formula_sum "Si O2"
_cell_formula_units_Z 30
_cell_length_a 9.778556
_cell_length_b 14.040469
_cell_length_c 11.943604
_cell_angle_alpha 90.000000
_cell_angle_beta 66.306661
_cell_angle_gamma 90.000000
_cell_volume 1501.583095
_symmetry_space_group_name_H-M "C 2"
_symmetry_group_IT_number 5
_symmetry_cell_setting 'monoclinic'
loop_
_space_group_symop_operation_xyz
x,y,z
-x,y,-z
1/2+x,1/2+y,z
1/2-x,1/2+y,-z
loop_
_atom_site_type_symbol
_atom_site_label
_atom_site_fract_x
_atom_site_fract_y
_atom_site_fract_z
Si Si1 0.659593 0.357790 0.004369
Si Si2 0.636240 0.046206 0.762186
Si Si3 0.349852 0.582402 0.499602
Si Si4 0.210758 0.549452 0.121780
Si Si5 0.284988 0.668564 0.895311
Si Si6 0.000000 0.899734 0.500000
Si Si7 0.129494 0.152135 0.745059
Si Si8 0.713789 0.343616 0.243688
O O1 0.741431 0.457093 0.961692
O O2 0.759311 0.281491 0.904022
O O3 0.500000 0.359985 0.000000
O O4 0.644800 0.338379 0.142085
O O5 0.713363 0.094259 0.629557
O O6 0.462604 0.042927 0.792371
O O7 0.665669 0.114873 0.857112
O O8 0.696314 0.941145 0.769139
O O9 0.500000 0.631831 0.500000
O O10 0.383459 0.468980 0.471760
O O11 0.306940 0.635509 0.399944
O O12 0.303552 0.565328 0.204645
O O13 0.251528 0.639681 0.033149
O O14 0.451114 0.642145 0.802196
O O15 0.918079 0.835491 0.620427
O O16 0.175158 0.255373 0.775397
#
# Coordination Sequence:
#
# PCOD8051819 Si02
#       8
#     4   4   4   4   4   2   4   4
#     4  12  26  41  64 100 135 171 215 268 323 391
#     4  11  23  45  68  93 132 175 212 264 325 392
#     4   9  20  43  70  89 122 175 221 257 327 377
#     4  12  26  38  66  99 134 165 212 271 323 376
#     4  12  23  43  65  92 134 172 215 256 329 388
#     4   8  20  42  64  90 120 178 208 268 314 390
#     4  12  24  42  67  99 128 171 218 272 313 386
#     4  11  23  41  68  93 131 169 222 257 330 379
#
# _framework density 19.978914
#
# number of rings (size 3 to 8) (size 9 to 14) (size 15 to 20)
#    0.400    0.533    4.000    3.200    1.867    2.667 
#    0.000    0.000    0.000    0.000    0.000    0.000 
#    0.000    0.000    0.000    0.000    0.000    0.000 
#
# Total GULP energy -186014.047993 kJ/mol
# GULP energy per Si atom -12400.936533 kJ/mol
# Density = 1.993344 g / cm^3
# Si number density = 19.978914 Si / 1000 Ang^3
#
#
#
# Elastic Constant Matrix: (Units=GPa)
#
#
# Indices 1 2 3 4 5 6 
#
# 1 100.2758 16.2340 45.8862 0.0000 -10.2853 0.0000
# 2 16.2340 65.7958 29.4499 0.0000 -8.1890 0.0000
# 3 45.8862 29.4499 118.9715 0.0000 3.2442 0.0000
# 4 0.0000 0.0000 0.0000 33.0527 0.0000 2.0928
# 5 -10.2853 -8.1890 3.2442 0.0000 19.1301 0.0000
# 6 0.0000 0.0000 0.0000 2.0928 0.0000 19.8107
#
#
#
# Elastic Compliance Matrix: (Units=1/GPa)
#
#
# Indices 1 2 3 4 5 6 
#
# 1 0.013231 0.000140 -0.005358 0.000000 0.008082 0.000000
# 2 0.000140 0.018431 -0.004856 0.000000 0.008789 0.000000
# 3 -0.005358 -0.004856 0.011864 0.000000 -0.006971 0.000000
# 4 0.000000 0.000000 0.000000 0.030458 0.000000 -0.003218
# 5 0.008082 0.008789 -0.006971 0.000000 0.061563 0.000000
# 6 0.000000 0.000000 0.000000 -0.003218 0.000000 0.050818
#
#
# Mechanical properties :
#
#
# Convention : Reuss Voigt Hill
#
# Bulk Modulus (GPa) = 42.77601 52.02035 47.39818
# Shear Modulus (GPa) = 23.33110 27.29691 25.31401
#
# Velocity S-wave (km/s) = 3.42100 3.70034 3.56341
# Velocity P-wave (km/s) = 6.08780 6.65964 6.38013
#
# Compressibility (1/GPa) = 0.02337759
#
# Stress axis : x y z
#
# Youngs Moduli (GPa) = 75.58233 54.25513 84.28869
#
# Poissons Ratio (x) = -0.00757 0.45161
# Poissons Ratio (y) = -0.01055 0.40930
# Poissons Ratio (z) = 0.40496 0.26346
#
# Static dielectric constant tensor:
#      x y z
#    x 3.512150 0.000000 -0.011540 
#    y 0.000000 3.672990 0.000000 
#    z -0.011540 0.000000 3.644880 
# 
# 
# High freq. dielectric constant tensor:
#      x y z
#    x 1.775580 0.000000 -0.001920 
#    y 0.000000 1.777270 0.000000 
#    z -0.001920 0.000000 1.788280 
# 
# From -- ./inp_files/36350.got.cif
#   From: 2010.03.12/outbox.cif.g09.slc.cpg/sg5_19_cif.got.tgz:36350.got - 2010.03.31 09:47:26.
