data_PCOD8051566
_publ_section_title
;
Structure prediction by ZEFSAII (Michael W. Deem and Ramdas Pophale) SiO2 
 PCOD8051566
Probable space group: C 2
;
_chemical_formula_sum "Si O2"
_cell_formula_units_Z 32
_cell_length_a 9.754099
_cell_length_b 19.746533
_cell_length_c 13.184323
_cell_angle_alpha 90.000000
_cell_angle_beta 138.318392
_cell_angle_gamma 90.000000
_cell_volume 1688.695659
_symmetry_space_group_name_H-M "C 2"
_symmetry_group_IT_number 5
_symmetry_cell_setting 'monoclinic'
loop_
_space_group_symop_operation_xyz
x,y,z
-x,y,-z
1/2+x,1/2+y,z
1/2-x,1/2+y,-z
loop_
_atom_site_type_symbol
_atom_site_label
_atom_site_fract_x
_atom_site_fract_y
_atom_site_fract_z
Si Si1 0.712612 0.359940 0.440720
Si Si2 0.575203 0.713778 0.658106
Si Si3 0.943238 0.999805 0.658363
Si Si4 0.374336 0.217277 0.534183
Si Si5 0.336753 0.494064 0.831114
Si Si6 0.665190 0.856793 0.721736
Si Si7 0.064126 0.575035 0.347488
Si Si8 0.833322 0.579271 0.820476
O O1 0.575832 0.424083 0.397694
O O2 0.588741 0.289875 0.390536
O O3 0.784430 0.370764 0.366530
O O4 0.925163 0.363099 0.621028
O O5 0.500000 0.726623 0.500000
O O6 0.372339 0.706480 0.616963
O O7 0.716248 0.777778 0.773280
O O8 0.715758 0.649470 0.744355
O O9 0.774855 0.049717 0.515877
O O10 0.171534 0.021128 0.755153
O O11 0.932537 0.999116 0.773334
O O12 0.500000 0.217122 0.500000
O O13 0.460194 0.155740 0.649570
O O14 0.290804 0.416878 0.846658
O O15 0.127116 0.536627 0.708795
O O16 0.500000 0.526113 0.000000
O O17 0.058490 0.560422 0.224940
O O18 0.000000 0.584709 0.000000
#
# Coordination Sequence:
#
# PCOD8051566 Si02
#       8
#     4   4   4   4   4   4   4   4
#     4   9  17  33  57  85 113 144 196 244 283 328
#     4  11  18  38  63  85 114 153 201 246 284 351
#     4  11  21  39  63  86 113 159 204 244 284 352
#     4  11  21  34  59  92 115 142 193 257 289 334
#     4  11  23  37  58  91 126 156 190 245 306 349
#     4   9  16  33  59  85 113 151 194 242 281 340
#     4  12  22  39  61  86 115 156 204 246 289 352
#     4  12  25  39  57  86 122 156 192 248 313 355
#
# _framework density 18.949535999999998
#
# number of rings (size 3 to 8) (size 9 to 14) (size 15 to 20)
#    0.000    1.250    6.250    2.250    0.000    1.500 
#    0.000    0.000    0.000    0.750    0.000    0.000 
#    0.000    0.000    0.000    0.000    0.000    0.000 
#
# Total GULP energy -198282.247016 kJ/mol
# GULP energy per Si atom -12392.640438 kJ/mol
# Density = 1.890641 g / cm^3
# Si number density = 18.949536 Si / 1000 Ang^3
#
#
#
# Elastic Constant Matrix: (Units=GPa)
#
#
# Indices 1 2 3 4 5 6 
#
# 1 88.5205 25.8520 11.3049 0.0000 -5.7761 0.0000
# 2 25.8520 132.2023 13.6046 0.0000 2.1484 0.0000
# 3 11.3049 13.6046 63.2977 0.0000 -6.7143 0.0000
# 4 0.0000 0.0000 0.0000 15.3111 0.0000 -0.4954
# 5 -5.7761 2.1484 -6.7143 0.0000 23.9296 0.0000
# 6 0.0000 0.0000 0.0000 -0.4954 0.0000 24.8586
#
#
#
# Elastic Compliance Matrix: (Units=1/GPa)
#
#
# Indices 1 2 3 4 5 6 
#
# 1 0.012334 -0.002312 -0.001410 0.000000 0.002789 0.000000
# 2 -0.002312 0.008202 -0.001533 0.000000 -0.001725 0.000000
# 3 -0.001410 -0.001533 0.016860 0.000000 0.004528 0.000000
# 4 0.000000 0.000000 0.000000 0.065354 0.000000 0.001303
# 5 0.002789 -0.001725 0.004528 0.000000 0.043888 0.000000
# 6 0.000000 0.000000 0.000000 0.001303 0.000000 0.040254
#
#
# Mechanical properties :
#
#
# Convention : Reuss Voigt Hill
#
# Bulk Modulus (GPa) = 37.19404 42.83817 40.01610
# Shear Modulus (GPa) = 24.22906 28.37046 26.29976
#
# Velocity S-wave (km/s) = 3.57964 3.87351 3.72947
# Velocity P-wave (km/s) = 6.06265 6.53154 6.30145
#
# Compressibility (1/GPa) = 0.02688603
#
# Stress axis : x y z
#
# Youngs Moduli (GPa) = 81.07576 121.92049 59.31218
#
# Poissons Ratio (x) = 0.28190 0.08363
# Poissons Ratio (y) = 0.18746 0.09092
# Poissons Ratio (z) = 0.11432 0.18689
#
# Static dielectric constant tensor:
#      x y z
#    x 3.526400 0.000000 0.076780 
#    y 0.000000 3.903330 0.000000 
#    z 0.076780 0.000000 3.159710 
# 
# 
# High freq. dielectric constant tensor:
#      x y z
#    x 1.737260 0.000000 0.004520 
#    y 0.000000 1.760230 0.000000 
#    z 0.004520 0.000000 1.693530 
# 
# From -- ./inp_files/37365.got.cif
#   From: 2010.03.12/outbox.cif.g09.slc.cpg/sg5_19_cif.got.tgz:37365.got - 2010.03.31 09:47:26.
