data_PCOD8051415
_publ_section_title
;
Structure prediction by ZEFSAII (Michael W. Deem and Ramdas Pophale) SiO2 
 PCOD8051415
Probable space group: C 2
;
_chemical_formula_sum "Si O2"
_cell_formula_units_Z 32
_cell_length_a 14.139306
_cell_length_b 22.316306
_cell_length_c 8.542235
_cell_angle_alpha 90.000000
_cell_angle_beta 150.171869
_cell_angle_gamma 90.000000
_cell_volume 1340.687802
_symmetry_space_group_name_H-M "C 2"
_symmetry_group_IT_number 5
_symmetry_cell_setting 'monoclinic'
loop_
_space_group_symop_operation_xyz
x,y,z
-x,y,-z
1/2+x,1/2+y,z
1/2-x,1/2+y,-z
loop_
_atom_site_type_symbol
_atom_site_label
_atom_site_fract_x
_atom_site_fract_y
_atom_site_fract_z
Si Si1 0.816679 0.958020 0.344879
Si Si2 0.727854 0.817343 0.699951
Si Si3 0.813058 0.196366 0.181668
Si Si4 0.696538 0.521795 0.365889
Si Si5 0.966543 0.434775 0.621333
Si Si6 0.054380 0.625437 0.400018
Si Si7 0.309288 0.732573 0.821180
Si Si8 0.101231 0.836195 0.384403
O O1 0.806571 0.898119 0.432468
O O2 0.000000 0.960164 0.500000
O O3 0.825818 0.014212 0.478401
O O4 0.628040 0.958222 0.970050
O O5 0.675777 0.751316 0.680134
O O6 0.546954 0.862262 0.418809
O O7 0.819316 0.810274 0.662245
O O8 0.874252 0.845152 0.038848
O O9 0.000000 0.157708 0.500000
O O10 0.631372 0.154204 0.948094
O O11 0.839733 0.222445 0.047338
O O12 0.761496 0.457844 0.387772
O O13 0.870585 0.567147 0.582217
O O14 0.500000 0.541966 0.000000
O O15 0.000000 0.464390 0.500000
O O16 0.225190 0.672128 0.628404
O O17 0.000000 0.609533 0.500000
O O18 0.153505 0.785634 0.586937
O O19 0.500000 0.749806 0.000000
#
# Coordination Sequence:
#
# PCOD8051415 Si02
#       8
#     4   4   4   4   4   4   4   4
#     4  12  28  46  72 112 156 202 257 315 385 461
#     4  11  23  42  67 103 154 204 244 310 372 454
#     4  11  24  44  72 112 155 197 257 309 378 456
#     4  12  25  50  80 107 148 201 262 324 387 460
#     4  12  26  45  71 110 152 201 254 306 383 455
#     4  10  24  49  77 109 148 201 256 320 386 449
#     4  11  24  42  70 108 149 201 250 310 381 454
#     4  11  24  40  67 103 154 200 249 303 381 452
#
# _framework density 23.868347
#
# number of rings (size 3 to 8) (size 9 to 14) (size 15 to 20)
#    0.000    0.750    2.500    4.500    7.000    0.000 
#    0.000   10.625    0.000    0.000    0.000    0.000 
#    0.000    0.000    0.000    0.000    0.000    0.000 
#
# Total GULP energy -198374.756387 kJ/mol
# GULP energy per Si atom -12398.422274 kJ/mol
# Density = 2.381402 g / cm^3
# Si number density = 23.868347 Si / 1000 Ang^3
#
#
#
# Elastic Constant Matrix: (Units=GPa)
#
#
# Indices 1 2 3 4 5 6 
#
# 1 116.0033 43.5964 55.7586 0.0000 3.1705 0.0000
# 2 43.5964 105.8659 47.1680 0.0000 -2.3528 0.0000
# 3 55.7586 47.1680 178.8107 0.0000 -10.4607 0.0000
# 4 0.0000 0.0000 0.0000 23.5826 0.0000 5.8859
# 5 3.1705 -2.3528 -10.4607 0.0000 30.4080 0.0000
# 6 0.0000 0.0000 0.0000 5.8859 0.0000 34.9529
#
#
#
# Elastic Compliance Matrix: (Units=1/GPa)
#
#
# Indices 1 2 3 4 5 6 
#
# 1 0.011319 -0.003490 -0.002749 0.000000 -0.002396 0.000000
# 2 -0.003490 0.011780 -0.001985 0.000000 0.000593 0.000000
# 3 -0.002749 -0.001985 0.007125 0.000000 0.002584 0.000000
# 4 0.000000 0.000000 0.000000 0.044265 0.000000 -0.007454
# 5 -0.002396 0.000593 0.002584 0.000000 0.034071 0.000000
# 6 0.000000 0.000000 0.000000 -0.007454 0.000000 0.029865
#
#
# Mechanical properties :
#
#
# Convention : Reuss Voigt Hill
#
# Bulk Modulus (GPa) = 72.58587 77.08065 74.83326
# Shear Modulus (GPa) = 31.35520 34.73249 33.04385
#
# Velocity S-wave (km/s) = 3.62839 3.81881 3.72482
# Velocity P-wave (km/s) = 6.93041 7.19782 7.06538
#
# Compressibility (1/GPa) = 0.01377679
#
# Stress axis : x y z
#
# Youngs Moduli (GPa) = 88.34851 84.88698 140.36055
#
# Poissons Ratio (x) = 0.29621 0.38588
# Poissons Ratio (y) = 0.30829 0.27858
# Poissons Ratio (z) = 0.24289 0.16848
#
# Static dielectric constant tensor:
#      x y z
#    x 4.444960 0.000000 0.003880 
#    y 0.000000 4.035460 0.000000 
#    z 0.003880 0.000000 4.670170 
# 
# 
# High freq. dielectric constant tensor:
#      x y z
#    x 1.956730 0.000000 0.000490 
#    y 0.000000 1.930330 0.000000 
#    z 0.000490 0.000000 1.960710 
# 
# From -- ./inp_files/25660.got.cif
#   From: 2010.03.12/outbox.cif.g09.slc.cpg/sg5_13_cif.got.tgz:25660.got - 2010.03.31 09:47:26.
