data_PCOD8051921
_publ_section_title
;
Structure prediction by ZEFSAII (Michael W. Deem and Ramdas Pophale) SiO2 
 PCOD8051921
Probable space group: C 2
;
_chemical_formula_sum "Si O2"
_cell_formula_units_Z 20
_cell_length_a 12.249675
_cell_length_b 5.352567
_cell_length_c 19.306235
_cell_angle_alpha 90.000000
_cell_angle_beta 140.720474
_cell_angle_gamma 90.000000
_cell_volume 801.418819
_symmetry_space_group_name_H-M "C 2"
_symmetry_group_IT_number 5
_symmetry_cell_setting 'monoclinic'
loop_
_space_group_symop_operation_xyz
x,y,z
-x,y,-z
1/2+x,1/2+y,z
1/2-x,1/2+y,-z
loop_
_atom_site_type_symbol
_atom_site_label
_atom_site_fract_x
_atom_site_fract_y
_atom_site_fract_z
Si Si1 0.122903 0.417910 0.256046
Si Si2 0.318673 0.820545 0.568521
Si Si3 0.503632 0.525002 0.911553
Si Si4 0.800595 0.199229 0.223685
Si Si5 0.817718 0.767166 0.119033
O O1 0.239280 0.345500 0.379541
O O2 0.088855 0.173693 0.194993
O O3 0.224365 0.611533 0.259296
O O4 0.942945 0.533772 0.198424
O O5 0.253326 0.553353 0.509778
O O6 0.525248 0.833216 0.667877
O O7 0.348747 0.388066 0.878870
O O8 0.635798 0.340318 0.937387
O O9 0.614945 0.696795 0.018412
O O10 0.839806 0.983353 0.187111
#
# Coordination Sequence:
#
# PCOD8051921 Si02
#       5
#     4   4   4   4   4
#     4  11  26  50  76 111 155 200 264 324 387 482
#     4  12  29  56  82 110 155 207 268 346 402 453
#     4  11  24  47  78 111 159 206 255 313 390 488
#     4  11  28  50  76 116 157 205 265 325 393 479
#     4  11  23  51  73 115 165 208 249 317 397 477
#
# _framework density 24.955739999999999
#
# number of rings (size 3 to 8) (size 9 to 14) (size 15 to 20)
#    0.000    0.800    4.000    1.200    8.400    1.600 
#    7.200    0.000    0.000    0.000    0.000    0.000 
#    0.000    0.000    0.000    0.000    0.000    0.000 
#
# Total GULP energy -124006.752213 kJ/mol
# GULP energy per Si atom -12400.675221 kJ/mol
# Density = 2.489894 g / cm^3
# Si number density = 24.955740 Si / 1000 Ang^3
#
#
#
# Elastic Constant Matrix: (Units=GPa)
#
#
# Indices 1 2 3 4 5 6 
#
# 1 109.7537 11.8301 34.6774 0.0000 15.9148 0.0000
# 2 11.8301 105.8917 38.1129 0.0000 6.2824 0.0003
# 3 34.6774 38.1129 97.0704 0.0000 -5.8312 0.0000
# 4 0.0000 0.0000 0.0000 59.7436 0.0000 -5.4706
# 5 15.9148 6.2824 -5.8312 0.0000 49.3989 0.0001
# 6 0.0000 0.0003 0.0000 -5.4706 0.0001 38.8090
#
#
#
# Elastic Compliance Matrix: (Units=1/GPa)
#
#
# Indices 1 2 3 4 5 6 
#
# 1 0.011051 0.000609 -0.004437 0.000000 -0.004162 0.000000
# 2 0.000609 0.011216 -0.004752 0.000000 -0.002184 0.000000
# 3 -0.004437 -0.004752 0.013974 0.000000 0.003683 0.000000
# 4 0.000000 0.000000 0.000000 0.016957 0.000000 0.002390
# 5 -0.004162 -0.002184 0.003683 0.000000 0.022297 0.000000
# 6 0.000000 0.000000 0.000000 0.002390 0.000000 0.026104
#
#
# Mechanical properties :
#
#
# Convention : Reuss Voigt Hill
#
# Bulk Modulus (GPa) = 52.41005 53.55070 52.98038
# Shear Modulus (GPa) = 39.96190 44.79665 42.37928
#
# Velocity S-wave (km/s) = 4.00598 4.24139 4.12537
# Velocity P-wave (km/s) = 6.51490 6.74468 6.63079
#
# Compressibility (1/GPa) = 0.01908031
#
# Stress axis : x y z
#
# Youngs Moduli (GPa) = 90.48955 89.16143 71.56076
#
# Poissons Ratio (x) = -0.05433 0.31752
# Poissons Ratio (y) = -0.05514 0.34009
# Poissons Ratio (z) = 0.40151 0.42373
#
# Static dielectric constant tensor:
#      x y z
#    x 5.013850 0.000000 -0.068740 
#    y 0.000000 4.738080 0.000000 
#    z -0.068740 0.000000 4.513650 
# 
# 
# High freq. dielectric constant tensor:
#      x y z
#    x 2.024010 0.000000 -0.009460 
#    y 0.000000 2.005360 0.000000 
#    z -0.009460 0.000000 1.990020 
# 
# From -- ./inp_files/65757.got.cif
#   From: 2010.03.12/outbox.cif.g09.slc.cpg/sg5_33_cif.got.tgz:65757.got - 2010.03.31 09:47:26.
