data_PCOD8051740
_publ_section_title
;
Structure prediction by ZEFSAII (Michael W. Deem and Ramdas Pophale) SiO2 
 PCOD8051740
Probable space group: C 2
;
_chemical_formula_sum "Si O2"
_cell_formula_units_Z 24
_cell_length_a 7.290388
_cell_length_b 18.748710
_cell_length_c 9.907090
_cell_angle_alpha 90.000000
_cell_angle_beta 117.153897
_cell_angle_gamma 90.000000
_cell_volume 1204.904649
_symmetry_space_group_name_H-M "C 2"
_symmetry_group_IT_number 5
_symmetry_cell_setting 'monoclinic'
loop_
_space_group_symop_operation_xyz
x,y,z
-x,y,-z
1/2+x,1/2+y,z
1/2-x,1/2+y,-z
loop_
_atom_site_type_symbol
_atom_site_label
_atom_site_fract_x
_atom_site_fract_y
_atom_site_fract_z
Si Si1 0.974465 0.150220 0.836433
Si Si2 0.679701 0.058200 0.167126
Si Si3 0.335178 0.898494 0.324254
Si Si4 0.418496 0.417946 0.326371
Si Si5 0.089385 0.555505 0.675857
Si Si6 0.046244 0.316545 0.171491
O O1 0.776938 0.108567 0.718853
O O2 0.934472 0.232855 0.797360
O O3 0.178658 0.124512 0.828053
O O4 0.000000 0.131295 0.000000
O O5 0.579316 0.083089 0.274508
O O6 0.815277 0.986824 0.223590
O O7 0.500000 0.043628 0.000000
O O8 0.500000 0.886758 0.500000
O O9 0.367470 0.843744 0.211709
O O10 0.346089 0.976118 0.257917
O O11 0.894933 0.887327 0.699127
O O12 0.500000 0.441856 0.500000
O O13 0.257311 0.353944 0.287333
O O14 0.000000 0.546696 0.500000
O O15 0.000000 0.334628 0.000000
#
# Coordination Sequence:
#
# PCOD8051740 Si02
#       6
#     4   4   4   4   4   4
#     4  11  25  45  65  96 137 173 216 276 329 385
#     4  12  24  42  72  97 128 178 225 265 325 392
#     4  11  22  43  69  96 130 171 218 268 328 390
#     4  12  23  42  73 100 134 170 217 280 328 383
#     4  11  23  42  68 101 131 166 221 277 325 385
#     4  11  26  45  64  99 135 171 222 271 326 392
#
# _framework density 19.918588
#
# number of rings (size 3 to 8) (size 9 to 14) (size 15 to 20)
#    0.000    0.667    6.667    1.500    0.000    2.667 
#    3.000    0.000    0.000    0.000    0.000    0.000 
#    0.000    0.000    0.000    0.000    0.000    0.000 
#
# Total GULP energy -148841.411117 kJ/mol
# GULP energy per Si atom -12403.450926 kJ/mol
# Density = 1.987325 g / cm^3
# Si number density = 19.918588 Si / 1000 Ang^3
#
#
#
# Elastic Constant Matrix: (Units=GPa)
#
#
# Indices 1 2 3 4 5 6 
#
# 1 126.8605 13.4223 35.0269 0.0000 -10.9382 0.0000
# 2 13.4223 83.3203 38.0739 0.0000 2.1602 0.0000
# 3 35.0269 38.0739 63.2355 0.0000 -9.2187 0.0000
# 4 0.0000 0.0000 0.0000 25.7255 0.0000 -1.3192
# 5 -10.9382 2.1602 -9.2187 0.0000 39.4036 0.0000
# 6 0.0000 0.0000 0.0000 -1.3192 0.0000 35.5033
#
#
#
# Elastic Compliance Matrix: (Units=1/GPa)
#
#
# Indices 1 2 3 4 5 6 
#
# 1 0.009447 0.001041 -0.005680 0.000000 0.001237 0.000000
# 2 0.001041 0.017112 -0.011362 0.000000 -0.003307 0.000000
# 3 -0.005680 -0.011362 0.026568 0.000000 0.005262 0.000000
# 4 0.000000 0.000000 0.000000 0.038946 0.000000 0.001447
# 5 0.001237 -0.003307 0.005262 0.000000 0.027134 0.000000
# 6 0.000000 0.000000 0.000000 0.001447 0.000000 0.028220
#
#
# Mechanical properties :
#
#
# Convention : Reuss Voigt Hill
#
# Bulk Modulus (GPa) = 47.33356 49.60697 48.47027
# Shear Modulus (GPa) = 26.81390 32.58604 29.69997
#
# Velocity S-wave (km/s) = 3.67301 4.04909 3.86562
# Velocity P-wave (km/s) = 6.46553 6.84245 6.65666
#
# Compressibility (1/GPa) = 0.02112666
#
# Stress axis : x y z
#
# Youngs Moduli (GPa) = 105.85006 58.43918 37.63904
#
# Poissons Ratio (x) = -0.06086 0.21378
# Poissons Ratio (y) = -0.11024 0.42765
# Poissons Ratio (z) = 0.60121 0.66399
#
# Static dielectric constant tensor:
#      x y z
#    x 3.840140 0.000000 -0.064870 
#    y 0.000000 3.545740 0.000000 
#    z -0.064870 0.000000 3.675330 
# 
# 
# High freq. dielectric constant tensor:
#      x y z
#    x 1.797230 0.000000 -0.005980 
#    y 0.000000 1.769370 0.000000 
#    z -0.005980 0.000000 1.782410 
# 
# From -- ./inp_files/16874.got.cif
#   From: 2010.03.12/outbox.cif.g09.slc.cpg/sg5_9_cif.got.tgz:16874.got - 2010.03.31 09:47:26.
