data_PCOD8051841
_publ_section_title
;
Structure prediction by ZEFSAII (Michael W. Deem and Ramdas Pophale) SiO2 
 PCOD8051841
Probable space group: C 2
;
_chemical_formula_sum "Si O2"
_cell_formula_units_Z 28
_cell_length_a 19.076238
_cell_length_b 6.735694
_cell_length_c 12.557875
_cell_angle_alpha 90.000000
_cell_angle_beta 56.694968
_cell_angle_gamma 90.000000
_cell_volume 1348.566515
_symmetry_space_group_name_H-M "C 2"
_symmetry_group_IT_number 5
_symmetry_cell_setting 'monoclinic'
loop_
_space_group_symop_operation_xyz
x,y,z
-x,y,-z
1/2+x,1/2+y,z
1/2-x,1/2+y,-z
loop_
_atom_site_type_symbol
_atom_site_label
_atom_site_fract_x
_atom_site_fract_y
_atom_site_fract_z
Si Si1 0.932776 0.722600 0.463365
Si Si2 0.693218 0.766940 0.193668
Si Si3 0.368091 0.573434 0.382689
Si Si4 0.019638 0.190887 0.106223
Si Si5 0.162893 0.920765 0.072452
Si Si6 0.704081 0.904848 0.412897
Si Si7 0.062596 0.532898 0.209257
O O1 0.854510 0.591664 0.568935
O O2 0.000000 0.759787 0.500000
O O3 0.975898 0.611057 0.329055
O O4 0.899130 0.933973 0.452606
O O5 0.688415 0.538306 0.159128
O O6 0.719708 0.771082 0.294922
O O7 0.602583 0.872068 0.256981
O O8 0.756289 0.891403 0.067739
O O9 0.442533 0.612699 0.239291
O O10 0.338912 0.778710 0.458502
O O11 0.293740 0.474472 0.378806
O O12 0.098246 0.048569 0.058479
O O13 0.042191 0.418206 0.116673
O O14 0.000000 0.184226 0.000000
O O15 0.126173 0.710570 0.135902
#
# Coordination Sequence:
#
# PCOD8051841 Si02
#       7
#     4   4   4   4   4   4   4
#     4  12  25  44  73  99 138 182 226 283 345 412
#     4  11  24  42  69  98 138 176 225 282 346 407
#     4  12  26  47  68 101 140 176 233 285 338 419
#     4  11  25  44  69  97 133 181 229 279 343 406
#     4  11  23  44  66  99 136 174 228 284 332 411
#     4  12  26  45  69 103 137 182 222 284 352 408
#     4  11  23  43  65  98 136 174 228 282 334 411
#
# _framework density 20.762785999999998
#
# number of rings (size 3 to 8) (size 9 to 14) (size 15 to 20)
#    0.000    0.571    7.143    0.857    2.000    1.143 
#    5.143    0.000    0.000    0.000    0.000    0.000 
#    0.000    0.000    0.000    0.000    0.000    0.000 
#
# Total GULP energy -173675.422452 kJ/mol
# GULP energy per Si atom -12405.387318 kJ/mol
# Density = 2.071553 g / cm^3
# Si number density = 20.762786 Si / 1000 Ang^3
#
#
#
# Elastic Constant Matrix: (Units=GPa)
#
#
# Indices 1 2 3 4 5 6 
#
# 1 127.5254 49.3145 31.0301 0.0000 14.1139 0.0000
# 2 49.3145 106.3844 34.1138 0.0000 4.3000 0.0000
# 3 31.0301 34.1138 73.6888 0.0001 13.2098 0.0000
# 4 0.0000 0.0000 0.0001 58.8278 0.0000 21.7754
# 5 14.1139 4.3000 13.2098 0.0000 42.7127 0.0000
# 6 0.0000 0.0000 0.0000 21.7754 0.0000 63.4979
#
#
#
# Elastic Compliance Matrix: (Units=1/GPa)
#
#
# Indices 1 2 3 4 5 6 
#
# 1 0.010116 -0.003949 -0.002015 0.000000 -0.002322 0.000000
# 2 -0.003949 0.012590 -0.004417 0.000000 0.001404 0.000000
# 3 -0.002015 -0.004417 0.017220 0.000000 -0.004215 0.000000
# 4 0.000000 0.000000 0.000000 0.019470 0.000000 -0.006677
# 5 -0.002322 0.001404 -0.004215 0.000000 0.025342 0.000000
# 6 0.000000 0.000000 0.000000 -0.006677 0.000000 0.018038
#
#
# Mechanical properties :
#
#
# Convention : Reuss Voigt Hill
#
# Bulk Modulus (GPa) = 52.18510 59.61281 55.89896
# Shear Modulus (GPa) = 38.48300 45.88367 42.18334
#
# Velocity S-wave (km/s) = 4.30985 4.70606 4.51231
# Velocity P-wave (km/s) = 7.06788 7.63564 7.35724
#
# Compressibility (1/GPa) = 0.01916256
#
# Stress axis : x y z
#
# Youngs Moduli (GPa) = 98.85218 79.42658 58.07286
#
# Poissons Ratio (x) = 0.31367 0.11704
# Poissons Ratio (y) = 0.39039 0.25652
# Poissons Ratio (z) = 0.19922 0.35084
#
# Static dielectric constant tensor:
#      x y z
#    x 3.868710 0.000000 -0.161080 
#    y 0.000000 3.874330 0.000000 
#    z -0.161080 0.000000 3.275040 
# 
# 
# High freq. dielectric constant tensor:
#      x y z
#    x 1.823110 0.000000 -0.009900 
#    y 0.000000 1.823360 0.000000 
#    z -0.009900 0.000000 1.812800 
# 
# From -- ./inp_files/45583.got.cif
#   From: 2010.03.12/outbox.cif.g09.slc.cpg/sg5_23_cif.got.tgz:45583.got - 2010.03.31 09:47:26.
