data_PCOD8051885
_publ_section_title
;
Structure prediction by ZEFSAII (Michael W. Deem and Ramdas Pophale) SiO2 
 PCOD8051885
Probable space group: C 2
;
_chemical_formula_sum "Si O2"
_cell_formula_units_Z 22
_cell_length_a 16.272138
_cell_length_b 8.796809
_cell_length_c 13.436196
_cell_angle_alpha 90.000000
_cell_angle_beta 150.443097
_cell_angle_gamma 90.000000
_cell_volume 948.738236
_symmetry_space_group_name_H-M "C 2"
_symmetry_group_IT_number 5
_symmetry_cell_setting 'monoclinic'
loop_
_space_group_symop_operation_xyz
x,y,z
-x,y,-z
1/2+x,1/2+y,z
1/2-x,1/2+y,-z
loop_
_atom_site_type_symbol
_atom_site_label
_atom_site_fract_x
_atom_site_fract_y
_atom_site_fract_z
Si Si1 0.584041 0.194930 0.939444
Si Si2 0.065706 0.850050 0.394509
Si Si3 0.500000 0.138637 0.500000
Si Si4 0.446603 0.864933 0.836763
Si Si5 0.832920 0.975681 0.872936
Si Si6 0.389984 0.627535 0.131812
O O1 0.436869 0.274663 0.718892
O O2 0.531870 0.028564 0.916674
O O3 0.637840 0.292340 0.094470
O O4 0.742994 0.203694 0.036331
O O5 0.249683 0.871499 0.629032
O O6 0.963415 0.745010 0.365584
O O7 0.994013 0.020822 0.316434
O O8 0.660993 0.033012 0.640796
O O9 0.500899 0.760508 0.802137
O O10 0.500000 0.796878 0.000000
O O11 0.000000 0.049411 0.000000
O O12 0.814849 0.020296 0.968278
#
# Coordination Sequence:
#
# PCOD8051885 Si02
#       6
#     4   4   2   4   4   4
#     4  11  25  47  68 104 146 188 240 294 366 436
#     4  11  25  43  74 102 141 191 248 291 367 431
#     4  12  24  46  74 112 140 194 250 306 364 430
#     4  12  25  44  73 106 146 186 235 304 362 434
#     4  11  24  46  72 103 143 188 240 301 362 427
#     4  11  23  45  71  99 141 190 236 293 363 429
#
# _framework density 23.188694000000002
#
# number of rings (size 3 to 8) (size 9 to 14) (size 15 to 20)
#    0.000    0.727    1.818    6.545    2.545    1.455 
#    6.545    0.000    0.000    0.000    0.000    0.000 
#    0.000    0.000    0.000    0.000    0.000    0.000 
#
# Total GULP energy -136376.115023 kJ/mol
# GULP energy per Si atom -12397.828638 kJ/mol
# Density = 2.313592 g / cm^3
# Si number density = 23.188694 Si / 1000 Ang^3
#
#
#
# Elastic Constant Matrix: (Units=GPa)
#
#
# Indices 1 2 3 4 5 6 
#
# 1 89.7567 33.5840 33.4751 0.0000 15.4986 0.0000
# 2 33.5840 156.1828 42.3941 0.0000 0.0709 0.0000
# 3 33.4751 42.3941 127.5316 0.0000 13.2514 0.0000
# 4 0.0000 0.0000 0.0000 30.4092 0.0000 -6.6774
# 5 15.4986 0.0709 13.2514 0.0000 36.3931 0.0000
# 6 0.0000 0.0000 0.0000 -6.6774 0.0000 36.7623
#
#
#
# Elastic Compliance Matrix: (Units=1/GPa)
#
#
# Indices 1 2 3 4 5 6 
#
# 1 0.013737 -0.002324 -0.002314 0.000000 -0.005003 0.000000
# 2 -0.002324 0.007458 -0.002048 0.000000 0.001721 0.000000
# 3 -0.002314 -0.002048 0.009381 0.000000 -0.002427 0.000000
# 4 0.000000 0.000000 0.000000 0.034251 0.000000 0.006221
# 5 -0.005003 0.001721 -0.002427 0.000000 0.030489 0.000000
# 6 0.000000 0.000000 0.000000 0.006221 0.000000 0.028332
#
#
# Mechanical properties :
#
#
# Convention : Reuss Voigt Hill
#
# Bulk Modulus (GPa) = 58.11896 65.81971 61.96933
# Shear Modulus (GPa) = 35.02542 38.31411 36.66977
#
# Velocity S-wave (km/s) = 3.89067 4.06923 3.98095
# Velocity P-wave (km/s) = 6.73060 7.10804 6.92189
#
# Compressibility (1/GPa) = 0.01720609
#
# Stress axis : x y z
#
# Youngs Moduli (GPa) = 72.79350 134.09289 106.59428
#
# Poissons Ratio (x) = 0.31159 0.24661
# Poissons Ratio (y) = 0.16915 0.21829
# Poissons Ratio (z) = 0.16841 0.27461
#
# Static dielectric constant tensor:
#      x y z
#    x 4.223100 0.000000 -0.095300 
#    y 0.000000 4.429270 0.000000 
#    z -0.095300 0.000000 4.155030 
# 
# 
# High freq. dielectric constant tensor:
#      x y z
#    x 1.918130 0.000000 0.006150 
#    y 0.000000 1.935930 0.000000 
#    z 0.006150 0.000000 1.905720 
# 
# From -- ./inp_files/32544.got.cif
#   From: 2010.03.12/outbox.cif.g09.slc.cpg/sg5_17_cif.got.tgz:32544.got - 2010.03.31 09:47:26.
