data_PCOD8051189
_publ_section_title
;
Structure prediction by ZEFSAII (Michael W. Deem and Ramdas Pophale) SiO2 
 PCOD8051189
Probable space group: C 2
;
_chemical_formula_sum "Si O2"
_cell_formula_units_Z 32
_cell_length_a 14.826503
_cell_length_b 22.874468
_cell_length_c 8.667738
_cell_angle_alpha 90.000000
_cell_angle_beta 30.949303
_cell_angle_gamma 90.000000
_cell_volume 1511.801105
_symmetry_space_group_name_H-M "C 2"
_symmetry_group_IT_number 5
_symmetry_cell_setting 'monoclinic'
loop_
_space_group_symop_operation_xyz
x,y,z
-x,y,-z
1/2+x,1/2+y,z
1/2-x,1/2+y,-z
loop_
_atom_site_type_symbol
_atom_site_label
_atom_site_fract_x
_atom_site_fract_y
_atom_site_fract_z
Si Si1 0.311703 0.947290 0.332018
Si Si2 0.980394 0.751281 0.709574
Si Si3 0.682949 0.692314 0.669914
Si Si4 0.633877 0.573379 0.919586
Si Si5 0.378101 0.552462 0.550881
Si Si6 0.517017 0.374058 0.155349
Si Si7 0.684847 0.675403 0.303192
Si Si8 0.822622 0.461730 0.675300
O O1 0.340169 0.955292 0.469362
O O2 0.166711 0.898397 0.509411
O O3 0.254897 0.008100 0.334933
O O4 0.500000 0.925354 0.000000
O O5 0.928239 0.817208 0.829896
O O6 0.000000 0.743089 0.500000
O O7 0.167569 0.737572 0.507420
O O8 0.835005 0.708440 0.989989
O O9 0.710650 0.629735 0.717413
O O10 0.688419 0.689889 0.478336
O O11 0.500000 0.718716 0.000000
O O12 0.783713 0.530242 0.762349
O O13 0.500000 0.538321 0.000000
O O14 0.508081 0.589407 0.246646
O O15 0.500000 0.519676 0.500000
O O16 0.271906 0.606095 0.784501
O O17 0.500000 0.358959 0.000000
O O18 0.664629 0.422674 0.972243
O O19 0.500000 0.694043 0.500000
O O20 0.000000 0.443127 0.500000
#
# Coordination Sequence:
#
# PCOD8051189 Si02
#       8
#     4   4   4   4   4   4   4   4
#     4  11  24  41  66 102 131 170 221 271 333 397
#     4  12  28  44  69  99 131 179 229 275 330 402
#     4  11  22  42  69  96 136 176 218 275 332 392
#     4  11  19  42  66  97 139 178 211 269 334 393
#     4  11  23  39  67  98 141 179 212 272 335 394
#     4  10  23  49  69  88 133 176 222 281 334 385
#     4  11  23  43  67  98 135 176 223 272 330 396
#     4  11  23  40  70  99 130 176 219 270 332 400
#
# _framework density 21.166805
#
# number of rings (size 3 to 8) (size 9 to 14) (size 15 to 20)
#    0.000    1.000    5.000    2.250    3.500    5.000 
#    0.000    2.500    0.000    0.000    0.000    0.000 
#    0.000    0.000    0.000    0.000    0.000    0.000 
#
# Total GULP energy -198337.250842 kJ/mol
# GULP energy per Si atom -12396.078178 kJ/mol
# Density = 2.111863 g / cm^3
# Si number density = 21.166805 Si / 1000 Ang^3
#
#
#
# Elastic Constant Matrix: (Units=GPa)
#
#
# Indices 1 2 3 4 5 6 
#
# 1 123.4546 33.4827 43.0691 -0.0003 -5.4412 -0.0131
# 2 33.4827 90.9511 54.4318 -0.0025 2.2503 -0.0099
# 3 43.0691 54.4318 140.9837 -0.0028 -5.2843 -0.0396
# 4 -0.0003 -0.0025 -0.0028 21.7489 -0.0009 -25.0480
# 5 -5.4412 2.2503 -5.2843 -0.0009 36.3885 0.0152
# 6 -0.0131 -0.0099 -0.0396 -25.0480 0.0152 -61.5396
#
#
#
# Elastic Compliance Matrix: (Units=1/GPa)
#
#
# Indices 1 2 3 4 5 6 
#
# 1 0.009472 -0.002361 -0.001934 0.000000 0.001282 0.000000
# 2 -0.002361 0.014992 -0.005143 0.000001 -0.002027 0.000000
# 3 -0.001934 -0.005143 0.009723 -0.000003 0.001441 -0.000003
# 4 0.000000 0.000001 -0.000003 0.031305 0.000005 -0.012742
# 5 0.001282 -0.002027 0.001441 0.000005 0.028007 0.000004
# 6 0.000000 0.000000 -0.000003 -0.012742 0.000004 -0.011064
#
#
# Mechanical properties :
#
#
# Convention : Reuss Voigt Hill
#
# Bulk Modulus (GPa) = 65.31122 68.59516 66.95319
# Shear Modulus (GPa) = 46.98553 14.27996 30.63275
#
# Velocity S-wave (km/s) = 4.71656 2.60020 3.80834
# Velocity P-wave (km/s) = 7.78355 6.44143 7.14408
#
# Compressibility (1/GPa) = 0.01531131
#
# Stress axis : x y z
#
# Youngs Moduli (GPa) = 105.57791 66.70113 102.84470
#
# Poissons Ratio (x) = 0.15750 0.19888
# Poissons Ratio (y) = 0.24930 0.52892
# Poissons Ratio (z) = 0.20417 0.34304
#
# Static dielectric constant tensor:
#      x y z
#    x 4.000170 -0.000020 -0.024130 
#    y -0.000020 3.660890 0.000060 
#    z -0.024130 0.000060 4.468830 
# 
# 
# High freq. dielectric constant tensor:
#      x y z
#    x 1.842980 0.000000 0.008500 
#    y 0.000000 1.814920 0.000000 
#    z 0.008500 0.000000 1.832750 
# 
# From -- ./inp_files/25571.got.cif
#   From: 2010.03.12/outbox.cif.g09.slc.cpg/sg5_13_cif.got.tgz:25571.got - 2010.03.31 09:47:26.
