data_PCOD8051280
_publ_section_title
;
Structure prediction by ZEFSAII (Michael W. Deem and Ramdas Pophale) SiO2 
 PCOD8051280
Probable space group: C 2
;
_chemical_formula_sum "Si O2"
_cell_formula_units_Z 18
_cell_length_a 8.831766
_cell_length_b 21.163311
_cell_length_c 5.101322
_cell_angle_alpha 90.000000
_cell_angle_beta 61.422069
_cell_angle_gamma 90.000000
_cell_volume 837.319417
_symmetry_space_group_name_H-M "C 2"
_symmetry_group_IT_number 5
_symmetry_cell_setting 'monoclinic'
loop_
_space_group_symop_operation_xyz
x,y,z
-x,y,-z
1/2+x,1/2+y,z
1/2-x,1/2+y,-z
loop_
_atom_site_type_symbol
_atom_site_label
_atom_site_fract_x
_atom_site_fract_y
_atom_site_fract_z
Si Si1 0.096867 0.902200 0.165223
Si Si2 0.193195 0.613483 0.322209
Si Si3 0.609150 0.813360 0.160566
Si Si4 0.200295 0.183554 0.279043
Si Si5 0.500000 0.523885 0.000000
O O1 0.000000 0.878444 0.500000
O O2 0.289193 0.875370 0.016733
O O3 0.000000 0.870164 0.000000
O O4 0.090952 0.978773 0.143904
O O5 0.199937 0.670036 0.531288
O O6 0.000000 0.583719 0.500000
O O7 0.228422 0.636792 0.999936
O O8 0.345570 0.563640 0.262604
O O9 0.500000 0.835807 0.500000
O O10 0.729659 0.755233 0.156122
O O11 0.500000 0.789349 0.000000
O O12 0.000000 0.171549 0.500000
#
# Coordination Sequence:
#
# PCOD8051280 Si02
#       5
#     4   4   4   4   2
#     4  10  24  43  66  94 132 190 219 277 340 392
#     4  12  25  42  70 102 135 179 236 277 341 411
#     4  11  23  42  69 103 136 178 228 281 342 412
#     4  11  22  43  67  97 141 183 214 290 351 399
#     4  10  26  46  70  96 148 182 226 288 338 402
#
# _framework density 21.497171000000002
#
# number of rings (size 3 to 8) (size 9 to 14) (size 15 to 20)
#    0.667    0.444    2.222    4.667    3.111    3.556 
#    0.000    0.000    0.000    0.000    0.000    0.000 
#    0.000    0.000    0.000    0.000    0.000    0.000 
#
# Total GULP energy -111549.726150 kJ/mol
# GULP energy per Si atom -12394.414017 kJ/mol
# Density = 2.144824 g / cm^3
# Si number density = 21.497171 Si / 1000 Ang^3
#
#
#
# Elastic Constant Matrix: (Units=GPa)
#
#
# Indices 1 2 3 4 5 6 
#
# 1 87.1615 42.5427 40.5280 0.0000 -5.9439 0.0000
# 2 42.5427 101.8700 46.7724 0.0000 -21.0909 0.0000
# 3 40.5280 46.7724 152.5259 0.0000 1.9281 0.0000
# 4 0.0000 0.0000 0.0000 32.6941 0.0000 10.0319
# 5 -5.9439 -21.0909 1.9281 0.0000 49.3510 0.0000
# 6 0.0000 0.0000 0.0000 10.0319 0.0000 41.9675
#
#
#
# Elastic Compliance Matrix: (Units=1/GPa)
#
#
# Indices 1 2 3 4 5 6 
#
# 1 0.015150 -0.005298 -0.002396 0.000000 -0.000346 0.000000
# 2 -0.005298 0.014674 -0.003165 0.000000 0.005757 0.000000
# 3 -0.002396 -0.003165 0.008188 0.000000 -0.001961 0.000000
# 4 0.000000 0.000000 0.000000 0.033008 0.000000 -0.007890
# 5 -0.000346 0.005757 -0.001961 0.000000 0.022758 0.000000
# 6 0.000000 0.000000 0.000000 -0.007890 0.000000 0.025714
#
#
# Mechanical properties :
#
#
# Convention : Reuss Voigt Hill
#
# Bulk Modulus (GPa) = 61.37508 66.80487 64.08997
# Shear Modulus (GPa) = 34.09684 38.91681 36.50682
#
# Velocity S-wave (km/s) = 3.98692 4.25940 4.12541
# Velocity P-wave (km/s) = 7.05736 7.43866 7.25051
#
# Compressibility (1/GPa) = 0.01629326
#
# Stress axis : x y z
#
# Youngs Moduli (GPa) = 66.00847 68.14806 122.12554
#
# Poissons Ratio (x) = 0.36105 0.29266
# Poissons Ratio (y) = 0.34972 0.38650
# Poissons Ratio (z) = 0.15818 0.21567
#
# Static dielectric constant tensor:
#      x y z
#    x 3.780670 0.000000 0.057630 
#    y 0.000000 3.651730 0.000000 
#    z 0.057630 0.000000 3.912920 
# 
# 
# High freq. dielectric constant tensor:
#      x y z
#    x 1.831540 0.000000 0.007490 
#    y 0.000000 1.824170 0.000000 
#    z 0.007490 0.000000 1.861900 
# 
# From -- ./inp_files/2583.got.cif
#   From: 2010.03.12/outbox.cif.g09.slc.cpg/sg5_2_cif.got.tgz:2583.got - 2010.03.31 09:47:26.
