data_PCOD8051492
_publ_section_title
;
Structure prediction by ZEFSAII (Michael W. Deem and Ramdas Pophale) SiO2 
 PCOD8051492
Probable space group: C 2
;
_chemical_formula_sum "Si O2"
_cell_formula_units_Z 16
_cell_length_a 9.102260
_cell_length_b 9.105828
_cell_length_c 11.157289
_cell_angle_alpha 90.000000
_cell_angle_beta 38.163651
_cell_angle_gamma 90.000000
_cell_volume 571.415985
_symmetry_space_group_name_H-M "C 2"
_symmetry_group_IT_number 5
_symmetry_cell_setting 'monoclinic'
loop_
_space_group_symop_operation_xyz
x,y,z
-x,y,-z
1/2+x,1/2+y,z
1/2-x,1/2+y,-z
loop_
_atom_site_type_symbol
_atom_site_label
_atom_site_fract_x
_atom_site_fract_y
_atom_site_fract_z
Si Si1 0.952719 0.564340 0.712054
Si Si2 0.728284 0.059692 0.923602
Si Si3 0.094687 0.870407 0.815860
Si Si4 0.862518 0.256960 0.433325
O O1 0.275469 0.520289 0.220557
O O2 0.103066 0.416215 0.648672
O O3 0.132522 0.672605 0.525337
O O4 0.869748 0.640335 0.891300
O O5 0.895120 0.166223 0.738289
O O6 0.500000 0.997044 0.000000
O O7 0.878939 0.917846 0.869078
O O8 0.295833 0.776991 0.618203
O O9 0.000000 0.785058 0.000000
#
# Coordination Sequence:
#
# PCOD8051492 Si02
#       4
#     4   4   4   4
#     4  11  28  48  86 116 163 221 274 329 412 486
#     4  11  28  49  77 126 162 207 275 336 401 483
#     4  10  25  55  83 114 167 223 263 334 409 489
#     4  12  26  51  84 119 162 216 270 334 407 480
#
# _framework density 28.000615
#
# number of rings (size 3 to 8) (size 9 to 14) (size 15 to 20)
#    0.000    1.000    2.500    0.750   14.000    0.000 
#    9.000    0.000    0.000    0.000    0.000    0.000 
#    0.000    0.000    0.000    0.000    0.000    0.000 
#
# Total GULP energy -99167.197804 kJ/mol
# GULP energy per Si atom -12395.899725 kJ/mol
# Density = 2.793688 g / cm^3
# Si number density = 28.000615 Si / 1000 Ang^3
#
#
#
# Elastic Constant Matrix: (Units=GPa)
#
#
# Indices 1 2 3 4 5 6 
#
# 1 158.4563 37.4152 78.5039 -0.0005 -25.5292 0.0002
# 2 37.4152 96.3679 68.9742 -0.0003 -3.1427 0.0002
# 3 78.5039 68.9742 231.7980 -0.0008 -14.6462 0.0006
# 4 -0.0005 -0.0003 -0.0008 76.4441 0.0006 -9.0943
# 5 -25.5292 -3.1427 -14.6462 0.0006 60.6371 -0.0003
# 6 0.0002 0.0002 0.0006 -9.0943 -0.0003 20.5120
#
#
#
# Elastic Compliance Matrix: (Units=1/GPa)
#
#
# Indices 1 2 3 4 5 6 
#
# 1 0.008195 -0.001565 -0.002130 0.000000 0.002855 0.000000
# 2 -0.001565 0.013488 -0.003535 0.000000 -0.000813 0.000000
# 3 -0.002130 -0.003535 0.006112 0.000000 0.000397 0.000000
# 4 0.000000 0.000000 0.000000 0.013810 0.000000 0.006123
# 5 0.002855 -0.000813 0.000397 0.000000 0.017747 0.000000
# 6 0.000000 0.000000 0.000000 0.006123 0.000000 0.051467
#
#
# Mechanical properties :
#
#
# Convention : Reuss Voigt Hill
#
# Bulk Modulus (GPa) = 74.97802 95.15653 85.06728
# Shear Modulus (GPa) = 38.54355 51.63389 45.08872
#
# Velocity S-wave (km/s) = 3.71418 4.29887 4.01718
# Velocity P-wave (km/s) = 6.72524 7.66146 7.20857
#
# Compressibility (1/GPa) = 0.01333724
#
# Stress axis : x y z
#
# Youngs Moduli (GPa) = 122.02051 74.14024 163.60469
#
# Poissons Ratio (x) = 0.11599 0.34842
# Poissons Ratio (y) = 0.19090 0.57835
# Poissons Ratio (z) = 0.25986 0.26209
#
# Static dielectric constant tensor:
#      x y z
#    x 5.152510 0.000000 -0.302510 
#    y 0.000000 5.007290 0.000000 
#    z -0.302510 0.000000 5.903550 
# 
# 
# High freq. dielectric constant tensor:
#      x y z
#    x 2.125220 0.000000 -0.023550 
#    y 0.000000 2.125540 0.000000 
#    z -0.023550 0.000000 2.178090 
# 
# From -- ./inp_files/38648.got.cif
#   From: 2010.03.12/outbox.cif.g09.slc.cpg/sg5_20_cif.got.tgz:38648.got - 2010.03.31 09:47:26.
