data_PCOD8051366
_publ_section_title
;
Structure prediction by ZEFSAII (Michael W. Deem and Ramdas Pophale) SiO2 
 PCOD8051366
Probable space group: C 2
;
_chemical_formula_sum "Si O2"
_cell_formula_units_Z 22
_cell_length_a 21.772690
_cell_length_b 6.531521
_cell_length_c 6.875409
_cell_angle_alpha 90.000000
_cell_angle_beta 81.731925
_cell_angle_gamma 90.000000
_cell_volume 967.580942
_symmetry_space_group_name_H-M "C 2"
_symmetry_group_IT_number 5
_symmetry_cell_setting 'monoclinic'
loop_
_space_group_symop_operation_xyz
x,y,z
-x,y,-z
1/2+x,1/2+y,z
1/2-x,1/2+y,-z
loop_
_atom_site_type_symbol
_atom_site_label
_atom_site_fract_x
_atom_site_fract_y
_atom_site_fract_z
Si Si1 0.664092 0.340020 0.418410
Si Si2 0.567596 0.852471 0.931232
Si Si3 0.500000 0.454931 0.000000
Si Si4 0.319891 0.031599 0.912520
Si Si5 0.255125 0.697786 0.702040
Si Si6 0.455918 0.173760 0.349727
O O1 0.662623 0.239727 0.204745
O O2 0.682186 0.576951 0.383486
O O3 0.716476 0.233729 0.525587
O O4 0.596866 0.326515 0.546428
O O5 0.580860 0.974510 0.722648
O O6 0.500000 0.952068 0.000000
O O7 0.617044 0.908091 0.073255
O O8 0.560737 0.604038 0.942786
O O9 0.499893 0.309266 0.187919
O O10 0.274320 0.908263 0.792998
O O11 0.286230 0.065885 0.131616
O O12 0.500000 0.090030 0.500000
#
# Coordination Sequence:
#
# PCOD8051366 Si02
#       6
#     4   4   2   4   4   4
#     4  12  27  43  72 105 144 179 239 288 341 421
#     4  10  24  46  72  97 141 182 230 282 353 405
#     4  10  26  46  66 106 138 178 236 282 352 410
#     4  12  25  46  73 101 144 186 228 294 348 410
#     4  12  26  45  71 105 140 187 232 286 350 408
#     4  12  26  45  74 104 140 184 232 289 353 410
#
# _framework density 22.737116
#
# number of rings (size 3 to 8) (size 9 to 14) (size 15 to 20)
#    0.545    0.000    6.364    1.091    2.545    5.091 
#    0.000    0.000    0.000    0.000    0.000    0.000 
#    0.000    0.000    0.000    0.000    0.000    0.000 
#
# Total GULP energy -136319.550826 kJ/mol
# GULP energy per Si atom -12392.686439 kJ/mol
# Density = 2.268536 g / cm^3
# Si number density = 22.737116 Si / 1000 Ang^3
#
#
#
# Elastic Constant Matrix: (Units=GPa)
#
#
# Indices 1 2 3 4 5 6 
#
# 1 69.7634 -3.1929 15.3837 0.0000 6.1850 0.0000
# 2 -3.1929 78.7727 24.6345 0.0000 -2.8128 0.0000
# 3 15.3837 24.6345 97.9477 0.0000 7.4001 0.0000
# 4 0.0000 0.0000 0.0000 27.9631 0.0000 -3.9630
# 5 6.1850 -2.8128 7.4001 0.0000 44.4589 0.0000
# 6 0.0000 0.0000 0.0000 -3.9630 0.0000 34.5977
#
#
#
# Elastic Compliance Matrix: (Units=1/GPa)
#
#
# Indices 1 2 3 4 5 6 
#
# 1 0.015110 0.001368 -0.002598 0.000000 -0.001583 0.000000
# 2 0.001368 0.013998 -0.003836 0.000000 0.001334 0.000000
# 3 -0.002598 -0.003836 0.011721 0.000000 -0.001832 0.000000
# 4 0.000000 0.000000 0.000000 0.036352 0.000000 0.004164
# 5 -0.001583 0.001334 -0.001832 0.000000 0.023102 0.000000
# 6 0.000000 0.000000 0.000000 0.004164 0.000000 0.029381
#
#
# Mechanical properties :
#
#
# Convention : Reuss Voigt Hill
#
# Bulk Modulus (GPa) = 32.57633 35.57051 34.07342
# Shear Modulus (GPa) = 33.32752 35.38117 34.35435
#
# Velocity S-wave (km/s) = 3.83270 3.94902 3.89129
# Velocity P-wave (km/s) = 5.82620 6.03914 5.93363
#
# Compressibility (1/GPa) = 0.03069713
#
# Stress axis : x y z
#
# Youngs Moduli (GPa) = 66.18149 71.44129 85.31862
#
# Poissons Ratio (x) = -0.09775 0.22163
# Poissons Ratio (y) = -0.09056 0.32729
# Poissons Ratio (z) = 0.17192 0.27406
#
# Static dielectric constant tensor:
#      x y z
#    x 3.978020 0.000000 -0.069220 
#    y 0.000000 3.972870 0.000000 
#    z -0.069220 0.000000 4.145320 
# 
# 
# High freq. dielectric constant tensor:
#      x y z
#    x 1.894020 0.000000 0.002410 
#    y 0.000000 1.893240 0.000000 
#    z 0.002410 0.000000 1.902250 
# 
# From -- ./inp_files/9286.got.cif
#   From: 2010.03.12/outbox.cif.g09.slc.cpg/sg5_5_cif.got.tgz:9286.got - 2010.03.31 09:47:26.
