data_PCOD8051845
_publ_section_title
;
Structure prediction by ZEFSAII (Michael W. Deem and Ramdas Pophale) SiO2 
 PCOD8051845
Probable space group: C 2
;
_chemical_formula_sum "Si O2"
_cell_formula_units_Z 20
_cell_length_a 16.340257
_cell_length_b 11.123109
_cell_length_c 4.924899
_cell_angle_alpha 90.000000
_cell_angle_beta 73.852200
_cell_angle_gamma 90.000000
_cell_volume 859.807511
_symmetry_space_group_name_H-M "C 2"
_symmetry_group_IT_number 5
_symmetry_cell_setting 'monoclinic'
loop_
_space_group_symop_operation_xyz
x,y,z
-x,y,-z
1/2+x,1/2+y,z
1/2-x,1/2+y,-z
loop_
_atom_site_type_symbol
_atom_site_label
_atom_site_fract_x
_atom_site_fract_y
_atom_site_fract_z
Si Si1 0.658350 0.255710 0.761024
Si Si2 0.940952 0.534180 0.301170
Si Si3 0.839118 0.159643 0.780015
Si Si4 0.591539 0.777346 0.780312
Si Si5 0.399660 0.395572 0.668433
O O1 0.614786 0.152231 0.618685
O O2 0.749562 0.199770 0.738765
O O3 0.656135 0.364808 0.548059
O O4 0.610664 0.297138 0.081047
O O5 0.883587 0.416038 0.299553
O O6 0.000000 0.506811 0.500000
O O7 0.000000 0.563913 0.000000
O O8 0.909857 0.205885 0.501767
O O9 0.856843 0.019033 0.812045
O O10 0.841289 0.223134 0.070431
O O11 0.500000 0.765823 0.000000
O O12 0.500000 0.407033 0.500000
#
# Coordination Sequence:
#
# PCOD8051845 Si02
#       5
#     4   4   4   4   4
#     4  12  27  43  73 104 144 182 238 297 354 414
#     4  11  23  43  71 100 135 181 231 285 346 423
#     4  12  27  44  72 103 147 181 237 297 354 418
#     4  11  23  45  71 102 136 185 232 287 352 425
#     4  12  26  49  73 103 143 197 239 286 358 440
#
# _framework density 23.261019999999998
#
# number of rings (size 3 to 8) (size 9 to 14) (size 15 to 20)
#    0.000    0.400    0.000   10.200    5.600    0.000 
#    0.000    0.000    0.000    0.000    0.000    0.000 
#    0.000    0.000    0.000    0.000    0.000    0.000 
#
# Total GULP energy -123972.120228 kJ/mol
# GULP energy per Si atom -12397.212023 kJ/mol
# Density = 2.320808 g / cm^3
# Si number density = 23.261020 Si / 1000 Ang^3
#
#
#
# Elastic Constant Matrix: (Units=GPa)
#
#
# Indices 1 2 3 4 5 6 
#
# 1 109.3022 59.1004 20.8141 0.0000 12.4845 0.0000
# 2 59.1004 143.4118 39.1823 0.0000 10.0798 0.0000
# 3 20.8141 39.1823 102.7961 0.0000 14.4257 0.0000
# 4 0.0000 0.0000 0.0000 36.7890 0.0000 7.2888
# 5 12.4845 10.0798 14.4257 0.0000 35.3338 0.0000
# 6 0.0000 0.0000 0.0000 7.2888 0.0000 40.5982
#
#
#
# Elastic Compliance Matrix: (Units=1/GPa)
#
#
# Indices 1 2 3 4 5 6 
#
# 1 0.012062 -0.004703 -0.000254 0.000000 -0.002816 0.000000
# 2 -0.004703 0.009656 -0.002731 0.000000 0.000022 0.000000
# 3 -0.000254 -0.002731 0.011349 0.000000 -0.003764 0.000000
# 4 0.000000 0.000000 0.000000 0.028185 0.000000 -0.005060
# 5 -0.002816 0.000022 -0.003764 0.000000 0.030827 0.000000
# 6 0.000000 0.000000 0.000000 -0.005060 0.000000 0.025540
#
#
# Mechanical properties :
#
#
# Convention : Reuss Voigt Hill
#
# Bulk Modulus (GPa) = 56.53286 65.96707 61.24996
# Shear Modulus (GPa) = 35.99887 38.30506 37.15197
#
# Velocity S-wave (km/s) = 3.93823 4.06242 4.00081
# Velocity P-wave (km/s) = 6.71089 7.10108 6.90874
#
# Compressibility (1/GPa) = 0.01768883
#
# Stress axis : x y z
#
# Youngs Moduli (GPa) = 82.90319 103.56378 88.11485
#
# Poissons Ratio (x) = 0.48711 0.02241
# Poissons Ratio (y) = 0.38993 0.24067
# Poissons Ratio (z) = 0.02109 0.28286
#
# Static dielectric constant tensor:
#      x y z
#    x 4.209730 0.000000 0.040630 
#    y 0.000000 4.426370 0.000000 
#    z 0.040630 0.000000 4.330800 
# 
# 
# High freq. dielectric constant tensor:
#      x y z
#    x 1.915360 0.000000 0.015030 
#    y 0.000000 1.934180 0.000000 
#    z 0.015030 0.000000 1.934410 
# 
# From -- ./inp_files/8211.got.cif
#   From: 2010.03.12/outbox.cif.g09.slc.cpg/sg5_5_cif.got.tgz:8211.got - 2010.03.31 09:47:26.
