data_PCOD8051663
_publ_section_title
;
Structure prediction by ZEFSAII (Michael W. Deem and Ramdas Pophale) SiO2 
 PCOD8051663
Probable space group: C 2
;
_chemical_formula_sum "Si O2"
_cell_formula_units_Z 28
_cell_length_a 25.514622
_cell_length_b 8.859461
_cell_length_c 9.028733
_cell_angle_alpha 90.000000
_cell_angle_beta 139.809005
_cell_angle_gamma 90.000000
_cell_volume 1317.074203
_symmetry_space_group_name_H-M "C 2"
_symmetry_group_IT_number 5
_symmetry_cell_setting 'monoclinic'
loop_
_space_group_symop_operation_xyz
x,y,z
-x,y,-z
1/2+x,1/2+y,z
1/2-x,1/2+y,-z
loop_
_atom_site_type_symbol
_atom_site_label
_atom_site_fract_x
_atom_site_fract_y
_atom_site_fract_z
Si Si1 0.051412 0.135740 0.293554
Si Si2 0.773739 0.417838 0.793223
Si Si3 0.641163 0.480255 0.724289
Si Si4 0.137528 0.919203 0.268768
Si Si5 0.131078 0.126095 0.006166
Si Si6 0.000000 0.405689 0.000000
Si Si7 0.000000 0.757391 0.500000
Si Si8 0.409309 0.132671 0.020820
O O1 0.059631 0.294432 0.223109
O O2 0.965034 0.113692 0.183568
O O3 0.116690 0.122958 0.566906
O O4 0.067402 0.996864 0.216149
O O5 0.724202 0.411165 0.839642
O O6 0.712999 0.368678 0.531267
O O7 0.846266 0.299370 0.957005
O O8 0.818035 0.578954 0.865870
O O9 0.661538 0.536940 0.929796
O O10 0.569556 0.356928 0.572490
O O11 0.097439 0.783859 0.089968
O O12 0.174113 0.044611 0.236772
O O13 0.950204 0.506181 0.006554
O O14 0.961162 0.656780 0.283738
#
# Coordination Sequence:
#
# PCOD8051663 Si02
#       8
#     4   4   4   4   4   2   2   4
#     4  11  21  44  70 102 130 183 239 279 344 425
#     4  11  27  44  65 107 144 180 231 296 363 406
#     4  11  25  43  75  99 134 191 237 281 353 430
#     4  11  23  43  75  97 140 187 235 286 350 434
#     4  12  21  44  70  95 139 183 235 282 343 434
#     4  12  26  40  70 104 142 178 230 296 344 406
#     4  12  26  46  70 108 138 190 238 290 346 424
#     4  12  27  45  69 111 146 178 236 302 351 415
#
# _framework density 21.259240999999999
#
# number of rings (size 3 to 8) (size 9 to 14) (size 15 to 20)
#    0.000    0.571    5.714    0.857    8.000    2.286 
#    0.000    1.429    0.000    0.000    0.000    0.000 
#    0.000    0.000    0.000    0.000    0.000    0.000 
#
# Total GULP energy -173579.504924 kJ/mol
# GULP energy per Si atom -12398.536066 kJ/mol
# Density = 2.121085 g / cm^3
# Si number density = 21.259241 Si / 1000 Ang^3
#
#
#
# Elastic Constant Matrix: (Units=GPa)
#
#
# Indices 1 2 3 4 5 6 
#
# 1 149.6174 60.3772 48.3803 0.0000 -5.4963 0.0000
# 2 60.3772 98.3474 26.1899 0.0000 8.4698 0.0000
# 3 48.3803 26.1899 81.2996 0.0000 -10.6542 0.0000
# 4 0.0000 0.0000 0.0000 32.6685 0.0000 -5.1303
# 5 -5.4963 8.4698 -10.6542 0.0000 32.8170 0.0000
# 6 0.0000 0.0000 0.0000 -5.1303 0.0000 45.8053
#
#
#
# Elastic Compliance Matrix: (Units=1/GPa)
#
#
# Indices 1 2 3 4 5 6 
#
# 1 0.010241 -0.005333 -0.004148 0.000000 0.001745 0.000000
# 2 -0.005333 0.014486 -0.002193 0.000000 -0.005344 0.000000
# 3 -0.004148 -0.002193 0.016145 0.000000 0.005113 0.000000
# 4 0.000000 0.000000 0.000000 0.031159 0.000000 0.003490
# 5 0.001745 -0.005344 0.005113 0.000000 0.033804 0.000000
# 6 0.000000 0.000000 0.000000 0.003490 0.000000 0.022222
#
#
# Mechanical properties :
#
#
# Convention : Reuss Voigt Hill
#
# Bulk Modulus (GPa) = 57.06327 66.57323 61.81825
# Shear Modulus (GPa) = 31.79718 35.21262 33.50490
#
# Velocity S-wave (km/s) = 3.87161 4.07424 3.97421
# Velocity P-wave (km/s) = 6.84731 7.31543 7.08524
#
# Compressibility (1/GPa) = 0.01752441
#
# Stress axis : x y z
#
# Youngs Moduli (GPa) = 97.64585 69.03039 61.93844
#
# Poissons Ratio (x) = 0.36813 0.25690
# Poissons Ratio (y) = 0.52074 0.13586
# Poissons Ratio (z) = 0.40500 0.15141
#
# Static dielectric constant tensor:
#      x y z
#    x 4.059440 0.000000 -0.259740 
#    y 0.000000 3.891410 0.000000 
#    z -0.259740 0.000000 3.921240 
# 
# 
# High freq. dielectric constant tensor:
#      x y z
#    x 1.853790 0.000000 -0.013290 
#    y 0.000000 1.829390 0.000000 
#    z -0.013290 0.000000 1.828430 
# 
# From -- ./inp_files/31794.got.cif
#   From: 2010.03.12/outbox.cif.g09.slc.cpg/sg5_16_cif.got.tgz:31794.got - 2010.03.31 09:47:26.
