data_PCOD8051681
_publ_section_title
;
Structure prediction by ZEFSAII (Michael W. Deem and Ramdas Pophale) SiO2 
 PCOD8051681
Probable space group: C 2
;
_chemical_formula_sum "Si O2"
_cell_formula_units_Z 30
_cell_length_a 13.738106
_cell_length_b 17.547144
_cell_length_c 6.361237
_cell_angle_alpha 90.000000
_cell_angle_beta 111.126717
_cell_angle_gamma 90.000000
_cell_volume 1430.397351
_symmetry_space_group_name_H-M "C 2"
_symmetry_group_IT_number 5
_symmetry_cell_setting 'monoclinic'
loop_
_space_group_symop_operation_xyz
x,y,z
-x,y,-z
1/2+x,1/2+y,z
1/2-x,1/2+y,-z
loop_
_atom_site_type_symbol
_atom_site_label
_atom_site_fract_x
_atom_site_fract_y
_atom_site_fract_z
Si Si1 0.000000 0.645320 0.000000
Si Si2 0.217303 0.600162 0.312891
Si Si3 0.110004 0.511181 0.552706
Si Si4 0.238881 0.474141 0.030716
Si Si5 0.246845 0.759594 0.490550
Si Si6 0.396410 0.877731 0.778965
Si Si7 0.591073 0.253500 0.714007
Si Si8 0.876658 0.864658 0.921658
O O1 0.096398 0.594394 0.145390
O O2 0.961361 0.694616 0.167280
O O3 0.206277 0.560187 0.531689
O O4 0.280877 0.547592 0.196605
O O5 0.266246 0.685361 0.355567
O O6 0.083212 0.435171 0.397545
O O7 0.000000 0.556740 0.500000
O O8 0.139514 0.493208 0.813498
O O9 0.200196 0.408962 0.159938
O O10 0.328437 0.447029 0.937089
O O11 0.355936 0.796689 0.649759
O O12 0.181321 0.721457 0.630950
O O13 0.176941 0.824362 0.320502
O O14 0.500000 0.863404 0.000000
O O15 0.500000 0.289436 0.500000
O O16 0.650168 0.317156 0.892167
O O17 0.000000 0.871902 0.000000
#
# Coordination Sequence:
#
# PCOD8051681 Si02
#       8
#     2   4   4   4   4   4   4   4
#     4  12  22  36  60 100 132 164 204 264 348 406
#     4  11  25  36  58  99 136 169 214 265 348 402
#     4  11  22  38  63  92 132 170 214 282 336 387
#     4  11  24  40  62  96 134 168 219 275 336 395
#     4  12  24  39  65  99 136 171 217 275 333 397
#     4  11  23  41  65 100 125 175 234 271 324 392
#     4  12  20  35  61  97 133 157 201 261 329 386
#     4  12  22  40  65 100 126 167 220 263 328 402
#
# _framework density 20.973191
#
# number of rings (size 3 to 8) (size 9 to 14) (size 15 to 20)
#    0.000    0.533    8.667    0.800    5.600    0.000 
#    0.000    0.000    0.000    0.800    6.933    0.000 
#    0.000    0.000    0.000    0.000    0.000    0.000 
#
# Total GULP energy -185858.157287 kJ/mol
# GULP energy per Si atom -12390.543819 kJ/mol
# Density = 2.092546 g / cm^3
# Si number density = 20.973191 Si / 1000 Ang^3
#
#
#
# Elastic Constant Matrix: (Units=GPa)
#
#
# Indices 1 2 3 4 5 6 
#
# 1 62.3396 39.5853 25.3446 0.0000 -6.3758 0.0000
# 2 39.5853 106.2464 31.1916 0.0000 -3.8944 0.0000
# 3 25.3446 31.1916 88.8102 0.0000 -5.3810 0.0000
# 4 0.0000 0.0000 0.0000 30.2199 0.0000 2.2457
# 5 -6.3758 -3.8944 -5.3810 0.0000 35.2445 0.0000
# 6 0.0000 0.0000 0.0000 2.2457 0.0000 23.2092
#
#
#
# Elastic Compliance Matrix: (Units=1/GPa)
#
#
# Indices 1 2 3 4 5 6 
#
# 1 0.022360 -0.007143 -0.003709 0.000000 0.002689 0.000000
# 2 -0.007143 0.012789 -0.002469 0.000000 -0.000256 0.000000
# 3 -0.003709 -0.002469 0.013251 0.000000 0.001079 0.000000
# 4 0.000000 0.000000 0.000000 0.033330 0.000000 -0.003225
# 5 0.002689 -0.000256 0.001079 0.000000 0.028996 0.000000
# 6 0.000000 0.000000 0.000000 -0.003225 0.000000 0.043398
#
#
# Mechanical properties :
#
#
# Convention : Reuss Voigt Hill
#
# Bulk Modulus (GPa) = 45.96131 49.95990 47.96061
# Shear Modulus (GPa) = 26.59283 28.48636 27.53960
#
# Velocity S-wave (km/s) = 3.56468 3.68941 3.62758
# Velocity P-wave (km/s) = 6.23735 6.48240 6.36106
#
# Compressibility (1/GPa) = 0.02175743
#
# Stress axis : x y z
#
# Youngs Moduli (GPa) = 44.72204 78.19257 75.46634
#
# Poissons Ratio (x) = 0.55857 0.27993
# Poissons Ratio (y) = 0.31947 0.18630
# Poissons Ratio (z) = 0.16589 0.19303
#
# Static dielectric constant tensor:
#      x y z
#    x 3.518120 0.000000 -0.154020 
#    y 0.000000 3.720090 0.000000 
#    z -0.154020 0.000000 4.173320 
# 
# 
# High freq. dielectric constant tensor:
#      x y z
#    x 1.786630 0.000000 -0.019650 
#    y 0.000000 1.805300 0.000000 
#    z -0.019650 0.000000 1.844730 
# 
# From -- ./inp_files/7328.got.cif
#   From: 2010.03.12/outbox.cif.g09.slc.cpg/sg5_4_cif.got.tgz:7328.got - 2010.03.31 09:47:26.
