data_PCOD8051111
_publ_section_title
;
Structure prediction by ZEFSAII (Michael W. Deem and Ramdas Pophale) SiO2 
 PCOD8051111
Probable space group: C 2
;
_chemical_formula_sum "Si O2"
_cell_formula_units_Z 18
_cell_length_a 7.045052
_cell_length_b 18.304085
_cell_length_c 5.515354
_cell_angle_alpha 90.000000
_cell_angle_beta 106.823036
_cell_angle_gamma 90.000000
_cell_volume 680.784670
_symmetry_space_group_name_H-M "C 2"
_symmetry_group_IT_number 5
_symmetry_cell_setting 'monoclinic'
loop_
_space_group_symop_operation_xyz
x,y,z
-x,y,-z
1/2+x,1/2+y,z
1/2-x,1/2+y,-z
loop_
_atom_site_type_symbol
_atom_site_label
_atom_site_fract_x
_atom_site_fract_y
_atom_site_fract_z
Si Si1 0.782053 0.621130 0.826221
Si Si2 0.000000 0.221198 0.000000
Si Si3 0.729681 0.401158 0.296250
Si Si4 0.286919 0.457468 0.208218
Si Si5 0.281522 0.254678 0.506067
O O1 0.679314 0.543734 0.741631
O O2 0.772343 0.670001 0.579760
O O3 0.676058 0.667971 0.989368
O O4 0.000000 0.604835 0.000000
O O5 0.105431 0.269621 0.246891
O O6 0.499222 0.420775 0.245727
O O7 0.826599 0.427139 0.591167
O O8 0.756940 0.312726 0.288649
O O9 0.825801 0.438790 0.089802
O O10 0.500000 0.274673 0.500000
#
# Coordination Sequence:
#
# PCOD8051111 Si02
#       5
#     4   2   4   4   4
#     4  12  28  48  79 119 167 215 275 338 416 496
#     4  12  28  48  78 118 164 208 284 332 418 484
#     4  10  23  45  79 108 164 212 267 335 416 473
#     4  10  23  43  75 110 155 214 263 328 410 481
#     4  12  26  49  83 120 163 220 274 345 413 496
#
# _framework density 26.440076999999999
#
# number of rings (size 3 to 8) (size 9 to 14) (size 15 to 20)
#    0.000    0.889    4.444    2.000   15.556    0.000 
#    2.000    0.000    0.000    0.000    0.000    0.000 
#    0.000    0.000    0.000    0.000    0.000    0.000 
#
# Total GULP energy -111530.057297 kJ/mol
# GULP energy per Si atom -12392.228589 kJ/mol
# Density = 2.637990 g / cm^3
# Si number density = 26.440077 Si / 1000 Ang^3
#
#
#
# Elastic Constant Matrix: (Units=GPa)
#
#
# Indices 1 2 3 4 5 6 
#
# 1 52.5655 6.2756 34.0184 0.0000 -0.4468 0.0000
# 2 6.2756 196.5703 62.7551 0.0000 -7.2194 0.0000
# 3 34.0184 62.7551 189.5833 0.0000 -17.8288 0.0000
# 4 0.0000 0.0000 0.0000 -188.8858 0.0000 60.2839
# 5 -0.4468 -7.2194 -17.8288 0.0000 62.4121 0.0000
# 6 0.0000 0.0000 0.0000 60.2839 0.0000 -20.7489
#
#
#
# Elastic Compliance Matrix: (Units=1/GPa)
#
#
# Indices 1 2 3 4 5 6 
#
# 1 0.021646 0.000607 -0.004176 0.000000 -0.000968 0.000000
# 2 0.000607 0.005706 -0.001989 0.000000 0.000096 0.000000
# 3 -0.004176 -0.001989 0.006842 0.000000 0.001694 0.000000
# 4 0.000000 0.000000 0.000000 -0.072796 0.000000 -0.211500
# 5 -0.000968 0.000096 0.001694 0.000000 0.016511 0.000000
# 6 0.000000 0.000000 0.000000 -0.211500 0.000000 -0.662687
#
#
# Mechanical properties :
#
#
# Convention : Reuss Voigt Hill
#
# Bulk Modulus (GPa) = 43.33176 71.64637 57.48907
# Shear Modulus (GPa) = -7.50784 -7.06653 -7.28718
#
# Velocity S-wave (km/s) = -1.68693 -1.63660 -1.66196
# Velocity P-wave (km/s) = 3.55386 4.85646 4.25530
#
# Compressibility (1/GPa) = 0.02307776
#
# Stress axis : x y z
#
# Youngs Moduli (GPa) = 46.19853 175.24519 146.16336
#
# Poissons Ratio (x) = -0.10630 0.61036
# Poissons Ratio (y) = -0.02802 0.29067
# Poissons Ratio (z) = 0.19292 0.34850
#
# Static dielectric constant tensor:
#      x y z
#    x 6.363750 0.000000 -2.199930 
#    y 0.000000 4.680750 0.000000 
#    z -2.199930 0.000000 8.207420 
# 
# 
# High freq. dielectric constant tensor:
#      x y z
#    x 2.065260 0.000000 0.003190 
#    y 0.000000 2.063100 0.000000 
#    z 0.003190 0.000000 2.071700 
# 
# From -- ./inp_files/3080.got.cif
#   From: 2010.03.12/outbox.cif.g09.slc.cpg/sg5_2_cif.got.tgz:3080.got - 2010.03.31 09:47:26.
