data_PCOD8051689
_publ_section_title
;
Structure prediction by ZEFSAII (Michael W. Deem and Ramdas Pophale) SiO2 
 PCOD8051689
Probable space group: C 2
;
_chemical_formula_sum "Si O2"
_cell_formula_units_Z 30
_cell_length_a 11.657770
_cell_length_b 15.404131
_cell_length_c 9.054800
_cell_angle_alpha 90.000000
_cell_angle_beta 68.037546
_cell_angle_gamma 90.000000
_cell_volume 1508.037994
_symmetry_space_group_name_H-M "C 2"
_symmetry_group_IT_number 5
_symmetry_cell_setting 'monoclinic'
loop_
_space_group_symop_operation_xyz
x,y,z
-x,y,-z
1/2+x,1/2+y,z
1/2-x,1/2+y,-z
loop_
_atom_site_type_symbol
_atom_site_label
_atom_site_fract_x
_atom_site_fract_y
_atom_site_fract_z
Si Si1 0.789005 0.566370 0.630299
Si Si2 0.380028 0.475578 0.801614
Si Si3 0.520825 0.638100 0.816049
Si Si4 0.021889 0.331419 0.162226
Si Si5 0.000000 0.697220 0.500000
Si Si6 0.799870 0.443915 0.362284
Si Si7 0.596539 0.349314 0.639069
Si Si8 0.230178 0.907317 0.853770
O O1 0.656385 0.609416 0.705030
O O2 0.811952 0.530342 0.454491
O O3 0.797321 0.487352 0.740809
O O4 0.891367 0.637951 0.618873
O O5 0.422746 0.575484 0.783292
O O6 0.252150 0.470348 0.773192
O O7 0.486050 0.418297 0.673119
O O8 0.360897 0.441856 0.976532
O O9 0.504775 0.735297 0.764104
O O10 0.500000 0.632996 0.000000
O O11 0.934208 0.400411 0.285623
O O12 0.164844 0.347918 0.126592
O O13 0.000000 0.337273 0.000000
O O14 0.047663 0.754885 0.614781
O O15 0.707859 0.374329 0.477797
O O16 0.647000 0.349873 0.782365
#
# Coordination Sequence:
#
# PCOD8051689 Si02
#       8
#     4   4   4   4   2   4   4   4
#     4  11  24  41  66  93 132 174 213 259 334 384
#     4  12  20  42  68  93 127 169 221 267 313 395
#     4  11  22  39  64  95 126 165 216 269 318 375
#     4  11  24  41  64  99 130 166 214 273 330 378
#     4  12  24  42  64  96 138 168 220 276 322 382
#     4  11  22  41  67  94 127 173 215 260 325 394
#     4  11  23  39  68  94 123 171 219 259 321 377
#     4  11  23  43  68  94 129 173 216 262 329 398
#
# _framework density 19.893398999999999
#
# number of rings (size 3 to 8) (size 9 to 14) (size 15 to 20)
#    0.000    0.800    6.667    2.000    0.000    2.667 
#    0.000    2.667    2.933    0.000    0.000    0.000 
#    0.000    0.000    0.000    0.000    0.000    0.000 
#
# Total GULP energy -186063.341001 kJ/mol
# GULP energy per Si atom -12404.222733 kJ/mol
# Density = 1.984812 g / cm^3
# Si number density = 19.893399 Si / 1000 Ang^3
#
#
#
# Elastic Constant Matrix: (Units=GPa)
#
#
# Indices 1 2 3 4 5 6 
#
# 1 95.1832 49.7367 22.7332 0.0000 1.2909 0.0000
# 2 49.7367 120.9790 30.9765 0.0000 -4.5350 0.0000
# 3 22.7332 30.9765 81.6911 0.0000 -1.2784 0.0000
# 4 0.0000 0.0000 0.0000 107.9924 0.0000 -27.1739
# 5 1.2909 -4.5350 -1.2784 0.0000 32.5833 0.0000
# 6 0.0000 0.0000 0.0000 -27.1739 0.0000 51.5107
#
#
#
# Elastic Compliance Matrix: (Units=1/GPa)
#
#
# Indices 1 2 3 4 5 6 
#
# 1 0.013686 -0.005201 -0.001857 0.000000 -0.001339 0.000000
# 2 -0.005201 0.011174 -0.002764 0.000000 0.001653 0.000000
# 3 -0.001857 -0.002764 0.013810 0.000000 0.000231 0.000000
# 4 0.000000 0.000000 0.000000 0.010677 0.000000 0.005633
# 5 -0.001339 0.001653 0.000231 0.000000 0.030983 0.000000
# 6 0.000000 0.000000 0.000000 0.005633 0.000000 0.022385
#
#
# Mechanical properties :
#
#
# Convention : Reuss Voigt Hill
#
# Bulk Modulus (GPa) = 52.56261 56.08292 54.32276
# Shear Modulus (GPa) = 38.85022 51.37775 45.11398
#
# Velocity S-wave (km/s) = 4.42398 5.08749 4.76729
# Velocity P-wave (km/s) = 7.25086 7.92231 7.59401
#
# Compressibility (1/GPa) = 0.01902493
#
# Stress axis : x y z
#
# Youngs Moduli (GPa) = 73.07000 89.49547 72.41303
#
# Poissons Ratio (x) = 0.46547 0.13449
# Poissons Ratio (y) = 0.38004 0.20013
# Poissons Ratio (z) = 0.13571 0.24734
#
# Static dielectric constant tensor:
#      x y z
#    x 3.574340 0.000000 0.056530 
#    y 0.000000 3.714820 0.000000 
#    z 0.056530 0.000000 3.605830 
# 
# 
# High freq. dielectric constant tensor:
#      x y z
#    x 1.784530 0.000000 -0.004620 
#    y 0.000000 1.772810 0.000000 
#    z -0.004620 0.000000 1.777750 
# 
# From -- ./inp_files/20587.got.cif
#   From: 2010.03.12/outbox.cif.g09.slc.cpg/sg5_11_cif.got.tgz:20587.got - 2010.03.31 09:47:26.
