data_PCOD8051867
_publ_section_title
;
Structure prediction by ZEFSAII (Michael W. Deem and Ramdas Pophale) SiO2 
 PCOD8051867
Probable space group: C 2
;
_chemical_formula_sum "Si O2"
_cell_formula_units_Z 32
_cell_length_a 17.867942
_cell_length_b 10.749274
_cell_length_c 14.963412
_cell_angle_alpha 90.000000
_cell_angle_beta 151.121298
_cell_angle_gamma 90.000000
_cell_volume 1388.010323
_symmetry_space_group_name_H-M "C 2"
_symmetry_group_IT_number 5
_symmetry_cell_setting 'monoclinic'
loop_
_space_group_symop_operation_xyz
x,y,z
-x,y,-z
1/2+x,1/2+y,z
1/2-x,1/2+y,-z
loop_
_atom_site_type_symbol
_atom_site_label
_atom_site_fract_x
_atom_site_fract_y
_atom_site_fract_z
Si Si1 0.022826 0.534060 0.386363
Si Si2 0.358775 0.783890 0.540385
Si Si3 0.687044 0.683528 0.869762
Si Si4 0.758051 0.028344 0.794804
Si Si5 0.168407 0.763794 0.160762
Si Si6 0.168625 0.299182 0.149805
Si Si7 0.370754 0.291566 0.537118
Si Si8 0.314981 0.403040 0.125180
O O1 0.077093 0.423602 0.379292
O O2 0.141591 0.540782 0.591638
O O3 0.023428 0.668717 0.342866
O O4 0.847043 0.504317 0.228551
O O5 0.501617 0.688843 0.688364
O O6 0.266503 0.757907 0.353431
O O7 0.251708 0.769879 0.513449
O O8 0.735928 0.695197 0.816831
O O9 0.736640 0.544459 0.955096
O O10 0.760925 0.797464 0.000460
O O11 0.867104 0.908219 0.901397
O O12 0.856102 0.155140 0.906494
O O13 0.000000 0.700519 0.000000
O O14 0.284113 0.310635 0.353461
O O15 0.244148 0.376288 0.148732
O O16 0.000000 0.353170 0.000000
O O17 0.495813 0.402396 0.677392
#
# Coordination Sequence:
#
# PCOD8051867 Si02
#       8
#     4   4   4   4   4   4   4   4
#     4   9  18  36  66 100 133 185 231 287 349 407
#     4  11  24  44  70 105 146 188 236 292 353 426
#     4  12  29  49  73 105 142 188 239 299 362 425
#     4   9  17  36  68 100 139 178 235 282 344 413
#     4  11  23  44  71 106 143 189 235 292 352 424
#     4  11  23  44  71 106 143 189 235 292 352 424
#     4  11  24  44  70 105 146 188 236 292 353 426
#     4  12  29  49  73 105 142 188 239 299 362 425
#
# _framework density 23.054582
#
# number of rings (size 3 to 8) (size 9 to 14) (size 15 to 20)
#    0.000    1.250    2.500    2.625    5.250    2.500 
#    4.500    0.000    0.000    0.000    0.000    0.000 
#    0.000    0.000    0.000    0.000    0.000    0.000 
#
# Total GULP energy -198321.453976 kJ/mol
# GULP energy per Si atom -12395.090874 kJ/mol
# Density = 2.300211 g / cm^3
# Si number density = 23.054582 Si / 1000 Ang^3
#
#
#
# Elastic Constant Matrix: (Units=GPa)
#
#
# Indices 1 2 3 4 5 6 
#
# 1 111.6473 3.0313 25.7314 0.0000 16.2185 0.0000
# 2 3.0313 110.5738 26.0695 0.0000 -11.0461 0.0000
# 3 25.7314 26.0695 72.6471 -0.0001 10.6823 0.0000
# 4 0.0000 0.0000 -0.0001 26.3832 0.0000 -9.7195
# 5 16.2185 -11.0461 10.6823 0.0000 43.9073 0.0000
# 6 0.0000 0.0000 0.0000 -9.7195 0.0000 15.6634
#
#
#
# Elastic Compliance Matrix: (Units=1/GPa)
#
#
# Indices 1 2 3 4 5 6 
#
# 1 0.010117 0.000193 -0.003226 0.000000 -0.002904 0.000000
# 2 0.000193 0.010422 -0.004338 0.000000 0.003606 0.000000
# 3 -0.003226 -0.004338 0.017060 0.000000 -0.004051 0.000000
# 4 0.000000 0.000000 0.000000 0.049135 0.000000 0.030489
# 5 -0.002904 0.003606 -0.004051 0.000000 0.025740 0.000000
# 6 0.000000 0.000000 0.000000 0.030489 0.000000 0.082762
#
#
# Mechanical properties :
#
#
# Convention : Reuss Voigt Hill
#
# Bulk Modulus (GPa) = 43.75131 44.94807 44.34969
# Shear Modulus (GPa) = 22.97826 33.19319 28.08573
#
# Velocity S-wave (km/s) = 3.16046 3.79854 3.49410
# Velocity P-wave (km/s) = 5.68652 6.22714 5.96296
#
# Compressibility (1/GPa) = 0.02285646
#
# Stress axis : x y z
#
# Youngs Moduli (GPa) = 98.84605 95.95528 58.61616
#
# Poissons Ratio (x) = -0.01853 0.18908
# Poissons Ratio (y) = -0.01909 0.25430
# Poissons Ratio (z) = 0.31884 0.41629
#
# Static dielectric constant tensor:
#      x y z
#    x 4.423920 0.000000 0.061430 
#    y 0.000000 4.336560 0.000000 
#    z 0.061430 0.000000 4.112230 
# 
# 
# High freq. dielectric constant tensor:
#      x y z
#    x 1.919870 0.000000 0.006350 
#    y 0.000000 1.906040 0.000000 
#    z 0.006350 0.000000 1.912270 
# 
# From -- ./inp_files/56038.got.cif
#   From: 2010.03.12/outbox.cif.g09.slc.cpg/sg5_29_cif.got.tgz:56038.got - 2010.03.31 09:47:26.
