data_PCOD8051479
_publ_section_title
;
Structure prediction by ZEFSAII (Michael W. Deem and Ramdas Pophale) SiO2 
 PCOD8051479
Probable space group: C 2
;
_chemical_formula_sum "Si O2"
_cell_formula_units_Z 14
_cell_length_a 5.253480
_cell_length_b 19.293981
_cell_length_c 5.252238
_cell_angle_alpha 90.000000
_cell_angle_beta 92.272328
_cell_angle_gamma 90.000000
_cell_volume 531.951074
_symmetry_space_group_name_H-M "C 2"
_symmetry_group_IT_number 5
_symmetry_cell_setting 'monoclinic'
loop_
_space_group_symop_operation_xyz
x,y,z
-x,y,-z
1/2+x,1/2+y,z
1/2-x,1/2+y,-z
loop_
_atom_site_type_symbol
_atom_site_label
_atom_site_fract_x
_atom_site_fract_y
_atom_site_fract_z
Si Si1 0.268445 0.905880 0.157478
Si Si2 0.334274 0.551430 0.743044
Si Si3 0.500000 0.309468 0.500000
Si Si4 0.668950 0.702928 0.255790
O O1 0.229224 0.856887 0.400537
O O2 0.350029 0.984141 0.248418
O O3 0.500000 0.875158 0.000000
O O4 0.000000 0.907490 0.000000
O O5 0.500000 0.540878 0.500000
O O6 0.194885 0.626499 0.731859
O O7 0.500000 0.552456 0.000000
O O8 0.390000 0.260770 0.269670
O O9 0.500000 0.711643 0.500000
O O10 0.500000 0.714165 0.000000
#
# Coordination Sequence:
#
# PCOD8051479 Si02
#       4
#     4   4   2   4
#     4  11  27  49  79 112 159 208 265 323 397 470
#     4   9  19  48  75 110 148 204 260 323 383 465
#     4  12  28  46  78 118 158 206 260 328 398 480
#     4  10  25  47  78 110 159 204 262 323 396 466
#
# _framework density 26.318210000000001
#
# number of rings (size 3 to 8) (size 9 to 14) (size 15 to 20)
#    0.000    1.714    1.429    0.000    8.000    0.000 
#   25.714    0.000    0.000    0.000    0.000    0.000 
#    0.000    0.000    0.000    0.000    0.000    0.000 
#
# Total GULP energy -86765.827462 kJ/mol
# GULP energy per Si atom -12395.118209 kJ/mol
# Density = 2.625831 g / cm^3
# Si number density = 26.318210 Si / 1000 Ang^3
#
#
#
# Elastic Constant Matrix: (Units=GPa)
#
#
# Indices 1 2 3 4 5 6 
#
# 1 98.8221 53.0253 42.9591 0.0000 -15.2038 0.0000
# 2 53.0253 230.5845 45.6999 0.0000 -9.1893 0.0000
# 3 42.9591 45.6999 172.9744 0.0000 -9.2927 0.0000
# 4 0.0000 0.0000 0.0000 29.4825 0.0000 1.9128
# 5 -15.2038 -9.1893 -9.2927 0.0000 47.8345 0.0000
# 6 0.0000 0.0000 0.0000 1.9128 0.0000 84.7132
#
#
#
# Elastic Compliance Matrix: (Units=1/GPa)
#
#
# Indices 1 2 3 4 5 6 
#
# 1 0.012929 -0.002368 -0.002414 0.000000 0.003186 0.000000
# 2 -0.002368 0.005030 -0.000737 0.000000 0.000071 0.000000
# 3 -0.002414 -0.000737 0.006596 0.000000 0.000372 0.000000
# 4 0.000000 0.000000 0.000000 0.033968 0.000000 -0.000767
# 5 0.003186 0.000071 0.000372 0.000000 0.022004 0.000000
# 6 0.000000 0.000000 0.000000 -0.000767 0.000000 0.011822
#
#
# Mechanical properties :
#
#
# Convention : Reuss Voigt Hill
#
# Bulk Modulus (GPa) = 73.98332 87.30551 80.64441
# Shear Modulus (GPa) = 46.34218 56.45247 51.39733
#
# Velocity S-wave (km/s) = 4.20079 4.63644 4.42398
# Velocity P-wave (km/s) = 7.19034 7.86811 7.53684
#
# Compressibility (1/GPa) = 0.01351656
#
# Stress axis : x y z
#
# Youngs Moduli (GPa) = 77.34349 198.79900 151.61674
#
# Poissons Ratio (x) = 0.47071 0.36606
# Poissons Ratio (y) = 0.18313 0.11176
# Poissons Ratio (z) = 0.18673 0.14654
#
# Static dielectric constant tensor:
#      x y z
#    x 4.043230 0.000000 -0.196670 
#    y 0.000000 6.205160 0.000000 
#    z -0.196670 0.000000 4.096470 
# 
# 
# High freq. dielectric constant tensor:
#      x y z
#    x 2.007860 0.000000 0.004510 
#    y 0.000000 2.094320 0.000000 
#    z 0.004510 0.000000 2.070320 
# 
# From -- ./inp_files/339.got.cif
#   From: 2010.03.12/outbox.cif.g09.slc.cpg/sg5_1_cif.got.tgz:339.got - 2010.03.31 09:47:26.
