data_PCOD8052317
_publ_section_title
;
Structure prediction by ZEFSAII (Michael W. Deem and Ramdas Pophale) SiO2 
 PCOD8052317
Probable space group: P M
;
_chemical_formula_sum "Si O2"
_cell_formula_units_Z 16
_cell_length_a 12.481354
_cell_length_b 8.939984
_cell_length_c 12.582961
_cell_angle_alpha 90.000000
_cell_angle_beta 143.475140
_cell_angle_gamma 90.000000
_cell_volume 835.648102
_symmetry_space_group_name_H-M "P M"
_symmetry_group_IT_number 6
_symmetry_cell_setting 'monoclinic'
loop_
_space_group_symop_operation_xyz
x,y,z
x,-y,z
loop_
_atom_site_type_symbol
_atom_site_label
_atom_site_fract_x
_atom_site_fract_y
_atom_site_fract_z
Si Si1 0.723120 0.176753 0.586500
Si Si2 0.841821 0.826063 0.449963
Si Si3 0.347327 0.677248 0.338830
Si Si4 0.465961 0.326622 0.842606
Si Si5 0.083838 0.326671 0.942969
Si Si6 0.186521 0.329775 0.791939
Si Si7 0.823055 0.677803 0.219390
Si Si8 0.210643 0.678007 0.458763
O O1 0.736764 0.221573 0.473246
O O2 0.540641 0.246270 0.484961
O O3 0.894673 0.239458 0.788226
O O4 0.720909 0.000000 0.600307
O O5 0.764898 0.737527 0.288408
O O6 0.049952 0.784751 0.629450
O O7 0.822631 0.000000 0.411965
O O8 0.375172 0.500000 0.354044
O O9 0.262506 0.729337 0.382508
O O10 0.209338 0.733760 0.138194
O O11 0.472366 0.500000 0.820198
O O12 0.376107 0.299474 0.886460
O O13 0.354125 0.251682 0.656950
O O14 0.670168 0.265839 0.014131
O O15 0.036518 0.500000 0.922742
O O16 0.200193 0.300619 0.928714
O O17 0.120484 0.500000 0.717084
O O18 0.824556 0.500000 0.227499
O O19 0.013771 0.742293 0.331651
O O20 0.204034 0.500000 0.461690
#
# Coordination Sequence:
#
# PCOD8052317 Si02
#       8
#     2   2   2   2   2   2   2   2
#     4  10  22  38  55  79 113 151 186 222 273 333
#     4  10  20  34  52  78 111 143 177 220 270 321
#     4  10  21  36  59  85 110 143 186 233 274 320
#     4   9  17  29  52  83 107 135 174 216 264 320
#     4   9  19  34  55  85 114 141 179 230 278 321
#     4   9  16  31  53  78 110 141 174 216 265 320
#     4  10  19  32  55  80 106 141 177 219 269 320
#     4   9  18  34  53  80 111 139 177 222 269 317
#
# _framework density 19.146815
#
# number of rings (size 3 to 8) (size 9 to 14) (size 15 to 20)
#    0.000    2.500    1.250    0.750    1.750    3.000 
#    0.000    5.000    0.000    1.500    0.000    0.000 
#    0.000    0.000    0.000    0.000    0.000    0.000 
#
# Total GULP energy -198343.440816 kJ/mol
# GULP energy per Si atom -12396.465051 kJ/mol
# Density = 1.910324 g / cm^3
# Si number density = 19.146815 Si / 1000 Ang^3
#
#
#
# Elastic Constant Matrix: (Units=GPa)
#
#
# Indices 1 2 3 4 5 6 
#
# 1 110.7551 24.7429 84.9578 0.0000 -1.8841 0.0000
# 2 24.7429 30.0261 25.8598 0.0000 2.3064 0.0000
# 3 84.9578 25.8598 171.4749 0.0000 -0.4968 0.0000
# 4 0.0000 0.0000 0.0000 9.5711 0.0000 -1.8612
# 5 -1.8841 2.3064 -0.4968 0.0000 29.4154 0.0000
# 6 0.0000 0.0000 0.0000 -1.8612 0.0000 14.6598
#
#
#
# Elastic Compliance Matrix: (Units=1/GPa)
#
#
# Indices 1 2 3 4 5 6 
#
# 1 0.015883 -0.007388 -0.006751 0.000000 0.001483 0.000000
# 2 -0.007388 0.041997 -0.002684 0.000000 -0.003811 0.000000
# 3 -0.006751 -0.002684 0.009581 0.000000 -0.000060 0.000000
# 4 0.000000 0.000000 0.000000 0.107126 0.000000 0.013601
# 5 0.001483 -0.003811 -0.000060 0.000000 0.034389 0.000000
# 6 0.000000 0.000000 0.000000 0.013601 0.000000 0.069940
#
#
# Mechanical properties :
#
#
# Convention : Reuss Voigt Hill
#
# Bulk Modulus (GPa) = 29.57268 64.81969 47.19619
# Shear Modulus (GPa) = 15.44003 22.50897 18.97450
#
# Velocity S-wave (km/s) = 2.84280 3.43242 3.15143
# Velocity P-wave (km/s) = 5.12388 7.04530 6.15996
#
# Compressibility (1/GPa) = 0.03381499
#
# Stress axis : x y z
#
# Youngs Moduli (GPa) = 62.95997 23.81131 104.37225
#
# Poissons Ratio (x) = 0.17592 0.70460
# Poissons Ratio (y) = 0.46516 0.28014
# Poissons Ratio (z) = 0.42503 0.06391
#
# Static dielectric constant tensor:
#      x y z
#    x 3.592420 0.000000 -0.076840 
#    y 0.000000 3.149180 0.000000 
#    z -0.076840 0.000000 3.733890 
# 
# 
# High freq. dielectric constant tensor:
#      x y z
#    x 1.743800 0.000000 -0.000490 
#    y 0.000000 1.705380 0.000000 
#    z -0.000490 0.000000 1.751770 
# 
# From -- ./inp_files/4169.got.cif
#   From: 2010.03.12/outbox.cif.g09.slc.cpg/sg6_3_cif.got.tgz:4169.got - 2010.03.30 10:24:59.
