data_PCOD8052801
_publ_section_title
;
Structure prediction by ZEFSAII (Michael W. Deem and Ramdas Pophale) SiO2 
 PCOD8052801
Probable space group: C M
;
_chemical_formula_sum "Si O2"
_cell_formula_units_Z 32
_cell_length_a 17.035215
_cell_length_b 12.960602
_cell_length_c 23.942287
_cell_angle_alpha 90.000000
_cell_angle_beta 20.895997
_cell_angle_gamma 90.000000
_cell_volume 1885.420963
_symmetry_space_group_name_H-M "C M"
_symmetry_group_IT_number 8
_symmetry_cell_setting 'monoclinic'
loop_
_space_group_symop_operation_xyz
x,y,z
x,-y,z
1/2+x,1/2+y,z
1/2+x,1/2-y,z
loop_
_atom_site_type_symbol
_atom_site_label
_atom_site_fract_x
_atom_site_fract_y
_atom_site_fract_z
Si Si1 0.218270 0.806938 0.732810
Si Si2 0.724144 0.879238 0.196332
Si Si3 0.435151 0.693104 0.756527
Si Si4 0.929253 0.620747 0.293032
Si Si5 0.439647 0.382005 0.632454
Si Si6 0.213775 0.882019 0.856885
Si Si7 0.373327 0.119962 0.517066
Si Si8 0.280108 0.380039 0.972254
O O1 0.266537 0.686652 0.713053
O O2 0.260320 0.874773 0.759918
O O3 0.383062 0.848721 0.575383
O O4 0.966970 0.815239 0.879961
O O5 0.576720 0.829934 0.244661
O O6 0.608898 0.855872 0.332385
O O7 0.747156 0.000000 0.169106
O O8 0.971067 0.834780 0.031419
O O9 0.392966 0.625286 0.729504
O O10 0.386971 0.813398 0.776219
O O11 0.686442 0.684756 0.609376
O O12 0.270338 0.651348 0.913970
O O13 0.905902 0.500000 0.320501
O O14 0.682370 0.665243 0.457913
O O15 0.044527 0.644042 0.156956
O O16 0.412795 0.500000 0.630576
O O17 0.240241 0.000000 0.859036
O O18 0.311256 0.000000 0.551724
O O19 0.342261 0.500000 0.937502
#
# Coordination Sequence:
#
# PCOD8052801 Si02
#       8
#     4   4   4   4   4   4   4   4
#     4  10  19  29  48  73  94 122 153 190 236 272
#     4   9  16  28  48  69  92 121 150 190 236 269
#     4  10  19  29  48  73  94 122 153 190 236 272
#     4   9  16  28  48  69  92 121 150 190 236 269
#     4  10  19  32  47  70  98 122 153 190 230 279
#     4  10  19  32  47  70  98 122 153 190 230 279
#     4  10  18  31  50  72  95 117 156 199 228 266
#     4  10  18  31  50  72  95 117 156 199 228 266
#
# _framework density 16.972337
#
# number of rings (size 3 to 8) (size 9 to 14) (size 15 to 20)
#    0.000    2.250    2.500    3.000    0.000    1.000 
#    0.000    2.500    0.000    0.000    0.000   17.500 
#    0.000    0.000    0.000    0.000    0.000    0.000 
#
# Total GULP energy -198375.264898 kJ/mol
# GULP energy per Si atom -12398.454056 kJ/mol
# Density = 1.693371 g / cm^3
# Si number density = 16.972337 Si / 1000 Ang^3
#
#
#
# Elastic Constant Matrix: (Units=GPa)
#
#
# Indices 1 2 3 4 5 6 
#
# 1 90.5376 36.1770 51.8151 0.0982 15.8749 0.0178
# 2 36.1770 76.5691 44.3342 0.1807 -5.2093 0.1124
# 3 51.8151 44.3342 80.4587 0.3440 15.5980 0.0042
# 4 0.0982 0.1807 0.3440 12.4779 0.0941 -4.3419
# 5 15.8749 -5.2093 15.5980 0.0941 29.5055 -0.0336
# 6 0.0178 0.1124 0.0042 -4.3419 -0.0336 16.0005
#
#
#
# Elastic Compliance Matrix: (Units=1/GPa)
#
#
# Indices 1 2 3 4 5 6 
#
# 1 0.018743 -0.004448 -0.008371 0.000217 -0.006445 0.000058
# 2 -0.004448 0.023305 -0.012522 -0.000111 0.013127 -0.000158
# 3 -0.008371 -0.012522 0.027049 -0.000426 -0.012005 -0.000050
# 4 0.000217 -0.000111 -0.000426 0.088513 -0.000166 0.024019
# 5 -0.006445 0.013127 -0.012005 -0.000166 0.046024 -0.000030
# 6 0.000058 -0.000158 -0.000050 0.024019 -0.000030 0.069017
#
#
# Mechanical properties :
#
#
# Convention : Reuss Voigt Hill
#
# Bulk Modulus (GPa) = 54.30189 56.91311 55.60750
# Shear Modulus (GPa) = 15.17586 19.27938 17.22762
#
# Velocity S-wave (km/s) = 2.99348 3.37401 3.18943
# Velocity P-wave (km/s) = 6.63413 6.98457 6.81161
#
# Compressibility (1/GPa) = 0.01841556
#
# Stress axis : x y z
#
# Youngs Moduli (GPa) = 53.35319 42.90855 36.97045
#
# Poissons Ratio (x) = 0.19084 0.30949
# Poissons Ratio (y) = 0.23730 0.46294
# Poissons Ratio (z) = 0.44663 0.53729
#
# Static dielectric constant tensor:
#      x y z
#    x 3.162790 -0.000070 0.254980 
#    y -0.000070 2.895260 0.000030 
#    z 0.254980 0.000030 3.318790 
# 
# 
# High freq. dielectric constant tensor:
#      x y z
#    x 1.648660 0.000000 0.023970 
#    y 0.000000 1.619690 0.000010 
#    z 0.023970 0.000010 1.657740 
# 
# From -- ./inp_files/29822.got.cif
#   From: 2010.03.12/outbox.cif.g09.slc.cpg/sg8_15_cif.got.tgz:29822.got - 2010.03.31 10:45:26.
