data_PCOD8052899
_publ_section_title
;
Structure prediction by ZEFSAII (Michael W. Deem and Ramdas Pophale) SiO2 
 PCOD8052899
Probable space group: C M
;
_chemical_formula_sum "Si O2"
_cell_formula_units_Z 32
_cell_length_a 15.896206
_cell_length_b 22.278939
_cell_length_c 9.200909
_cell_angle_alpha 90.000000
_cell_angle_beta 150.384192
_cell_angle_gamma 90.000000
_cell_volume 1610.294905
_symmetry_space_group_name_H-M "C M"
_symmetry_group_IT_number 8
_symmetry_cell_setting 'monoclinic'
loop_
_space_group_symop_operation_xyz
x,y,z
x,-y,z
1/2+x,1/2+y,z
1/2+x,1/2-y,z
loop_
_atom_site_type_symbol
_atom_site_label
_atom_site_fract_x
_atom_site_fract_y
_atom_site_fract_z
Si Si1 0.640810 0.067586 0.758350
Si Si2 0.276052 0.774299 0.266754
Si Si3 0.341525 0.161252 0.634682
Si Si4 0.266103 0.802406 0.838332
Si Si5 0.061957 0.683361 0.495509
Si Si6 0.227289 0.359087 0.157246
Si Si7 0.066548 0.860933 0.793850
Si Si8 0.262951 0.935742 0.299749
O O1 0.640495 0.115282 0.622196
O O2 0.457068 0.058652 0.548220
O O3 0.710413 0.000000 0.820479
O O4 0.750492 0.098813 0.051679
O O5 0.306172 0.777997 0.486227
O O6 0.428849 0.814607 0.429991
O O7 0.284952 0.709187 0.208525
O O8 0.097154 0.804175 0.948259
O O9 0.265575 0.168489 0.679068
O O10 0.236745 0.109410 0.394560
O O11 0.540155 0.143164 0.945537
O O12 0.207814 0.733075 0.738160
O O13 0.139499 0.842560 0.744923
O O14 0.458276 0.804549 0.191175
O O15 0.367825 0.379456 0.486631
O O16 0.161092 0.918132 0.001614
O O17 0.194160 0.000000 0.249617
#
# Coordination Sequence:
#
# PCOD8052899 Si02
#       8
#     4   4   4   4   4   4   4   4
#     4  10  19  35  59  84 113 155 201 239 282 341
#     4  10  18  35  56  80 113 153 189 230 293 349
#     4  10  22  36  54  90 118 154 187 236 304 355
#     4  11  23  36  55  92 122 145 186 247 306 341
#     4  11  20  38  56  85 118 153 193 241 286 353
#     4  11  19  33  58  86 114 146 198 241 285 347
#     4  10  19  33  59  84 110 151 194 245 281 340
#     4   9  18  38  61  81 114 161 206 237 279 356
#
# _framework density 19.872136000000001
#
# number of rings (size 3 to 8) (size 9 to 14) (size 15 to 20)
#    0.000    1.750    6.250    2.250    1.750    0.500 
#    0.000    1.250    0.000    0.000    0.000    0.000 
#    0.000    0.000    0.000    0.000    0.000    0.000 
#
# Total GULP energy -198221.209273 kJ/mol
# GULP energy per Si atom -12388.825580 kJ/mol
# Density = 1.982691 g / cm^3
# Si number density = 19.872136 Si / 1000 Ang^3
#
#
#
# Elastic Constant Matrix: (Units=GPa)
#
#
# Indices 1 2 3 4 5 6 
#
# 1 64.4914 22.8298 38.6509 0.0000 -23.2095 0.0000
# 2 22.8298 159.5959 55.2703 0.0000 -11.1047 0.0000
# 3 38.6509 55.2703 138.3447 0.0000 -13.4367 0.0000
# 4 0.0000 0.0000 0.0000 17.0763 0.0000 -1.0885
# 5 -23.2095 -11.1047 -13.4367 0.0000 26.5920 0.0000
# 6 0.0000 0.0000 0.0000 -1.0885 0.0000 14.1600
#
#
#
# Elastic Compliance Matrix: (Units=1/GPa)
#
#
# Indices 1 2 3 4 5 6 
#
# 1 0.025867 -0.000565 -0.005081 0.000000 0.019774 0.000000
# 2 -0.000565 0.007354 -0.002660 0.000000 0.001234 0.000000
# 3 -0.005081 -0.002660 0.009645 0.000000 -0.000672 0.000000
# 4 0.000000 0.000000 0.000000 0.058849 0.000000 0.004524
# 5 0.019774 0.001234 -0.000672 0.000000 0.055040 0.000000
# 6 0.000000 0.000000 0.000000 0.004524 0.000000 0.070969
#
#
# Mechanical properties :
#
#
# Convention : Reuss Voigt Hill
#
# Bulk Modulus (GPa) = 38.08843 66.21488 52.15166
# Shear Modulus (GPa) = 19.75606 27.94440 23.85023
#
# Velocity S-wave (km/s) = 3.15645 3.75402 3.46813
# Velocity P-wave (km/s) = 5.70023 7.22378 6.50675
#
# Compressibility (1/GPa) = 0.02625469
#
# Stress axis : x y z
#
# Youngs Moduli (GPa) = 38.65922 135.98484 103.67724
#
# Poissons Ratio (x) = 0.07682 0.52674
# Poissons Ratio (y) = 0.02184 0.27581
# Poissons Ratio (z) = 0.19641 0.36176
#
# Static dielectric constant tensor:
#      x y z
#    x 3.051510 0.000000 -0.065120 
#    y 0.000000 4.065830 0.000000 
#    z -0.065120 0.000000 3.979190 
# 
# 
# High freq. dielectric constant tensor:
#      x y z
#    x 1.715680 0.000000 -0.007620 
#    y 0.000000 1.768490 0.000000 
#    z -0.007620 0.000000 1.795250 
# 
# From -- ./inp_files/15357.got.cif
#   From: 2010.03.12/outbox.cif.g09.slc.cpg/sg8_8_cif.got.tgz:15357.got - 2010.03.31 10:45:26.
