data_PCOD8052928
_publ_section_title
;
Structure prediction by ZEFSAII (Michael W. Deem and Ramdas Pophale) SiO2 
 PCOD8052928
Probable space group: C M
;
_chemical_formula_sum "Si O2"
_cell_formula_units_Z 20
_cell_length_a 14.678451
_cell_length_b 13.797743
_cell_length_c 7.344420
_cell_angle_alpha 90.000000
_cell_angle_beta 141.947108
_cell_angle_gamma 90.000000
_cell_volume 916.854501
_symmetry_space_group_name_H-M "C M"
_symmetry_group_IT_number 8
_symmetry_cell_setting 'monoclinic'
loop_
_space_group_symop_operation_xyz
x,y,z
x,-y,z
1/2+x,1/2+y,z
1/2+x,1/2-y,z
loop_
_atom_site_type_symbol
_atom_site_label
_atom_site_fract_x
_atom_site_fract_y
_atom_site_fract_z
Si Si1 0.954220 0.663422 0.443880
Si Si2 0.759306 0.500000 0.974778
Si Si3 0.916334 0.203547 0.727482
Si Si4 0.932409 0.000000 0.571025
Si Si5 0.989504 0.500000 0.045229
Si Si6 0.622806 0.000000 0.880716
Si Si7 0.597447 0.794561 0.318790
O O1 0.907789 0.733667 0.531421
O O2 0.094692 0.596248 0.718566
O O3 0.008812 0.732202 0.363316
O O4 0.815462 0.596190 0.168521
O O5 0.581871 0.500000 0.685057
O O6 0.823356 0.500000 0.867834
O O7 0.930864 0.091731 0.700414
O O8 0.770205 0.226069 0.614945
O O9 0.049247 0.233521 0.067056
O O10 0.789582 0.000000 0.215915
O O11 0.993780 0.500000 0.833337
O O12 0.078725 0.408387 0.256671
#
# Coordination Sequence:
#
# PCOD8052928 Si02
#       7
#     4   2   4   2   2   2   4
#     4  10  23  43  67  93 126 181 215 254 327 394
#     4   9  22  38  66  97 134 159 219 267 318 393
#     4  12  23  42  64  93 136 168 217 268 318 384
#     4  12  24  39  66 102 130 168 216 279 322 362
#     4  10  18  44  65  93 124 175 209 252 326 394
#     4  11  20  43  75  90 130 170 218 266 322 393
#     4  11  24  41  68  95 129 171 217 262 323 392
#
# _framework density 21.813711999999999
#
# number of rings (size 3 to 8) (size 9 to 14) (size 15 to 20)
#    0.000    1.200    4.000    1.800    0.000    6.400 
#    0.000    1.000    0.000    0.000    0.000    0.000 
#    0.000    0.000    0.000    0.000    0.000    0.000 
#
# Total GULP energy -124004.870603 kJ/mol
# GULP energy per Si atom -12400.487060 kJ/mol
# Density = 2.176406 g / cm^3
# Si number density = 21.813712 Si / 1000 Ang^3
#
#
#
# Elastic Constant Matrix: (Units=GPa)
#
#
# Indices 1 2 3 4 5 6 
#
# 1 131.0950 28.2687 40.0975 0.0000 2.3881 0.0000
# 2 28.2687 102.7691 29.0692 0.0000 -0.5094 0.0000
# 3 40.0975 29.0692 98.2178 0.0000 15.6450 0.0000
# 4 0.0000 0.0000 0.0000 -8.0305 0.0000 7.0466
# 5 2.3881 -0.5094 15.6450 0.0000 39.5158 0.0000
# 6 0.0000 0.0000 0.0000 7.0466 0.0000 28.4785
#
#
#
# Elastic Compliance Matrix: (Units=1/GPa)
#
#
# Indices 1 2 3 4 5 6 
#
# 1 0.008960 -0.001519 -0.003329 0.000000 0.000757 0.000000
# 2 -0.001519 0.010958 -0.002839 0.000000 0.001357 0.000000
# 3 -0.003329 -0.002839 0.013186 0.000000 -0.005056 0.000000
# 4 0.000000 0.000000 0.000000 -0.102311 0.000000 0.025315
# 5 0.000757 0.001357 -0.005056 0.000000 0.027280 0.000000
# 6 0.000000 0.000000 0.000000 0.025315 0.000000 0.028850
#
#
# Mechanical properties :
#
#
# Convention : Reuss Voigt Hill
#
# Bulk Modulus (GPa) = 56.40233 58.55030 57.47631
# Shear Modulus (GPa) = 609.14219 27.63584 318.38901
#
# Velocity S-wave (km/s) = 16.72883 3.56322 12.09442
# Velocity P-wave (km/s) = 19.97625 6.62027 14.88084
#
# Compressibility (1/GPa) = 0.01772977
#
# Stress axis : x y z
#
# Youngs Moduli (GPa) = 111.60627 91.25509 75.83711
#
# Poissons Ratio (x) = 0.13864 0.25245
# Poissons Ratio (y) = 0.16956 0.21532
# Poissons Ratio (z) = 0.37152 0.25909
#
# Static dielectric constant tensor:
#      x y z
#    x 4.306530 0.000000 -0.072020 
#    y 0.000000 3.963790 0.000000 
#    z -0.072020 0.000000 3.745590 
# 
# 
# High freq. dielectric constant tensor:
#      x y z
#    x 1.868360 0.000000 -0.001030 
#    y 0.000000 1.859330 0.000000 
#    z -0.001030 0.000000 1.843140 
# 
# From -- ./inp_files/14961.got.cif
#   From: 2010.03.12/outbox.cif.g09.slc.cpg/sg8_8_cif.got.tgz:14961.got - 2010.03.31 10:45:26.
