data_PCOD8052310
_publ_section_title
;
Structure prediction by ZEFSAII (Michael W. Deem and Ramdas Pophale) SiO2 
 PCOD8052310
Probable space group: P M
;
_chemical_formula_sum "Si O2"
_cell_formula_units_Z 16
_cell_length_a 9.923606
_cell_length_b 9.299525
_cell_length_c 11.970469
_cell_angle_alpha 90.000000
_cell_angle_beta 53.769171
_cell_angle_gamma 90.000000
_cell_volume 891.091902
_symmetry_space_group_name_H-M "P M"
_symmetry_group_IT_number 6
_symmetry_cell_setting 'monoclinic'
loop_
_space_group_symop_operation_xyz
x,y,z
x,-y,z
loop_
_atom_site_type_symbol
_atom_site_label
_atom_site_fract_x
_atom_site_fract_y
_atom_site_fract_z
Si Si1 0.503350 0.166983 0.837080
Si Si2 0.348656 0.164616 0.313720
Si Si3 0.842738 0.830916 0.785842
Si Si4 0.208334 0.165639 0.145581
Si Si5 0.179227 0.329724 0.590030
Si Si6 0.733734 0.166116 0.086062
Si Si7 0.994076 0.667992 0.089881
Si Si8 0.293153 0.666380 0.777627
O O1 0.688835 0.212472 0.781792
O O2 0.451718 0.249457 0.749584
O O3 0.494086 0.000000 0.813937
O O4 0.379552 0.207459 0.998931
O O5 0.230538 0.195623 0.265627
O O6 0.301064 0.273593 0.434434
O O7 0.537495 0.194738 0.185236
O O8 0.326550 0.000000 0.364840
O O9 0.999721 0.743204 0.664059
O O10 0.880112 0.000000 0.760045
O O11 0.800872 0.785161 0.932571
O O12 0.056575 0.263389 0.175512
O O13 0.163379 0.000000 0.144704
O O14 0.156975 0.500000 0.592204
O O15 0.262563 0.284117 0.666167
O O16 0.819606 0.261006 0.139912
O O17 0.776232 0.000000 0.087402
O O18 0.966218 0.500000 0.121784
O O19 0.127246 0.703789 0.928244
O O20 0.337144 0.500000 0.764013
#
# Coordination Sequence:
#
# PCOD8052310 Si02
#       8
#     2   2   2   2   2   2   2   2
#     4   9  17  31  55  84 107 132 174 226 273 318
#     4  10  21  38  58  81 110 143 182 226 273 324
#     4  10  19  34  57  84 109 138 181 229 273 319
#     4   9  17  33  55  80 109 139 175 224 275 320
#     4  11  23  38  54  78 114 150 183 219 267 327
#     4  10  19  34  57  83 109 139 181 229 273 318
#     4  10  19  32  52  81 113 142 178 222 268 322
#     4   9  19  34  50  75 111 145 176 217 266 318
#
# _framework density 17.955500000000001
#
# number of rings (size 3 to 8) (size 9 to 14) (size 15 to 20)
#    0.000    2.250    2.500    0.750    0.000    3.000 
#    0.000    1.250    0.000    1.500    0.000    0.000 
#    0.000    0.000    0.000    0.000    0.000    0.000 
#
# Total GULP energy -198446.488777 kJ/mol
# GULP energy per Si atom -12402.905549 kJ/mol
# Density = 1.791463 g / cm^3
# Si number density = 17.955500 Si / 1000 Ang^3
#
#
#
# Elastic Constant Matrix: (Units=GPa)
#
#
# Indices 1 2 3 4 5 6 
#
# 1 121.2454 54.2311 18.8992 0.0000 13.2111 0.0000
# 2 54.2311 65.4595 21.3196 0.0000 6.0053 0.0000
# 3 18.8992 21.3196 48.1678 0.0000 8.4566 0.0000
# 4 0.0000 0.0000 0.0000 27.1133 0.0000 3.5377
# 5 13.2111 6.0053 8.4566 0.0000 22.4573 0.0000
# 6 0.0000 0.0000 0.0000 3.5377 0.0000 24.7481
#
#
#
# Elastic Compliance Matrix: (Units=1/GPa)
#
#
# Indices 1 2 3 4 5 6 
#
# 1 0.013664 -0.010974 0.000420 0.000000 -0.005262 0.000000
# 2 -0.010974 0.026742 -0.007933 0.000000 0.002292 0.000000
# 3 0.000420 -0.007933 0.025461 0.000000 -0.007714 0.000000
# 4 0.000000 0.000000 0.000000 0.037583 0.000000 -0.005373
# 5 -0.005262 0.002292 -0.007714 0.000000 0.049916 0.000000
# 6 0.000000 0.000000 0.000000 -0.005373 0.000000 0.041175
#
#
# Mechanical properties :
#
#
# Convention : Reuss Voigt Hill
#
# Bulk Modulus (GPa) = 34.61053 47.08582 40.84817
# Shear Modulus (GPa) = 20.73416 24.22527 22.47971
#
# Velocity S-wave (km/s) = 3.40185 3.67711 3.54215
# Velocity P-wave (km/s) = 5.89472 6.65648 6.28715
#
# Compressibility (1/GPa) = 0.02889294
#
# Stress axis : x y z
#
# Youngs Moduli (GPa) = 73.18324 37.39439 39.27516
#
# Poissons Ratio (x) = 0.41038 -0.01649
# Poissons Ratio (y) = 0.80315 0.31156
# Poissons Ratio (z) = -0.03073 0.29664
#
# Static dielectric constant tensor:
#      x y z
#    x 3.436970 0.000000 0.102520 
#    y 0.000000 3.259520 0.000000 
#    z 0.102520 0.000000 3.057390 
# 
# 
# High freq. dielectric constant tensor:
#      x y z
#    x 1.706720 0.000000 0.007590 
#    y 0.000000 1.692050 0.000000 
#    z 0.007590 0.000000 1.667880 
# 
# From -- ./inp_files/3466.got.cif
#   From: 2010.03.12/outbox.cif.g09.slc.cpg/sg6_2_cif.got.tgz:3466.got - 2010.03.30 10:24:59.
