data_PCOD8052878
_publ_section_title
;
Structure prediction by ZEFSAII (Michael W. Deem and Ramdas Pophale) SiO2 
 PCOD8052878
Probable space group: C M
;
_chemical_formula_sum "Si O2"
_cell_formula_units_Z 26
_cell_length_a 8.179963
_cell_length_b 18.778582
_cell_length_c 8.494689
_cell_angle_alpha 90.000000
_cell_angle_beta 49.759066
_cell_angle_gamma 90.000000
_cell_volume 996.039637
_symmetry_space_group_name_H-M "C M"
_symmetry_group_IT_number 8
_symmetry_cell_setting 'monoclinic'
loop_
_space_group_symop_operation_xyz
x,y,z
x,-y,z
1/2+x,1/2+y,z
1/2+x,1/2-y,z
loop_
_atom_site_type_symbol
_atom_site_label
_atom_site_fract_x
_atom_site_fract_y
_atom_site_fract_z
Si Si1 0.971750 0.500000 0.876801
Si Si2 0.423951 0.500000 0.658421
Si Si3 0.845186 0.080283 0.295086
Si Si4 0.251598 0.140844 0.049314
Si Si5 0.476220 0.377756 0.870160
Si Si6 0.577423 0.783018 0.081973
Si Si7 0.434036 0.140472 0.459647
Si Si8 0.881477 0.500000 0.291894
O O1 0.859274 0.573520 0.888765
O O2 0.219211 0.500000 0.666977
O O3 0.992142 0.500000 0.054019
O O4 0.422876 0.430951 0.764806
O O5 0.629126 0.500000 0.419061
O O6 0.050393 0.106677 0.274002
O O7 0.944027 0.083885 0.056496
O O8 0.778294 0.000000 0.375670
O O9 0.640950 0.132641 0.446290
O O10 0.424657 0.181198 0.047410
O O11 0.123577 0.198977 0.017152
O O12 0.315070 0.313423 0.941544
O O13 0.722538 0.351219 0.694839
O O14 0.463527 0.792332 0.323732
O O15 0.454413 0.069441 0.340763
#
# Coordination Sequence:
#
# PCOD8052878 Si02
#       8
#     2   2   4   4   4   4   4   2
#     4  12  20  42  66  96 128 168 208 268 312 372
#     4  10  18  33  65  99 127 165 212 254 314 388
#     4  11  21  37  62  94 131 165 210 266 311 371
#     4  12  25  43  68  93 129 173 216 259 327 376
#     4  10  20  38  67  97 129 170 212 258 320 383
#     4  11  23  43  64  92 128 170 214 266 315 382
#     4  10  20  38  67  97 129 170 212 258 320 383
#     4  10  18  33  65  99 127 165 212 254 314 388
#
# _framework density 26.103376999999998
#
# number of rings (size 3 to 8) (size 9 to 14) (size 15 to 20)
#    0.000    1.231    5.385    2.769    0.000    0.000 
#    0.000   10.769    0.000    0.000    0.000    0.000 
#    0.000    0.000    0.000    0.000    0.000    0.000 
#
# Total GULP energy -161069.206889 kJ/mol
# GULP energy per Si atom -12389.938991 kJ/mol
# Density = 2.604396 g / cm^3
# Si number density = 26.103377 Si / 1000 Ang^3
#
#
#
# Elastic Constant Matrix: (Units=GPa)
#
#
# Indices 1 2 3 4 5 6 
#
# 1 100.0760 35.4917 40.4739 0.0000 -38.1013 0.0000
# 2 35.4917 136.3681 10.7223 0.0000 -13.2577 0.0000
# 3 40.4739 10.7223 121.8605 0.0000 -35.4396 0.0000
# 4 0.0000 0.0000 0.0000 -945.9711 0.0000 754.8011
# 5 -38.1013 -13.2577 -35.4396 0.0000 60.7798 0.0000
# 6 0.0000 0.0000 0.0000 754.8011 0.0000 -577.9337
#
#
#
# Elastic Compliance Matrix: (Units=1/GPa)
#
#
# Indices 1 2 3 4 5 6 
#
# 1 0.014798 -0.002956 -0.002582 0.000000 0.007126 0.000000
# 2 -0.002956 0.008087 0.000294 0.000000 0.000083 0.000000
# 3 -0.002582 0.000294 0.010339 0.000000 0.004474 0.000000
# 4 0.000000 0.000000 0.000000 0.025110 0.000000 0.032794
# 5 0.007126 0.000083 0.004474 0.000000 0.023547 0.000000
# 6 0.000000 0.000000 0.000000 0.032794 0.000000 0.041100
#
#
# Mechanical properties :
#
#
# Convention : Reuss Voigt Hill
#
# Bulk Modulus (GPa) = 43.98204 59.07559 51.52882
# Shear Modulus (GPa) = 35.44893 -274.51723 -119.53415
#
# Velocity S-wave (km/s) = 3.68913 -10.26614 -6.77436
# Velocity P-wave (km/s) = 5.91878 10.85562 6.43477
#
# Compressibility (1/GPa) = 0.02273655
#
# Stress axis : x y z
#
# Youngs Moduli (GPa) = 67.57631 123.65160 96.72100
#
# Poissons Ratio (x) = 0.36546 0.24978
# Poissons Ratio (y) = 0.19973 -0.02845
# Poissons Ratio (z) = 0.17451 -0.03637
#
# Static dielectric constant tensor:
#      x y z
#    x 4.913130 0.000000 -0.556940 
#    y 0.000000 7.649210 0.000000 
#    z -0.556940 0.000000 4.783410 
# 
# 
# High freq. dielectric constant tensor:
#      x y z
#    x 2.055720 0.000000 -0.034840 
#    y 0.000000 2.047810 0.000000 
#    z -0.034840 0.000000 2.042340 
# 
# From -- ./inp_files/19245.got.cif
#   From: 2010.03.12/outbox.cif.g09.slc.cpg/sg8_10_cif.got.tgz:19245.got - 2010.03.31 10:45:26.
