data_PCOD8052356
_publ_section_title
;
Structure prediction by ZEFSAII (Michael W. Deem and Ramdas Pophale) SiO2 
 PCOD8052356
Probable space group: P M
;
_chemical_formula_sum "Si O2"
_cell_formula_units_Z 16
_cell_length_a 12.188002
_cell_length_b 8.525791
_cell_length_c 10.130443
_cell_angle_alpha 90.000000
_cell_angle_beta 52.435310
_cell_angle_gamma 90.000000
_cell_volume 834.421717
_symmetry_space_group_name_H-M "P M"
_symmetry_group_IT_number 6
_symmetry_cell_setting 'monoclinic'
loop_
_space_group_symop_operation_xyz
x,y,z
x,-y,z
loop_
_atom_site_type_symbol
_atom_site_label
_atom_site_fract_x
_atom_site_fract_y
_atom_site_fract_z
Si Si1 0.390690 0.815869 0.001280
Si Si2 0.681735 0.818312 0.682790
Si Si3 0.110996 0.319062 0.234106
Si Si4 0.110081 0.182530 0.519766
Si Si5 0.702291 0.817082 0.162076
Si Si6 0.819720 0.319919 0.334967
Si Si7 0.414426 0.815219 0.279060
Si Si8 0.838851 0.319343 0.809827
O O1 0.251626 0.728380 0.053359
O O2 0.426362 0.749645 0.121247
O O3 0.359526 0.000000 0.025725
O O4 0.519477 0.773965 0.812669
O O5 0.728032 0.785181 0.499975
O O6 0.773014 0.716134 0.715676
O O7 0.704440 0.000000 0.701764
O O8 0.115360 0.500000 0.274240
O O9 0.093768 0.212773 0.376116
O O10 0.982372 0.284300 0.232460
O O11 0.265958 0.231424 0.450870
O O12 0.002680 0.284163 0.682980
O O13 0.081504 0.000000 0.566935
O O14 0.782327 0.718837 0.212645
O O15 0.542905 0.754561 0.272711
O O16 0.710063 0.000000 0.191707
O O17 0.771066 0.789968 0.969659
O O18 0.786299 0.500000 0.390309
O O19 0.427960 0.000000 0.257763
O O20 0.815941 0.500000 0.863447
#
# Coordination Sequence:
#
# PCOD8052356 Si02
#       8
#     2   2   2   2   2   2   2   2
#     4   9  18  34  57  85 114 143 188 241 283 334
#     4  11  21  37  61  87 113 151 198 240 281 339
#     4  10  20  34  54  83 118 151 187 234 290 342
#     4  10  19  34  58  85 113 148 192 239 283 337
#     4  11  22  40  62  84 113 154 197 235 284 350
#     4  11  24  40  56  84 122 154 189 238 292 345
#     4   8  16  33  56  84 112 141 185 240 283 328
#     4  12  23  36  56  88 121 150 188 241 292 339
#
# _framework density 19.174956000000002
#
# number of rings (size 3 to 8) (size 9 to 14) (size 15 to 20)
#    0.000    1.750    2.500    3.750    0.000    2.500 
#    0.000    3.125    0.000    1.500    0.000    0.000 
#    0.000    0.000    0.000    0.000    0.000    0.000 
#
# Total GULP energy -198415.874258 kJ/mol
# GULP energy per Si atom -12400.992141 kJ/mol
# Density = 1.913131 g / cm^3
# Si number density = 19.174956 Si / 1000 Ang^3
#
#
#
# Elastic Constant Matrix: (Units=GPa)
#
#
# Indices 1 2 3 4 5 6 
#
# 1 126.7491 28.5534 44.8865 0.0000 -23.2875 0.0000
# 2 28.5534 58.3607 16.7540 0.0000 -13.4857 0.0000
# 3 44.8865 16.7540 75.9590 0.0000 -22.2321 0.0000
# 4 0.0000 0.0000 0.0000 25.1038 0.0000 0.6818
# 5 -23.2875 -13.4857 -22.2321 0.0000 34.8546 0.0000
# 6 0.0000 0.0000 0.0000 0.6818 0.0000 23.8950
#
#
#
# Elastic Compliance Matrix: (Units=1/GPa)
#
#
# Indices 1 2 3 4 5 6 
#
# 1 0.010878 -0.003255 -0.004859 0.000000 0.002909 0.000000
# 2 -0.003255 0.020180 -0.001081 0.000000 0.004944 0.000000
# 3 -0.004859 -0.001081 0.018692 0.000000 0.008258 0.000000
# 4 0.000000 0.000000 0.000000 0.039865 0.000000 -0.001137
# 5 0.002909 0.004944 0.008258 0.000000 0.037815 0.000000
# 6 0.000000 0.000000 0.000000 -0.001137 0.000000 0.041882
#
#
# Mechanical properties :
#
#
# Convention : Reuss Voigt Hill
#
# Bulk Modulus (GPa) = 31.88671 49.05073 40.46872
# Shear Modulus (GPa) = 25.23288 28.16235 26.69761
#
# Velocity S-wave (km/s) = 3.63151 3.83653 3.73542
# Velocity P-wave (km/s) = 5.85229 6.72766 6.30518
#
# Compressibility (1/GPa) = 0.03136103
#
# Stress axis : x y z
#
# Youngs Moduli (GPa) = 91.92804 49.55409 53.50025
#
# Poissons Ratio (x) = 0.16130 0.25994
# Poissons Ratio (y) = 0.29923 0.05781
# Poissons Ratio (z) = 0.44665 0.05354
#
# Static dielectric constant tensor:
#      x y z
#    x 3.667860 0.000000 -0.421800 
#    y 0.000000 3.372240 0.000000 
#    z -0.421800 0.000000 3.407340 
# 
# 
# High freq. dielectric constant tensor:
#      x y z
#    x 1.739880 0.000000 -0.030920 
#    y 0.000000 1.741580 0.000000 
#    z -0.030920 0.000000 1.731940 
# 
# From -- ./inp_files/3714.got.cif
#   From: 2010.03.12/outbox.cif.g09.slc.cpg/sg6_2_cif.got.tgz:3714.got - 2010.03.30 10:24:59.
