data_PCOD8052152
_publ_section_title
;
Structure prediction by ZEFSAII (Michael W. Deem and Ramdas Pophale) SiO2 
 PCOD8052152
Probable space group: C 2
;
_chemical_formula_sum "Si O2"
_cell_formula_units_Z 16
_cell_length_a 20.220057
_cell_length_b 6.602395
_cell_length_c 4.764978
_cell_angle_alpha 90.000000
_cell_angle_beta 62.461374
_cell_angle_gamma 90.000000
_cell_volume 564.054626
_symmetry_space_group_name_H-M "C 2"
_symmetry_group_IT_number 5
_symmetry_cell_setting 'monoclinic'
loop_
_space_group_symop_operation_xyz
x,y,z
-x,y,-z
1/2+x,1/2+y,z
1/2-x,1/2+y,-z
loop_
_atom_site_type_symbol
_atom_site_label
_atom_site_fract_x
_atom_site_fract_y
_atom_site_fract_z
Si Si1 0.000000 0.186100 0.500000
Si Si2 0.000000 0.888017 0.000000
Si Si3 0.643191 0.928227 0.307484
Si Si4 0.651750 0.271452 0.899181
Si Si5 0.295429 0.719421 0.287583
O O1 0.069778 0.333304 0.311047
O O2 0.980322 0.036920 0.289256
O O3 0.929494 0.739366 0.084652
O O4 0.713386 0.837132 0.990645
O O5 0.653185 0.860216 0.609720
O O6 0.646817 0.169162 0.221766
O O7 0.665161 0.510839 0.879932
O O8 0.715296 0.165342 0.578903
#
# Coordination Sequence:
#
# PCOD8052152 Si02
#       5
#     2   2   4   4   4
#     4  12  24  52  76 120 168 214 270 346 402 500
#     4  12  28  48  84 116 170 210 276 336 416 492
#     4  12  28  49  83 115 165 219 274 339 414 485
#     4  12  28  53  84 121 165 220 272 345 415 490
#     4  12  28  50  81 120 161 217 281 335 406 499
#
# _framework density 28.366043999999999
#
# number of rings (size 3 to 8) (size 9 to 14) (size 15 to 20)
#    0.000    0.000    7.500    0.000    3.500   10.000 
#    0.000    0.000    0.000    0.000    0.000    0.000 
#    0.000    0.000    0.000    0.000    0.000    0.000 
#
# Total GULP energy -99159.020952 kJ/mol
# GULP energy per Si atom -12394.877619 kJ/mol
# Density = 2.830148 g / cm^3
# Si number density = 28.366044 Si / 1000 Ang^3
#
#
#
# Elastic Constant Matrix: (Units=GPa)
#
#
# Indices 1 2 3 4 5 6 
#
# 1 103.1183 52.4912 -5.9990 0.0000 -25.3434 0.0000
# 2 52.4912 159.4724 37.4723 0.0000 14.4451 0.0000
# 3 -5.9990 37.4723 98.1380 0.0000 16.1096 0.0000
# 4 0.0000 0.0000 0.0000 60.3546 0.0000 4.9984
# 5 -25.3434 14.4451 16.1096 0.0000 41.8795 0.0000
# 6 0.0000 0.0000 0.0000 4.9984 0.0000 64.2373
#
#
#
# Elastic Compliance Matrix: (Units=1/GPa)
#
#
# Indices 1 2 3 4 5 6 
#
# 1 0.015979 -0.006677 0.001666 0.000000 0.011332 0.000000
# 2 -0.006677 0.009763 -0.003117 0.000000 -0.006210 0.000000
# 3 0.001666 -0.003117 0.011891 0.000000 -0.002490 0.000000
# 4 0.000000 0.000000 0.000000 0.016676 0.000000 -0.001298
# 5 0.011332 -0.006210 -0.002490 0.000000 0.033835 0.000000
# 6 0.000000 0.000000 0.000000 -0.001298 0.000000 0.015668
#
#
# Mechanical properties :
#
#
# Convention : Reuss Voigt Hill
#
# Bulk Modulus (GPa) = 46.78024 58.73974 52.75999
# Shear Modulus (GPa) = 39.31010 51.74524 45.52767
#
# Velocity S-wave (km/s) = 3.72669 4.27569 4.01060
# Velocity P-wave (km/s) = 5.91989 6.71775 6.33140
#
# Compressibility (1/GPa) = 0.02137655
#
# Stress axis : x y z
#
# Youngs Moduli (GPa) = 62.58368 102.42294 84.10056
#
# Poissons Ratio (x) = 0.68392 -0.14013
# Poissons Ratio (y) = 0.41790 0.26213
# Poissons Ratio (z) = -0.10428 0.31924
#
# Static dielectric constant tensor:
#      x y z
#    x 5.324050 0.000000 -0.346240 
#    y 0.000000 5.230410 0.000000 
#    z -0.346240 0.000000 5.069230 
# 
# 
# High freq. dielectric constant tensor:
#      x y z
#    x 2.157870 0.000000 -0.000110 
#    y 0.000000 2.170340 0.000000 
#    z -0.000110 0.000000 2.151770 
# 
# From -- ./inp_files/7827.got.cif
#   From: 2010.03.12/outbox.cif.g09.slc.cpg/sg5_4_cif.got.tgz:7827.got - 2010.03.31 09:47:26.
