data_PCOD8052399
_publ_section_title
;
Structure prediction by ZEFSAII (Michael W. Deem and Ramdas Pophale) SiO2 
 PCOD8052399
Probable space group: P M
;
_chemical_formula_sum "Si O2"
_cell_formula_units_Z 16
_cell_length_a 20.233381
_cell_length_b 8.977317
_cell_length_c 15.958835
_cell_angle_alpha 90.000000
_cell_angle_beta 18.045358
_cell_angle_gamma 90.000000
_cell_volume 897.956456
_symmetry_space_group_name_H-M "P M"
_symmetry_group_IT_number 6
_symmetry_cell_setting 'monoclinic'
loop_
_space_group_symop_operation_xyz
x,y,z
x,-y,z
loop_
_atom_site_type_symbol
_atom_site_label
_atom_site_fract_x
_atom_site_fract_y
_atom_site_fract_z
Si Si1 0.198140 0.324741 0.330310
Si Si2 0.717495 0.174974 0.310670
Si Si3 0.668710 0.674152 0.706679
Si Si4 0.568431 0.325623 0.327198
Si Si5 0.518919 0.827477 0.726536
Si Si6 0.020997 0.674059 0.716911
Si Si7 0.048969 0.174255 0.347447
Si Si8 0.140400 0.676738 0.753241
O O1 0.153424 0.500000 0.376400
O O2 0.057397 0.244756 0.429498
O O3 0.122148 0.255998 0.511070
O O4 0.447797 0.288182 0.020056
O O5 0.578116 0.237572 0.402311
O O6 0.593267 0.217295 0.544616
O O7 0.745092 0.000000 0.266293
O O8 0.949765 0.249341 0.035023
O O9 0.717065 0.500000 0.647347
O O10 0.655735 0.731797 0.627227
O O11 0.857366 0.755585 0.526890
O O12 0.562101 0.500000 0.356203
O O13 0.361164 0.271648 0.527405
O O14 0.770189 0.287796 0.025136
O O15 0.562421 0.000000 0.694094
O O16 0.268539 0.789843 0.034352
O O17 0.061311 0.500000 0.662737
O O18 0.136549 0.734492 0.661641
O O19 0.008464 0.000000 0.405150
O O20 0.107528 0.500000 0.795974
#
# Coordination Sequence:
#
# PCOD8052399 Si02
#       8
#     2   2   2   2   2   2   2   2
#     4   9  18  33  53  76 100 128 166 209 246 285
#     4  10  20  34  52  73  99 131 166 205 247 293
#     4  10  20  33  52  78 103 127 161 207 251 290
#     4   9  18  33  53  75 100 131 166 204 245 292
#     4   9  20  37  53  70  96 133 171 203 242 294
#     4   8  15  30  52  75  99 129 165 204 245 289
#     4  10  20  35  53  72 100 135 166 200 244 297
#     4   9  18  33  52  75 101 130 165 204 248 294
#
# _framework density 17.818237
#
# number of rings (size 3 to 8) (size 9 to 14) (size 15 to 20)
#    0.000    2.750    0.000    1.875    0.000    4.500 
#    0.000   10.000    0.000    3.000    0.000    0.000 
#    0.000    0.000    0.000    0.000    0.000    0.000 
#
# Total GULP energy -198406.765140 kJ/mol
# GULP energy per Si atom -12400.422821 kJ/mol
# Density = 1.777768 g / cm^3
# Si number density = 17.818237 Si / 1000 Ang^3
#
#
#
# Elastic Constant Matrix: (Units=GPa)
#
#
# Indices 1 2 3 4 5 6 
#
# 1 137.3699 53.5511 95.7366 0.0000 -1.2205 0.0000
# 2 53.5511 58.5131 43.5710 0.0000 -4.8080 0.0000
# 3 95.7366 43.5710 110.8537 0.0000 -7.5216 0.0000
# 4 0.0000 0.0000 0.0000 23.6958 0.0000 -5.8054
# 5 -1.2205 -4.8080 -7.5216 0.0000 43.6138 0.0000
# 6 0.0000 0.0000 0.0000 -5.8054 0.0000 20.0969
#
#
#
# Elastic Compliance Matrix: (Units=1/GPa)
#
#
# Indices 1 2 3 4 5 6 
#
# 1 0.020951 -0.008190 -0.015073 0.000000 -0.002916 0.000000
# 2 -0.008190 0.027410 -0.003552 0.000000 0.002180 0.000000
# 3 -0.015073 -0.003552 0.023656 0.000000 0.003266 0.000000
# 4 0.000000 0.000000 0.000000 0.045416 0.000000 0.013119
# 5 -0.002916 0.002180 0.003266 0.000000 0.023651 0.000000
# 6 0.000000 0.000000 0.000000 0.013119 0.000000 0.053549
#
#
# Mechanical properties :
#
#
# Convention : Reuss Voigt Hill
#
# Bulk Modulus (GPa) = 54.38687 76.93935 65.66311
# Shear Modulus (GPa) = 19.65473 25.07316 22.36394
#
# Velocity S-wave (km/s) = 3.32485 3.75529 3.54660
# Velocity P-wave (km/s) = 6.73268 7.87888 7.32822
#
# Compressibility (1/GPa) = 0.01838679
#
# Stress axis : x y z
#
# Youngs Moduli (GPa) = 47.73017 36.48272 42.27275
#
# Poissons Ratio (x) = 0.29881 0.63716
# Poissons Ratio (y) = 0.39093 0.15016
# Poissons Ratio (z) = 0.71942 0.12959
#
# Static dielectric constant tensor:
#      x y z
#    x 3.474270 0.000000 0.047070 
#    y 0.000000 3.214240 0.000000 
#    z 0.047070 0.000000 3.383590 
# 
# 
# High freq. dielectric constant tensor:
#      x y z
#    x 1.696050 0.000000 -0.000700 
#    y 0.000000 1.678590 0.000000 
#    z -0.000700 0.000000 1.690260 
# 
# From -- ./inp_files/5622.got.cif
#   From: 2010.03.12/outbox.cif.g09.slc.cpg/sg6_3_cif.got.tgz:5622.got - 2010.03.30 10:24:59.
