data_PCOD8052665
_publ_section_title
;
Structure prediction by ZEFSAII (Michael W. Deem and Ramdas Pophale) SiO2 
 PCOD8052665
Probable space group: P C
;
_chemical_formula_sum "Si O2"
_cell_formula_units_Z 12
_cell_length_a 6.356602
_cell_length_b 13.713720
_cell_length_c 5.359355
_cell_angle_alpha 90.000000
_cell_angle_beta 77.946815
_cell_angle_gamma 90.000000
_cell_volume 456.889664
_symmetry_space_group_name_H-M "P C"
_symmetry_group_IT_number 7
_symmetry_cell_setting 'monoclinic'
loop_
_space_group_symop_operation_xyz
x,y,z
x,-y,1/2+z
loop_
_atom_site_type_symbol
_atom_site_label
_atom_site_fract_x
_atom_site_fract_y
_atom_site_fract_z
Si Si1 0.916770 0.042781 0.301980
Si Si2 0.076225 0.248622 0.344893
Si Si3 0.472615 0.542206 0.167135
Si Si4 0.439235 0.036811 0.877401
Si Si5 0.337560 0.753078 0.279395
Si Si6 0.958120 0.459115 0.501314
O O1 0.916693 0.157530 0.358085
O O2 0.026178 0.981471 0.504813
O O3 0.668539 0.012960 0.360952
O O4 0.234165 0.225852 0.535554
O O5 0.945269 0.345168 0.445080
O O6 0.178878 0.266596 0.048863
O O7 0.360125 0.481317 0.424702
O O8 0.483335 0.657204 0.219390
O O9 0.715059 0.500708 0.087438
O O10 0.474110 0.151076 0.815439
O O11 0.317884 0.980364 0.676300
O O12 0.070916 0.479331 0.745074
#
# Coordination Sequence:
#
# PCOD8052665 Si02
#       6
#     2   2   2   2   2   2
#     4  10  23  43  66  95 126 182 219 269 325 397
#     4  12  26  42  68 104 136 172 219 280 338 392
#     4  10  23  44  68  98 133 179 224 265 321 401
#     4  10  23  43  66  95 126 182 219 269 325 397
#     4  12  26  42  68 104 136 172 219 280 338 392
#     4  10  23  44  68  98 133 179 224 265 321 401
#
# _framework density 26.264548000000001
#
# number of rings (size 3 to 8) (size 9 to 14) (size 15 to 20)
#    0.000    1.333    0.000    4.000    4.667    8.000 
#   12.000    0.000    0.000    0.000    0.000    0.000 
#    0.000    0.000    0.000    0.000    0.000    0.000 
#
# Total GULP energy -148825.483780 kJ/mol
# GULP energy per Si atom -12402.123648 kJ/mol
# Density = 2.620477 g / cm^3
# Si number density = 26.264548 Si / 1000 Ang^3
#
#
#
# Elastic Constant Matrix: (Units=GPa)
#
#
# Indices 1 2 3 4 5 6 
#
# 1 42.0489 9.8467 48.9214 0.0000 11.5237 0.0000
# 2 9.8467 212.9756 69.5132 0.0000 7.4843 0.0000
# 3 48.9214 69.5132 227.8555 0.0000 19.9742 0.0000
# 4 0.0000 0.0000 0.0000 54.6871 0.0000 4.8088
# 5 11.5237 7.4843 19.9742 0.0000 37.1513 0.0000
# 6 0.0000 0.0000 0.0000 4.8088 0.0000 36.1342
#
#
#
# Elastic Compliance Matrix: (Units=1/GPa)
#
#
# Indices 1 2 3 4 5 6 
#
# 1 0.033426 0.000935 -0.006860 0.000000 -0.006868 0.000000
# 2 0.000935 0.005242 -0.001765 0.000000 -0.000397 0.000000
# 3 -0.006860 -0.001765 0.006488 0.000000 -0.001005 0.000000
# 4 0.000000 0.000000 0.000000 0.018502 0.000000 -0.002462
# 5 -0.006868 -0.000397 -0.001005 0.000000 0.029668 0.000000
# 6 0.000000 0.000000 0.000000 -0.002462 0.000000 0.028002
#
#
# Mechanical properties :
#
#
# Convention : Reuss Voigt Hill
#
# Bulk Modulus (GPa) = 33.58362 82.16030 57.87196
# Shear Modulus (GPa) = 34.09831 49.23444 41.66637
#
# Velocity S-wave (km/s) = 3.60705 4.33431 3.98730
# Velocity P-wave (km/s) = 5.49201 7.50987 6.57877
#
# Compressibility (1/GPa) = 0.02977642
#
# Stress axis : x y z
#
# Youngs Moduli (GPa) = 29.91659 190.75780 154.12590
#
# Poissons Ratio (x) = -0.17835 1.05728
# Poissons Ratio (y) = -0.02797 0.27207
# Poissons Ratio (z) = 0.20522 0.33673
#
# Static dielectric constant tensor:
#      x y z
#    x 4.606180 0.000000 0.013570 
#    y 0.000000 4.639700 0.000000 
#    z 0.013570 0.000000 7.271310 
# 
# 
# High freq. dielectric constant tensor:
#      x y z
#    x 2.072630 0.000000 0.000780 
#    y 0.000000 2.043880 0.000000 
#    z 0.000780 0.000000 2.110560 
# 
# From -- ./inp_files/558.got.cif
#   From: 2010.03.12/outbox.cif.g09.slc.cpg/sg7_cif.got.tgz:558.got - 2010.03.30 08:40:41.
