data_PCOD8052967
_publ_section_title
;
Structure prediction by ZEFSAII (Michael W. Deem and Ramdas Pophale) SiO2 
 PCOD8052967
Probable space group: C M
;
_chemical_formula_sum "Si O2"
_cell_formula_units_Z 20
_cell_length_a 29.372963
_cell_length_b 9.786455
_cell_length_c 8.653928
_cell_angle_alpha 90.000000
_cell_angle_beta 27.887862
_cell_angle_gamma 90.000000
_cell_volume 1163.572225
_symmetry_space_group_name_H-M "C M"
_symmetry_group_IT_number 8
_symmetry_cell_setting 'monoclinic'
loop_
_space_group_symop_operation_xyz
x,y,z
x,-y,z
1/2+x,1/2+y,z
1/2+x,1/2-y,z
loop_
_atom_site_type_symbol
_atom_site_label
_atom_site_fract_x
_atom_site_fract_y
_atom_site_fract_z
Si Si1 0.755498 0.500000 0.760888
Si Si2 0.255768 0.500000 0.230757
Si Si3 0.891127 0.000000 0.541736
Si Si4 0.891128 0.234937 0.866564
Si Si5 0.026487 0.000000 0.418604
Si Si6 0.026758 0.500000 0.947105
Si Si7 0.391129 0.792665 0.506236
Si Si8 0.391127 0.000000 0.075621
O O1 0.794193 0.367038 0.735825
O O2 0.794861 0.500000 0.468599
O O3 0.640774 0.500000 0.096023
O O4 0.141482 0.500000 0.593895
O O5 0.293603 0.500000 0.940241
O O6 0.297074 0.639428 0.183764
O O7 0.891128 0.137293 0.438697
O O8 0.988650 0.000000 0.355104
O O9 0.891129 0.289559 0.691153
O O10 0.985182 0.139428 0.619444
O O11 0.891126 0.364606 0.974893
O O12 0.988064 0.367038 0.154210
O O13 0.987394 0.500000 0.890999
#
# Coordination Sequence:
#
# PCOD8052967 Si02
#       8
#     2   2   2   4   2   2   4   2
#     4  10  19  32  49  74 100 122 154 202 241 272
#     4   8  18  33  51  70  95 126 161 196 233 279
#     4   8  16  34  52  68  92 130 164 190 228 288
#     4   9  18  35  52  68  94 131 162 189 232 290
#     4   8  18  33  51  70  95 126 161 196 233 279
#     4  10  19  32  49  74 100 122 154 202 241 272
#     4   8  17  32  52  70  94 128 161 192 232 286
#     4  10  20  32  48  74 102 122 152 202 244 272
#
# _framework density 17.188448999999999
#
# number of rings (size 3 to 8) (size 9 to 14) (size 15 to 20)
#    0.000    4.000    0.000    1.200    0.000    6.400 
#    0.000    8.000    0.000    0.000    0.000    0.000 
#    0.000    0.000    0.000    0.000    0.000    0.000 
#
# Total GULP energy -123887.776711 kJ/mol
# GULP energy per Si atom -12388.777671 kJ/mol
# Density = 1.714933 g / cm^3
# Si number density = 17.188449 Si / 1000 Ang^3
#
#
#
# Elastic Constant Matrix: (Units=GPa)
#
#
# Indices 1 2 3 4 5 6 
#
# 1 85.0818 69.0469 68.6895 0.0000 -6.1085 0.0000
# 2 69.0469 199.7692 72.4874 0.0000 -2.5491 0.0000
# 3 68.6895 72.4874 145.0974 0.0000 -38.3973 0.0000
# 4 0.0000 0.0000 0.0000 20.7352 0.0000 -4.7601
# 5 -6.1085 -2.5491 -38.3973 0.0000 36.2626 0.0000
# 6 0.0000 0.0000 0.0000 -4.7601 0.0000 14.3120
#
#
#
# Elastic Compliance Matrix: (Units=1/GPa)
#
#
# Indices 1 2 3 4 5 6 
#
# 1 0.023695 -0.004189 -0.011317 0.000000 -0.008287 0.000000
# 2 -0.004189 0.007278 -0.002368 0.000000 -0.002701 0.000000
# 3 -0.011317 -0.002368 0.017900 0.000000 0.016881 0.000000
# 4 0.000000 0.000000 0.000000 0.052214 0.000000 0.017366
# 5 -0.008287 -0.002701 0.016881 0.000000 0.043865 0.000000
# 6 0.000000 0.000000 0.000000 0.017366 0.000000 0.075647
#
#
# Mechanical properties :
#
#
# Convention : Reuss Voigt Hill
#
# Bulk Modulus (GPa) = 76.19401 94.48844 85.34122
# Shear Modulus (GPa) = 19.17751 28.91028 24.04389
#
# Velocity S-wave (km/s) = 3.34386 4.10562 3.74416
# Velocity P-wave (km/s) = 7.70282 8.80717 8.27344
#
# Compressibility (1/GPa) = 0.01312439
#
# Stress axis : x y z
#
# Youngs Moduli (GPa) = 42.20332 137.39410 55.86685
#
# Poissons Ratio (x) = 0.57552 0.63227
# Poissons Ratio (y) = 0.17678 0.13229
# Poissons Ratio (z) = 0.47763 0.32534
#
# Static dielectric constant tensor:
#      x y z
#    x 2.980740 0.000000 0.014240 
#    y 0.000000 3.628030 0.000000 
#    z 0.014240 0.000000 2.961550 
# 
# 
# High freq. dielectric constant tensor:
#      x y z
#    x 1.641210 0.000000 -0.002780 
#    y 0.000000 1.688490 0.000000 
#    z -0.002780 0.000000 1.644960 
# 
# From -- ./inp_files/17757.got.cif
#   From: 2010.03.12/outbox.cif.g09.slc.cpg/sg8_9_cif.got.tgz:17757.got - 2010.03.31 10:45:26.
