data_PCOD8052478
_publ_section_title
;
Structure prediction by ZEFSAII (Michael W. Deem and Ramdas Pophale) SiO2 
 PCOD8052478
Probable space group: P M
;
_chemical_formula_sum "Si O2"
_cell_formula_units_Z 16
_cell_length_a 9.624170
_cell_length_b 9.334348
_cell_length_c 11.840331
_cell_angle_alpha 90.000000
_cell_angle_beta 128.824074
_cell_angle_gamma 90.000000
_cell_volume 828.686323
_symmetry_space_group_name_H-M "P M"
_symmetry_group_IT_number 6
_symmetry_cell_setting 'monoclinic'
loop_
_space_group_symop_operation_xyz
x,y,z
x,-y,z
loop_
_atom_site_type_symbol
_atom_site_label
_atom_site_fract_x
_atom_site_fract_y
_atom_site_fract_z
Si Si1 0.784700 0.334025 0.919780
Si Si2 0.050660 0.830020 0.904134
Si Si3 0.436302 0.668406 0.599533
Si Si4 0.773669 0.666847 0.178368
Si Si5 0.081426 0.164153 0.462475
Si Si6 0.401837 0.662256 0.102455
Si Si7 0.881982 0.160506 0.584994
Si Si8 0.549994 0.339485 0.413940
O O1 0.830947 0.500000 0.922167
O O2 0.604278 0.290753 0.762853
O O3 0.950243 0.240920 0.958876
O O4 0.757950 0.300878 0.037630
O O5 0.948765 0.782616 0.739236
O O6 0.059138 0.000000 0.925184
O O7 0.249533 0.771320 0.988377
O O8 0.392772 0.500000 0.583576
O O9 0.268566 0.756877 0.554636
O O10 0.470093 0.721850 0.488950
O O11 0.813797 0.500000 0.222491
O O12 0.588033 0.712615 0.142055
O O13 0.934699 0.758906 0.310451
O O14 0.036044 0.170848 0.571327
O O15 0.098005 0.000000 0.429460
O O16 0.357828 0.500000 0.040051
O O17 0.406330 0.667724 0.240982
O O18 0.719799 0.253630 0.457810
O O19 0.811116 0.000000 0.562405
O O20 0.615967 0.500000 0.470266
#
# Coordination Sequence:
#
# PCOD8052478 Si02
#       8
#     2   2   2   2   2   2   2   2
#     4  10  22  41  63  88 119 154 196 245 293 346
#     4  11  24  40  60  88 120 158 197 239 293 352
#     4  10  22  39  61  89 117 153 198 246 294 345
#     4  10  22  41  63  88 119 154 196 245 293 346
#     4  11  24  40  60  88 120 158 197 239 293 352
#     4  10  22  39  61  89 117 153 198 246 294 345
#     4  10  22  40  60  85 118 153 196 245 292 344
#     4  10  20  38  64  87 110 149 202 249 292 342
#
# _framework density 19.307668
#
# number of rings (size 3 to 8) (size 9 to 14) (size 15 to 20)
#    0.000    1.750    2.500    0.750    3.500    3.500 
#    0.000    0.000    0.000    0.000    0.000    0.000 
#    0.000    0.000    0.000    0.000    0.000    0.000 
#
# Total GULP energy -198442.236414 kJ/mol
# GULP energy per Si atom -12402.639776 kJ/mol
# Density = 1.926372 g / cm^3
# Si number density = 19.307668 Si / 1000 Ang^3
#
#
#
# Elastic Constant Matrix: (Units=GPa)
#
#
# Indices 1 2 3 4 5 6 
#
# 1 88.0127 43.5162 28.4136 0.0000 4.4198 0.0000
# 2 43.5162 80.0328 37.1733 0.0000 13.5210 0.0000
# 3 28.4136 37.1733 67.7634 0.0000 -1.0064 0.0000
# 4 0.0000 0.0000 0.0000 47.0253 0.0000 16.2002
# 5 4.4198 13.5210 -1.0064 0.0000 38.6450 0.0000
# 6 0.0000 0.0000 0.0000 16.2002 0.0000 41.6597
#
#
#
# Elastic Compliance Matrix: (Units=1/GPa)
#
#
# Indices 1 2 3 4 5 6 
#
# 1 0.015890 -0.007627 -0.002467 0.000000 0.000787 0.000000
# 2 -0.007627 0.022005 -0.008978 0.000000 -0.007061 0.000000
# 3 -0.002467 -0.008978 0.020776 0.000000 0.003964 0.000000
# 4 0.000000 0.000000 0.000000 0.024555 0.000000 -0.009549
# 5 0.000787 -0.007061 0.003964 0.000000 0.028360 0.000000
# 6 0.000000 0.000000 0.000000 -0.009549 0.000000 0.027717
#
#
# Mechanical properties :
#
#
# Convention : Reuss Voigt Hill
#
# Bulk Modulus (GPa) = 48.71821 50.44610 49.58216
# Shear Modulus (GPa) = 27.13133 33.91304 30.52218
#
# Velocity S-wave (km/s) = 3.75268 4.19555 3.98028
# Velocity P-wave (km/s) = 6.63808 7.04659 6.84539
#
# Compressibility (1/GPa) = 0.02052620
#
# Stress axis : x y z
#
# Youngs Moduli (GPa) = 62.93303 45.44468 48.13295
#
# Poissons Ratio (x) = 0.34660 0.11875
# Poissons Ratio (y) = 0.47998 0.43215
# Poissons Ratio (z) = 0.15527 0.40801
#
# Static dielectric constant tensor:
#      x y z
#    x 3.523750 0.000000 -0.146740 
#    y 0.000000 3.497780 0.000000 
#    z -0.146740 0.000000 3.526640 
# 
# 
# High freq. dielectric constant tensor:
#      x y z
#    x 1.759350 0.000000 -0.007490 
#    y 0.000000 1.747880 0.000000 
#    z -0.007490 0.000000 1.755950 
# 
# From -- ./inp_files/2698.got.cif
#   From: 2010.03.12/outbox.cif.g09.slc.cpg/sg6_2_cif.got.tgz:2698.got - 2010.03.30 10:24:59.
