data_PCOD8052498
_publ_section_title
;
Structure prediction by ZEFSAII (Michael W. Deem and Ramdas Pophale) SiO2 
 PCOD8052498
Probable space group: P M
;
_chemical_formula_sum "Si O2"
_cell_formula_units_Z 14
_cell_length_a 9.189795
_cell_length_b 14.664816
_cell_length_c 5.203918
_cell_angle_alpha 90.000000
_cell_angle_beta 107.746111
_cell_angle_gamma 90.000000
_cell_volume 667.943600
_symmetry_space_group_name_H-M "P M"
_symmetry_group_IT_number 6
_symmetry_cell_setting 'monoclinic'
loop_
_space_group_symop_operation_xyz
x,y,z
x,-y,z
loop_
_atom_site_type_symbol
_atom_site_label
_atom_site_fract_x
_atom_site_fract_y
_atom_site_fract_z
Si Si1 0.174000 0.898382 0.254740
Si Si2 0.516244 0.287639 0.042511
Si Si3 0.202547 0.605209 0.946772
Si Si4 0.971323 0.263736 0.081030
Si Si5 0.703469 0.684202 0.651957
Si Si6 0.369482 0.103457 0.859438
Si Si7 0.924995 0.403351 0.448948
O O1 0.298042 0.881089 0.541229
O O2 0.031484 0.832006 0.216591
O O3 0.108322 0.000000 0.240765
O O4 0.244038 0.880160 0.012189
O O5 0.594711 0.284060 0.363179
O O6 0.362018 0.345825 0.976792
O O7 0.608835 0.335432 0.860602
O O8 0.497087 0.180940 0.957274
O O9 0.227363 0.500000 0.056606
O O10 0.099940 0.605115 0.636148
O O11 0.112320 0.667683 0.101702
O O12 0.878000 0.316549 0.253042
O O13 0.845121 0.244996 0.790400
O O14 0.800778 0.595095 0.616063
O O15 0.436902 0.000000 0.919101
O O16 0.907909 0.500000 0.292562
#
# Coordination Sequence:
#
# PCOD8052498 Si02
#       7
#     2   2   2   2   2   2   2
#     4  10  21  37  67  98 122 158 212 265 312 365
#     4  12  23  43  63  95 127 170 203 264 312 375
#     4  10  23  38  64  96 121 159 216 269 312 361
#     4  11  21  43  66  91 130 167 209 261 314 375
#     4  11  26  41  63  88 133 172 208 245 324 375
#     4  10  21  39  64  97 127 161 206 258 319 376
#     4  10  22  43  66  91 124 173 215 256 314 381
#
# _framework density 20.959852999999999
#
# number of rings (size 3 to 8) (size 9 to 14) (size 15 to 20)
#    0.000    1.429    2.857    2.143    4.000    1.714 
#    0.000    1.429    0.000    0.857    0.000    0.000 
#    0.000    0.000    0.000    0.000    0.000    0.000 
#
# Total GULP energy -173436.227256 kJ/mol
# GULP energy per Si atom -12388.301947 kJ/mol
# Density = 2.091215 g / cm^3
# Si number density = 20.959853 Si / 1000 Ang^3
#
#
#
# Elastic Constant Matrix: (Units=GPa)
#
#
# Indices 1 2 3 4 5 6 
#
# 1 110.9196 40.4278 39.0301 0.0000 5.5576 0.0000
# 2 40.4278 113.5284 43.7337 0.0000 17.4542 0.0000
# 3 39.0301 43.7337 104.0302 0.0000 4.9123 0.0000
# 4 0.0000 0.0000 0.0000 27.2978 0.0000 -5.7197
# 5 5.5576 17.4542 4.9123 0.0000 34.4019 0.0000
# 6 0.0000 0.0000 0.0000 -5.7197 0.0000 8.2705
#
#
#
# Elastic Compliance Matrix: (Units=1/GPa)
#
#
# Indices 1 2 3 4 5 6 
#
# 1 0.011085 -0.002808 -0.002981 0.000000 0.000060 0.000000
# 2 -0.002808 0.012048 -0.003769 0.000000 -0.005121 0.000000
# 3 -0.002981 -0.003769 0.012286 0.000000 0.000640 0.000000
# 4 0.000000 0.000000 0.000000 0.042841 0.000000 0.029628
# 5 0.000060 -0.005121 0.000640 0.000000 0.031565 0.000000
# 6 0.000000 0.000000 0.000000 0.029628 0.000000 0.141402
#
#
# Mechanical properties :
#
#
# Convention : Reuss Voigt Hill
#
# Bulk Modulus (GPa) = 61.34694 63.87348 62.61021
# Shear Modulus (GPa) = 18.13055 27.67981 22.90518
#
# Velocity S-wave (km/s) = 2.94430 3.63796 3.30936
# Velocity P-wave (km/s) = 6.39460 6.94167 6.67374
#
# Compressibility (1/GPa) = 0.01630073
#
# Stress axis : x y z
#
# Youngs Moduli (GPa) = 90.21130 83.00345 81.39676
#
# Poissons Ratio (x) = 0.23309 0.24266
# Poissons Ratio (y) = 0.25333 0.30682
# Poissons Ratio (z) = 0.26894 0.31287
#
# Static dielectric constant tensor:
#      x y z
#    x 3.763160 0.000000 -0.058530 
#    y 0.000000 3.890440 0.000000 
#    z -0.058530 0.000000 3.911990 
# 
# 
# High freq. dielectric constant tensor:
#      x y z
#    x 1.813470 0.000000 -0.004310 
#    y 0.000000 1.812350 0.000000 
#    z -0.004310 0.000000 1.832720 
# 
# From -- ./inp_files/1142.got.cif
#   From: 2010.03.12/outbox.cif.g09.slc.cpg/sg6_1_cif.got.tgz:1142.got - 2010.03.30 10:24:59.
