data_PCOD8052384
_publ_section_title
;
Structure prediction by ZEFSAII (Michael W. Deem and Ramdas Pophale) SiO2 
 PCOD8052384
Probable space group: P M
;
_chemical_formula_sum "Si O2"
_cell_formula_units_Z 10
_cell_length_a 5.211479
_cell_length_b 14.872147
_cell_length_c 6.881517
_cell_angle_alpha 90.000000
_cell_angle_beta 103.360349
_cell_angle_gamma 90.000000
_cell_volume 518.923254
_symmetry_space_group_name_H-M "P M"
_symmetry_group_IT_number 6
_symmetry_cell_setting 'monoclinic'
loop_
_space_group_symop_operation_xyz
x,y,z
x,-y,z
loop_
_atom_site_type_symbol
_atom_site_label
_atom_site_fract_x
_atom_site_fract_y
_atom_site_fract_z
Si Si1 0.103230 0.397126 0.119570
Si Si2 0.588147 0.829260 0.188072
Si Si3 0.143257 0.099318 0.342966
Si Si4 0.367947 0.725660 0.470841
Si Si5 0.539978 0.672798 0.912088
O O1 0.135411 0.500000 0.188453
O O2 0.160360 0.336268 0.317811
O O3 0.301058 0.375876 0.978623
O O4 0.808229 0.380723 0.993928
O O5 0.325653 0.889018 0.181427
O O6 0.605225 0.753129 0.363732
O O7 0.839945 0.893408 0.227495
O O8 0.566354 0.776877 0.980901
O O9 0.219633 0.180100 0.505871
O O10 0.189764 0.000000 0.442417
O O11 0.480710 0.672296 0.672505
#
# Coordination Sequence:
#
# PCOD8052384 Si02
#       5
#     2   2   2   2   2
#     4  11  24  40  59  91 119 151 202 245 287 353
#     4   9  19  37  57  85 116 156 189 244 282 347
#     4  10  19  37  61  85 119 157 191 240 291 342
#     4   9  23  38  65  81 124 156 189 245 295 345
#     4  11  21  40  64  84 118 160 195 238 301 343
#
# _framework density 19.270671
#
# number of rings (size 3 to 8) (size 9 to 14) (size 15 to 20)
#    1.200    0.800    2.000    1.200    2.800    1.600 
#    0.000    2.000    0.000    0.000    0.000    0.000 
#    0.000    0.000    0.000    0.000    0.000    0.000 
#
# Total GULP energy -123900.466007 kJ/mol
# GULP energy per Si atom -12390.046601 kJ/mol
# Density = 1.922681 g / cm^3
# Si number density = 19.270671 Si / 1000 Ang^3
#
#
#
# Elastic Constant Matrix: (Units=GPa)
#
#
# Indices 1 2 3 4 5 6 
#
# 1 117.4502 16.7749 16.5696 0.0000 -1.5575 0.0000
# 2 16.7749 126.3232 29.6229 0.0000 3.5158 0.0000
# 3 16.5696 29.6229 102.6214 0.0000 2.8900 0.0000
# 4 0.0000 0.0000 0.0000 8.5893 0.0000 5.9569
# 5 -1.5575 3.5158 2.8900 0.0000 14.1206 0.0000
# 6 0.0000 0.0000 0.0000 5.9569 0.0000 19.8374
#
#
#
# Elastic Compliance Matrix: (Units=1/GPa)
#
#
# Indices 1 2 3 4 5 6 
#
# 1 0.008836 -0.000933 -0.001198 0.000000 0.001452 0.000000
# 2 -0.000933 0.008627 -0.002289 0.000000 -0.001782 0.000000
# 3 -0.001198 -0.002289 0.010648 0.000000 -0.001741 0.000000
# 4 0.000000 0.000000 0.000000 0.147047 0.000000 -0.044156
# 5 0.001452 -0.001782 -0.001741 0.000000 0.071779 0.000000
# 6 0.000000 0.000000 0.000000 -0.044156 0.000000 0.063669
#
#
# Mechanical properties :
#
#
# Convention : Reuss Voigt Hill
#
# Bulk Modulus (GPa) = 51.89568 52.48107 52.18837
# Shear Modulus (GPa) = 15.34361 27.40464 21.37413
#
# Velocity S-wave (km/s) = 2.82479 3.77515 3.33401
# Velocity P-wave (km/s) = 6.13413 6.80405 6.47776
#
# Compressibility (1/GPa) = 0.01926943
#
# Stress axis : x y z
#
# Youngs Moduli (GPa) = 113.17623 115.92159 93.91503
#
# Poissons Ratio (x) = 0.10813 0.11254
# Poissons Ratio (y) = 0.10557 0.21500
# Poissons Ratio (z) = 0.13562 0.26539
#
# Static dielectric constant tensor:
#      x y z
#    x 3.537270 0.000000 -0.031070 
#    y 0.000000 3.450900 0.000000 
#    z -0.031070 0.000000 3.088260 
# 
# 
# High freq. dielectric constant tensor:
#      x y z
#    x 1.762600 0.000000 0.001720 
#    y 0.000000 1.750260 0.000000 
#    z 0.001720 0.000000 1.705870 
# 
# From -- ./inp_files/186.got.cif
#   From: 2010.03.12/outbox.cif.g09.slc.cpg/sg6_1_cif.got.tgz:186.got - 2010.03.30 10:24:59.
