data_PCOD8052566
_publ_section_title
;
Structure prediction by ZEFSAII (Michael W. Deem and Ramdas Pophale) SiO2 
 PCOD8052566
Probable space group: P M
;
_chemical_formula_sum "Si O2"
_cell_formula_units_Z 14
_cell_length_a 9.483134
_cell_length_b 15.783714
_cell_length_c 5.005096
_cell_angle_alpha 90.000000
_cell_angle_beta 120.900279
_cell_angle_gamma 90.000000
_cell_volume 642.824434
_symmetry_space_group_name_H-M "P M"
_symmetry_group_IT_number 6
_symmetry_cell_setting 'monoclinic'
loop_
_space_group_symop_operation_xyz
x,y,z
x,-y,z
loop_
_atom_site_type_symbol
_atom_site_label
_atom_site_fract_x
_atom_site_fract_y
_atom_site_fract_z
Si Si1 0.046370 0.095230 0.303520
Si Si2 0.041125 0.644395 0.815004
Si Si3 0.906762 0.172497 0.666695
Si Si4 0.564249 0.100703 0.275367
Si Si5 0.775855 0.500000 0.515436
Si Si6 0.272068 0.647580 0.528048
Si Si7 0.536448 0.500000 0.785359
Si Si8 0.388140 0.161761 0.603891
O O1 0.233764 0.110271 0.567864
O O2 0.935547 0.154541 0.382429
O O3 0.993050 0.000000 0.311109
O O4 0.023289 0.116609 0.969957
O O5 0.173056 0.648468 0.707056
O O6 0.945262 0.731127 0.769408
O O7 0.895329 0.579811 0.620624
O O8 0.143709 0.619383 0.176698
O O9 0.721021 0.147873 0.553480
O O10 0.421152 0.124299 0.342562
O O11 0.590662 0.000000 0.277996
O O12 0.532515 0.141205 0.953401
O O13 0.654340 0.500000 0.646362
O O14 0.657827 0.500000 0.149901
O O15 0.422286 0.582590 0.683817
O O16 0.350140 0.738887 0.543511
#
# Coordination Sequence:
#
# PCOD8052566 Si02
#       8
#     2   2   2   2   1   2   1   2
#     4  12  23  43  67  98 134 178 233 283 326 401
#     4  12  24  48  72 102 139 180 225 274 343 404
#     4  12  25  43  68  99 135 181 230 279 340 403
#     4  12  26  43  64  98 141 185 227 286 347 391
#     4  12  28  46  78 110 138 174 220 278 338 414
#     4  12  25  48  72 102 140 180 225 274 343 404
#     4  12  28  46  76 110 138 174 220 278 338 414
#     4  12  25  43  68  99 135 182 230 278 341 403
#
# _framework density 21.778884000000001
#
# number of rings (size 3 to 8) (size 9 to 14) (size 15 to 20)
#    0.000    0.000    2.857    7.714    4.000    0.000 
#    0.000    0.000    0.000    0.000    0.000    0.000 
#    0.000    0.000    0.000    0.000    0.000    0.000 
#
# Total GULP energy -173672.883618 kJ/mol
# GULP energy per Si atom -12405.205973 kJ/mol
# Density = 2.172931 g / cm^3
# Si number density = 21.778884 Si / 1000 Ang^3
#
#
#
# Elastic Constant Matrix: (Units=GPa)
#
#
# Indices 1 2 3 4 5 6 
#
# 1 85.3136 25.7042 24.2014 0.0000 1.6480 0.0000
# 2 25.7042 105.9676 58.7918 0.0000 19.3706 0.0000
# 3 24.2014 58.7918 142.1138 0.0000 4.2189 0.0000
# 4 0.0000 0.0000 0.0000 -6.6936 0.0000 -2.7413
# 5 1.6480 19.3706 4.2189 0.0000 41.4169 0.0000
# 6 0.0000 0.0000 0.0000 -2.7413 0.0000 32.4054
#
#
#
# Elastic Compliance Matrix: (Units=1/GPa)
#
#
# Indices 1 2 3 4 5 6 
#
# 1 0.012818 -0.002645 -0.001114 0.000000 0.000840 0.000000
# 2 -0.002645 0.014037 -0.005180 0.000000 -0.005932 0.000000
# 3 -0.001114 -0.005180 0.009324 0.000000 0.001517 0.000000
# 4 0.000000 0.000000 0.000000 -0.144394 0.000000 -0.012215
# 5 0.000840 -0.005932 0.001517 0.000000 0.026731 0.000000
# 6 0.000000 0.000000 0.000000 -0.012215 0.000000 0.029826
#
#
# Mechanical properties :
#
#
# Convention : Reuss Voigt Hill
#
# Bulk Modulus (GPa) = 54.64130 61.19886 57.92008
# Shear Modulus (GPa) = -180.63926 28.40559 -76.11684
#
# Velocity S-wave (km/s) = -9.11715 3.61539 -5.91825
# Velocity P-wave (km/s) = 9.25669 6.75197 4.47757
#
# Compressibility (1/GPa) = 0.01830118
#
# Stress axis : x y z
#
# Youngs Moduli (GPa) = 78.01505 71.24024 107.24611
#
# Poissons Ratio (x) = 0.18843 0.11943
# Poissons Ratio (y) = 0.20635 0.55559
# Poissons Ratio (z) = 0.08687 0.36906
#
# Static dielectric constant tensor:
#      x y z
#    x 3.959510 0.000000 0.041820 
#    y 0.000000 4.240350 0.000000 
#    z 0.041820 0.000000 4.030850 
# 
# 
# High freq. dielectric constant tensor:
#      x y z
#    x 1.869440 0.000000 -0.000380 
#    y 0.000000 1.865900 0.000000 
#    z -0.000380 0.000000 1.874680 
# 
# From -- ./inp_files/1249.got.cif
#   From: 2010.03.12/outbox.cif.g09.slc.cpg/sg6_1_cif.got.tgz:1249.got - 2010.03.30 10:24:59.
