data_PCOD8052091
_publ_section_title
;
Structure prediction by ZEFSAII (Michael W. Deem and Ramdas Pophale) SiO2 
 PCOD8052091
Probable space group: C 2
;
_chemical_formula_sum "Si O2"
_cell_formula_units_Z 22
_cell_length_a 22.247264
_cell_length_b 5.167643
_cell_length_c 9.044636
_cell_angle_alpha 90.000000
_cell_angle_beta 66.921577
_cell_angle_gamma 90.000000
_cell_volume 956.606846
_symmetry_space_group_name_H-M "C 2"
_symmetry_group_IT_number 5
_symmetry_cell_setting 'monoclinic'
loop_
_space_group_symop_operation_xyz
x,y,z
-x,y,-z
1/2+x,1/2+y,z
1/2-x,1/2+y,-z
loop_
_atom_site_type_symbol
_atom_site_label
_atom_site_fract_x
_atom_site_fract_y
_atom_site_fract_z
Si Si1 0.417387 0.513440 0.262046
Si Si2 0.539000 0.232163 0.219454
Si Si3 0.117158 0.522697 0.881437
Si Si4 0.500000 0.914141 0.500000
Si Si5 0.616653 0.539483 0.372802
Si Si6 0.249819 0.064062 0.095008
O O1 0.496508 0.468686 0.191724
O O2 0.382326 0.301616 0.195230
O O3 0.383940 0.476015 0.453738
O O4 0.406053 0.797097 0.205508
O O5 0.595661 0.309452 0.281399
O O6 0.484175 0.080474 0.368760
O O7 0.568069 0.044124 0.067357
O O8 0.189910 0.461474 0.865958
O O9 0.564060 0.759948 0.393957
O O10 0.689003 0.629299 0.259842
O O11 0.269466 0.331127 0.996336
#
# Coordination Sequence:
#
# PCOD8052091 Si02
#       6
#     4   4   4   2   4   4
#     4  12  27  47  72 115 151 195 244 319 387 445
#     4  12  25  47  75 110 151 203 251 314 373 460
#     4  12  29  48  74 110 157 195 248 314 394 435
#     4  12  22  44  78 116 144 192 266 306 374 434
#     4  12  26  45  81 105 151 202 258 308 371 456
#     4  12  27  51  78 108 145 202 260 307 369 464
#
# _framework density 22.997952999999999
#
# number of rings (size 3 to 8) (size 9 to 14) (size 15 to 20)
#    0.000    0.000    5.455    3.818    2.545    4.364 
#    0.000    0.000    0.000    0.000    0.000    0.000 
#    0.000    0.000    0.000    0.000    0.000    0.000 
#
# Total GULP energy -136389.371767 kJ/mol
# GULP energy per Si atom -12399.033797 kJ/mol
# Density = 2.294561 g / cm^3
# Si number density = 22.997953 Si / 1000 Ang^3
#
#
#
# Elastic Constant Matrix: (Units=GPa)
#
#
# Indices 1 2 3 4 5 6 
#
# 1 122.3471 21.3568 60.1839 0.0000 -12.9195 0.0000
# 2 21.3568 102.5740 43.7271 0.0000 0.3576 0.0000
# 3 60.1839 43.7271 146.7268 0.0000 -6.8947 0.0000
# 4 0.0000 0.0000 0.0000 40.1034 0.0000 9.8760
# 5 -12.9195 0.3576 -6.8947 0.0000 47.0259 0.0000
# 6 0.0000 0.0000 0.0000 9.8760 0.0000 29.0191
#
#
#
# Elastic Compliance Matrix: (Units=1/GPa)
#
#
# Indices 1 2 3 4 5 6 
#
# 1 0.010492 -0.000463 -0.004058 0.000000 0.002291 0.000000
# 2 -0.000463 0.011204 -0.003181 0.000000 -0.000679 0.000000
# 3 -0.004058 -0.003181 0.009442 0.000000 0.000294 0.000000
# 4 0.000000 0.000000 0.000000 0.027217 0.000000 -0.009263
# 5 0.002291 -0.000679 0.000294 0.000000 0.021943 0.000000
# 6 0.000000 0.000000 0.000000 -0.009263 0.000000 0.037612
#
#
# Mechanical properties :
#
#
# Convention : Reuss Voigt Hill
#
# Bulk Modulus (GPa) = 63.55557 69.13148 66.34353
# Shear Modulus (GPa) = 36.08597 39.65503 37.87050
#
# Velocity S-wave (km/s) = 3.96548 4.15696 4.06235
# Velocity P-wave (km/s) = 6.97582 7.29147 7.13539
#
# Compressibility (1/GPa) = 0.01573426
#
# Stress axis : x y z
#
# Youngs Moduli (GPa) = 95.30672 89.25518 105.91208
#
# Poissons Ratio (x) = 0.04129 0.42982
# Poissons Ratio (y) = 0.04409 0.33691
# Poissons Ratio (z) = 0.38678 0.28393
#
# Static dielectric constant tensor:
#      x y z
#    x 4.115760 0.000000 0.190590 
#    y 0.000000 4.123080 0.000000 
#    z 0.190590 0.000000 4.402260 
# 
# 
# High freq. dielectric constant tensor:
#      x y z
#    x 1.903360 0.000000 0.009780 
#    y 0.000000 1.915660 0.000000 
#    z 0.009780 0.000000 1.924600 
# 
# From -- ./inp_files/28295.got.cif
#   From: 2010.03.12/outbox.cif.g09.slc.cpg/sg5_15_cif.got.tgz:28295.got - 2010.03.31 09:47:26.
