data_PCOD8052321
_publ_section_title
;
Structure prediction by ZEFSAII (Michael W. Deem and Ramdas Pophale) SiO2 
 PCOD8052321
Probable space group: P M
;
_chemical_formula_sum "Si O2"
_cell_formula_units_Z 14
_cell_length_a 8.509791
_cell_length_b 12.752295
_cell_length_c 8.793944
_cell_angle_alpha 90.000000
_cell_angle_beta 53.780110
_cell_angle_gamma 90.000000
_cell_volume 769.897189
_symmetry_space_group_name_H-M "P M"
_symmetry_group_IT_number 6
_symmetry_cell_setting 'monoclinic'
loop_
_space_group_symop_operation_xyz
x,y,z
x,-y,z
loop_
_atom_site_type_symbol
_atom_site_label
_atom_site_fract_x
_atom_site_fract_y
_atom_site_fract_z
Si Si1 0.772980 0.378061 0.261970
Si Si2 0.178056 0.380259 0.866693
Si Si3 0.832806 0.245898 0.523406
Si Si4 0.091252 0.617319 0.582466
Si Si5 0.211747 0.121426 0.256144
Si Si6 0.448318 0.299580 0.228643
Si Si7 0.452489 0.239767 0.899264
O O1 0.706383 0.500000 0.311768
O O2 0.761530 0.321857 0.430029
O O3 0.637887 0.312935 0.223312
O O4 0.992770 0.370420 0.080631
O O5 0.249041 0.500000 0.813497
O O6 0.133740 0.335213 0.724656
O O7 0.352240 0.313147 0.833545
O O8 0.644666 0.191621 0.709286
O O9 0.923352 0.316378 0.602568
O O10 0.986219 0.158323 0.380507
O O11 0.011193 0.500000 0.644923
O O12 0.287275 0.614972 0.368440
O O13 0.339097 0.185331 0.310041
O O14 0.221119 0.000000 0.291165
O O15 0.308379 0.145459 0.035087
O O16 0.505534 0.311268 0.017824
#
# Coordination Sequence:
#
# PCOD8052321 Si02
#       7
#     2   2   2   2   2   2   2
#     4  11  20  34  55  87 125 157 186 223 274 340
#     4  10  20  33  54  83 122 158 190 225 274 337
#     4  11  21  36  60  85 114 153 187 235 282 340
#     4  10  19  33  52  82 119 156 190 227 274 336
#     4   9  21  42  61  81 110 145 192 248 292 331
#     4   9  20  35  55  82 113 152 183 240 275 334
#     4  10  21  37  57  84 113 149 190 236 285 334
#
# _framework density 18.184246000000002
#
# number of rings (size 3 to 8) (size 9 to 14) (size 15 to 20)
#    0.857    1.143    1.429    2.571    0.000    5.143 
#    0.000    0.714    0.000    6.857    0.000    0.000 
#    0.000    0.000    0.000    0.000    0.000    0.000 
#
# Total GULP energy -173506.934064 kJ/mol
# GULP energy per Si atom -12393.352433 kJ/mol
# Density = 1.814286 g / cm^3
# Si number density = 18.184246 Si / 1000 Ang^3
#
#
#
# Elastic Constant Matrix: (Units=GPa)
#
#
# Indices 1 2 3 4 5 6 
#
# 1 106.7154 43.0367 32.1826 0.0000 7.3412 0.0000
# 2 43.0367 85.4208 24.6788 0.0000 0.5418 0.0000
# 3 32.1826 24.6788 115.1228 0.0000 -10.2302 0.0000
# 4 0.0000 0.0000 0.0000 6.7037 0.0000 0.1312
# 5 7.3412 0.5418 -10.2302 0.0000 39.9551 0.0000
# 6 0.0000 0.0000 0.0000 0.1312 0.0000 18.7763
#
#
#
# Elastic Compliance Matrix: (Units=1/GPa)
#
#
# Indices 1 2 3 4 5 6 
#
# 1 0.012601 -0.005584 -0.002583 0.000000 -0.002901 0.000000
# 2 -0.005584 0.014984 -0.001615 0.000000 0.000409 0.000000
# 3 -0.002583 -0.001615 0.010027 0.000000 0.003064 0.000000
# 4 0.000000 0.000000 0.000000 0.149192 0.000000 -0.001042
# 5 -0.002901 0.000409 0.003064 0.000000 0.026340 0.000000
# 6 0.000000 0.000000 0.000000 -0.001042 0.000000 0.053266
#
#
# Mechanical properties :
#
#
# Convention : Reuss Voigt Hill
#
# Bulk Modulus (GPa) = 55.40799 56.33946 55.87372
# Shear Modulus (GPa) = 17.12385 26.91108 22.01747
#
# Velocity S-wave (km/s) = 3.07202 3.85114 3.48343
# Velocity P-wave (km/s) = 6.56655 7.12915 6.85363
#
# Compressibility (1/GPa) = 0.01804794
#
# Stress axis : x y z
#
# Youngs Moduli (GPa) = 79.35658 66.73788 99.73075
#
# Poissons Ratio (x) = 0.37267 0.25765
# Poissons Ratio (y) = 0.44313 0.16104
# Poissons Ratio (z) = 0.20501 0.10776
#
# Static dielectric constant tensor:
#      x y z
#    x 3.318660 0.000000 -0.034400 
#    y 0.000000 2.945630 0.000000 
#    z -0.034400 0.000000 3.475060 
# 
# 
# High freq. dielectric constant tensor:
#      x y z
#    x 1.706900 0.000000 -0.005300 
#    y 0.000000 1.663500 0.000000 
#    z -0.005300 0.000000 1.718690 
# 
# From -- ./inp_files/2816.got.cif
#   From: 2010.03.12/outbox.cif.g09.slc.cpg/sg6_2_cif.got.tgz:2816.got - 2010.03.30 10:24:59.
