data_PCOD8052439
_publ_section_title
;
Structure prediction by ZEFSAII (Michael W. Deem and Ramdas Pophale) SiO2 
 PCOD8052439
Probable space group: P M
;
_chemical_formula_sum "Si O2"
_cell_formula_units_Z 16
_cell_length_a 12.587007
_cell_length_b 9.523554
_cell_length_c 12.586897
_cell_angle_alpha 90.000000
_cell_angle_beta 144.452287
_cell_angle_gamma 90.000000
_cell_volume 877.204432
_symmetry_space_group_name_H-M "P M"
_symmetry_group_IT_number 6
_symmetry_cell_setting 'monoclinic'
loop_
_space_group_symop_operation_xyz
x,y,z
x,-y,z
loop_
_atom_site_type_symbol
_atom_site_label
_atom_site_fract_x
_atom_site_fract_y
_atom_site_fract_z
Si Si1 0.823040 0.662456 0.977470
Si Si2 0.922040 0.841981 0.866207
Si Si3 0.554290 0.834540 0.259670
Si Si4 0.436962 0.662698 0.761925
Si Si5 0.221399 0.662456 0.375838
Si Si6 0.332680 0.841981 0.276858
Si Si7 0.939215 0.834540 0.644584
Si Si8 0.324363 0.167655 0.874520
O O1 0.824592 0.500000 0.946699
O O2 0.809263 0.748479 0.857051
O O3 0.645706 0.699199 0.902260
O O4 0.005974 0.702433 0.192898
O O5 0.903231 0.774438 0.733498
O O6 0.841925 0.000000 0.805410
O O7 0.133300 0.842074 0.065594
O O8 0.465396 0.774441 0.295676
O O9 0.768382 0.794603 0.430490
O O10 0.521109 0.000000 0.235819
O O11 0.459418 0.775896 0.076592
O O12 0.418892 0.500000 0.780002
O O13 0.296602 0.699199 0.553170
O O14 0.384130 0.762131 0.814784
O O15 0.252172 0.500000 0.374287
O O16 0.341826 0.748476 0.389626
O O17 0.393474 0.000000 0.356973
O O18 0.122284 0.775900 0.739440
O O19 0.963066 0.000000 0.677766
O O20 0.331831 0.000000 0.867063
#
# Coordination Sequence:
#
# PCOD8052439 Si02
#       8
#     2   2   2   2   2   2   2   2
#     4   9  19  35  52  72 101 136 167 203 254 302
#     4   9  16  29  51  78 106 131 162 205 249 299
#     4   9  17  30  50  76 104 134 163 201 256 303
#     4  10  22  38  54  72 100 138 175 210 251 298
#     4   9  19  35  52  72 101 136 167 203 254 302
#     4   9  16  29  51  78 106 131 162 205 249 299
#     4   9  17  30  50  76 104 134 163 201 256 303
#     4  10  20  36  54  74 102 134 173 212 247 296
#
# _framework density 18.239763
#
# number of rings (size 3 to 8) (size 9 to 14) (size 15 to 20)
#    0.000    2.750    1.250    0.000    1.750    2.000 
#    0.000    1.250    0.000    1.500    0.000    0.000 
#    0.000    0.000    0.000    0.000    0.000    0.000 
#
# Total GULP energy -198365.750901 kJ/mol
# GULP energy per Si atom -12397.859431 kJ/mol
# Density = 1.819825 g / cm^3
# Si number density = 18.239763 Si / 1000 Ang^3
#
#
#
# Elastic Constant Matrix: (Units=GPa)
#
#
# Indices 1 2 3 4 5 6 
#
# 1 149.0992 55.6354 83.3770 0.0000 -10.5132 0.0000
# 2 55.6354 47.2505 37.3225 0.0000 -7.6779 0.0000
# 3 83.3770 37.3225 119.4969 0.0000 -1.8660 0.0000
# 4 0.0000 0.0000 0.0000 11.2109 0.0000 4.6999
# 5 -10.5132 -7.6779 -1.8660 0.0000 23.9355 0.0000
# 6 0.0000 0.0000 0.0000 4.6999 0.0000 -0.0024
#
#
#
# Elastic Compliance Matrix: (Units=1/GPa)
#
#
# Indices 1 2 3 4 5 6 
#
# 1 0.015191 -0.012184 -0.006759 0.000000 0.002237 0.000000
# 2 -0.012184 0.039635 -0.003767 0.000000 0.007068 0.000000
# 3 -0.006759 -0.003767 0.014213 0.000000 -0.003069 0.000000
# 4 0.000000 0.000000 0.000000 0.000107 0.000000 0.212516
# 5 0.002237 0.007068 -0.003069 0.000000 0.044790 0.000000
# 6 0.000000 0.000000 0.000000 0.212516 0.000000 -0.506926
#
#
# Mechanical properties :
#
#
# Convention : Reuss Voigt Hill
#
# Bulk Modulus (GPa) = 42.34119 74.27961 58.31040
# Shear Modulus (GPa) = -14.71888 16.32959 0.80535
#
# Velocity S-wave (km/s) = -2.84380 2.99536 0.66520
# Velocity P-wave (km/s) = 3.53287 7.26466 5.71211
#
# Compressibility (1/GPa) = 0.02361766
#
# Stress axis : x y z
#
# Youngs Moduli (GPa) = 65.83043 25.23053 70.35914
#
# Poissons Ratio (x) = 0.30742 0.47552
# Poissons Ratio (y) = 0.80209 0.26507
# Poissons Ratio (z) = 0.44492 0.09505
#
# Static dielectric constant tensor:
#      x y z
#    x 3.332150 0.000000 0.103240 
#    y 0.000000 3.155050 0.000000 
#    z 0.103240 0.000000 3.578110 
# 
# 
# High freq. dielectric constant tensor:
#      x y z
#    x 1.704690 0.000000 0.005900 
#    y 0.000000 1.669860 0.000000 
#    z 0.005900 0.000000 1.718750 
# 
# From -- ./inp_files/4648.got.cif
#   From: 2010.03.12/outbox.cif.g09.slc.cpg/sg6_3_cif.got.tgz:4648.got - 2010.03.30 10:24:59.
