data_PCOD8052352
_publ_section_title
;
Structure prediction by ZEFSAII (Michael W. Deem and Ramdas Pophale) SiO2 
 PCOD8052352
Probable space group: P M
;
_chemical_formula_sum "Si O2"
_cell_formula_units_Z 16
_cell_length_a 12.094954
_cell_length_b 8.730634
_cell_length_c 10.099396
_cell_angle_alpha 90.000000
_cell_angle_beta 52.609743
_cell_angle_gamma 90.000000
_cell_volume 847.323178
_symmetry_space_group_name_H-M "P M"
_symmetry_group_IT_number 6
_symmetry_cell_setting 'monoclinic'
loop_
_space_group_symop_operation_xyz
x,y,z
x,-y,z
loop_
_atom_site_type_symbol
_atom_site_label
_atom_site_fract_x
_atom_site_fract_y
_atom_site_fract_z
Si Si1 0.202440 0.177782 0.632270
Si Si2 0.217906 0.323281 0.111409
Si Si3 0.464129 0.678701 0.560358
Si Si4 0.771525 0.321536 0.320206
Si Si5 0.038111 0.677762 0.982926
Si Si6 0.487376 0.820306 0.827366
Si Si7 0.775008 0.318128 0.616771
Si Si8 0.053929 0.820982 0.468569
O O1 0.345083 0.271740 0.545531
O O2 0.086199 0.225955 0.822273
O O3 0.147416 0.216651 0.527188
O O4 0.235540 0.000000 0.626144
O O5 0.252898 0.500000 0.109573
O O6 0.114000 0.267760 0.299690
O O7 0.146639 0.297586 0.021847
O O8 0.360492 0.227328 0.014996
O O9 0.449566 0.500000 0.606732
O O10 0.614655 0.711838 0.383420
O O11 0.448421 0.771006 0.707222
O O12 0.803864 0.500000 0.306361
O O13 0.788258 0.256324 0.456251
O O14 0.887214 0.253486 0.136577
O O15 0.029232 0.500000 0.948546
O O16 0.626081 0.737114 0.780182
O O17 0.510861 0.000000 0.816873
O O18 0.783796 0.500000 0.621557
O O19 0.898561 0.241063 0.610609
O O20 0.049270 0.000000 0.441342
#
# Coordination Sequence:
#
# PCOD8052352 Si02
#       8
#     2   2   2   2   2   2   2   2
#     4  11  24  39  55  81 119 158 193 233 288 350
#     4  11  21  36  60  88 114 149 198 245 286 340
#     4  10  19  34  57  83 113 150 193 239 286 339
#     4   8  16  32  55  84 111 136 177 236 287 329
#     4  10  19  35  59  85 112 145 189 242 289 337
#     4  11  21  34  56  87 120 150 186 239 295 344
#     4  10  19  36  59  84 115 150 192 240 288 343
#     4  11  24  40  57  82 118 158 196 240 295 350
#
# _framework density 18.882995999999999
#
# number of rings (size 3 to 8) (size 9 to 14) (size 15 to 20)
#    0.000    1.750    2.500    3.750    0.000    2.500 
#    0.000    2.500    0.000    6.000    0.000    0.000 
#    0.000    0.000    0.000    0.000    0.000    0.000 
#
# Total GULP energy -198424.124233 kJ/mol
# GULP energy per Si atom -12401.507765 kJ/mol
# Density = 1.884002 g / cm^3
# Si number density = 18.882996 Si / 1000 Ang^3
#
#
#
# Elastic Constant Matrix: (Units=GPa)
#
#
# Indices 1 2 3 4 5 6 
#
# 1 92.2996 34.8038 19.7066 0.0000 -24.9275 0.0000
# 2 34.8038 68.9443 25.2819 0.0000 3.2435 0.0000
# 3 19.7066 25.2819 46.3998 0.0000 -18.8399 0.0000
# 4 0.0000 0.0000 0.0000 24.2888 0.0000 -1.6523
# 5 -24.9275 3.2435 -18.8399 0.0000 32.9555 0.0000
# 6 0.0000 0.0000 0.0000 -1.6523 0.0000 24.8637
#
#
#
# Elastic Compliance Matrix: (Units=1/GPa)
#
#
# Indices 1 2 3 4 5 6 
#
# 1 0.020096 -0.013871 0.007487 0.000000 0.020846 0.000000
# 2 -0.013871 0.030426 -0.021049 0.000000 -0.025519 0.000000
# 3 0.007487 -0.021049 0.042951 0.000000 0.032289 0.000000
# 4 0.000000 0.000000 0.000000 0.041358 0.000000 0.002748
# 5 0.020846 -0.025519 0.032289 0.000000 0.067082 0.000000
# 6 0.000000 0.000000 0.000000 0.002748 0.000000 0.040402
#
#
# Mechanical properties :
#
#
# Convention : Reuss Voigt Hill
#
# Bulk Modulus (GPa) = 25.90162 40.80315 33.35238
# Shear Modulus (GPa) = 16.12645 24.94501 20.53573
#
# Velocity S-wave (km/s) = 2.92553 3.63854 3.30134
# Velocity P-wave (km/s) = 5.01581 6.26955 5.67739
#
# Compressibility (1/GPa) = 0.03860763
#
# Stress axis : x y z
#
# Youngs Moduli (GPa) = 49.76128 32.86692 23.28220
#
# Poissons Ratio (x) = 0.45589 -0.17431
# Poissons Ratio (y) = 0.69023 0.49006
# Poissons Ratio (z) = -0.37256 0.69181
#
# Static dielectric constant tensor:
#      x y z
#    x 3.537260 0.000000 -0.324090 
#    y 0.000000 3.388360 0.000000 
#    z -0.324090 0.000000 3.413460 
# 
# 
# High freq. dielectric constant tensor:
#      x y z
#    x 1.733660 0.000000 -0.029500 
#    y 0.000000 1.732490 0.000000 
#    z -0.029500 0.000000 1.718250 
# 
# From -- ./inp_files/3774.got.cif
#   From: 2010.03.12/outbox.cif.g09.slc.cpg/sg6_2_cif.got.tgz:3774.got - 2010.03.30 10:24:59.
