data_PCOD8053839
_publ_section_title
;
Structure prediction by ZEFSAII (Michael W. Deem and Ramdas Pophale) SiO2 
 PCOD8053839
Probable space group: C M
;
_chemical_formula_sum "Si O2"
_cell_formula_units_Z 24
_cell_length_a 14.880026
_cell_length_b 8.556529
_cell_length_c 14.562633
_cell_angle_alpha 90.000000
_cell_angle_beta 40.280632
_cell_angle_gamma 90.000000
_cell_volume 1198.757126
_symmetry_space_group_name_H-M "C M"
_symmetry_group_IT_number 8
_symmetry_cell_setting 'monoclinic'
loop_
_space_group_symop_operation_xyz
x,y,z
x,-y,z
1/2+x,1/2+y,z
1/2+x,1/2-y,z
loop_
_atom_site_type_symbol
_atom_site_label
_atom_site_fract_x
_atom_site_fract_y
_atom_site_fract_z
Si Si1 0.488660 0.319778 0.547940
Si Si2 0.172518 0.681966 0.764416
Si Si3 0.659874 0.819895 0.252197
Si Si4 0.181008 0.819927 0.565339
Si Si5 0.940030 0.681405 0.088889
Si Si6 0.956096 0.180176 0.274321
O O1 0.511226 0.500000 0.502197
O O2 0.326779 0.276484 0.678652
O O3 0.561565 0.213462 0.415433
O O4 0.553286 0.283798 0.596997
O O5 0.156118 0.500000 0.754072
O O6 0.131793 0.779353 0.705993
O O7 0.068331 0.733125 0.925814
O O8 0.797243 0.714479 0.147151
O O9 0.579353 0.782425 0.221171
O O10 0.703686 0.000000 0.219087
O O11 0.312009 0.714220 0.437784
O O12 0.226550 0.000000 0.522899
O O13 0.947839 0.500000 0.109623
O O14 0.942837 0.783734 0.177911
O O15 0.992008 0.000000 0.261475
#
# Coordination Sequence:
#
# PCOD8053839 Si02
#       6
#     4   4   4   4   4   4
#     4  10  21  39  63  91 126 164 205 258 312 372
#     4  10  23  42  64  91 128 169 207 257 318 374
#     4  12  24  39  64  95 124 166 215 262 314 374
#     4  11  22  37  63  95 127 164 209 258 310 374
#     4  11  24  43  64  93 132 170 209 260 317 373
#     4  12  24  40  64  93 127 167 213 263 313 373
#
# _framework density 20.020735999999999
#
# number of rings (size 3 to 8) (size 9 to 14) (size 15 to 20)
#    0.000    1.000    3.333    4.000    0.000    3.333 
#    0.000    1.667    0.000    0.000    0.000    0.000 
#    0.000    0.000    0.000    0.000    0.000    0.000 
#
# Total GULP energy -148894.978337 kJ/mol
# GULP energy per Si atom -12407.914861 kJ/mol
# Density = 1.997517 g / cm^3
# Si number density = 20.020736 Si / 1000 Ang^3
#
#
#
# Elastic Constant Matrix: (Units=GPa)
#
#
# Indices 1 2 3 4 5 6 
#
# 1 109.6289 19.3855 20.3716 0.0000 -9.0072 0.0000
# 2 19.3855 65.4654 26.9318 0.0000 5.3620 0.0000
# 3 20.3716 26.9318 100.3375 0.0000 -13.4624 0.0000
# 4 0.0000 0.0000 0.0000 26.2146 0.0000 5.7586
# 5 -9.0072 5.3620 -13.4624 0.0000 29.4361 0.0000
# 6 0.0000 0.0000 0.0000 5.7586 0.0000 30.5375
#
#
#
# Elastic Compliance Matrix: (Units=1/GPa)
#
#
# Indices 1 2 3 4 5 6 
#
# 1 0.010054 -0.002900 -0.000830 0.000000 0.003225 0.000000
# 2 -0.002900 0.018913 -0.005400 0.000000 -0.006802 0.000000
# 3 -0.000830 -0.005400 0.012446 0.000000 0.006422 0.000000
# 4 0.000000 0.000000 0.000000 0.039795 0.000000 -0.007504
# 5 0.003225 -0.006802 0.006422 0.000000 0.039135 0.000000
# 6 0.000000 0.000000 0.000000 -0.007504 0.000000 0.034162
#
#
# Mechanical properties :
#
#
# Convention : Reuss Voigt Hill
#
# Bulk Modulus (GPa) = 43.19288 45.42330 44.30809
# Shear Modulus (GPa) = 27.70361 31.15381 29.42871
#
# Velocity S-wave (km/s) = 3.72391 3.94899 3.83810
# Velocity P-wave (km/s) = 6.33332 6.59774 6.46688
#
# Compressibility (1/GPa) = 0.02315196
#
# Stress axis : x y z
#
# Youngs Moduli (GPa) = 99.46628 52.87458 80.34666
#
# Poissons Ratio (x) = 0.15332 0.06670
# Poissons Ratio (y) = 0.28842 0.43390
# Poissons Ratio (z) = 0.08258 0.28554
#
# Static dielectric constant tensor:
#      x y z
#    x 3.837260 0.000000 -0.073130 
#    y 0.000000 3.579310 0.000000 
#    z -0.073130 0.000000 3.585500 
# 
# 
# High freq. dielectric constant tensor:
#      x y z
#    x 1.797230 0.000000 -0.001770 
#    y 0.000000 1.784050 0.000000 
#    z -0.001770 0.000000 1.773390 
# 
# From -- ./inp_files/12075.got.cif
#   From: 2010.03.12/outbox.cif.g09.slc.cpg/sg8_7_cif.got.tgz:12075.got - 2010.03.31 10:45:26.
