data_PCOD8053204
_publ_section_title
;
Structure prediction by ZEFSAII (Michael W. Deem and Ramdas Pophale) SiO2 
 PCOD8053204
Probable space group: C M
;
_chemical_formula_sum "Si O2"
_cell_formula_units_Z 24
_cell_length_a 14.948737
_cell_length_b 9.126617
_cell_length_c 14.714654
_cell_angle_alpha 90.000000
_cell_angle_beta 39.999167
_cell_angle_gamma 90.000000
_cell_volume 1290.399997
_symmetry_space_group_name_H-M "C M"
_symmetry_group_IT_number 8
_symmetry_cell_setting 'monoclinic'
loop_
_space_group_symop_operation_xyz
x,y,z
x,-y,z
1/2+x,1/2+y,z
1/2+x,1/2-y,z
loop_
_atom_site_type_symbol
_atom_site_label
_atom_site_fract_x
_atom_site_fract_y
_atom_site_fract_z
Si Si1 0.670480 0.826658 0.939400
Si Si2 0.886149 0.330779 0.246267
Si Si3 0.717782 0.669627 0.202129
Si Si4 0.668158 0.827254 0.736198
Si Si5 0.404063 0.671188 0.413630
Si Si6 0.890080 0.173933 0.916182
O O1 0.687483 0.767388 0.823750
O O2 0.801282 0.775837 0.897623
O O3 0.659467 0.000000 0.944710
O O4 0.528872 0.763779 0.093824
O O5 0.907915 0.500000 0.253533
O O6 0.760683 0.308056 0.273318
O O7 0.845136 0.248542 0.369994
O O8 0.736125 0.500000 0.159372
O O9 0.560002 0.724670 0.314336
O O10 0.817765 0.767426 0.063146
O O11 0.807924 0.786841 0.573570
O O12 0.541291 0.744113 0.786860
O O13 0.636847 0.000000 0.758990
O O14 0.401082 0.500000 0.397286
O O15 0.902218 0.000000 0.913261
#
# Coordination Sequence:
#
# PCOD8053204 Si02
#       6
#     4   4   4   4   4   4
#     4   9  18  34  57  82 108 145 185 223 271 328
#     4  10  19  35  59  83 110 147 185 224 274 332
#     4  10  20  36  58  83 110 148 188 221 272 337
#     4  10  21  40  58  78 115 152 183 222 276 336
#     4  10  22  37  57  85 114 145 182 231 278 321
#     4  11  21  34  57  87 111 141 187 235 275 316
#
# _framework density 18.598883000000001
#
# number of rings (size 3 to 8) (size 9 to 14) (size 15 to 20)
#    0.000    2.000    3.333    0.500    0.000    2.667 
#    0.000    5.000    0.000    0.000    0.000    0.000 
#    0.000    0.000    0.000    0.000    0.000    0.000 
#
# Total GULP energy -148833.477758 kJ/mol
# GULP energy per Si atom -12402.789813 kJ/mol
# Density = 1.855655 g / cm^3
# Si number density = 18.598883 Si / 1000 Ang^3
#
#
#
# Elastic Constant Matrix: (Units=GPa)
#
#
# Indices 1 2 3 4 5 6 
#
# 1 109.0432 27.6961 33.9095 0.0000 3.8019 0.0000
# 2 27.6961 38.1031 30.7136 0.0000 -0.2181 0.0000
# 3 33.9095 30.7136 93.1957 0.0000 5.7846 0.0000
# 4 0.0000 0.0000 0.0000 24.7980 0.0000 0.3264
# 5 3.8019 -0.2181 5.7846 0.0000 35.4036 0.0000
# 6 0.0000 0.0000 0.0000 0.3264 0.0000 30.5284
#
#
#
# Elastic Compliance Matrix: (Units=1/GPa)
#
#
# Indices 1 2 3 4 5 6 
#
# 1 0.011534 -0.006884 -0.001867 0.000000 -0.000976 0.000000
# 2 -0.006884 0.040012 -0.010853 0.000000 0.002759 0.000000
# 3 -0.001867 -0.010853 0.015131 0.000000 -0.002339 0.000000
# 4 0.000000 0.000000 0.000000 0.040332 0.000000 -0.000431
# 5 -0.000976 0.002759 -0.002339 0.000000 0.028750 0.000000
# 6 0.000000 0.000000 0.000000 -0.000431 0.000000 0.032761
#
#
# Mechanical properties :
#
#
# Convention : Reuss Voigt Hill
#
# Bulk Modulus (GPa) = 36.40472 47.22003 41.81237
# Shear Modulus (GPa) = 23.05371 28.01418 25.53395
#
# Velocity S-wave (km/s) = 3.52450 3.88523 3.70925
# Velocity P-wave (km/s) = 6.01489 6.75059 6.39333
#
# Compressibility (1/GPa) = 0.02746897
#
# Stress axis : x y z
#
# Youngs Moduli (GPa) = 86.70112 24.99229 66.08766
#
# Poissons Ratio (x) = 0.17205 0.12341
# Poissons Ratio (y) = 0.59685 0.71725
# Poissons Ratio (z) = 0.16190 0.27124
#
# Static dielectric constant tensor:
#      x y z
#    x 3.621160 0.000000 -0.043290 
#    y 0.000000 3.214310 0.000000 
#    z -0.043290 0.000000 3.427100 
# 
# 
# High freq. dielectric constant tensor:
#      x y z
#    x 1.735570 0.000000 -0.001070 
#    y 0.000000 1.699020 0.000000 
#    z -0.001070 0.000000 1.718990 
# 
# From -- ./inp_files/12076.got.cif
#   From: 2010.03.12/outbox.cif.g09.slc.cpg/sg8_7_cif.got.tgz:12076.got - 2010.03.31 10:45:26.
