data_PCOD8053650
_publ_section_title
;
Structure prediction by ZEFSAII (Michael W. Deem and Ramdas Pophale) SiO2 
 PCOD8053650
Probable space group: C M
;
_chemical_formula_sum "Si O2"
_cell_formula_units_Z 32
_cell_length_a 23.717928
_cell_length_b 13.913758
_cell_length_c 9.292242
_cell_angle_alpha 90.000000
_cell_angle_beta 149.629663
_cell_angle_gamma 90.000000
_cell_volume 1550.378503
_symmetry_space_group_name_H-M "C M"
_symmetry_group_IT_number 8
_symmetry_cell_setting 'monoclinic'
loop_
_space_group_symop_operation_xyz
x,y,z
x,-y,z
1/2+x,1/2+y,z
1/2+x,1/2-y,z
loop_
_atom_site_type_symbol
_atom_site_label
_atom_site_fract_x
_atom_site_fract_y
_atom_site_fract_z
Si Si1 0.764470 0.392385 0.600010
Si Si2 0.627353 0.110995 0.697216
Si Si3 0.561662 0.267660 0.080862
Si Si4 0.379501 0.389033 0.168188
Si Si5 0.951203 0.722725 0.125665
Si Si6 0.037712 0.387642 0.813153
Si Si7 0.797088 0.393175 0.341509
Si Si8 0.552588 0.612494 0.796514
O O1 0.724744 0.500000 0.555170
O O2 0.664519 0.316672 0.388890
O O3 0.815512 0.392843 0.553050
O O4 0.855571 0.358638 0.917739
O O5 0.559385 0.180929 0.442929
O O6 0.598242 0.135512 0.797534
O O7 0.598376 0.000000 0.598531
O O8 0.757528 0.131620 0.962095
O O9 0.472080 0.244480 0.004704
O O10 0.598031 0.170220 0.075465
O O11 0.508211 0.340185 0.845953
O O12 0.391906 0.500000 0.147450
O O13 0.405815 0.321544 0.092120
O O14 0.469365 0.361919 0.486812
O O15 0.041597 0.500000 0.861586
O O16 0.909016 0.347650 0.518046
O O17 0.790398 0.500000 0.263930
O O18 0.677614 0.344359 0.037780
O O19 0.561706 0.500000 0.847868
#
# Coordination Sequence:
#
# PCOD8053650 Si02
#       8
#     4   4   4   4   4   4   4   4
#     4  10  21  39  61  87 124 160 200 251 307 368
#     4  10  23  43  64  87 124 167 213 259 308 370
#     4  11  22  36  60  97 124 155 202 264 314 367
#     4  10  23  44  63  88 127 169 207 255 314 375
#     4  12  23  40  61  91 124 169 208 253 308 373
#     4  10  20  38  63  94 125 161 210 265 310 367
#     4   8  15  33  61  90 116 148 199 254 301 353
#     4   9  19  39  64  88 122 165 206 257 317 367
#
# _framework density 20.64012
#
# number of rings (size 3 to 8) (size 9 to 14) (size 15 to 20)
#    0.000    2.000    1.250    3.000    0.000    2.500 
#   11.250    0.625    0.000    0.000    0.000    0.000 
#    0.000    0.000    0.000    0.000    0.000    0.000 
#
# Total GULP energy -198328.253874 kJ/mol
# GULP energy per Si atom -12395.515867 kJ/mol
# Density = 2.059314 g / cm^3
# Si number density = 20.640120 Si / 1000 Ang^3
#
#
#
# Elastic Constant Matrix: (Units=GPa)
#
#
# Indices 1 2 3 4 5 6 
#
# 1 95.0149 50.6211 28.1101 0.0000 -2.0756 0.0000
# 2 50.6211 106.6386 57.2499 0.0000 1.7472 0.0000
# 3 28.1101 57.2499 120.4741 0.0000 6.9196 0.0000
# 4 0.0000 0.0000 0.0000 35.9689 0.0000 -4.9628
# 5 -2.0756 1.7472 6.9196 0.0000 23.0215 0.0000
# 6 0.0000 0.0000 0.0000 -4.9628 0.0000 30.9821
#
#
#
# Elastic Compliance Matrix: (Units=1/GPa)
#
#
# Indices 1 2 3 4 5 6 
#
# 1 0.014167 -0.006610 -0.000271 0.000000 0.001861 0.000000
# 2 -0.006610 0.015690 -0.005913 0.000000 -0.000009 0.000000
# 3 -0.000271 -0.005913 0.011345 0.000000 -0.002986 0.000000
# 4 0.000000 0.000000 0.000000 0.028430 0.000000 0.004554
# 5 0.001861 -0.000009 -0.002986 0.000000 0.044503 0.000000
# 6 0.000000 0.000000 0.000000 0.004554 0.000000 0.033006
#
#
# Mechanical properties :
#
#
# Convention : Reuss Voigt Hill
#
# Bulk Modulus (GPa) = 64.04709 66.00997 65.02853
# Shear Modulus (GPa) = 28.10011 30.40428 29.25219
#
# Velocity S-wave (km/s) = 3.69376 3.84222 3.76872
# Velocity P-wave (km/s) = 7.02065 7.19266 7.10718
#
# Compressibility (1/GPa) = 0.01561351
#
# Stress axis : x y z
#
# Youngs Moduli (GPa) = 70.58569 63.73568 88.14247
#
# Poissons Ratio (x) = 0.42129 0.02392
# Poissons Ratio (y) = 0.46656 0.52119
# Poissons Ratio (z) = 0.01916 0.37687
#
# Static dielectric constant tensor:
#      x y z
#    x 3.593070 0.000000 0.159330 
#    y 0.000000 3.865140 0.000000 
#    z 0.159330 0.000000 3.743420 
# 
# 
# High freq. dielectric constant tensor:
#      x y z
#    x 1.793370 0.000000 0.007440 
#    y 0.000000 1.816550 0.000000 
#    z 0.007440 0.000000 1.804370 
# 
# From -- ./inp_files/10752.got.cif
#   From: 2010.03.12/outbox.cif.g09.slc.cpg/sg8_6_cif.got.tgz:10752.got - 2010.03.31 10:45:26.
