data_PCOD8053982
_publ_section_title
;
Structure prediction by ZEFSAII (Michael W. Deem and Ramdas Pophale) SiO2 
 PCOD8053982
Probable space group: C M
;
_chemical_formula_sum "Si O2"
_cell_formula_units_Z 32
_cell_length_a 19.376625
_cell_length_b 8.888757
_cell_length_c 11.826365
_cell_angle_alpha 90.000000
_cell_angle_beta 51.100675
_cell_angle_gamma 90.000000
_cell_volume 1585.221234
_symmetry_space_group_name_H-M "C M"
_symmetry_group_IT_number 8
_symmetry_cell_setting 'monoclinic'
loop_
_space_group_symop_operation_xyz
x,y,z
x,-y,z
1/2+x,1/2+y,z
1/2+x,1/2-y,z
loop_
_atom_site_type_symbol
_atom_site_label
_atom_site_fract_x
_atom_site_fract_y
_atom_site_fract_z
Si Si1 0.267520 0.328646 0.306660
Si Si2 0.520730 0.673111 0.246819
Si Si3 0.217077 0.827163 0.132884
Si Si4 0.943395 0.675724 0.121062
Si Si5 0.004007 0.822995 0.833688
Si Si6 0.362561 0.323687 0.572701
Si Si7 0.684626 0.170361 0.623547
Si Si8 0.373683 0.176831 0.803114
O O1 0.302201 0.500000 0.262123
O O2 0.226414 0.278644 0.230962
O O3 0.346643 0.220202 0.265837
O O4 0.193239 0.315731 0.479539
O O5 0.502477 0.500000 0.233989
O O6 0.618724 0.699157 0.190377
O O7 0.515088 0.770914 0.138687
O O8 0.449260 0.727266 0.413082
O O9 0.232893 0.000000 0.152672
O O10 0.286864 0.779074 0.964967
O O11 0.953073 0.500000 0.090012
O O12 0.951041 0.759959 0.994550
O O13 0.961283 0.753761 0.764596
O O14 0.106689 0.780134 0.742369
O O15 0.994197 0.000000 0.838566
O O16 0.367062 0.500000 0.595382
O O17 0.275382 0.281413 0.591184
O O18 0.359133 0.232458 0.691649
O O19 0.659370 0.000000 0.683888
O O20 0.389591 0.000000 0.785975
#
# Coordination Sequence:
#
# PCOD8053982 Si02
#       8
#     4   4   4   4   4   4   4   4
#     4  11  22  41  68  94 125 165 209 260 317 376
#     4  10  22  43  66  93 127 166 212 257 311 374
#     4  10  23  41  64  93 127 166 209 260 310 368
#     4  12  24  41  66  95 127 163 210 265 318 371
#     4  12  26  43  66  93 124 169 216 260 317 376
#     4  10  22  42  65  91 129 170 207 254 313 376
#     4  10  23  43  65  95 130 164 207 262 316 372
#     4  11  24  42  62  92 131 167 208 262 316 369
#
# _framework density 20.186457000000001
#
# number of rings (size 3 to 8) (size 9 to 14) (size 15 to 20)
#    0.000    1.250    2.500    3.000    3.500    3.000 
#    0.000    0.000    0.000    0.000    0.000    0.000 
#    0.000    0.000    0.000    0.000    0.000    0.000 
#
# Total GULP energy -198488.254435 kJ/mol
# GULP energy per Si atom -12405.515902 kJ/mol
# Density = 2.014051 g / cm^3
# Si number density = 20.186457 Si / 1000 Ang^3
#
#
#
# Elastic Constant Matrix: (Units=GPa)
#
#
# Indices 1 2 3 4 5 6 
#
# 1 104.5510 51.6667 40.9661 0.0000 2.6867 0.0000
# 2 51.6667 105.4218 41.6376 0.0000 9.6788 0.0000
# 3 40.9661 41.6376 72.1827 0.0000 7.1089 0.0000
# 4 0.0000 0.0000 0.0000 31.7392 0.0000 3.3841
# 5 2.6867 9.6788 7.1089 0.0000 40.5134 0.0000
# 6 0.0000 0.0000 0.0000 3.3841 0.0000 33.7643
#
#
#
# Elastic Compliance Matrix: (Units=1/GPa)
#
#
# Indices 1 2 3 4 5 6 
#
# 1 0.014011 -0.004905 -0.005237 0.000000 0.001162 0.000000
# 2 -0.004905 0.014121 -0.005150 0.000000 -0.002144 0.000000
# 3 -0.005237 -0.005150 0.019987 0.000000 -0.001929 0.000000
# 4 0.000000 0.000000 0.000000 0.031847 0.000000 -0.003192
# 5 0.001162 -0.002144 -0.001929 0.000000 0.025457 0.000000
# 6 0.000000 0.000000 0.000000 -0.003192 0.000000 0.029937
#
#
# Mechanical properties :
#
#
# Convention : Reuss Voigt Hill
#
# Bulk Modulus (GPa) = 57.03164 61.18847 59.11005
# Shear Modulus (GPa) = 29.10573 31.06238 30.08405
#
# Velocity S-wave (km/s) = 3.80128 3.92698 3.86464
# Velocity P-wave (km/s) = 6.89783 7.13715 7.01851
#
# Compressibility (1/GPa) = 0.01753413
#
# Stress axis : x y z
#
# Youngs Moduli (GPa) = 71.37461 70.81811 50.03355
#
# Poissons Ratio (x) = 0.34736 0.26200
# Poissons Ratio (y) = 0.35009 0.25769
# Poissons Ratio (z) = 0.37375 0.36474
#
# Static dielectric constant tensor:
#      x y z
#    x 3.667820 0.000000 0.000040 
#    y 0.000000 3.636140 0.000000 
#    z 0.000040 0.000000 3.687210 
# 
# 
# High freq. dielectric constant tensor:
#      x y z
#    x 1.798180 0.000000 0.001220 
#    y 0.000000 1.786530 0.000000 
#    z 0.001220 0.000000 1.794430 
# 
# From -- ./inp_files/23884.got.cif
#   From: 2010.03.12/outbox.cif.g09.slc.cpg/sg8_12_cif.got.tgz:23884.got - 2010.03.31 10:45:26.
