data_PCOD8053565
_publ_section_title
;
Structure prediction by ZEFSAII (Michael W. Deem and Ramdas Pophale) SiO2 
 PCOD8053565
Probable space group: C M
;
_chemical_formula_sum "Si O2"
_cell_formula_units_Z 32
_cell_length_a 14.703696
_cell_length_b 8.630161
_cell_length_c 29.239647
_cell_angle_alpha 90.000000
_cell_angle_beta 152.166875
_cell_angle_gamma 90.000000
_cell_volume 1732.365506
_symmetry_space_group_name_H-M "C M"
_symmetry_group_IT_number 8
_symmetry_cell_setting 'monoclinic'
loop_
_space_group_symop_operation_xyz
x,y,z
x,-y,z
1/2+x,1/2+y,z
1/2+x,1/2-y,z
loop_
_atom_site_type_symbol
_atom_site_label
_atom_site_fract_x
_atom_site_fract_y
_atom_site_fract_z
Si Si1 0.074970 0.317559 0.840940
Si Si2 0.997970 0.180222 0.996354
Si Si3 0.767527 0.324059 0.391479
Si Si4 0.983203 0.180960 0.704334
Si Si5 0.114270 0.821716 0.495279
Si Si6 0.368882 0.682578 0.838944
Si Si7 0.340406 0.673107 0.203972
Si Si8 0.561463 0.180005 0.376615
O O1 0.044905 0.500000 0.830446
O O2 0.302995 0.273284 0.937532
O O3 0.969351 0.258467 0.748180
O O4 0.984536 0.243843 0.846328
O O5 0.982676 0.226902 0.936159
O O6 0.038247 0.000000 0.019320
O O7 0.179159 0.269403 0.097513
O O8 0.845461 0.500000 0.432930
O O9 0.551374 0.327754 0.272146
O O10 0.750968 0.231545 0.431981
O O11 0.909108 0.220516 0.425418
O O12 0.781395 0.212125 0.589315
O O13 0.153423 0.246439 0.747366
O O14 0.016644 0.000000 0.725920
O O15 0.077426 0.791298 0.426322
O O16 0.168710 0.000000 0.528345
O O17 0.344766 0.500000 0.823509
O O18 0.285497 0.500000 0.195548
O O19 0.363217 0.780667 0.259623
O O20 0.564769 0.000000 0.391835
#
# Coordination Sequence:
#
# PCOD8053565 Si02
#       8
#     4   4   4   4   4   4   4   4
#     4  10  21  39  60  87 117 149 189 235 284 340
#     4   9  19  36  58  83 116 152 190 234 284 336
#     4   9  20  38  56  82 114 148 189 235 279 332
#     4  11  23  39  60  85 115 151 188 235 287 339
#     4  12  23  38  60  86 114 151 192 235 284 339
#     4  10  21  39  60  87 117 149 189 236 283 339
#     4   9  19  36  58  83 116 152 190 236 284 333
#     4  10  20  37  58  81 113 150 189 234 281 332
#
# _framework density 18.471852999999999
#
# number of rings (size 3 to 8) (size 9 to 14) (size 15 to 20)
#    0.750    1.250    0.000    5.250    0.000    4.000 
#    2.250    5.000    0.000    0.000    0.000    0.000 
#    0.000    0.000    0.000    0.000    0.000    0.000 
#
# Total GULP energy -198294.452632 kJ/mol
# GULP energy per Si atom -12393.403290 kJ/mol
# Density = 1.842981 g / cm^3
# Si number density = 18.471853 Si / 1000 Ang^3
#
#
#
# Elastic Constant Matrix: (Units=GPa)
#
#
# Indices 1 2 3 4 5 6 
#
# 1 107.7812 8.2482 31.5218 0.0000 1.3071 -0.0001
# 2 8.2482 64.8779 18.5228 0.0000 6.7174 0.0000
# 3 31.5218 18.5228 94.9505 0.0002 1.5213 -0.0001
# 4 0.0000 0.0000 0.0002 34.5711 -0.0001 -1.2621
# 5 1.3071 6.7174 1.5213 -0.0001 18.4216 0.0000
# 6 -0.0001 0.0000 -0.0001 -1.2621 0.0000 34.3412
#
#
#
# Elastic Compliance Matrix: (Units=1/GPa)
#
#
# Indices 1 2 3 4 5 6 
#
# 1 0.010285 -0.000317 -0.003347 0.000000 -0.000338 0.000000
# 2 -0.000317 0.016952 -0.003107 0.000000 -0.005902 0.000000
# 3 -0.003347 -0.003107 0.012243 0.000000 0.000359 0.000000
# 4 0.000000 0.000000 0.000000 0.028965 0.000000 0.001065
# 5 -0.000338 -0.005902 0.000359 0.000000 0.056431 0.000000
# 6 0.000000 0.000000 0.000000 0.001065 0.000000 0.029159
#
#
# Mechanical properties :
#
#
# Convention : Reuss Voigt Hill
#
# Bulk Modulus (GPa) = 38.55354 42.68836 40.62095
# Shear Modulus (GPa) = 28.37298 31.42122 29.89710
#
# Velocity S-wave (km/s) = 3.92345 4.12883 4.02745
# Velocity P-wave (km/s) = 6.43750 6.77420 6.60800
#
# Compressibility (1/GPa) = 0.02593795
#
# Stress axis : x y z
#
# Youngs Moduli (GPa) = 97.22553 58.98963 81.67638
#
# Poissons Ratio (x) = 0.01870 0.27340
# Poissons Ratio (y) = 0.03082 0.25379
# Poissons Ratio (z) = 0.32544 0.18329
#
# Static dielectric constant tensor:
#      x y z
#    x 3.467130 0.000000 -0.053320 
#    y 0.000000 3.433950 0.000000 
#    z -0.053320 0.000000 3.300930 
# 
# 
# High freq. dielectric constant tensor:
#      x y z
#    x 1.710810 0.000000 -0.000860 
#    y 0.000000 1.733290 0.000000 
#    z -0.000860 0.000000 1.708970 
# 
# From -- ./inp_files/32870.got.cif
#   From: 2010.03.12/outbox.cif.g09.slc.cpg/sg8_17_cif.got.tgz:32870.got - 2010.03.31 10:45:26.
