data_PCOD8053531
_publ_section_title
;
Structure prediction by ZEFSAII (Michael W. Deem and Ramdas Pophale) SiO2 
 PCOD8053531
Probable space group: C M
;
_chemical_formula_sum "Si O2"
_cell_formula_units_Z 32
_cell_length_a 15.369228
_cell_length_b 8.612259
_cell_length_c 12.487282
_cell_angle_alpha 90.000000
_cell_angle_beta 72.056914
_cell_angle_gamma 90.000000
_cell_volume 1572.473424
_symmetry_space_group_name_H-M "C M"
_symmetry_group_IT_number 8
_symmetry_cell_setting 'monoclinic'
loop_
_space_group_symop_operation_xyz
x,y,z
x,-y,z
1/2+x,1/2+y,z
1/2+x,1/2-y,z
loop_
_atom_site_type_symbol
_atom_site_label
_atom_site_fract_x
_atom_site_fract_y
_atom_site_fract_z
Si Si1 0.583540 0.679783 0.407540
Si Si2 0.775396 0.182552 0.283337
Si Si3 0.834588 0.816123 0.028346
Si Si4 0.286549 0.675753 0.629229
Si Si5 0.083235 0.676848 0.629637
Si Si6 0.710397 0.183743 0.882970
Si Si7 0.028573 0.183194 0.870544
Si Si8 0.404225 0.179623 0.413105
O O1 0.608212 0.500000 0.385498
O O2 0.669047 0.782801 0.339487
O O3 0.554781 0.717797 0.540259
O O4 0.497950 0.723770 0.364608
O O5 0.834885 0.272287 0.347164
O O6 0.792475 0.000000 0.290021
O O7 0.805560 0.245086 0.155572
O O8 0.762207 0.753692 0.968204
O O9 0.936514 0.757763 0.963260
O O10 0.831532 0.000000 0.025701
O O11 0.324059 0.500000 0.608131
O O12 0.191634 0.689209 0.602370
O O13 0.273006 0.727762 0.757082
O O14 0.359121 0.788536 0.546112
O O15 0.053621 0.500000 0.618986
O O16 0.031653 0.736834 0.753954
O O17 0.612956 0.268278 0.913598
O O18 0.692072 0.000000 0.890222
O O19 0.028888 0.000000 0.853079
O O20 0.428135 0.000000 0.394405
#
# Coordination Sequence:
#
# PCOD8053531 Si02
#       8
#     4   4   4   4   4   4   4   4
#     4  12  25  41  63  91 122 162 209 258 315 371
#     4  11  23  44  66  89 126 165 209 260 311 366
#     4   9  21  40  64  89 119 164 206 247 304 368
#     4   9  18  34  60  88 124 162 198 248 309 365
#     4  10  20  37  61  91 127 163 199 249 312 369
#     4   9  19  38  60  86 121 162 202 245 305 365
#     4  10  20  36  59  91 124 159 203 250 301 359
#     4  12  25  40  61  91 125 163 210 255 309 371
#
# _framework density 20.350104999999999
#
# number of rings (size 3 to 8) (size 9 to 14) (size 15 to 20)
#    0.000    1.750    1.250    4.125    1.750    3.000 
#    0.000    7.500    0.000    0.000    0.000    0.000 
#    0.000    0.000    0.000    0.000    0.000    0.000 
#
# Total GULP energy -198465.747256 kJ/mol
# GULP energy per Si atom -12404.109204 kJ/mol
# Density = 2.030379 g / cm^3
# Si number density = 20.350105 Si / 1000 Ang^3
#
#
#
# Elastic Constant Matrix: (Units=GPa)
#
#
# Indices 1 2 3 4 5 6 
#
# 1 102.5095 12.4181 54.7155 0.0000 -7.5207 0.0000
# 2 12.4181 69.7714 19.2547 0.0000 -0.6655 0.0000
# 3 54.7155 19.2547 116.0470 0.0000 -5.0600 0.0000
# 4 0.0000 0.0000 0.0000 22.8224 0.0000 -2.3117
# 5 -7.5207 -0.6655 -5.0600 0.0000 19.7991 0.0000
# 6 0.0000 0.0000 0.0000 -2.3117 0.0000 32.5260
#
#
#
# Elastic Compliance Matrix: (Units=1/GPa)
#
#
# Indices 1 2 3 4 5 6 
#
# 1 0.013299 -0.000676 -0.006006 0.000000 0.003494 0.000000
# 2 -0.000676 0.015055 -0.002193 0.000000 -0.000311 0.000000
# 3 -0.006006 -0.002193 0.011842 0.000000 0.000671 0.000000
# 4 0.000000 0.000000 0.000000 0.044134 0.000000 0.003137
# 5 0.003494 -0.000311 0.000671 0.000000 0.051996 0.000000
# 6 0.000000 0.000000 0.000000 0.003137 0.000000 0.030968
#
#
# Mechanical properties :
#
#
# Convention : Reuss Voigt Hill
#
# Bulk Modulus (GPa) = 44.55029 51.23382 47.89205
# Shear Modulus (GPa) = 25.97055 28.49214 27.23134
#
# Velocity S-wave (km/s) = 3.57625 3.74585 3.66203
# Velocity P-wave (km/s) = 6.24437 6.62868 6.43939
#
# Compressibility (1/GPa) = 0.02244654
#
# Stress axis : x y z
#
# Youngs Moduli (GPa) = 75.19263 66.42303 84.44490
#
# Poissons Ratio (x) = 0.04492 0.50717
# Poissons Ratio (y) = 0.05085 0.18516
# Poissons Ratio (z) = 0.45160 0.14564
#
# Static dielectric constant tensor:
#      x y z
#    x 3.750470 0.000000 0.026370 
#    y 0.000000 3.520250 0.000000 
#    z 0.026370 0.000000 3.820920 
# 
# 
# High freq. dielectric constant tensor:
#      x y z
#    x 1.803490 0.000000 0.000910 
#    y 0.000000 1.784320 0.000000 
#    z 0.000910 0.000000 1.791940 
# 
# From -- ./inp_files/21522.got.cif
#   From: 2010.03.12/outbox.cif.g09.slc.cpg/sg8_11_cif.got.tgz:21522.got - 2010.03.31 10:45:26.
