data_PCOD8053587
_publ_section_title
;
Structure prediction by ZEFSAII (Michael W. Deem and Ramdas Pophale) SiO2 
 PCOD8053587
Probable space group: C M
;
_chemical_formula_sum "Si O2"
_cell_formula_units_Z 24
_cell_length_a 7.562279
_cell_length_b 23.665245
_cell_length_c 8.207156
_cell_angle_alpha 90.000000
_cell_angle_beta 54.905846
_cell_angle_gamma 90.000000
_cell_volume 1201.767109
_symmetry_space_group_name_H-M "C M"
_symmetry_group_IT_number 8
_symmetry_cell_setting 'monoclinic'
loop_
_space_group_symop_operation_xyz
x,y,z
x,-y,z
1/2+x,1/2+y,z
1/2+x,1/2-y,z
loop_
_atom_site_type_symbol
_atom_site_label
_atom_site_fract_x
_atom_site_fract_y
_atom_site_fract_z
Si Si1 0.810730 0.690871 0.027990
Si Si2 0.566430 0.854394 0.598505
Si Si3 0.332498 0.313587 0.168115
Si Si4 0.563379 0.106134 0.103656
Si Si5 0.795787 0.564019 0.533643
Si Si6 0.323092 0.564073 0.674347
O O1 0.571618 0.673095 0.102853
O O2 0.816577 0.754554 0.085298
O O3 0.886563 0.650865 0.134125
O O4 0.972787 0.685523 0.789176
O O5 0.665193 0.813781 0.408053
O O6 0.374970 0.893652 0.631444
O O7 0.756647 0.894885 0.562868
O O8 0.266765 0.361980 0.075870
O O9 0.450615 0.066027 0.294661
O O10 0.649092 0.067727 0.911721
O O11 0.796126 0.500000 0.601550
O O12 0.556419 0.583463 0.612788
O O13 0.329069 0.500000 0.605257
#
# Coordination Sequence:
#
# PCOD8053587 Si02
#       6
#     4   4   4   4   4   4
#     4  11  22  39  56  82 114 151 189 230 277 329
#     4  10  23  38  58  84 116 148 185 234 278 330
#     4  11  22  39  56  82 114 151 189 230 277 329
#     4  10  21  38  56  84 116 146 185 232 274 332
#     4  10  20  37  60  85 112 147 185 228 281 334
#     4  10  20  37  60  85 112 147 185 228 281 334
#
# _framework density 19.970590999999999
#
# number of rings (size 3 to 8) (size 9 to 14) (size 15 to 20)
#    0.000    1.667    1.667    3.000    0.000    1.333 
#    3.000    0.000    0.000   16.000    0.000    0.000 
#    0.000    0.000    0.000    0.000    0.000    0.000 
#
# Total GULP energy -148865.000441 kJ/mol
# GULP energy per Si atom -12405.416703 kJ/mol
# Density = 1.992514 g / cm^3
# Si number density = 19.970591 Si / 1000 Ang^3
#
#
#
# Elastic Constant Matrix: (Units=GPa)
#
#
# Indices 1 2 3 4 5 6 
#
# 1 111.6202 24.1625 28.6825 0.0000 -12.2748 0.0000
# 2 24.1625 75.3496 43.3275 0.0000 -1.7645 0.0000
# 3 28.6825 43.3275 69.7205 0.0000 8.0821 0.0000
# 4 0.0000 0.0000 0.0000 16.1982 0.0000 2.1862
# 5 -12.2748 -1.7645 8.0821 0.0000 31.9864 0.0000
# 6 0.0000 0.0000 0.0000 2.1862 0.0000 4.4256
#
#
#
# Elastic Compliance Matrix: (Units=1/GPa)
#
#
# Indices 1 2 3 4 5 6 
#
# 1 0.010893 -0.000679 -0.004676 0.000000 0.005324 0.000000
# 2 -0.000679 0.021346 -0.013487 0.000000 0.004325 0.000000
# 3 -0.004676 -0.013487 0.025695 0.000000 -0.009031 0.000000
# 4 0.000000 0.000000 0.000000 0.066145 0.000000 -0.032675
# 5 0.005324 0.004325 -0.009031 0.000000 0.035827 0.000000
# 6 0.000000 0.000000 0.000000 -0.032675 0.000000 0.242099
#
#
# Mechanical properties :
#
#
# Convention : Reuss Voigt Hill
#
# Bulk Modulus (GPa) = 49.38642 49.89281 49.63961
# Shear Modulus (GPa) = 11.19968 21.22321 16.21144
#
# Velocity S-wave (km/s) = 2.37071 3.26348 2.85224
# Velocity P-wave (km/s) = 5.68128 6.26401 5.97975
#
# Compressibility (1/GPa) = 0.02024848
#
# Stress axis : x y z
#
# Youngs Moduli (GPa) = 91.80024 46.84707 38.91766
#
# Poissons Ratio (x) = 0.03183 0.18199
# Poissons Ratio (y) = 0.06238 0.52489
# Poissons Ratio (z) = 0.42929 0.63184
#
# Static dielectric constant tensor:
#      x y z
#    x 3.950580 0.000000 0.023790 
#    y 0.000000 3.436900 0.000000 
#    z 0.023790 0.000000 3.521330 
# 
# 
# High freq. dielectric constant tensor:
#      x y z
#    x 1.797160 0.000000 0.000590 
#    y 0.000000 1.774230 0.000000 
#    z 0.000590 0.000000 1.777940 
# 
# From -- ./inp_files/8504.got.cif
#   From: 2010.03.12/outbox.cif.g09.slc.cpg/sg8_5_cif.got.tgz:8504.got - 2010.03.31 10:45:26.
