data_PCOD8053483
_publ_section_title
;
Structure prediction by ZEFSAII (Michael W. Deem and Ramdas Pophale) SiO2 
 PCOD8053483
Probable space group: C M
;
_chemical_formula_sum "Si O2"
_cell_formula_units_Z 32
_cell_length_a 32.745686
_cell_length_b 8.685562
_cell_length_c 12.303286
_cell_angle_alpha 90.000000
_cell_angle_beta 153.332456
_cell_angle_gamma 90.000000
_cell_volume 1570.501782
_symmetry_space_group_name_H-M "C M"
_symmetry_group_IT_number 8
_symmetry_cell_setting 'monoclinic'
loop_
_space_group_symop_operation_xyz
x,y,z
x,-y,z
1/2+x,1/2+y,z
1/2+x,1/2-y,z
loop_
_atom_site_type_symbol
_atom_site_label
_atom_site_fract_x
_atom_site_fract_y
_atom_site_fract_z
Si Si1 0.583170 0.176137 0.991820
Si Si2 0.689797 0.318338 0.941950
Si Si3 0.505080 0.822037 0.577645
Si Si4 0.256164 0.820758 0.698574
Si Si5 0.867703 0.175732 0.775638
Si Si6 0.761968 0.678649 0.343971
Si Si7 0.814567 0.180210 0.058757
Si Si8 0.058427 0.823411 0.149963
O O1 0.513198 0.202532 0.726640
O O2 0.617673 0.000000 0.074168
O O3 0.668062 0.290689 0.183642
O O4 0.534997 0.217280 0.990368
O O5 0.686291 0.500000 0.920649
O O6 0.587196 0.258670 0.709152
O O7 0.750030 0.270510 0.190111
O O8 0.734304 0.246941 0.941551
O O9 0.410662 0.751989 0.316900
O O10 0.506935 0.000000 0.550271
O O11 0.318109 0.788802 0.740962
O O12 0.152271 0.771377 0.428937
O O13 0.263282 0.000000 0.746070
O O14 0.292739 0.717236 0.882674
O O15 0.839552 0.219499 0.585240
O O16 0.839876 0.000000 0.734484
O O17 0.976778 0.197684 0.042541
O O18 0.787491 0.500000 0.414145
O O19 0.820400 0.000000 0.090415
O O20 0.064602 0.000000 0.125997
#
# Coordination Sequence:
#
# PCOD8053483 Si02
#       8
#     4   4   4   4   4   4   4   4
#     4  10  20  35  61  92 127 163 203 257 311 370
#     4  10  22  41  64  93 129 168 211 263 317 375
#     4  10  22  41  63  94 129 166 211 261 318 378
#     4  11  24  45  66  87 123 169 213 264 317 373
#     4  11  23  39  61  93 126 163 209 257 311 375
#     4  10  20  36  60  90 128 167 204 252 315 372
#     4  12  26  43  66  93 125 170 217 264 317 378
#     4  10  23  40  61  90 125 164 204 252 314 375
#
# _framework density 20.375653
#
# number of rings (size 3 to 8) (size 9 to 14) (size 15 to 20)
#    0.000    1.500    1.250    3.375    1.750    5.500 
#    0.000    3.750    0.000    0.000    0.000    0.000 
#    0.000    0.000    0.000    0.000    0.000    0.000 
#
# Total GULP energy -198467.037011 kJ/mol
# GULP energy per Si atom -12404.189813 kJ/mol
# Density = 2.032928 g / cm^3
# Si number density = 20.375653 Si / 1000 Ang^3
#
#
#
# Elastic Constant Matrix: (Units=GPa)
#
#
# Indices 1 2 3 4 5 6 
#
# 1 64.5359 30.5530 46.7147 0.0000 4.5189 0.0000
# 2 30.5530 89.9346 45.3525 0.0000 3.0693 0.0000
# 3 46.7147 45.3525 126.4915 0.0000 7.4840 0.0000
# 4 0.0000 0.0000 0.0000 31.5233 0.0000 -1.7175
# 5 4.5189 3.0693 7.4840 0.0000 28.2228 0.0000
# 6 0.0000 0.0000 0.0000 -1.7175 0.0000 35.0250
#
#
#
# Elastic Compliance Matrix: (Units=1/GPa)
#
#
# Indices 1 2 3 4 5 6 
#
# 1 0.022424 -0.004194 -0.006697 0.000000 -0.001358 0.000000
# 2 -0.004194 0.014359 -0.003603 0.000000 0.000065 0.000000
# 3 -0.006697 -0.003603 0.011769 0.000000 -0.001657 0.000000
# 4 0.000000 0.000000 0.000000 0.031808 0.000000 0.001560
# 5 -0.001358 0.000065 -0.001657 0.000000 0.036082 0.000000
# 6 0.000000 0.000000 0.000000 0.001560 0.000000 0.028627
#
#
# Mechanical properties :
#
#
# Convention : Reuss Voigt Hill
#
# Bulk Modulus (GPa) = 51.11846 58.46692 54.79269
# Shear Modulus (GPa) = 27.68876 29.51034 28.59955
#
# Velocity S-wave (km/s) = 3.69034 3.80980 3.75055
# Velocity P-wave (km/s) = 6.58032 6.93611 6.76056
#
# Compressibility (1/GPa) = 0.01956241
#
# Stress axis : x y z
#
# Youngs Moduli (GPa) = 44.59534 69.64341 84.96972
#
# Poissons Ratio (x) = 0.29211 0.56906
# Poissons Ratio (y) = 0.18705 0.30616
# Poissons Ratio (z) = 0.29866 0.25093
#
# Static dielectric constant tensor:
#      x y z
#    x 3.680600 0.000000 -0.043980 
#    y 0.000000 3.717650 0.000000 
#    z -0.043980 0.000000 3.724330 
# 
# 
# High freq. dielectric constant tensor:
#      x y z
#    x 1.792240 0.000000 0.003360 
#    y 0.000000 1.805280 0.000000 
#    z 0.003360 0.000000 1.798520 
# 
# From -- ./inp_files/21540.got.cif
#   From: 2010.03.12/outbox.cif.g09.slc.cpg/sg8_11_cif.got.tgz:21540.got - 2010.03.31 10:45:26.
