data_PCOD8053158
_publ_section_title
;
Structure prediction by ZEFSAII (Michael W. Deem and Ramdas Pophale) SiO2 
 PCOD8053158
Probable space group: C M
;
_chemical_formula_sum "Si O2"
_cell_formula_units_Z 32
_cell_length_a 25.513830
_cell_length_b 9.320659
_cell_length_c 18.560952
_cell_angle_alpha 90.000000
_cell_angle_beta 21.011082
_cell_angle_gamma 90.000000
_cell_volume 1582.597411
_symmetry_space_group_name_H-M "C M"
_symmetry_group_IT_number 8
_symmetry_cell_setting 'monoclinic'
loop_
_space_group_symop_operation_xyz
x,y,z
x,-y,z
1/2+x,1/2+y,z
1/2+x,1/2-y,z
loop_
_atom_site_type_symbol
_atom_site_label
_atom_site_fract_x
_atom_site_fract_y
_atom_site_fract_z
Si Si1 0.758360 0.332935 0.496010
Si Si2 0.446926 0.335270 0.148420
Si Si3 0.988572 0.831576 0.741049
Si Si4 0.280570 0.159275 0.093986
Si Si5 0.933568 0.838160 0.541308
Si Si6 0.302914 0.654107 0.189743
Si Si7 0.477678 0.156851 0.613254
Si Si8 0.741091 0.331565 0.685805
O O1 0.792221 0.500000 0.445565
O O2 0.901157 0.254095 0.278324
O O3 0.614676 0.289071 0.635654
O O4 0.728764 0.290047 0.617178
O O5 0.456617 0.500000 0.160217
O O6 0.320471 0.308088 0.251214
O O7 0.597170 0.286765 0.916276
O O8 0.014376 0.758249 0.632304
O O9 0.976421 0.000000 0.745119
O O10 0.833260 0.768772 0.965466
O O11 0.355541 0.215231 0.072328
O O12 0.107174 0.155206 0.315517
O O13 0.343291 0.000000 0.000110
O O14 0.874755 0.760899 0.545326
O O15 0.882485 0.743539 0.676208
O O16 0.870551 0.000000 0.628608
O O17 0.388244 0.500000 0.065628
O O18 0.137677 0.625359 0.377152
O O19 0.403931 0.000000 0.725204
O O20 0.773793 0.500000 0.652753
#
# Coordination Sequence:
#
# PCOD8053158 Si02
#       8
#     4   4   4   4   4   4   4   4
#     4  10  22  39  61  90 125 158 197 247 300 360
#     4  10  20  37  61  89 121 157 200 246 299 358
#     4  11  21  35  57  88 123 153 188 239 301 361
#     4  10  21  35  55  83 114 150 195 244 297 354
#     4  10  22  41  60  82 113 152 201 250 292 346
#     4   9  17  32  55  82 114 148 183 230 293 356
#     4  10  19  34  59  85 114 150 187 233 290 351
#     4  10  22  41  62  85 118 164 207 247 298 358
#
# _framework density 20.219923999999999
#
# number of rings (size 3 to 8) (size 9 to 14) (size 15 to 20)
#    0.000    2.000    1.250    2.250    0.000    6.000 
#    2.250    1.250    0.000    0.000    0.000    0.000 
#    0.000    0.000    0.000    0.000    0.000    0.000 
#
# Total GULP energy -198258.619447 kJ/mol
# GULP energy per Si atom -12391.163715 kJ/mol
# Density = 2.017390 g / cm^3
# Si number density = 20.219924 Si / 1000 Ang^3
#
#
#
# Elastic Constant Matrix: (Units=GPa)
#
#
# Indices 1 2 3 4 5 6 
#
# 1 121.9264 71.3132 26.2249 -0.0001 11.9603 0.0000
# 2 71.3132 136.7706 41.6091 0.0003 12.7877 0.0000
# 3 26.2249 41.6091 66.7869 0.0001 21.5452 0.0000
# 4 -0.0001 0.0003 0.0001 31.1916 0.0000 7.0667
# 5 11.9603 12.7877 21.5452 0.0000 19.7848 0.0000
# 6 0.0000 0.0000 0.0000 7.0667 0.0000 31.7100
#
#
#
# Elastic Compliance Matrix: (Units=1/GPa)
#
#
# Indices 1 2 3 4 5 6 
#
# 1 0.012015 -0.005979 0.000160 0.000000 -0.003573 0.000000
# 2 -0.005979 0.012000 -0.005846 0.000000 0.002225 0.000000
# 3 0.000160 -0.005846 0.026768 0.000000 -0.025468 0.000000
# 4 0.000000 0.000000 0.000000 0.033765 0.000000 -0.007525
# 5 -0.003573 0.002225 -0.025468 0.000000 0.079000 0.000000
# 6 0.000000 0.000000 0.000000 -0.007525 0.000000 0.033213
#
#
# Mechanical properties :
#
#
# Convention : Reuss Voigt Hill
#
# Bulk Modulus (GPa) = 36.42664 67.08647 51.75655
# Shear Modulus (GPa) = 21.81109 28.95972 25.38541
#
# Velocity S-wave (km/s) = 3.28791 3.78860 3.54710
# Velocity P-wave (km/s) = 5.69808 7.23798 6.51370
#
# Compressibility (1/GPa) = 0.02745244
#
# Stress axis : x y z
#
# Youngs Moduli (GPa) = 83.22968 83.33647 37.35791
#
# Poissons Ratio (x) = 0.49829 -0.00597
# Poissons Ratio (y) = 0.49765 0.21838
# Poissons Ratio (z) = -0.01330 0.48716
#
# Static dielectric constant tensor:
#      x y z
#    x 3.624830 0.000000 0.108240 
#    y 0.000000 3.973190 0.000000 
#    z 0.108240 0.000000 3.472370 
# 
# 
# High freq. dielectric constant tensor:
#      x y z
#    x 1.781490 0.000000 0.010030 
#    y 0.000000 1.799230 0.000000 
#    z 0.010030 0.000000 1.767130 
# 
# From -- ./inp_files/31705.got.cif
#   From: 2010.03.12/outbox.cif.g09.slc.cpg/sg8_16_cif.got.tgz:31705.got - 2010.03.31 10:45:26.
