data_PCOD8053131
_publ_section_title
;
Structure prediction by ZEFSAII (Michael W. Deem and Ramdas Pophale) SiO2 
 PCOD8053131
Probable space group: C M
;
_chemical_formula_sum "Si O2"
_cell_formula_units_Z 32
_cell_length_a 28.729136
_cell_length_b 8.487927
_cell_length_c 23.281034
_cell_angle_alpha 90.000000
_cell_angle_beta 163.482415
_cell_angle_gamma 90.000000
_cell_volume 1614.053788
_symmetry_space_group_name_H-M "C M"
_symmetry_group_IT_number 8
_symmetry_cell_setting 'monoclinic'
loop_
_space_group_symop_operation_xyz
x,y,z
x,-y,z
1/2+x,1/2+y,z
1/2+x,1/2-y,z
loop_
_atom_site_type_symbol
_atom_site_label
_atom_site_fract_x
_atom_site_fract_y
_atom_site_fract_z
Si Si1 0.935630 0.313346 0.524980
Si Si2 0.774046 0.182197 0.729679
Si Si3 0.995174 0.183894 0.476259
Si Si4 0.700426 0.672868 0.399804
Si Si5 0.596931 0.182485 0.163678
Si Si6 0.319030 0.187213 0.660303
Si Si7 0.570476 0.828238 0.797192
Si Si8 0.168264 0.688443 0.029948
O O1 0.909124 0.500000 0.501950
O O2 0.761773 0.227391 0.324961
O O3 0.022027 0.275415 0.567409
O O4 0.058847 0.245859 0.720778
O O5 0.647194 0.286677 0.615142
O O6 0.752378 0.225569 0.637390
O O7 0.732705 0.000000 0.689629
O O8 0.954856 0.216961 0.966394
O O9 0.828845 0.251986 0.251458
O O10 0.978101 0.000000 0.468871
O O11 0.616159 0.500000 0.298110
O O12 0.606291 0.785333 0.243455
O O13 0.703554 0.737170 0.469377
O O14 0.886415 0.653455 0.601553
O O15 0.559329 0.000000 0.109196
O O16 0.312280 0.000000 0.661260
O O17 0.506636 0.243953 0.872667
O O18 0.650647 0.000000 0.883042
O O19 0.668915 0.740231 0.964995
O O20 0.167186 0.500000 0.023603
#
# Coordination Sequence:
#
# PCOD8053131 Si02
#       8
#     4   4   4   4   4   4   4   4
#     4  10  19  34  57  83 110 140 176 219 269 324
#     4  12  25  39  53  73 107 148 189 232 278 325
#     4  11  22  36  54  77 107 143 183 226 272 321
#     4   8  15  30  54  83 112 139 171 216 270 325
#     4  11  21  35  57  83 110 141 182 229 275 323
#     4   9  17  34  60  86 110 138 175 219 270 329
#     4   7  12  26  50  79 106 132 166 208 253 308
#     4   8  15  30  55  82 104 131 170 213 257 311
#
# _framework density 19.825858
#
# number of rings (size 3 to 8) (size 9 to 14) (size 15 to 20)
#    0.000    2.500    0.000    6.000    0.000    1.500 
#    0.000    1.875    0.000   13.500    0.000    0.000 
#    0.000    0.000    0.000    0.000    0.000    0.000 
#
# Total GULP energy -198277.413694 kJ/mol
# GULP energy per Si atom -12392.338356 kJ/mol
# Density = 1.978073 g / cm^3
# Si number density = 19.825858 Si / 1000 Ang^3
#
#
#
# Elastic Constant Matrix: (Units=GPa)
#
#
# Indices 1 2 3 4 5 6 
#
# 1 142.8097 14.5499 46.0035 -0.0007 -26.8747 -0.0002
# 2 14.5499 50.4979 10.1953 -0.0008 -8.3041 -0.0004
# 3 46.0035 10.1953 28.6116 -0.0017 -12.9442 -0.0009
# 4 -0.0007 -0.0008 -0.0017 19.9930 -0.0005 -1.9270
# 5 -26.8747 -8.3041 -12.9442 -0.0005 30.9024 -0.0003
# 6 -0.0002 -0.0004 -0.0009 -1.9270 -0.0003 29.0956
#
#
#
# Elastic Compliance Matrix: (Units=1/GPa)
#
#
# Indices 1 2 3 4 5 6 
#
# 1 0.014878 0.000879 -0.022547 -0.000001 0.003731 -0.000001
# 2 0.000879 0.021640 -0.007585 0.000000 0.003402 0.000000
# 3 -0.022547 -0.007585 0.079104 0.000006 0.011488 0.000003
# 4 -0.000001 0.000000 0.000006 0.050339 0.000002 0.003334
# 5 0.003731 0.003402 0.011488 0.000002 0.041331 0.000001
# 6 -0.000001 0.000000 0.000003 0.003334 0.000001 0.034590
#
#
# Mechanical properties :
#
#
# Convention : Reuss Voigt Hill
#
# Bulk Modulus (GPa) = 17.50845 40.37962 28.94403
# Shear Modulus (GPa) = 15.65304 26.07624 20.86464
#
# Velocity S-wave (km/s) = 2.81290 3.63059 3.24758
# Velocity P-wave (km/s) = 4.40456 6.16330 5.35661
#
# Compressibility (1/GPa) = 0.05711528
#
# Stress axis : x y z
#
# Youngs Moduli (GPa) = 67.21348 46.20971 12.64165
#
# Poissons Ratio (x) = -0.04061 0.28503
# Poissons Ratio (y) = -0.05907 0.09589
# Poissons Ratio (z) = 1.51547 0.35051
#
# Static dielectric constant tensor:
#      x y z
#    x 3.839680 0.000000 -0.527700 
#    y 0.000000 3.270880 0.000000 
#    z -0.527700 0.000000 3.626310 
# 
# 
# High freq. dielectric constant tensor:
#      x y z
#    x 1.778890 0.000000 -0.034010 
#    y 0.000000 1.742860 0.000000 
#    z -0.034010 0.000000 1.754760 
# 
# From -- ./inp_files/32670.got.cif
#   From: 2010.03.12/outbox.cif.g09.slc.cpg/sg8_17_cif.got.tgz:32670.got - 2010.03.31 10:45:26.
