data_PCOD8053584
_publ_section_title
;
Structure prediction by ZEFSAII (Michael W. Deem and Ramdas Pophale) SiO2 
 PCOD8053584
Probable space group: C M
;
_chemical_formula_sum "Si O2"
_cell_formula_units_Z 32
_cell_length_a 33.174615
_cell_length_b 8.995579
_cell_length_c 12.508262
_cell_angle_alpha 90.000000
_cell_angle_beta 26.427124
_cell_angle_gamma 90.000000
_cell_volume 1661.306364
_symmetry_space_group_name_H-M "C M"
_symmetry_group_IT_number 8
_symmetry_cell_setting 'monoclinic'
loop_
_space_group_symop_operation_xyz
x,y,z
x,-y,z
1/2+x,1/2+y,z
1/2+x,1/2-y,z
loop_
_atom_site_type_symbol
_atom_site_label
_atom_site_fract_x
_atom_site_fract_y
_atom_site_fract_z
Si Si1 0.183440 0.324918 0.929070
Si Si2 0.328040 0.824348 0.112906
Si Si3 0.068327 0.823153 0.021155
Si Si4 0.374278 0.323484 0.557236
Si Si5 0.115207 0.668338 0.321628
Si Si6 0.501671 0.324490 0.760007
Si Si7 0.629945 0.323477 0.643969
Si Si8 0.316266 0.670037 0.923442
O O1 0.181025 0.500000 0.912138
O O2 0.140828 0.238731 0.931768
O O3 0.287137 0.267333 0.696891
O O4 0.126879 0.286380 0.170198
O O5 0.403595 0.749697 0.008534
O O6 0.345888 0.776288 0.948776
O O7 0.334923 0.000000 0.105758
O O8 0.231100 0.763674 0.383127
O O9 0.094923 0.764098 0.840913
O O10 0.070417 0.000000 0.022507
O O11 0.967277 0.762500 0.285813
O O12 0.369952 0.500000 0.567568
O O13 0.368356 0.270774 0.694410
O O14 0.078778 0.500000 0.417455
O O15 0.043551 0.778159 0.546304
O O16 0.209624 0.683407 0.158479
O O17 0.491133 0.500000 0.789016
O O18 0.564202 0.262995 0.707354
O O19 0.629997 0.500000 0.641210
O O20 0.342940 0.500000 0.887242
#
# Coordination Sequence:
#
# PCOD8053584 Si02
#       8
#     4   4   4   4   4   4   4   4
#     4   9  19  36  55  82 116 147 179 225 279 332
#     4  11  22  37  55  81 113 150 185 232 290 330
#     4  10  20  37  60  82 107 149 193 229 271 325
#     4   8  17  34  56  80 110 145 180 221 274 328
#     4   9  18  34  56  82 118 151 180 228 285 331
#     4  11  22  37  57  83 110 146 193 235 278 338
#     4   9  21  40  57  77 113 150 188 233 278 329
#     4   9  17  33  56  83 113 146 184 227 273 337
#
# _framework density 19.261949999999999
#
# number of rings (size 3 to 8) (size 9 to 14) (size 15 to 20)
#    0.000    2.500    1.250    2.250    1.750    1.500 
#    0.000    6.250    0.000    0.000    0.000    0.000 
#    0.000    0.000    0.000    0.000    0.000    0.000 
#
# Total GULP energy -198401.690340 kJ/mol
# GULP energy per Si atom -12400.105646 kJ/mol
# Density = 1.921811 g / cm^3
# Si number density = 19.261950 Si / 1000 Ang^3
#
#
#
# Elastic Constant Matrix: (Units=GPa)
#
#
# Indices 1 2 3 4 5 6 
#
# 1 126.2536 33.2187 85.4967 0.0000 -2.0230 0.0000
# 2 33.2187 48.4627 34.9185 0.0000 -2.8244 0.0000
# 3 85.4967 34.9185 155.4338 0.0000 -4.6495 0.0000
# 4 0.0000 0.0000 0.0000 22.6327 0.0000 -4.0931
# 5 -2.0230 -2.8244 -4.6495 0.0000 29.0437 0.0000
# 6 0.0000 0.0000 0.0000 -4.0931 0.0000 31.7840
#
#
#
# Elastic Compliance Matrix: (Units=1/GPa)
#
#
# Indices 1 2 3 4 5 6 
#
# 1 0.013451 -0.004663 -0.006367 0.000000 -0.000536 0.000000
# 2 -0.004663 0.026303 -0.003293 0.000000 0.001706 0.000000
# 3 -0.006367 -0.003293 0.010704 0.000000 0.000950 0.000000
# 4 0.000000 0.000000 0.000000 0.045237 0.000000 0.005826
# 5 -0.000536 0.001706 0.000950 0.000000 0.034711 0.000000
# 6 0.000000 0.000000 0.000000 0.005826 0.000000 0.032213
#
#
# Mechanical properties :
#
#
# Convention : Reuss Voigt Hill
#
# Bulk Modulus (GPa) = 45.84822 70.82419 58.33620
# Shear Modulus (GPa) = 25.18441 28.45982 26.82212
#
# Velocity S-wave (km/s) = 3.61982 3.84802 3.73566
# Velocity P-wave (km/s) = 6.42845 7.52275 6.99702
#
# Compressibility (1/GPa) = 0.02181110
#
# Stress axis : x y z
#
# Youngs Moduli (GPa) = 74.34664 38.01851 93.42399
#
# Poissons Ratio (x) = 0.17729 0.59482
# Poissons Ratio (y) = 0.34671 0.30763
# Poissons Ratio (z) = 0.47336 0.12519
#
# Static dielectric constant tensor:
#      x y z
#    x 3.554450 0.000000 -0.036070 
#    y 0.000000 3.160820 0.000000 
#    z -0.036070 0.000000 3.780460 
# 
# 
# High freq. dielectric constant tensor:
#      x y z
#    x 1.751330 0.000000 -0.007450 
#    y 0.000000 1.718470 0.000000 
#    z -0.007450 0.000000 1.755910 
# 
# From -- ./inp_files/24383.got.cif
#   From: 2010.03.12/outbox.cif.g09.slc.cpg/sg8_13_cif.got.tgz:24383.got - 2010.03.31 10:45:26.
