data_PCOD8053493
_publ_section_title
;
Structure prediction by ZEFSAII (Michael W. Deem and Ramdas Pophale) SiO2 
 PCOD8053493
Probable space group: C M
;
_chemical_formula_sum "Si O2"
_cell_formula_units_Z 32
_cell_length_a 15.109970
_cell_length_b 8.688758
_cell_length_c 12.271183
_cell_angle_alpha 90.000000
_cell_angle_beta 89.962357
_cell_angle_gamma 90.000000
_cell_volume 1611.044893
_symmetry_space_group_name_H-M "C M"
_symmetry_group_IT_number 8
_symmetry_cell_setting 'monoclinic'
loop_
_space_group_symop_operation_xyz
x,y,z
x,-y,z
1/2+x,1/2+y,z
1/2+x,1/2-y,z
loop_
_atom_site_type_symbol
_atom_site_label
_atom_site_fract_x
_atom_site_fract_y
_atom_site_fract_z
Si Si1 0.044790 0.677126 0.741770
Si Si2 0.856462 0.817736 0.516079
Si Si3 0.205809 0.682129 0.359734
Si Si4 0.876673 0.320559 0.971573
Si Si5 0.046682 0.677266 0.500870
Si Si6 0.068805 0.818619 0.954061
Si Si7 0.716974 0.679787 0.124317
Si Si8 0.359657 0.321952 0.754851
O O1 0.013901 0.500000 0.758257
O O2 0.089073 0.696093 0.622805
O O3 0.964484 0.796572 0.748331
O O4 0.104530 0.730141 0.844570
O O5 0.789435 0.750184 0.426276
O O6 0.822704 0.765327 0.637158
O O7 0.953961 0.761060 0.487316
O O8 0.859588 0.000000 0.514274
O O9 0.205967 0.500000 0.371360
O O10 0.116210 0.747851 0.414902
O O11 0.210887 0.727797 0.235315
O O12 0.898355 0.500000 0.971219
O O13 0.825970 0.276468 0.858395
O O14 0.810170 0.276608 0.068619
O O15 0.968675 0.229449 0.986356
O O16 0.028251 0.500000 0.475803
O O17 0.134533 0.768496 0.050251
O O18 0.073481 0.000000 0.934376
O O19 0.712173 0.500000 0.149879
O O20 0.337295 0.500000 0.775938
#
# Coordination Sequence:
#
# PCOD8053493 Si02
#       8
#     4   4   4   4   4   4   4   4
#     4   9  16  29  52  81 110 137 169 209 258 315
#     4   9  19  35  55  80 109 139 171 213 262 311
#     4  10  22  39  56  76 104 139 181 222 259 306
#     4  10  20  36  56  79 108 139 173 215 263 312
#     4   9  19  35  55  80 109 139 171 213 262 311
#     4  10  20  36  56  79 108 139 173 215 263 312
#     4  10  24  41  54  74 106 141 179 222 263 308
#     4   9  16  29  52  81 110 137 169 209 258 315
#
# _framework density 19.862884999999999
#
# number of rings (size 3 to 8) (size 9 to 14) (size 15 to 20)
#    0.000    2.500    0.000    3.000    0.000    6.000 
#    0.000    6.250    0.000    0.000    0.000    0.000 
#    0.000    0.000    0.000    0.000    0.000    0.000 
#
# Total GULP energy -198281.804371 kJ/mol
# GULP energy per Si atom -12392.612773 kJ/mol
# Density = 1.981768 g / cm^3
# Si number density = 19.862885 Si / 1000 Ang^3
#
#
#
# Elastic Constant Matrix: (Units=GPa)
#
#
# Indices 1 2 3 4 5 6 
#
# 1 58.3481 9.1539 29.6934 0.0000 7.3290 0.0000
# 2 9.1539 32.3761 19.3426 0.0000 2.9149 0.0000
# 3 29.6934 19.3426 119.9767 0.0000 4.0129 0.0000
# 4 0.0000 0.0000 0.0000 33.6132 0.0000 -0.1541
# 5 7.3290 2.9149 4.0129 0.0000 36.9903 0.0000
# 6 0.0000 0.0000 0.0000 -0.1541 0.0000 22.3930
#
#
#
# Elastic Compliance Matrix: (Units=1/GPa)
#
#
# Indices 1 2 3 4 5 6 
#
# 1 0.020257 -0.002767 -0.004457 0.000000 -0.003312 0.000000
# 2 -0.002767 0.034721 -0.004857 0.000000 -0.001661 0.000000
# 3 -0.004457 -0.004857 0.010216 0.000000 0.000158 0.000000
# 4 0.000000 0.000000 0.000000 0.029751 0.000000 0.000205
# 5 -0.003312 -0.001661 0.000158 0.000000 0.027804 0.000000
# 6 0.000000 0.000000 0.000000 0.000205 0.000000 0.044658
#
#
# Mechanical properties :
#
#
# Convention : Reuss Voigt Hill
#
# Bulk Modulus (GPa) = 24.37126 36.34229 30.35678
# Shear Modulus (GPa) = 24.36113 28.76669 26.56391
#
# Velocity S-wave (km/s) = 3.50589 3.80973 3.66097
# Velocity P-wave (km/s) = 5.35581 6.13909 5.76078
#
# Compressibility (1/GPa) = 0.04103194
#
# Stress axis : x y z
#
# Youngs Moduli (GPa) = 49.36683 28.80122 97.88804
#
# Poissons Ratio (x) = 0.07968 0.43624
# Poissons Ratio (y) = 0.13658 0.47548
# Poissons Ratio (z) = 0.22001 0.13990
#
# Static dielectric constant tensor:
#      x y z
#    x 3.531790 0.000000 0.079030 
#    y 0.000000 3.451090 0.000000 
#    z 0.079030 0.000000 3.980810 
# 
# 
# High freq. dielectric constant tensor:
#      x y z
#    x 1.758530 0.000000 0.000400 
#    y 0.000000 1.766730 0.000000 
#    z 0.000400 0.000000 1.784160 
# 
# From -- ./inp_files/22773.got.cif
#   From: 2010.03.12/outbox.cif.g09.slc.cpg/sg8_12_cif.got.tgz:22773.got - 2010.03.31 10:45:26.
