data_PCOD8053648
_publ_section_title
;
Structure prediction by ZEFSAII (Michael W. Deem and Ramdas Pophale) SiO2 
 PCOD8053648
Probable space group: C M
;
_chemical_formula_sum "Si O2"
_cell_formula_units_Z 32
_cell_length_a 28.365377
_cell_length_b 8.574686
_cell_length_c 12.139215
_cell_angle_alpha 90.000000
_cell_angle_beta 31.336044
_cell_angle_gamma 90.000000
_cell_volume 1535.493382
_symmetry_space_group_name_H-M "C M"
_symmetry_group_IT_number 8
_symmetry_cell_setting 'monoclinic'
loop_
_space_group_symop_operation_xyz
x,y,z
x,-y,z
1/2+x,1/2+y,z
1/2+x,1/2-y,z
loop_
_atom_site_type_symbol
_atom_site_label
_atom_site_fract_x
_atom_site_fract_y
_atom_site_fract_z
Si Si1 0.545930 0.670726 0.027040
Si Si2 0.363488 0.685668 0.650448
Si Si3 0.670000 0.816859 0.393947
Si Si4 0.705082 0.318331 0.088581
Si Si5 0.521214 0.685063 0.835618
Si Si6 0.317540 0.686041 0.273498
Si Si7 0.832523 0.170455 0.477568
Si Si8 0.056370 0.319979 0.229873
O O1 0.590333 0.500000 0.956505
O O2 0.438873 0.651903 0.246175
O O3 0.582443 0.783554 0.050364
O O4 0.566926 0.733730 0.861885
O O5 0.352927 0.500000 0.678996
O O6 0.320674 0.753638 0.620129
O O7 0.469791 0.723844 0.445806
O O8 0.309058 0.768383 0.857408
O O9 0.682621 0.720524 0.258380
O O10 0.571503 0.778632 0.638978
O O11 0.744890 0.754221 0.330738
O O12 0.680197 0.000000 0.349899
O O13 0.690530 0.500000 0.096239
O O14 0.641285 0.219988 0.135779
O O15 0.529719 0.500000 0.800384
O O16 0.416940 0.740757 0.036607
O O17 0.316590 0.500000 0.286289
O O18 0.293664 0.755575 0.444671
O O19 0.787315 0.000000 0.577707
O O20 0.032445 0.500000 0.288441
#
# Coordination Sequence:
#
# PCOD8053648 Si02
#       8
#     4   4   4   4   4   4   4   4
#     4   8  15  31  56  85 117 151 187 229 282 344
#     4  10  20  38  63  90 120 152 187 233 292 353
#     4  11  23  38  56  82 113 146 193 247 294 341
#     4  12  26  43  59  79 112 155 204 251 294 344
#     4   9  18  36  60  84 113 152 192 229 279 344
#     4   8  16  33  57  82 111 147 182 219 272 338
#     4   7  12  27  54  85 113 143 178 217 270 340
#     4  11  22  38  61  89 119 152 193 241 295 350
#
# _framework density 20.840206999999999
#
# number of rings (size 3 to 8) (size 9 to 14) (size 15 to 20)
#    0.000    2.500    0.000    5.250    0.000    2.500 
#    0.000    6.250    0.000    6.750    0.000    0.000 
#    0.000    0.000    0.000    0.000    0.000    0.000 
#
# Total GULP energy -198293.989178 kJ/mol
# GULP energy per Si atom -12393.374324 kJ/mol
# Density = 2.079277 g / cm^3
# Si number density = 20.840207 Si / 1000 Ang^3
#
#
#
# Elastic Constant Matrix: (Units=GPa)
#
#
# Indices 1 2 3 4 5 6 
#
# 1 58.8297 16.7003 -3.9724 0.0000 4.9002 0.0000
# 2 16.7003 63.3595 13.2328 0.0000 7.5268 0.0000
# 3 -3.9724 13.2328 65.8015 0.0000 16.6159 0.0000
# 4 0.0000 0.0000 0.0000 30.7285 0.0000 2.4453
# 5 4.9002 7.5268 16.6159 0.0000 30.6910 0.0000
# 6 0.0000 0.0000 0.0000 2.4453 0.0000 26.7098
#
#
#
# Elastic Compliance Matrix: (Units=1/GPa)
#
#
# Indices 1 2 3 4 5 6 
#
# 1 0.018974 -0.005236 0.003057 0.000000 -0.003400 0.000000
# 2 -0.005236 0.018101 -0.003529 0.000000 -0.001693 0.000000
# 3 0.003057 -0.003529 0.018529 0.000000 -0.009654 0.000000
# 4 0.000000 0.000000 0.000000 0.032782 0.000000 -0.003001
# 5 -0.003400 -0.001693 -0.009654 0.000000 0.038768 0.000000
# 6 0.000000 0.000000 0.000000 -0.003001 0.000000 0.037714
#
#
# Mechanical properties :
#
#
# Convention : Reuss Voigt Hill
#
# Bulk Modulus (GPa) = 22.62975 26.65691 24.64333
# Shear Modulus (GPa) = 26.17622 28.42787 27.30204
#
# Velocity S-wave (km/s) = 3.54792 3.69736 3.62341
# Velocity P-wave (km/s) = 5.25984 5.57191 5.41812
#
# Compressibility (1/GPa) = 0.04418962
#
# Stress axis : x y z
#
# Youngs Moduli (GPa) = 52.70324 55.24535 53.96864
#
# Poissons Ratio (x) = 0.28925 -0.16498
# Poissons Ratio (y) = 0.27594 0.19044
# Poissons Ratio (z) = -0.16112 0.19495
#
# Static dielectric constant tensor:
#      x y z
#    x 3.954570 0.000000 0.256320 
#    y 0.000000 3.403910 0.000000 
#    z 0.256320 0.000000 3.779240 
# 
# 
# High freq. dielectric constant tensor:
#      x y z
#    x 1.814360 0.000000 0.009760 
#    y 0.000000 1.786870 0.000000 
#    z 0.009760 0.000000 1.815540 
# 
# From -- ./inp_files/24819.got.cif
#   From: 2010.03.12/outbox.cif.g09.slc.cpg/sg8_13_cif.got.tgz:24819.got - 2010.03.31 10:45:26.
