data_PCOD8053607
_publ_section_title
;
Structure prediction by ZEFSAII (Michael W. Deem and Ramdas Pophale) SiO2 
 PCOD8053607
Probable space group: C M
;
_chemical_formula_sum "Si O2"
_cell_formula_units_Z 32
_cell_length_a 15.315299
_cell_length_b 8.647161
_cell_length_c 12.322482
_cell_angle_alpha 90.000000
_cell_angle_beta 107.229990
_cell_angle_gamma 90.000000
_cell_volume 1558.679149
_symmetry_space_group_name_H-M "C M"
_symmetry_group_IT_number 8
_symmetry_cell_setting 'monoclinic'
loop_
_space_group_symop_operation_xyz
x,y,z
x,-y,z
1/2+x,1/2+y,z
1/2+x,1/2-y,z
loop_
_atom_site_type_symbol
_atom_site_label
_atom_site_fract_x
_atom_site_fract_y
_atom_site_fract_z
Si Si1 0.563800 0.179690 0.725980
Si Si2 0.953535 0.176661 0.502229
Si Si3 0.500526 0.680249 0.131527
Si Si4 0.689726 0.180956 0.270752
Si Si5 0.446332 0.182046 0.887762
Si Si6 0.877399 0.319394 0.267320
Si Si7 0.743050 0.678341 0.748136
Si Si8 0.758379 0.175295 0.529604
O O1 0.537966 0.267168 0.605375
O O2 0.503848 0.236430 0.804770
O O3 0.669429 0.221020 0.787926
O O4 0.548843 0.000000 0.700944
O O5 0.945858 0.277856 0.390714
O O6 0.864225 0.197737 0.542073
O O7 0.967614 0.000000 0.471408
O O8 0.485968 0.500000 0.148250
O O9 0.604458 0.723866 0.195991
O O10 0.427528 0.775757 0.174655
O O11 0.483287 0.719037 0.000472
O O12 0.781774 0.228919 0.241558
O O13 0.699042 0.217330 0.401985
O O14 0.673690 0.000000 0.244350
O O15 0.341703 0.227375 0.828136
O O16 0.458887 0.000000 0.914813
O O17 0.855848 0.500000 0.260377
O O18 0.723420 0.500000 0.763048
O O19 0.733189 0.708998 0.616226
O O20 0.738353 0.000000 0.559841
#
# Coordination Sequence:
#
# PCOD8053607 Si02
#       8
#     4   4   4   4   4   4   4   4
#     4  11  23  40  63  92 125 165 210 258 318 378
#     4  10  20  37  62  93 130 166 207 260 315 376
#     4  12  26  43  67  95 126 171 218 264 318 380
#     4  10  22  42  65  94 130 168 211 264 319 378
#     4  10  24  46  65  87 125 169 214 265 317 375
#     4  11  23  41  65  94 130 169 211 263 319 379
#     4  11  23  39  62  92 125 164 209 260 313 374
#     4   9  19  36  61  91 127 164 202 254 315 374
#
# _framework density 20.530203
#
# number of rings (size 3 to 8) (size 9 to 14) (size 15 to 20)
#    0.000    1.500    1.250    4.500    1.750    5.500 
#    0.000    2.500    0.000    0.000    0.000    0.000 
#    0.000    0.000    0.000    0.000    0.000    0.000 
#
# Total GULP energy -198488.523908 kJ/mol
# GULP energy per Si atom -12405.532744 kJ/mol
# Density = 2.048348 g / cm^3
# Si number density = 20.530203 Si / 1000 Ang^3
#
#
#
# Elastic Constant Matrix: (Units=GPa)
#
#
# Indices 1 2 3 4 5 6 
#
# 1 76.7686 15.1353 30.0553 0.0000 18.7157 0.0000
# 2 15.1353 72.8157 26.4864 0.0000 2.1555 0.0000
# 3 30.0553 26.4864 90.9320 0.0000 14.1534 0.0000
# 4 0.0000 0.0000 0.0000 35.2173 0.0000 0.1571
# 5 18.7157 2.1555 14.1534 0.0000 20.3854 0.0000
# 6 0.0000 0.0000 0.0000 0.1571 0.0000 36.0605
#
#
#
# Elastic Compliance Matrix: (Units=1/GPa)
#
#
# Indices 1 2 3 4 5 6 
#
# 1 0.018170 -0.002212 -0.003141 0.000000 -0.014268 0.000000
# 2 -0.002212 0.015680 -0.004366 0.000000 0.003404 0.000000
# 3 -0.003141 -0.004366 0.014336 0.000000 -0.006608 0.000000
# 4 0.000000 0.000000 0.000000 0.028396 0.000000 -0.000124
# 5 -0.014268 0.003404 -0.006608 0.000000 0.066382 0.000000
# 6 0.000000 0.000000 0.000000 -0.000124 0.000000 0.027732
#
#
# Mechanical properties :
#
#
# Convention : Reuss Voigt Hill
#
# Bulk Modulus (GPa) = 34.78432 42.65225 38.71828
# Shear Modulus (GPa) = 25.03560 29.58860 27.31210
#
# Velocity S-wave (km/s) = 3.49585 3.80046 3.65134
# Velocity P-wave (km/s) = 5.76840 6.33076 6.05611
#
# Compressibility (1/GPa) = 0.02874859
#
# Stress axis : x y z
#
# Youngs Moduli (GPa) = 55.03519 63.77365 69.75668
#
# Poissons Ratio (x) = 0.14107 0.21908
# Poissons Ratio (y) = 0.12174 0.30456
# Poissons Ratio (z) = 0.17285 0.27844
#
# Static dielectric constant tensor:
#      x y z
#    x 3.778600 0.000000 0.045250 
#    y 0.000000 3.677800 0.000000 
#    z 0.045250 0.000000 3.657830 
# 
# 
# High freq. dielectric constant tensor:
#      x y z
#    x 1.812900 0.000000 0.002540 
#    y 0.000000 1.806400 0.000000 
#    z 0.002540 0.000000 1.796610 
# 
# From -- ./inp_files/21613.got.cif
#   From: 2010.03.12/outbox.cif.g09.slc.cpg/sg8_11_cif.got.tgz:21613.got - 2010.03.31 10:45:26.
