data_PCOD8053259
_publ_section_title
;
Structure prediction by ZEFSAII (Michael W. Deem and Ramdas Pophale) SiO2 
 PCOD8053259
Probable space group: C M
;
_chemical_formula_sum "Si O2"
_cell_formula_units_Z 32
_cell_length_a 27.870525
_cell_length_b 8.789971
_cell_length_c 11.875748
_cell_angle_alpha 90.000000
_cell_angle_beta 146.624115
_cell_angle_gamma 90.000000
_cell_volume 1600.509859
_symmetry_space_group_name_H-M "C M"
_symmetry_group_IT_number 8
_symmetry_cell_setting 'monoclinic'
loop_
_space_group_symop_operation_xyz
x,y,z
x,-y,z
1/2+x,1/2+y,z
1/2+x,1/2-y,z
loop_
_atom_site_type_symbol
_atom_site_label
_atom_site_fract_x
_atom_site_fract_y
_atom_site_fract_z
Si Si1 0.892190 0.680159 0.802280
Si Si2 0.749765 0.177991 0.913304
Si Si3 0.640493 0.674107 0.080325
Si Si4 0.587437 0.820685 0.207601
Si Si5 0.844603 0.674803 0.462655
Si Si6 0.589554 0.821604 0.755077
Si Si7 0.234019 0.820301 0.641727
Si Si8 0.416122 0.322683 0.384358
O O1 0.883736 0.500000 0.783512
O O2 0.876656 0.739856 0.645351
O O3 0.817572 0.747179 0.738147
O O4 0.987368 0.731624 0.031603
O O5 0.672657 0.228871 0.845439
O O6 0.741453 0.274580 0.785019
O O7 0.743208 0.000000 0.872144
O O8 0.840987 0.221571 0.149279
O O9 0.614508 0.500000 0.052879
O O10 0.618070 0.772984 0.144498
O O11 0.741588 0.690586 0.251376
O O12 0.587136 0.736406 0.869755
O O13 0.644827 0.743923 0.416303
O O14 0.596948 0.000000 0.237321
O O15 0.874197 0.500000 0.502483
O O16 0.887560 0.780524 0.453878
O O17 0.502253 0.771328 0.517879
O O18 0.590557 0.000000 0.779719
O O19 0.230990 0.000000 0.624534
O O20 0.437346 0.500000 0.421025
#
# Coordination Sequence:
#
# PCOD8053259 Si02
#       8
#     4   4   4   4   4   4   4   4
#     4   9  20  39  60  86 119 157 195 238 293 360
#     4  10  24  44  62  85 120 158 203 254 303 361
#     4  11  21  36  62  94 126 158 201 251 301 360
#     4  11  22  38  63  91 123 161 201 244 302 365
#     4  10  19  36  62  89 124 161 197 241 301 366
#     4  11  23  41  63  89 124 163 202 245 305 369
#     4  11  23  42  64  86 117 157 206 255 302 356
#     4  11  23  40  62  92 125 155 201 254 301 359
#
# _framework density 19.993628999999999
#
# number of rings (size 3 to 8) (size 9 to 14) (size 15 to 20)
#    0.000    1.500    2.500    2.625    0.000    4.500 
#    0.000    6.875    0.000    0.000    0.000    0.000 
#    0.000    0.000    0.000    0.000    0.000    0.000 
#
# Total GULP energy -198473.236175 kJ/mol
# GULP energy per Si atom -12404.577261 kJ/mol
# Density = 1.994812 g / cm^3
# Si number density = 19.993629 Si / 1000 Ang^3
#
#
#
# Elastic Constant Matrix: (Units=GPa)
#
#
# Indices 1 2 3 4 5 6 
#
# 1 52.3271 31.2374 51.5510 0.0000 -12.0882 0.0000
# 2 31.2374 51.5439 44.6044 0.0000 1.0418 0.0000
# 3 51.5510 44.6044 147.6651 0.0000 0.0174 0.0000
# 4 0.0000 0.0000 0.0000 34.3771 0.0000 -2.8995
# 5 -12.0882 1.0418 0.0174 0.0000 30.4035 0.0000
# 6 0.0000 0.0000 0.0000 -2.8995 0.0000 33.2940
#
#
#
# Elastic Compliance Matrix: (Units=1/GPa)
#
#
# Indices 1 2 3 4 5 6 
#
# 1 0.044009 -0.018603 -0.009747 0.000000 0.018141 0.000000
# 2 -0.018603 0.034155 -0.003822 0.000000 -0.008565 0.000000
# 3 -0.009747 -0.003822 0.011329 0.000000 -0.003751 0.000000
# 4 0.000000 0.000000 0.000000 0.029304 0.000000 0.002552
# 5 0.018141 -0.008565 -0.003751 0.000000 0.040399 0.000000
# 6 0.000000 0.000000 0.000000 0.002552 0.000000 0.030258
#
#
# Mechanical properties :
#
#
# Convention : Reuss Voigt Hill
#
# Bulk Modulus (GPa) = 39.76002 56.25798 48.00900
# Shear Modulus (GPa) = 19.07082 27.89112 23.48097
#
# Velocity S-wave (km/s) = 3.09179 3.73902 3.43070
# Velocity P-wave (km/s) = 5.71621 6.84393 6.30533
#
# Compressibility (1/GPa) = 0.02515090
#
# Stress axis : x y z
#
# Youngs Moduli (GPa) = 22.72284 29.27810 88.26519
#
# Poissons Ratio (x) = 0.54466 0.86028
# Poissons Ratio (y) = 0.42271 0.33732
# Poissons Ratio (z) = 0.22147 0.11189
#
# Static dielectric constant tensor:
#      x y z
#    x 3.648150 0.000000 0.190920 
#    y 0.000000 3.524620 0.000000 
#    z 0.190920 0.000000 3.913810 
# 
# 
# High freq. dielectric constant tensor:
#      x y z
#    x 1.778340 0.000000 0.009100 
#    y 0.000000 1.771960 0.000000 
#    z 0.009100 0.000000 1.797240 
# 
# From -- ./inp_files/21345.got.cif
#   From: 2010.03.12/outbox.cif.g09.slc.cpg/sg8_11_cif.got.tgz:21345.got - 2010.03.31 10:45:26.
