data_PCOD8053846
_publ_section_title
;
Structure prediction by ZEFSAII (Michael W. Deem and Ramdas Pophale) SiO2 
 PCOD8053846
Probable space group: C M
;
_chemical_formula_sum "Si O2"
_cell_formula_units_Z 32
_cell_length_a 24.964480
_cell_length_b 13.146551
_cell_length_c 9.239368
_cell_angle_alpha 90.000000
_cell_angle_beta 151.116467
_cell_angle_gamma 90.000000
_cell_volume 1464.709171
_symmetry_space_group_name_H-M "C M"
_symmetry_group_IT_number 8
_symmetry_cell_setting 'monoclinic'
loop_
_space_group_symop_operation_xyz
x,y,z
x,-y,z
1/2+x,1/2+y,z
1/2+x,1/2-y,z
loop_
_atom_site_type_symbol
_atom_site_label
_atom_site_fract_x
_atom_site_fract_y
_atom_site_fract_z
Si Si1 0.823530 0.111979 0.250000
Si Si2 0.952485 0.712407 0.048145
Si Si3 0.738630 0.381175 0.426268
Si Si4 0.977847 0.384523 0.621055
Si Si5 0.240478 0.178348 0.099444
Si Si6 0.508053 0.707948 0.492378
Si Si7 0.844073 0.889061 0.635249
Si Si8 0.111357 0.305014 0.193603
O O1 0.737453 0.204199 0.037597
O O2 0.862470 0.110855 0.507479
O O3 0.923113 0.135850 0.375307
O O4 0.774183 0.000000 0.092864
O O5 0.961402 0.752392 0.231144
O O6 0.068097 0.667363 0.254814
O O7 0.850274 0.633698 0.786706
O O8 0.932184 0.811336 0.903945
O O9 0.707640 0.500000 0.347184
O O10 0.753956 0.334073 0.303061
O O11 0.637288 0.316489 0.253434
O O12 0.020446 0.500000 0.702548
O O13 0.844828 0.381272 0.278930
O O14 0.037556 0.311312 0.648832
O O15 0.008256 0.340002 0.849953
O O16 0.121884 0.140617 0.756607
O O17 0.720095 0.864368 0.399008
O O18 0.871794 0.000000 0.763159
#
# Coordination Sequence:
#
# PCOD8053846 Si02
#       8
#     4   4   4   4   4   4   4   4
#     4  10  21  41  69  94 125 169 221 268 320 388
#     4  11  24  43  62  92 138 173 210 274 333 397
#     4  11  23  41  67  98 127 168 223 272 327 391
#     4  11  22  40  66  93 128 171 223 275 325 389
#     4  11  21  40  62 100 126 165 216 270 321 384
#     4  11  25  42  62  94 137 173 215 270 339 393
#     4  10  21  39  65  94 124 164 219 272 323 388
#     4  11  21  40  65  97 125 167 217 273 330 384
#
# _framework density 21.847341
#
# number of rings (size 3 to 8) (size 9 to 14) (size 15 to 20)
#    0.000    1.250    5.000    1.500    0.000    8.500 
#    0.000    0.000    0.000    0.000    0.000    0.000 
#    0.000    0.000    0.000    0.000    0.000    0.000 
#
# Total GULP energy -198212.870148 kJ/mol
# GULP energy per Si atom -12388.304384 kJ/mol
# Density = 2.179762 g / cm^3
# Si number density = 21.847341 Si / 1000 Ang^3
#
#
#
# Elastic Constant Matrix: (Units=GPa)
#
#
# Indices 1 2 3 4 5 6 
#
# 1 84.7692 14.8832 24.1285 0.0000 -0.1732 0.0000
# 2 14.8832 106.1279 -7.5684 0.0000 0.3236 0.0000
# 3 24.1285 -7.5684 68.2638 0.0000 4.2140 0.0000
# 4 0.0000 0.0000 0.0000 14.0782 0.0000 2.5590
# 5 -0.1732 0.3236 4.2140 0.0000 24.5494 0.0000
# 6 0.0000 0.0000 0.0000 2.5590 0.0000 5.3086
#
#
#
# Elastic Compliance Matrix: (Units=1/GPa)
#
#
# Indices 1 2 3 4 5 6 
#
# 1 0.013665 -0.002286 -0.005146 0.000000 0.001010 0.000000
# 2 -0.002286 0.009883 0.001933 0.000000 -0.000478 0.000000
# 3 -0.005146 0.001933 0.016865 0.000000 -0.002957 0.000000
# 4 0.000000 0.000000 0.000000 0.077854 0.000000 -0.037530
# 5 0.001010 -0.000478 -0.002957 0.000000 0.041255 0.000000
# 6 0.000000 0.000000 0.000000 -0.037530 0.000000 0.206466
#
#
# Mechanical properties :
#
#
# Convention : Reuss Voigt Hill
#
# Bulk Modulus (GPa) = 33.99685 35.78307 34.88996
# Shear Modulus (GPa) = 12.92692 23.96839 18.44765
#
# Velocity S-wave (km/s) = 2.43511 3.31582 2.90899
# Velocity P-wave (km/s) = 4.84781 5.57439 5.22375
#
# Compressibility (1/GPa) = 0.02941449
#
# Stress axis : x y z
#
# Youngs Moduli (GPa) = 73.18006 101.18831 59.29525
#
# Poissons Ratio (x) = 0.23136 0.30512
# Poissons Ratio (y) = 0.16732 -0.11464
# Poissons Ratio (z) = 0.37657 -0.19563
#
# Static dielectric constant tensor:
#      x y z
#    x 3.941230 0.000000 0.201690 
#    y 0.000000 4.129510 0.000000 
#    z 0.201690 0.000000 3.748560 
# 
# 
# High freq. dielectric constant tensor:
#      x y z
#    x 1.857220 0.000000 0.025990 
#    y 0.000000 1.857180 0.000000 
#    z 0.025990 0.000000 1.837830 
# 
# From -- ./inp_files/17126.got.cif
#   From: 2010.03.12/outbox.cif.g09.slc.cpg/sg8_9_cif.got.tgz:17126.got - 2010.03.31 10:45:26.
