data_PCOD8053200
_publ_section_title
;
Structure prediction by ZEFSAII (Michael W. Deem and Ramdas Pophale) SiO2 
 PCOD8053200
Probable space group: C M
;
_chemical_formula_sum "Si O2"
_cell_formula_units_Z 32
_cell_length_a 33.442438
_cell_length_b 8.796425
_cell_length_c 12.600074
_cell_angle_alpha 90.000000
_cell_angle_beta 25.824560
_cell_angle_gamma 90.000000
_cell_volume 1614.663522
_symmetry_space_group_name_H-M "C M"
_symmetry_group_IT_number 8
_symmetry_cell_setting 'monoclinic'
loop_
_space_group_symop_operation_xyz
x,y,z
x,-y,z
1/2+x,1/2+y,z
1/2+x,1/2-y,z
loop_
_atom_site_type_symbol
_atom_site_label
_atom_site_fract_x
_atom_site_fract_y
_atom_site_fract_z
Si Si1 0.798260 0.176373 0.825720
Si Si2 0.242714 0.678272 0.533680
Si Si3 0.995107 0.819372 0.426240
Si Si4 0.127989 0.174157 0.628450
Si Si5 0.251316 0.323289 0.169520
Si Si6 0.440664 0.178232 0.767715
Si Si7 0.179242 0.320670 0.917629
Si Si8 0.940704 0.825726 0.983258
O O1 0.901051 0.243351 0.596210
O O2 0.744292 0.249074 0.855133
O O3 0.809433 0.000000 0.774940
O O4 0.738194 0.205554 0.075306
O O5 0.231884 0.500000 0.539950
O O6 0.166044 0.762104 0.647612
O O7 0.227402 0.720932 0.692375
O O8 0.344132 0.735415 0.259441
O O9 0.000776 0.759047 0.533156
O O10 0.995140 0.000000 0.429420
O O11 0.080462 0.758914 0.155332
O O12 0.162418 0.269767 0.444996
O O13 0.017371 0.189404 0.892394
O O14 0.158955 0.000000 0.541827
O O15 0.271981 0.500000 0.142399
O O16 0.334966 0.225661 0.014169
O O17 0.475498 0.228169 0.800091
O O18 0.453176 0.000000 0.723610
O O19 0.164544 0.500000 0.967159
O O20 0.930242 0.000000 0.971696
#
# Coordination Sequence:
#
# PCOD8053200 Si02
#       8
#     4   4   4   4   4   4   4   4
#     4   8  18  36  58  83 115 154 194 233 288 358
#     4  10  22  41  62  82 118 163 200 246 302 355
#     4  10  21  38  59  87 120 157 192 241 303 356
#     4  11  23  37  58  89 119 153 202 250 296 354
#     4  10  19  35  58  85 122 160 194 239 302 359
#     4  11  21  35  59  89 121 157 196 245 298 355
#     4  10  21  39  62  88 114 155 208 247 289 352
#     4  10  22  39  58  85 119 159 200 245 300 357
#
# _framework density 19.818370000000002
#
# number of rings (size 3 to 8) (size 9 to 14) (size 15 to 20)
#    0.000    2.000    1.250    3.000    1.750    2.500 
#    0.000    5.625    0.000    0.000    0.000    0.000 
#    0.000    0.000    0.000    0.000    0.000    0.000 
#
# Total GULP energy -198410.818570 kJ/mol
# GULP energy per Si atom -12400.676161 kJ/mol
# Density = 1.977326 g / cm^3
# Si number density = 19.818370 Si / 1000 Ang^3
#
#
#
# Elastic Constant Matrix: (Units=GPa)
#
#
# Indices 1 2 3 4 5 6 
#
# 1 138.3284 37.8114 49.5489 0.0000 1.0163 0.0000
# 2 37.8114 65.6734 29.3965 0.0000 4.8350 0.0000
# 3 49.5489 29.3965 84.8512 0.0000 4.2872 0.0000
# 4 0.0000 0.0000 0.0000 29.0208 0.0000 -0.0983
# 5 1.0163 4.8350 4.2872 0.0000 28.3122 0.0000
# 6 0.0000 0.0000 0.0000 -0.0983 0.0000 24.5244
#
#
#
# Elastic Compliance Matrix: (Units=1/GPa)
#
#
# Indices 1 2 3 4 5 6 
#
# 1 0.009858 -0.003726 -0.004514 0.000000 0.000966 0.000000
# 2 -0.003726 0.019561 -0.004473 0.000000 -0.002529 0.000000
# 3 -0.004514 -0.004473 0.016047 0.000000 -0.001504 0.000000
# 4 0.000000 0.000000 0.000000 0.034459 0.000000 0.000138
# 5 0.000966 -0.002529 -0.001504 0.000000 0.035945 0.000000
# 6 0.000000 0.000000 0.000000 0.000138 0.000000 0.040776
#
#
# Mechanical properties :
#
#
# Convention : Reuss Voigt Hill
#
# Bulk Modulus (GPa) = 49.90389 58.04073 53.97231
# Shear Modulus (GPa) = 26.48983 27.84456 27.16720
#
# Velocity S-wave (km/s) = 3.65996 3.75238 3.70646
# Velocity P-wave (km/s) = 6.56473 6.93713 6.75350
#
# Compressibility (1/GPa) = 0.02003852
#
# Stress axis : x y z
#
# Youngs Moduli (GPa) = 101.44512 51.12342 62.31637
#
# Poissons Ratio (x) = 0.19048 0.28131
# Poissons Ratio (y) = 0.37798 0.27875
# Poissons Ratio (z) = 0.45795 0.22868
#
# Static dielectric constant tensor:
#      x y z
#    x 3.710090 0.000000 -0.056940 
#    y 0.000000 3.452340 0.000000 
#    z -0.056940 0.000000 3.605590 
# 
# 
# High freq. dielectric constant tensor:
#      x y z
#    x 1.774880 0.000000 -0.004730 
#    y 0.000000 1.758170 0.000000 
#    z -0.004730 0.000000 1.770720 
# 
# From -- ./inp_files/24812.got.cif
#   From: 2010.03.12/outbox.cif.g09.slc.cpg/sg8_13_cif.got.tgz:24812.got - 2010.03.31 10:45:26.
