data_PCOD8053815
_publ_section_title
;
Structure prediction by ZEFSAII (Michael W. Deem and Ramdas Pophale) SiO2 
 PCOD8053815
Probable space group: C M
;
_chemical_formula_sum "Si O2"
_cell_formula_units_Z 32
_cell_length_a 24.429414
_cell_length_b 8.836722
_cell_length_c 20.222238
_cell_angle_alpha 90.000000
_cell_angle_beta 23.818794
_cell_angle_gamma 90.000000
_cell_volume 1762.984917
_symmetry_space_group_name_H-M "C M"
_symmetry_group_IT_number 8
_symmetry_cell_setting 'monoclinic'
loop_
_space_group_symop_operation_xyz
x,y,z
x,-y,z
1/2+x,1/2+y,z
1/2+x,1/2-y,z
loop_
_atom_site_type_symbol
_atom_site_label
_atom_site_fract_x
_atom_site_fract_y
_atom_site_fract_z
Si Si1 0.381560 0.173848 0.314970
Si Si2 0.073213 0.176674 0.202595
Si Si3 0.034884 0.822511 0.396024
Si Si4 0.616895 0.679268 0.540234
Si Si5 0.748668 0.678421 0.263479
Si Si6 0.793156 0.322244 0.742324
Si Si7 0.521360 0.825818 0.019473
Si Si8 0.318445 0.320971 0.857752
O O1 0.442177 0.278200 0.305118
O O2 0.226734 0.230828 0.473826
O O3 0.385348 0.000000 0.334380
O O4 0.468419 0.193284 0.152634
O O5 0.045510 0.223936 0.308321
O O6 0.100732 0.000000 0.164869
O O7 0.205803 0.263607 0.032241
O O8 0.178224 0.777471 0.272172
O O9 0.914839 0.728918 0.561265
O O10 0.004897 0.000000 0.438928
O O11 0.623848 0.500000 0.527765
O O12 0.657874 0.747599 0.423354
O O13 0.464402 0.731951 0.725720
O O14 0.754405 0.500000 0.267279
O O15 0.904597 0.734418 0.097733
O O16 0.799210 0.500000 0.746193
O O17 0.652720 0.276642 0.862109
O O18 0.798592 0.242931 0.806921
O O19 0.559728 0.000000 0.963079
O O20 0.307738 0.500000 0.863794
#
# Coordination Sequence:
#
# PCOD8053815 Si02
#       8
#     4   4   4   4   4   4   4   4
#     4   9  17  32  55  80 107 144 182 218 264 320
#     4  11  23  36  53  82 115 145 180 222 267 320
#     4  10  21  39  59  77 107 149 184 219 269 325
#     4   8  15  29  55  84 102 130 184 229 261 313
#     4   8  14  30  56  81 102 134 184 226 260 314
#     4  12  23  34  53  84 115 139 177 229 271 316
#     4   9  17  31  56  83 105 139 182 222 267 320
#     4  11  20  35  59  81 107 144 183 223 269 320
#
# _framework density 18.151035
#
# number of rings (size 3 to 8) (size 9 to 14) (size 15 to 20)
#    0.000    2.250    2.500    3.375    0.000    1.000 
#    0.000    3.125    0.000    4.500    0.000    0.000 
#    0.000    0.000    0.000    0.000    0.000    0.000 
#
# Total GULP energy -198345.495527 kJ/mol
# GULP energy per Si atom -12396.593470 kJ/mol
# Density = 1.810972 g / cm^3
# Si number density = 18.151035 Si / 1000 Ang^3
#
#
#
# Elastic Constant Matrix: (Units=GPa)
#
#
# Indices 1 2 3 4 5 6 
#
# 1 106.4264 27.7022 54.0012 0.0020 -21.8615 -0.0004
# 2 27.7022 63.4905 39.2729 0.0043 -2.7281 -0.0021
# 3 54.0012 39.2729 104.9373 0.0027 -22.2379 -0.0013
# 4 0.0020 0.0043 0.0027 18.0721 -0.0013 6.4226
# 5 -21.8615 -2.7281 -22.2379 -0.0013 32.7388 0.0005
# 6 -0.0004 -0.0021 -0.0013 6.4226 0.0005 17.1428
#
#
#
# Elastic Compliance Matrix: (Units=1/GPa)
#
#
# Indices 1 2 3 4 5 6 
#
# 1 0.013728 -0.002756 -0.004835 0.000001 0.005653 -0.000001
# 2 -0.002756 0.021528 -0.007766 -0.000006 -0.005322 0.000004
# 3 -0.004835 -0.007766 0.016474 0.000001 0.007314 0.000000
# 4 0.000001 -0.000006 0.000001 0.063833 0.000003 -0.023915
# 5 0.005653 -0.005322 0.007314 0.000003 0.038845 -0.000002
# 6 -0.000001 0.000004 0.000000 -0.023915 -0.000002 0.067293
#
#
# Mechanical properties :
#
#
# Convention : Reuss Voigt Hill
#
# Bulk Modulus (GPa) = 47.58422 57.42298 52.50360
# Shear Modulus (GPa) = 19.27360 23.84927 21.56143
#
# Velocity S-wave (km/s) = 3.26213 3.62876 3.45032
# Velocity P-wave (km/s) = 6.36092 7.01869 6.69789
#
# Compressibility (1/GPa) = 0.02101537
#
# Stress axis : x y z
#
# Youngs Moduli (GPa) = 72.84300 46.45046 60.70065
#
# Poissons Ratio (x) = 0.12802 0.29349
# Poissons Ratio (y) = 0.20077 0.47143
# Poissons Ratio (z) = 0.35220 0.36075
#
# Static dielectric constant tensor:
#      x y z
#    x 3.546880 0.000000 -0.375540 
#    y 0.000000 3.095060 0.000000 
#    z -0.375540 0.000000 3.525110 
# 
# 
# High freq. dielectric constant tensor:
#      x y z
#    x 1.701730 0.000000 -0.027950 
#    y 0.000000 1.678620 0.000000 
#    z -0.027950 0.000000 1.697500 
# 
# From -- ./inp_files/31364.got.cif
#   From: 2010.03.12/outbox.cif.g09.slc.cpg/sg8_16_cif.got.tgz:31364.got - 2010.03.31 10:45:26.
