data_PCOD8053045
_publ_section_title
;
Structure prediction by ZEFSAII (Michael W. Deem and Ramdas Pophale) SiO2 
 PCOD8053045
Probable space group: C M
;
_chemical_formula_sum "Si O2"
_cell_formula_units_Z 32
_cell_length_a 24.874495
_cell_length_b 9.144975
_cell_length_c 12.408402
_cell_angle_alpha 90.000000
_cell_angle_beta 142.413430
_cell_angle_gamma 90.000000
_cell_volume 1721.684638
_symmetry_space_group_name_H-M "C M"
_symmetry_group_IT_number 8
_symmetry_cell_setting 'monoclinic'
loop_
_space_group_symop_operation_xyz
x,y,z
x,-y,z
1/2+x,1/2+y,z
1/2+x,1/2-y,z
loop_
_atom_site_type_symbol
_atom_site_label
_atom_site_fract_x
_atom_site_fract_y
_atom_site_fract_z
Si Si1 0.820870 0.666264 0.137630
Si Si2 0.772713 0.169572 0.666784
Si Si3 0.084777 0.834032 0.055828
Si Si4 0.199365 0.326877 0.088300
Si Si5 0.852017 0.665710 0.417473
Si Si6 0.591613 0.171558 0.281530
Si Si7 0.898687 0.837427 0.681340
Si Si8 0.895552 0.673237 0.031485
O O1 0.789078 0.500000 0.067855
O O2 0.733760 0.763942 0.027255
O O3 0.886390 0.673473 0.347180
O O4 0.871511 0.726718 0.114161
O O5 0.667501 0.203908 0.492030
O O6 0.813435 0.209311 0.614826
O O7 0.789331 0.000000 0.720389
O O8 0.821002 0.262832 0.834965
O O9 0.108736 0.746564 0.983529
O O10 0.119612 0.755765 0.218215
O O11 0.120893 0.000000 0.108104
O O12 0.979200 0.830369 0.892572
O O13 0.191079 0.500000 0.068770
O O14 0.265916 0.270546 0.288284
O O15 0.827351 0.500000 0.408389
O O16 0.918053 0.728807 0.611699
O O17 0.495555 0.227418 0.168967
O O18 0.588963 0.000000 0.250538
O O19 0.888209 0.000000 0.616878
O O20 0.891543 0.500000 0.014717
#
# Coordination Sequence:
#
# PCOD8053045 Si02
#       8
#     4   4   4   4   4   4   4   4
#     4   8  18  36  56  79 110 150 191 236 287 335
#     4  10  21  37  55  83 119 153 189 238 293 343
#     4  11  21  34  53  81 118 153 190 239 292 347
#     4  10  19  33  54  79 105 141 189 233 284 341
#     4   9  18  33  54  78 106 144 187 230 280 339
#     4  10  21  36  58  86 117 155 194 238 289 344
#     4  10  20  33  51  79 119 155 188 237 288 342
#     4  10  20  38  61  85 116 153 198 241 283 345
#
# _framework density 18.586447
#
# number of rings (size 3 to 8) (size 9 to 14) (size 15 to 20)
#    0.750    1.500    1.250    2.250    0.000    3.500 
#    0.000    1.250    0.000    1.500    0.000    0.000 
#    0.000    0.000    0.000    0.000    0.000    0.000 
#
# Total GULP energy -198214.569102 kJ/mol
# GULP energy per Si atom -12388.410569 kJ/mol
# Density = 1.854414 g / cm^3
# Si number density = 18.586447 Si / 1000 Ang^3
#
#
#
# Elastic Constant Matrix: (Units=GPa)
#
#
# Indices 1 2 3 4 5 6 
#
# 1 117.9944 48.8861 42.9800 0.0000 -0.2557 0.0000
# 2 48.8861 87.4090 30.0427 0.0000 -1.2689 0.0000
# 3 42.9800 30.0427 91.1796 0.0000 -1.4860 0.0000
# 4 0.0000 0.0000 0.0000 30.0931 0.0000 -4.5464
# 5 -0.2557 -1.2689 -1.4860 0.0000 25.0024 0.0000
# 6 0.0000 0.0000 0.0000 -4.5464 0.0000 25.8888
#
#
#
# Elastic Compliance Matrix: (Units=1/GPa)
#
#
# Indices 1 2 3 4 5 6 
#
# 1 0.012172 -0.005457 -0.003946 0.000000 -0.000387 0.000000
# 2 -0.005457 0.015352 -0.002477 0.000000 0.000576 0.000000
# 3 -0.003946 -0.002477 0.013654 0.000000 0.000645 0.000000
# 4 0.000000 0.000000 0.000000 0.034136 0.000000 0.005995
# 5 -0.000387 0.000576 0.000645 0.000000 0.040060 0.000000
# 6 0.000000 0.000000 0.000000 0.005995 0.000000 0.039680
#
#
# Mechanical properties :
#
#
# Convention : Reuss Voigt Hill
#
# Bulk Modulus (GPa) = 57.40873 60.04450 58.72661
# Shear Modulus (GPa) = 27.08272 27.84182 27.46227
#
# Velocity S-wave (km/s) = 3.82137 3.87455 3.84805
# Velocity P-wave (km/s) = 7.10105 7.23822 7.16997
#
# Compressibility (1/GPa) = 0.01741896
#
# Stress axis : x y z
#
# Youngs Moduli (GPa) = 82.15279 65.13759 73.23874
#
# Poissons Ratio (x) = 0.35547 0.28900
# Poissons Ratio (y) = 0.44832 0.18138
# Poissons Ratio (z) = 0.32418 0.16132
#
# Static dielectric constant tensor:
#      x y z
#    x 3.361790 0.000000 0.078980 
#    y 0.000000 3.348530 0.000000 
#    z 0.078980 0.000000 3.229250 
# 
# 
# High freq. dielectric constant tensor:
#      x y z
#    x 1.710240 0.000000 0.001140 
#    y 0.000000 1.721250 0.000000 
#    z 0.001140 0.000000 1.701780 
# 
# From -- ./inp_files/28385.got.cif
#   From: 2010.03.12/outbox.cif.g09.slc.cpg/sg8_15_cif.got.tgz:28385.got - 2010.03.31 10:45:26.
