data_PCOD8053492
_publ_section_title
;
Structure prediction by ZEFSAII (Michael W. Deem and Ramdas Pophale) SiO2 
 PCOD8053492
Probable space group: C M
;
_chemical_formula_sum "Si O2"
_cell_formula_units_Z 32
_cell_length_a 14.397006
_cell_length_b 8.864293
_cell_length_c 28.625284
_cell_angle_alpha 90.000000
_cell_angle_beta 152.015471
_cell_angle_gamma 90.000000
_cell_volume 1714.173443
_symmetry_space_group_name_H-M "C M"
_symmetry_group_IT_number 8
_symmetry_cell_setting 'monoclinic'
loop_
_space_group_symop_operation_xyz
x,y,z
x,-y,z
1/2+x,1/2+y,z
1/2+x,1/2-y,z
loop_
_atom_site_type_symbol
_atom_site_label
_atom_site_fract_x
_atom_site_fract_y
_atom_site_fract_z
Si Si1 0.720550 0.328545 0.479830
Si Si2 0.375402 0.821316 0.101056
Si Si3 0.803853 0.822863 0.260996
Si Si4 0.698787 0.676224 0.120856
Si Si5 0.260925 0.322753 0.956138
Si Si6 0.965207 0.178191 0.754442
Si Si7 0.027811 0.672323 0.688350
Si Si8 0.597860 0.678082 0.628536
O O1 0.734005 0.500000 0.467265
O O2 0.496164 0.268060 0.375759
O O3 0.797176 0.321050 0.567926
O O4 0.871602 0.227103 0.515598
O O5 0.606871 0.772857 0.201456
O O6 0.284403 0.764716 0.109607
O O7 0.259875 0.735878 0.008703
O O8 0.347991 0.000000 0.082361
O O9 0.817705 0.753103 0.215664
O O10 0.802826 0.000000 0.254014
O O11 0.735642 0.500000 0.141991
O O12 0.467181 0.716455 0.022023
O O13 0.216851 0.500000 0.935918
O O14 0.088957 0.235631 0.853240
O O15 0.067322 0.232873 0.752249
O O16 0.747666 0.252502 0.657513
O O17 0.948493 0.000000 0.748056
O O18 0.096614 0.500000 0.727030
O O19 0.159835 0.749844 0.706365
O O20 0.618159 0.500000 0.638541
#
# Coordination Sequence:
#
# PCOD8053492 Si02
#       8
#     4   4   4   4   4   4   4   4
#     4   8  17  35  55  77 112 149 179 225 275 315
#     4   9  18  35  56  79 107 141 179 219 268 326
#     4   9  17  33  56  79 109 144 179 218 265 319
#     4   9  19  35  54  79 109 139 177 224 269 319
#     4  10  21  36  54  77 108 141 178 227 277 324
#     4  12  23  37  57  81 109 145 187 229 278 331
#     4   9  19  37  56  77 111 146 183 227 271 318
#     4  10  20  36  56  79 107 143 184 227 275 326
#
# _framework density 18.667888000000001
#
# number of rings (size 3 to 8) (size 9 to 14) (size 15 to 20)
#    0.750    1.750    0.000    2.625    0.000    2.500 
#    2.250    3.750    0.000    0.000    0.000    0.000 
#    0.000    0.000    0.000    0.000    0.000    0.000 
#
# Total GULP energy -198310.697868 kJ/mol
# GULP energy per Si atom -12394.418617 kJ/mol
# Density = 1.862540 g / cm^3
# Si number density = 18.667888 Si / 1000 Ang^3
#
#
#
# Elastic Constant Matrix: (Units=GPa)
#
#
# Indices 1 2 3 4 5 6 
#
# 1 91.5278 23.2372 7.6514 -0.0003 -4.7632 0.0001
# 2 23.2372 95.0884 22.6826 -0.0004 -0.5936 0.0001
# 3 7.6514 22.6826 54.9905 -0.0021 -2.0283 0.0008
# 4 -0.0003 -0.0004 -0.0021 27.9217 0.0007 -4.1509
# 5 -4.7632 -0.5936 -2.0283 0.0007 19.1665 -0.0002
# 6 0.0001 0.0001 0.0008 -4.1509 -0.0002 29.9384
#
#
#
# Elastic Compliance Matrix: (Units=1/GPa)
#
#
# Indices 1 2 3 4 5 6 
#
# 1 0.011809 -0.002774 -0.000395 0.000000 0.002807 0.000000
# 2 -0.002774 0.012316 -0.004724 0.000000 -0.000808 0.000000
# 3 -0.000395 -0.004724 0.020259 0.000001 0.001899 0.000000
# 4 0.000000 0.000000 0.000001 0.036568 -0.000001 0.005070
# 5 0.002807 -0.000808 0.001899 -0.000001 0.053048 0.000000
# 6 0.000000 0.000000 0.000000 0.005070 0.000000 0.034105
#
#
# Mechanical properties :
#
#
# Convention : Reuss Voigt Hill
#
# Bulk Modulus (GPa) = 34.96859 38.74989 36.85924
# Shear Modulus (GPa) = 25.84994 27.94102 26.89548
#
# Velocity S-wave (km/s) = 3.72523 3.87297 3.79982
# Velocity P-wave (km/s) = 6.10539 6.38768 6.24813
#
# Compressibility (1/GPa) = 0.02859709
#
# Stress axis : x y z
#
# Youngs Moduli (GPa) = 84.68088 81.19345 49.36175
#
# Poissons Ratio (x) = 0.22523 0.01952
# Poissons Ratio (y) = 0.23490 0.23319
# Poissons Ratio (z) = 0.03348 0.38356
#
# Static dielectric constant tensor:
#      x y z
#    x 3.405320 0.000000 0.103440 
#    y 0.000000 3.344320 0.000000 
#    z 0.103440 0.000000 3.434160 
# 
# 
# High freq. dielectric constant tensor:
#      x y z
#    x 1.714070 0.000000 0.004450 
#    y 0.000000 1.726370 0.000000 
#    z 0.004450 0.000000 1.715110 
# 
# From -- ./inp_files/21537.got.cif
#   From: 2010.03.12/outbox.cif.g09.slc.cpg/sg8_11_cif.got.tgz:21537.got - 2010.03.31 10:45:26.
