data_PCOD8053794
_publ_section_title
;
Structure prediction by ZEFSAII (Michael W. Deem and Ramdas Pophale) SiO2 
 PCOD8053794
Probable space group: C M
;
_chemical_formula_sum "Si O2"
_cell_formula_units_Z 22
_cell_length_a 25.315993
_cell_length_b 10.047251
_cell_length_c 12.462774
_cell_angle_alpha 90.000000
_cell_angle_beta 23.162502
_cell_angle_gamma 90.000000
_cell_volume 1246.882031
_symmetry_space_group_name_H-M "C M"
_symmetry_group_IT_number 8
_symmetry_cell_setting 'monoclinic'
loop_
_space_group_symop_operation_xyz
x,y,z
x,-y,z
1/2+x,1/2+y,z
1/2+x,1/2-y,z
loop_
_atom_site_type_symbol
_atom_site_label
_atom_site_fract_x
_atom_site_fract_y
_atom_site_fract_z
Si Si1 0.086010 0.154651 0.740410
Si Si2 0.007705 0.844470 0.643409
Si Si3 0.387777 0.147552 0.224912
Si Si4 0.616655 0.000000 0.179641
Si Si5 0.920724 0.500000 0.366992
Si Si6 0.733715 0.752044 0.065707
Si Si7 0.324852 0.000000 0.771132
O O1 0.049997 0.183786 0.685458
O O2 0.239302 0.197951 0.472906
O O3 0.063669 0.000000 0.812568
O O4 0.993589 0.244657 0.988137
O O5 0.861430 0.782170 0.900974
O O6 0.007793 0.000000 0.616297
O O7 0.109336 0.769471 0.376059
O O8 0.402019 0.131638 0.327819
O O9 0.412739 0.000000 0.125284
O O10 0.483581 0.000000 0.503949
O O11 0.569694 0.000000 0.142483
O O12 0.706571 0.872312 0.035499
O O13 0.809069 0.500000 0.670533
O O14 0.753130 0.626979 0.953553
#
# Coordination Sequence:
#
# PCOD8053794 Si02
#       7
#     4   4   4   2   2   4   2
#     4  10  21  38  59  86 120 149 198 236 286 345
#     4  11  22  35  58  90 118 158 190 233 287 350
#     4   9  20  40  59  82 117 150 190 248 282 341
#     4  10  22  39  55  89 117 145 196 243 277 352
#     4   8  20  42  59  83 115 153 193 243 295 333
#     4  12  21  39  61  85 123 153 191 236 290 341
#     4  10  22  39  60  86 114 154 193 238 288 341
#
# _framework density 17.644010999999999
#
# number of rings (size 3 to 8) (size 9 to 14) (size 15 to 20)
#    1.091    0.727    3.636    1.091    0.000    2.182 
#    3.273    0.000    2.000    0.000    0.000    0.000 
#    0.000    0.000    0.000    0.000    0.000    0.000 
#
# Total GULP energy -136359.909199 kJ/mol
# GULP energy per Si atom -12396.355382 kJ/mol
# Density = 1.760385 g / cm^3
# Si number density = 17.644011 Si / 1000 Ang^3
#
#
#
# Elastic Constant Matrix: (Units=GPa)
#
#
# Indices 1 2 3 4 5 6 
#
# 1 97.0751 36.1026 21.0828 0.0000 3.3731 0.0000
# 2 36.1026 94.7174 28.8776 0.0000 0.2559 0.0000
# 3 21.0828 28.8776 59.7028 0.0000 -8.7327 0.0000
# 4 0.0000 0.0000 0.0000 -76.6942 0.0000 -30.1443
# 5 3.3731 0.2559 -8.7327 0.0000 19.5513 0.0000
# 6 0.0000 0.0000 0.0000 -30.1443 0.0000 9.7584
#
#
#
# Elastic Compliance Matrix: (Units=1/GPa)
#
#
# Indices 1 2 3 4 5 6 
#
# 1 0.012512 -0.003821 -0.003080 0.000000 -0.003484 0.000000
# 2 -0.003821 0.013721 -0.005582 0.000000 -0.002014 0.000000
# 3 -0.003080 -0.005582 0.022067 0.000000 0.010461 0.000000
# 4 0.000000 0.000000 0.000000 -0.005889 0.000000 -0.018191
# 5 -0.003484 -0.002014 0.010461 0.000000 0.056447 0.000000
# 6 0.000000 0.000000 0.000000 -0.018191 0.000000 0.046282
#
#
# Mechanical properties :
#
#
# Convention : Reuss Voigt Hill
#
# Bulk Modulus (GPa) = 42.85391 47.06903 44.96147
# Shear Modulus (GPa) = 28.10781 1.55192 14.82986
#
# Velocity S-wave (km/s) = 3.99563 0.93887 2.90229
# Velocity P-wave (km/s) = 6.75482 5.28302 6.06374
#
# Compressibility (1/GPa) = 0.02333510
#
# Stress axis : x y z
#
# Youngs Moduli (GPa) = 79.92177 72.87886 45.31558
#
# Poissons Ratio (x) = 0.27845 0.13957
# Poissons Ratio (y) = 0.30536 0.25296
# Poissons Ratio (z) = 0.24616 0.40683
#
# Static dielectric constant tensor:
#      x y z
#    x 3.258890 0.000000 -0.113840 
#    y 0.000000 3.262330 0.000000 
#    z -0.113840 0.000000 3.157120 
# 
# 
# High freq. dielectric constant tensor:
#      x y z
#    x 1.683910 0.000000 -0.010570 
#    y 0.000000 1.682190 0.000000 
#    z -0.010570 0.000000 1.678720 
# 
# From -- ./inp_files/24663.got.cif
#   From: 2010.03.12/outbox.cif.g09.slc.cpg/sg8_13_cif.got.tgz:24663.got - 2010.03.31 10:45:26.
