data_PCOD8053171
_publ_section_title
;
Structure prediction by ZEFSAII (Michael W. Deem and Ramdas Pophale) SiO2 
 PCOD8053171
Probable space group: C M
;
_chemical_formula_sum "Si O2"
_cell_formula_units_Z 28
_cell_length_a 18.653823
_cell_length_b 12.518110
_cell_length_c 7.659498
_cell_angle_alpha 90.000000
_cell_angle_beta 114.215134
_cell_angle_gamma 90.000000
_cell_volume 1631.200641
_symmetry_space_group_name_H-M "C M"
_symmetry_group_IT_number 8
_symmetry_cell_setting 'monoclinic'
loop_
_space_group_symop_operation_xyz
x,y,z
x,-y,z
1/2+x,1/2+y,z
1/2+x,1/2-y,z
loop_
_atom_site_type_symbol
_atom_site_label
_atom_site_fract_x
_atom_site_fract_y
_atom_site_fract_z
Si Si1 0.062810 0.877332 0.280600
Si Si2 0.681894 0.125464 0.701280
Si Si3 0.514458 0.767486 0.532003
Si Si4 0.565762 0.376529 0.882414
Si Si5 0.222284 0.240323 0.055972
Si Si6 0.722326 0.731477 0.435100
Si Si7 0.849665 0.625536 0.364761
O O1 0.009635 0.804077 0.352510
O O2 0.154117 0.853289 0.413316
O O3 0.046373 0.000000 0.310090
O O4 0.041370 0.852972 0.057919
O O5 0.590681 0.157121 0.607733
O O6 0.729194 0.178423 0.588657
O O7 0.691036 0.000000 0.694309
O O8 0.724564 0.163452 0.921061
O O9 0.511188 0.692735 0.699850
O O10 0.440268 0.844450 0.462101
O O11 0.554465 0.500000 0.824478
O O12 0.656377 0.346243 0.935991
O O13 0.201241 0.287792 0.227534
O O14 0.306320 0.179112 0.152670
O O15 0.804524 0.666898 0.495250
O O16 0.841238 0.500000 0.341410
#
# Coordination Sequence:
#
# PCOD8053171 Si02
#       7
#     4   4   4   4   4   4   4
#     4   9  16  31  54  76 100 135 175 216 251 292
#     4  10  19  35  55  77 104 141 174 207 254 310
#     4  10  20  32  50  78 110 132 168 210 256 318
#     4   9  16  31  54  76 100 135 175 216 251 292
#     4   8  18  33  55  78 101 130 179 219 248 301
#     4   8  18  33  55  78 101 130 179 219 248 301
#     4  10  19  37  57  75 106 137 166 219 270 298
#
# _framework density 17.16527
#
# number of rings (size 3 to 8) (size 9 to 14) (size 15 to 20)
#    0.857    2.000    0.000    1.714    0.000    0.571 
#    2.571    5.000    0.000    1.714    0.000    0.000 
#    0.000    0.000    0.000    0.000    0.000    0.000 
#
# Total GULP energy -173498.616701 kJ/mol
# GULP energy per Si atom -12392.758336 kJ/mol
# Density = 1.712620 g / cm^3
# Si number density = 17.165270 Si / 1000 Ang^3
#
#
#
# Elastic Constant Matrix: (Units=GPa)
#
#
# Indices 1 2 3 4 5 6 
#
# 1 63.0992 14.2959 17.2771 0.0000 5.0083 0.0000
# 2 14.2959 65.9782 18.9167 0.0000 0.0597 0.0000
# 3 17.2771 18.9167 65.1633 0.0000 -2.9152 0.0000
# 4 0.0000 0.0000 0.0000 23.5038 0.0000 0.2055
# 5 5.0083 0.0597 -2.9152 0.0000 24.7973 0.0000
# 6 0.0000 0.0000 0.0000 0.2055 0.0000 22.4993
#
#
#
# Elastic Compliance Matrix: (Units=1/GPa)
#
#
# Indices 1 2 3 4 5 6 
#
# 1 0.017920 -0.002688 -0.004154 0.000000 -0.004101 0.000000
# 2 -0.002688 0.016945 -0.004206 0.000000 0.000008 0.000000
# 3 -0.004154 -0.004206 0.017800 0.000000 0.002942 0.000000
# 4 0.000000 0.000000 0.000000 0.042550 0.000000 -0.000389
# 5 -0.004101 0.000008 0.002942 0.000000 0.041501 0.000000
# 6 0.000000 0.000000 0.000000 -0.000389 0.000000 0.044449
#
#
# Mechanical properties :
#
#
# Convention : Reuss Voigt Hill
#
# Bulk Modulus (GPa) = 32.71370 32.80222 32.75796
# Shear Modulus (GPa) = 23.42452 23.74348 23.58400
#
# Velocity S-wave (km/s) = 3.69812 3.72321 3.71069
# Velocity P-wave (km/s) = 6.11017 6.13467 6.12244
#
# Compressibility (1/GPa) = 0.03056823
#
# Stress axis : x y z
#
# Youngs Moduli (GPa) = 55.80330 59.01496 56.17930
#
# Poissons Ratio (x) = 0.15863 0.23339
# Poissons Ratio (y) = 0.15000 0.23629
# Poissons Ratio (z) = 0.23183 0.24822
#
# Static dielectric constant tensor:
#      x y z
#    x 3.018990 0.000000 -0.165540 
#    y 0.000000 3.003390 0.000000 
#    z -0.165540 0.000000 3.246030 
# 
# 
# High freq. dielectric constant tensor:
#      x y z
#    x 1.643910 0.000000 -0.010300 
#    y 0.000000 1.653250 0.000000 
#    z -0.010300 0.000000 1.658160 
# 
# From -- ./inp_files/16054.got.cif
#   From: 2010.03.12/outbox.cif.g09.slc.cpg/sg8_9_cif.got.tgz:16054.got - 2010.03.31 10:45:26.
