data_PCOD8053994
_publ_section_title
;
Structure prediction by ZEFSAII (Michael W. Deem and Ramdas Pophale) SiO2 
 PCOD8053994
Probable space group: C M
;
_chemical_formula_sum "Si O2"
_cell_formula_units_Z 28
_cell_length_a 7.370279
_cell_length_b 33.886068
_cell_length_c 4.860759
_cell_angle_alpha 90.000000
_cell_angle_beta 110.813480
_cell_angle_gamma 90.000000
_cell_volume 1134.752114
_symmetry_space_group_name_H-M "C M"
_symmetry_group_IT_number 8
_symmetry_cell_setting 'monoclinic'
loop_
_space_group_symop_operation_xyz
x,y,z
x,-y,z
1/2+x,1/2+y,z
1/2+x,1/2-y,z
loop_
_atom_site_type_symbol
_atom_site_label
_atom_site_fract_x
_atom_site_fract_y
_atom_site_fract_z
Si Si1 0.926970 0.644297 0.336940
Si Si2 0.546058 0.683810 0.167369
Si Si3 0.886388 0.044593 0.933509
Si Si4 0.002989 0.766508 0.628088
Si Si5 0.018911 0.595962 0.873934
Si Si6 0.645717 0.455500 0.586036
Si Si7 0.162143 0.294536 0.146173
O O1 0.694315 0.647109 0.262390
O O2 0.024906 0.635252 0.684447
O O3 0.993972 0.686134 0.241621
O O4 0.985573 0.608469 0.170059
O O5 0.613557 0.720264 0.404488
O O6 0.322658 0.672555 0.134930
O O7 0.540300 0.697253 0.851130
O O8 0.715836 0.072124 0.949717
O O9 0.976821 0.060883 0.697488
O O10 0.804610 0.000000 0.854343
O O11 0.064952 0.045394 0.237189
O O12 0.774701 0.764043 0.414971
O O13 0.073696 0.726955 0.826641
O O14 0.839349 0.569756 0.682944
O O15 0.698632 0.500000 0.708321
#
# Coordination Sequence:
#
# PCOD8053994 Si02
#       7
#     4   4   4   4   4   4   4
#     4  12  28  46  70 100 149 183 236 273 370 432
#     4  10  26  47  68 101 134 179 221 299 348 444
#     4  10  22  43  73 108 143 189 243 295 347 399
#     4  10  25  47  75  96 135 167 239 294 371 410
#     4  12  26  44  70 105 144 199 232 292 340 442
#     4  10  22  43  71 106 146 188 245 298 341 402
#     4  10  28  48  72 106 133 181 228 311 359 439
#
# _framework density 24.674992
#
# number of rings (size 3 to 8) (size 9 to 14) (size 15 to 20)
#    0.857    0.571    0.000    3.000    6.000    4.571 
#    2.571    5.714    0.000    0.000    0.000    0.000 
#    0.000    0.000    0.000    0.000    0.000    0.000 
#
# Total GULP energy -173447.642772 kJ/mol
# GULP energy per Si atom -12389.117341 kJ/mol
# Density = 2.461883 g / cm^3
# Si number density = 24.674992 Si / 1000 Ang^3
#
#
#
# Elastic Constant Matrix: (Units=GPa)
#
#
# Indices 1 2 3 4 5 6 
#
# 1 76.5505 20.8863 22.6106 0.0000 10.9403 0.0000
# 2 20.8863 45.0747 6.3084 0.0000 5.2100 0.0000
# 3 22.6106 6.3084 103.8145 0.0000 -9.3587 0.0000
# 4 0.0000 0.0000 0.0000 -18.5106 0.0000 -44.4202
# 5 10.9403 5.2100 -9.3587 0.0000 28.1422 0.0000
# 6 0.0000 0.0000 0.0000 -44.4202 0.0000 15.0667
#
#
#
# Elastic Compliance Matrix: (Units=1/GPa)
#
#
# Indices 1 2 3 4 5 6 
#
# 1 0.016952 -0.006538 -0.003897 0.000000 -0.006676 0.000000
# 2 -0.006538 0.025527 -0.000334 0.000000 -0.002295 0.000000
# 3 -0.003897 -0.000334 0.010973 0.000000 0.005226 0.000000
# 4 0.000000 0.000000 0.000000 -0.006690 0.000000 -0.019724
# 5 -0.006676 -0.002295 0.005226 0.000000 0.040292 0.000000
# 6 0.000000 0.000000 0.000000 -0.019724 0.000000 0.008219
#
#
# Mechanical properties :
#
#
# Convention : Reuss Voigt Hill
#
# Bulk Modulus (GPa) = 31.33417 36.11670 33.72544
# Shear Modulus (GPa) = 39.23148 16.64861 27.94004
#
# Velocity S-wave (km/s) = 3.99172 2.60035 3.36865
# Velocity P-wave (km/s) = 5.82850 4.86667 5.36917
#
# Compressibility (1/GPa) = 0.03191404
#
# Stress axis : x y z
#
# Youngs Moduli (GPa) = 58.98949 39.17411 91.13583
#
# Poissons Ratio (x) = 0.25613 0.35512
# Poissons Ratio (y) = 0.38568 0.03045
# Poissons Ratio (z) = 0.22986 0.01309
#
# Static dielectric constant tensor:
#      x y z
#    x 4.391500 0.000000 -0.120650 
#    y 0.000000 4.186800 0.000000 
#    z -0.120650 0.000000 4.545730 
# 
# 
# High freq. dielectric constant tensor:
#      x y z
#    x 1.996130 0.000000 -0.009520 
#    y 0.000000 1.958020 0.000000 
#    z -0.009520 0.000000 1.995940 
# 
# From -- ./inp_files/1916.got.cif
#   From: 2010.03.12/outbox.cif.g09.slc.cpg/sg8_1_cif.got.tgz:1916.got - 2010.03.31 10:45:26.
