data_PCOD8053595
_publ_section_title
;
Structure prediction by ZEFSAII (Michael W. Deem and Ramdas Pophale) SiO2 
 PCOD8053595
Probable space group: C M
;
_chemical_formula_sum "Si O2"
_cell_formula_units_Z 28
_cell_length_a 13.770172
_cell_length_b 10.273846
_cell_length_c 19.820056
_cell_angle_alpha 90.000000
_cell_angle_beta 28.418573
_cell_angle_gamma 90.000000
_cell_volume 1334.447565
_symmetry_space_group_name_H-M "C M"
_symmetry_group_IT_number 8
_symmetry_cell_setting 'monoclinic'
loop_
_space_group_symop_operation_xyz
x,y,z
x,-y,z
1/2+x,1/2+y,z
1/2+x,1/2-y,z
loop_
_atom_site_type_symbol
_atom_site_label
_atom_site_fract_x
_atom_site_fract_y
_atom_site_fract_z
Si Si1 0.962990 0.852810 0.915820
Si Si2 0.999374 0.855571 0.042201
Si Si3 0.225527 0.648075 0.510074
Si Si4 0.166483 0.356904 0.697144
Si Si5 0.022909 0.352628 0.140662
Si Si6 0.038045 0.360485 0.350216
Si Si7 0.595799 0.254478 0.453654
O O1 0.052638 0.754656 0.806713
O O2 0.016947 0.000000 0.859938
O O3 0.069000 0.823330 0.923177
O O4 0.716978 0.837917 0.071173
O O5 0.757918 0.859220 0.183412
O O6 0.070743 0.744220 0.049379
O O7 0.080528 0.000000 0.014885
O O8 0.302393 0.500000 0.454499
O O9 0.111872 0.665491 0.651291
O O10 0.420276 0.741476 0.388821
O O11 0.080513 0.686395 0.536251
O O12 0.088064 0.500000 0.767088
O O13 0.410738 0.356765 0.560338
O O14 0.004772 0.500000 0.123566
O O15 0.816728 0.320650 0.307492
O O16 0.930592 0.500000 0.399855
O O17 0.059266 0.352303 0.418258
#
# Coordination Sequence:
#
# PCOD8053595 Si02
#       7
#     4   4   4   4   4   4   4
#     4  10  22  40  59  81 115 155 189 228 283 341
#     4   9  19  36  57  82 113 150 188 229 281 337
#     4  10  21  36  56  82 113 149 190 234 281 332
#     4  10  23  40  57  83 116 150 191 237 281 330
#     4  10  21  38  61  89 115 144 188 237 282 333
#     4   9  18  33  55  84 115 144 182 231 283 340
#     4  10  20  37  61  85 113 148 188 232 283 337
#
# _framework density 20.982467
#
# number of rings (size 3 to 8) (size 9 to 14) (size 15 to 20)
#    0.000    2.286    0.000    1.714    0.000   11.429 
#    0.000    5.714    0.000    0.000    0.000    0.000 
#    0.000    0.000    0.000    0.000    0.000    0.000 
#
# Total GULP energy -173506.450577 kJ/mol
# GULP energy per Si atom -12393.317898 kJ/mol
# Density = 2.093471 g / cm^3
# Si number density = 20.982467 Si / 1000 Ang^3
#
#
#
# Elastic Constant Matrix: (Units=GPa)
#
#
# Indices 1 2 3 4 5 6 
#
# 1 108.3885 49.4822 19.4314 0.0010 21.9665 0.0003
# 2 49.4822 145.1842 25.4093 -0.0018 17.8087 -0.0010
# 3 19.4314 25.4093 56.1931 0.0007 6.7761 0.0008
# 4 0.0010 -0.0018 0.0007 26.4993 -0.0028 -1.1533
# 5 21.9665 17.8087 6.7761 -0.0028 27.5499 0.0012
# 6 0.0003 -0.0010 0.0008 -1.1533 0.0012 24.5281
#
#
#
# Elastic Compliance Matrix: (Units=1/GPa)
#
#
# Indices 1 2 3 4 5 6 
#
# 1 0.012475 -0.002968 -0.002065 -0.000001 -0.007521 0.000000
# 2 -0.002968 0.008670 -0.002580 0.000001 -0.002604 0.000001
# 3 -0.002065 -0.002580 0.019866 -0.000001 -0.001572 -0.000001
# 4 -0.000001 0.000001 -0.000001 0.037814 0.000005 0.001778
# 5 -0.007521 -0.002604 -0.001572 0.000005 0.044364 -0.000002
# 6 0.000000 0.000001 -0.000001 0.001778 -0.000002 0.040853
#
#
# Mechanical properties :
#
#
# Convention : Reuss Voigt Hill
#
# Bulk Modulus (GPa) = 38.78174 55.37906 47.08040
# Shear Modulus (GPa) = 26.61489 30.07831 28.34660
#
# Velocity S-wave (km/s) = 3.56537 3.79026 3.67954
# Velocity P-wave (km/s) = 5.95586 6.75316 6.36700
#
# Compressibility (1/GPa) = 0.02578533
#
# Stress axis : x y z
#
# Youngs Moduli (GPa) = 80.15764 115.33613 50.33694
#
# Poissons Ratio (x) = 0.34232 0.10395
# Poissons Ratio (y) = 0.23791 0.12988
# Poissons Ratio (z) = 0.16553 0.29760
#
# Static dielectric constant tensor:
#      x y z
#    x 3.822820 -0.000010 0.051180 
#    y -0.000010 3.930790 0.000010 
#    z 0.051180 0.000010 3.588690 
# 
# 
# High freq. dielectric constant tensor:
#      x y z
#    x 1.825430 0.000000 0.007740 
#    y 0.000000 1.828270 0.000000 
#    z 0.007740 0.000000 1.802910 
# 
# From -- ./inp_files/27840.got.cif
#   From: 2010.03.12/outbox.cif.g09.slc.cpg/sg8_14_cif.got.tgz:27840.got - 2010.03.31 10:45:26.
