data_PCOD8053948
_publ_section_title
;
Structure prediction by ZEFSAII (Michael W. Deem and Ramdas Pophale) SiO2 
 PCOD8053948
Probable space group: C M
;
_chemical_formula_sum "Si O2"
_cell_formula_units_Z 32
_cell_length_a 13.353766
_cell_length_b 13.157779
_cell_length_c 18.816508
_cell_angle_alpha 90.000000
_cell_angle_beta 151.503838
_cell_angle_gamma 90.000000
_cell_volume 1577.374066
_symmetry_space_group_name_H-M "C M"
_symmetry_group_IT_number 8
_symmetry_cell_setting 'monoclinic'
loop_
_space_group_symop_operation_xyz
x,y,z
x,-y,z
1/2+x,1/2+y,z
1/2+x,1/2-y,z
loop_
_atom_site_type_symbol
_atom_site_label
_atom_site_fract_x
_atom_site_fract_y
_atom_site_fract_z
Si Si1 0.044130 0.702161 0.106900
Si Si2 0.314173 0.379658 0.402778
Si Si3 0.290287 0.383314 0.140080
Si Si4 0.555207 0.885237 0.652650
Si Si5 0.510891 0.615349 0.991400
Si Si6 0.676706 0.759245 0.599820
Si Si7 0.168443 0.750468 0.436062
Si Si8 0.140355 0.765931 0.936550
O O1 0.194695 0.679746 0.266300
O O2 0.094149 0.625977 0.072645
O O3 0.088112 0.816624 0.105688
O O4 0.802721 0.688998 0.980133
O O5 0.299518 0.500000 0.383963
O O6 0.556285 0.343569 0.549911
O O7 0.207214 0.346862 0.410126
O O8 0.354560 0.500000 0.170569
O O9 0.484919 0.320810 0.292086
O O10 0.227652 0.339168 0.024168
O O11 0.760540 0.872771 0.829277
O O12 0.602368 0.853222 0.601225
O O13 0.376403 0.817014 0.575117
O O14 0.475266 0.000000 0.601363
O O15 0.579739 0.500000 0.048757
O O16 0.618154 0.651222 0.985134
O O17 0.614475 0.789281 0.480833
O O18 0.923944 0.740754 0.762472
#
# Coordination Sequence:
#
# PCOD8053948 Si02
#       8
#     4   4   4   4   4   4   4   4
#     4  11  21  39  59  90 124 160 206 254 305 361
#     4  11  24  41  63  92 125 164 210 257 312 370
#     4  11  23  39  60  89 125 164 209 257 307 367
#     4   9  19  37  61  89 120 157 201 252 307 365
#     4   9  20  38  61  89 121 159 205 252 307 368
#     4  10  22  40  64  88 123 163 200 258 304 369
#     4  11  21  39  61  90 122 161 207 254 307 366
#     4  10  22  41  61  89 126 160 206 254 313 364
#
# _framework density 20.28688
#
# number of rings (size 3 to 8) (size 9 to 14) (size 15 to 20)
#    0.000    1.750    2.500    1.500    0.000    4.000 
#    0.000    0.625    0.000    2.250    0.000    0.000 
#    0.000    0.000    0.000    0.000    0.000    0.000 
#
# Total GULP energy -198415.971541 kJ/mol
# GULP energy per Si atom -12400.998221 kJ/mol
# Density = 2.024071 g / cm^3
# Si number density = 20.286880 Si / 1000 Ang^3
#
#
#
# Elastic Constant Matrix: (Units=GPa)
#
#
# Indices 1 2 3 4 5 6 
#
# 1 81.4158 23.7835 19.0647 -0.0027 3.3887 -0.0013
# 2 23.7835 119.3262 37.2278 0.0052 -8.5596 0.0009
# 3 19.0647 37.2278 74.8890 0.0292 4.9240 0.0078
# 4 -0.0027 0.0052 0.0292 25.1042 0.0074 -0.5057
# 5 3.3887 -8.5596 4.9240 0.0074 38.7486 0.0006
# 6 -0.0013 0.0009 0.0078 -0.5057 0.0006 16.7081
#
#
#
# Elastic Compliance Matrix: (Units=1/GPa)
#
#
# Indices 1 2 3 4 5 6 
#
# 1 0.013483 -0.002060 -0.002321 0.000005 -0.001339 0.000002
# 2 -0.002060 0.010553 -0.004928 0.000002 0.003138 0.000001
# 3 -0.002321 -0.004928 0.016591 -0.000018 -0.002994 -0.000008
# 4 0.000005 0.000002 -0.000018 0.039858 -0.000005 0.001206
# 5 -0.001339 0.003138 -0.002994 -0.000005 0.026998 0.000000
# 6 0.000002 0.000001 -0.000008 0.001206 0.000000 0.059888
#
#
# Mechanical properties :
#
#
# Convention : Reuss Voigt Hill
#
# Bulk Modulus (GPa) = 45.43242 48.42034 46.92638
# Shear Modulus (GPa) = 25.86314 29.14917 27.50615
#
# Velocity S-wave (km/s) = 3.57441 3.79469 3.68619
# Velocity P-wave (km/s) = 6.28321 6.56652 6.42643
#
# Compressibility (1/GPa) = 0.02201071
#
# Stress axis : x y z
#
# Youngs Moduli (GPa) = 74.16511 94.75561 60.27516
#
# Poissons Ratio (x) = 0.19515 0.13988
# Poissons Ratio (y) = 0.15274 0.29705
# Poissons Ratio (z) = 0.17211 0.46697
#
# Static dielectric constant tensor:
#      x y z
#    x 3.903510 0.000000 0.157190 
#    y 0.000000 3.491410 0.000000 
#    z 0.157190 0.000000 3.778890 
# 
# 
# High freq. dielectric constant tensor:
#      x y z
#    x 1.804800 0.000000 0.006610 
#    y 0.000000 1.774130 0.000000 
#    z 0.006610 0.000000 1.796370 
# 
# From -- ./inp_files/17595.got.cif
#   From: 2010.03.12/outbox.cif.g09.slc.cpg/sg8_9_cif.got.tgz:17595.got - 2010.03.31 10:45:26.
