data_PCOD8054924
_publ_section_title
;
Structure prediction by ZEFSAII (Michael W. Deem and Ramdas Pophale) SiO2 
 PCOD8054924
Probable space group: C C
;
_chemical_formula_sum "Si O2"
_cell_formula_units_Z 32
_cell_length_a 28.576711
_cell_length_b 11.044624
_cell_length_c 16.997074
_cell_angle_alpha 90.000000
_cell_angle_beta 162.507285
_cell_angle_gamma 90.000000
_cell_volume 1612.515787
_symmetry_space_group_name_H-M "C C"
_symmetry_group_IT_number 9
_symmetry_cell_setting 'monoclinic'
loop_
_space_group_symop_operation_xyz
x,y,z
x,-y,1/2+z
1/2+x,1/2+y,z
1/2+x,1/2-y,1/2+z
loop_
_atom_site_type_symbol
_atom_site_label
_atom_site_fract_x
_atom_site_fract_y
_atom_site_fract_z
Si Si1 0.695590 0.740481 0.062950
Si Si2 0.698731 0.408443 0.727610
Si Si3 0.983928 0.437224 0.667393
Si Si4 0.273319 0.255814 0.763933
Si Si5 0.688677 0.151952 0.964165
Si Si6 0.528346 0.330135 0.601522
Si Si7 0.541688 0.353240 0.004643
Si Si8 0.056058 0.091700 0.705532
O O1 0.708379 0.671559 0.165395
O O2 0.847451 0.821496 0.288397
O O3 0.548187 0.832726 0.829063
O O4 0.679580 0.642776 0.966483
O O5 0.638935 0.325665 0.702737
O O6 0.576863 0.517591 0.520751
O O7 0.866974 0.466625 0.020754
O O8 0.883892 0.365675 0.439488
O O9 0.135061 0.511449 0.880333
O O10 0.183738 0.277031 0.538903
O O11 0.143252 0.249058 0.623804
O O12 0.381931 0.372406 0.954117
O O13 0.562764 0.212297 0.706739
O O14 0.859039 0.166404 0.200047
O O15 0.564354 0.447515 0.712487
O O16 0.588686 0.350647 0.171877
#
# Coordination Sequence:
#
# PCOD8054924 Si02
#       8
#     4   4   4   4   4   4   4   4
#     4  11  22  41  69  86 125 167 202 252 308 362
#     4  10  22  40  58  93 123 158 209 254 301 364
#     4  10  21  40  63  88 123 161 202 256 298 355
#     4   9  20  38  65  84 118 162 207 243 310 357
#     4  11  22  38  64  89 127 163 200 254 306 364
#     4  11  24  38  61  94 129 158 207 254 304 365
#     4   9  20  39  62  89 122 158 204 257 302 360
#     4   9  21  40  62  91 119 165 203 254 305 361
#
# _framework density 19.844767000000001
#
# number of rings (size 3 to 8) (size 9 to 14) (size 15 to 20)
#    0.000    2.000    1.250    2.250    5.250    4.000 
#    0.000    3.750    2.750    0.000    0.000    0.000 
#    0.000    0.000    0.000    0.000    0.000    0.000 
#
# Total GULP energy -198311.014333 kJ/mol
# GULP energy per Si atom -12394.438396 kJ/mol
# Density = 1.979960 g / cm^3
# Si number density = 19.844767 Si / 1000 Ang^3
#
#
#
# Elastic Constant Matrix: (Units=GPa)
#
#
# Indices 1 2 3 4 5 6 
#
# 1 88.2560 48.3436 44.4488 0.0000 13.5255 0.0000
# 2 48.3436 86.4254 43.6174 0.0000 -2.7591 0.0000
# 3 44.4488 43.6174 100.3362 0.0000 1.6477 0.0000
# 4 0.0000 0.0000 0.0000 36.3279 0.0000 4.4072
# 5 13.5255 -2.7591 1.6477 0.0000 27.9416 0.0000
# 6 0.0000 0.0000 0.0000 4.4072 0.0000 33.7933
#
#
#
# Elastic Compliance Matrix: (Units=1/GPa)
#
#
# Indices 1 2 3 4 5 6 
#
# 1 0.020526 -0.009375 -0.004844 0.000000 -0.010576 0.000000
# 2 -0.009375 0.019200 -0.004303 0.000000 0.006688 0.000000
# 3 -0.004844 -0.004303 0.013965 0.000000 0.001096 0.000000
# 4 0.000000 0.000000 0.000000 0.027970 0.000000 -0.003648
# 5 -0.010576 0.006688 0.001096 0.000000 0.041504 0.000000
# 6 0.000000 0.000000 0.000000 -0.003648 0.000000 0.030067
#
#
# Mechanical properties :
#
#
# Convention : Reuss Voigt Hill
#
# Bulk Modulus (GPa) = 60.07052 60.87080 60.47066
# Shear Modulus (GPa) = 25.53294 28.85306 27.19300
#
# Velocity S-wave (km/s) = 3.59086 3.81719 3.70575
# Velocity P-wave (km/s) = 6.89408 7.08294 6.98914
#
# Compressibility (1/GPa) = 0.01664710
#
# Stress axis : x y z
#
# Youngs Moduli (GPa) = 48.71809 52.08385 71.60683
#
# Poissons Ratio (x) = 0.48826 0.34688
# Poissons Ratio (y) = 0.45671 0.30815
# Poissons Ratio (z) = 0.23600 0.22413
#
# Static dielectric constant tensor:
#      x y z
#    x 3.664180 0.000000 0.179200 
#    y 0.000000 3.618850 0.000000 
#    z 0.179200 0.000000 3.668730 
# 
# 
# High freq. dielectric constant tensor:
#      x y z
#    x 1.755890 0.000000 0.012610 
#    y 0.000000 1.774750 0.000000 
#    z 0.012610 0.000000 1.781030 
# 
# From -- ./inp_files/16141.got.cif
#   From: 2010.06.25/outbox.cif.g09.slc.cpg/sg9_9_cif.got.tgz:16141.got - 2010.06.27 21:40:51.
