data_PCOD8054391
_publ_section_title
;
Structure prediction by ZEFSAII (Michael W. Deem and Ramdas Pophale) SiO2 
 PCOD8054391
Probable space group: C C
;
_chemical_formula_sum "Si O2"
_cell_formula_units_Z 32
_cell_length_a 10.706464
_cell_length_b 11.887239
_cell_length_c 12.605865
_cell_angle_alpha 90.000000
_cell_angle_beta 77.539897
_cell_angle_gamma 90.000000
_cell_volume 1566.564042
_symmetry_space_group_name_H-M "C C"
_symmetry_group_IT_number 9
_symmetry_cell_setting 'monoclinic'
loop_
_space_group_symop_operation_xyz
x,y,z
x,-y,1/2+z
1/2+x,1/2+y,z
1/2+x,1/2-y,1/2+z
loop_
_atom_site_type_symbol
_atom_site_label
_atom_site_fract_x
_atom_site_fract_y
_atom_site_fract_z
Si Si1 0.501190 0.687491 0.504280
Si Si2 0.088117 0.396929 0.911358
Si Si3 0.248200 0.524737 0.196666
Si Si4 0.879723 0.271184 0.836071
Si Si5 0.703559 0.800940 0.093322
Si Si6 0.506845 0.569317 0.704303
Si Si7 0.649685 0.625721 0.268776
Si Si8 0.681689 0.122223 0.994429
O O1 0.352014 0.714250 0.538458
O O2 0.537230 0.581491 0.573022
O O3 0.547667 0.664726 0.376261
O O4 0.571982 0.791712 0.545670
O O5 0.162497 0.395185 0.786017
O O6 0.945329 0.352386 0.911223
O O7 0.137998 0.312601 0.991545
O O8 0.102384 0.522670 0.952634
O O9 0.184800 0.403707 0.180101
O O10 0.381010 0.509192 0.234908
O O11 0.263970 0.585345 0.080752
O O12 0.983675 0.195497 0.754358
O O13 0.796528 0.356478 0.778693
O O14 0.783454 0.178350 0.898605
O O15 0.635067 0.695950 0.162679
O O16 0.621014 0.505125 0.745310
#
# Coordination Sequence:
#
# PCOD8054391 Si02
#       8
#     4   4   4   4   4   4   4   4
#     4  10  21  42  65  93 133 171 214 276 328 383
#     4  11  22  40  67  95 123 175 218 269 328 387
#     4  10  19  37  67  89 124 177 216 263 338 377
#     4  11  23  44  64  96 135 171 217 275 322 395
#     4  10  22  41  64  98 127 168 227 265 321 400
#     4  11  22  39  67  90 131 174 220 269 326 384
#     4  11  23  41  67  94 133 174 215 273 332 380
#     4  10  22  40  63  91 130 172 215 270 331 386
#
# _framework density 20.426870000000001
#
# number of rings (size 3 to 8) (size 9 to 14) (size 15 to 20)
#    0.000    1.500    3.750    2.250    5.250    0.000 
#    6.750    0.000    2.750    0.000    0.000    0.000 
#    0.000    0.000    0.000    0.000    0.000    0.000 
#
# Total GULP energy -198275.847692 kJ/mol
# GULP energy per Si atom -12392.240481 kJ/mol
# Density = 2.038038 g / cm^3
# Si number density = 20.426870 Si / 1000 Ang^3
#
#
#
# Elastic Constant Matrix: (Units=GPa)
#
#
# Indices 1 2 3 4 5 6 
#
# 1 101.1602 61.8326 41.1770 0.0000 16.8970 0.0000
# 2 61.8326 84.1256 35.9449 0.0000 1.1875 0.0000
# 3 41.1770 35.9449 103.4212 0.0000 -2.0050 0.0000
# 4 0.0000 0.0000 0.0000 24.9015 0.0000 6.5618
# 5 16.8970 1.1875 -2.0050 0.0000 27.8774 0.0000
# 6 0.0000 0.0000 0.0000 6.5618 0.0000 37.9379
#
#
#
# Elastic Compliance Matrix: (Units=1/GPa)
#
#
# Indices 1 2 3 4 5 6 
#
# 1 0.022984 -0.014890 -0.004240 0.000000 -0.013602 0.000000
# 2 -0.014890 0.023631 -0.002132 0.000000 0.007865 0.000000
# 3 -0.004240 -0.002132 0.012167 0.000000 0.003536 0.000000
# 4 0.000000 0.000000 0.000000 0.042076 0.000000 -0.007277
# 5 -0.013602 0.007865 0.003536 0.000000 0.044035 0.000000
# 6 0.000000 0.000000 0.000000 -0.007277 0.000000 0.027618
#
#
# Mechanical properties :
#
#
# Convention : Reuss Voigt Hill
#
# Bulk Modulus (GPa) = 61.50685 62.95733 62.23209
# Shear Modulus (GPa) = 22.68040 28.12686 25.40363
#
# Velocity S-wave (km/s) = 3.33576 3.71476 3.53035
# Velocity P-wave (km/s) = 6.70914 7.02047 6.86657
#
# Compressibility (1/GPa) = 0.01625835
#
# Stress axis : x y z
#
# Youngs Moduli (GPa) = 43.50790 42.31675 82.19031
#
# Poissons Ratio (x) = 0.63010 0.34846
# Poissons Ratio (y) = 0.64783 0.17526
# Poissons Ratio (z) = 0.18446 0.09023
#
# Static dielectric constant tensor:
#      x y z
#    x 3.648710 0.000000 0.108530 
#    y 0.000000 3.688940 0.000000 
#    z 0.108530 0.000000 3.801150 
# 
# 
# High freq. dielectric constant tensor:
#      x y z
#    x 1.783670 0.000000 0.011500 
#    y 0.000000 1.788720 0.000000 
#    z 0.011500 0.000000 1.812270 
# 
# From -- ./inp_files/16145.got.cif
#   From: 2010.06.25/outbox.cif.g09.slc.cpg/sg9_9_cif.got.tgz:16145.got - 2010.06.27 21:40:51.
