data_PCOD8054793
_publ_section_title
;
Structure prediction by ZEFSAII (Michael W. Deem and Ramdas Pophale) SiO2 
 PCOD8054793
Probable space group: C C
;
_chemical_formula_sum "Si O2"
_cell_formula_units_Z 32
_cell_length_a 16.033349
_cell_length_b 19.122564
_cell_length_c 5.275035
_cell_angle_alpha 90.000000
_cell_angle_beta 93.513524
_cell_angle_gamma 90.000000
_cell_volume 1614.279121
_symmetry_space_group_name_H-M "C C"
_symmetry_group_IT_number 9
_symmetry_cell_setting 'monoclinic'
loop_
_space_group_symop_operation_xyz
x,y,z
x,-y,1/2+z
1/2+x,1/2+y,z
1/2+x,1/2-y,1/2+z
loop_
_atom_site_type_symbol
_atom_site_label
_atom_site_fract_x
_atom_site_fract_y
_atom_site_fract_z
Si Si1 0.768190 0.542313 0.444560
Si Si2 0.025933 0.268616 0.951344
Si Si3 0.501882 0.310882 0.947682
Si Si4 0.073871 0.959052 0.899784
Si Si5 0.333441 0.195171 0.416304
Si Si6 0.809515 0.224099 0.412858
Si Si7 0.161369 0.381304 0.877905
Si Si8 0.091033 0.483221 0.531056
O O1 0.793112 0.508336 0.717546
O O2 0.670778 0.560895 0.427135
O O3 0.817923 0.613342 0.415749
O O4 0.044325 0.223601 0.702614
O O5 0.932621 0.297499 0.927859
O O6 0.090541 0.331752 0.979630
O O7 0.041410 0.222385 0.203151
O O8 0.519146 0.392260 0.951471
O O9 0.402846 0.303626 0.936721
O O10 0.050792 0.985655 0.614942
O O11 0.293327 0.229861 0.659331
O O12 0.291069 0.230005 0.160121
O O13 0.750134 0.156363 0.392344
O O14 0.131565 0.406447 0.586290
O O15 0.164126 0.455542 0.031383
O O16 0.035930 0.490858 0.265733
#
# Coordination Sequence:
#
# PCOD8054793 Si02
#       8
#     4   4   4   4   4   4   4   4
#     4  10  21  37  58  82 112 145 191 230 276 336
#     4  10  23  36  62  81 121 138 199 219 293 322
#     4  10  22  41  53  90 111 153 178 247 266 349
#     4  10  21  37  58  82 112 145 191 230 276 336
#     4  10  22  41  53  90 111 153 178 247 266 349
#     4  10  23  36  62  81 121 138 199 219 293 322
#     4  10  22  38  60  88 106 162 172 246 264 348
#     4   8  20  36  52  80 120 132 192 226 264 332
#
# _framework density 19.823087999999998
#
# number of rings (size 3 to 8) (size 9 to 14) (size 15 to 20)
#    0.750    1.500    0.000    1.500    7.000    0.000 
#    4.500    0.000    0.000    0.000    0.000    0.000 
#    0.000    0.000    0.000    0.000    0.000    0.000 
#
# Total GULP energy -198237.104539 kJ/mol
# GULP energy per Si atom -12389.819034 kJ/mol
# Density = 1.977797 g / cm^3
# Si number density = 19.823088 Si / 1000 Ang^3
#
#
#
# Elastic Constant Matrix: (Units=GPa)
#
#
# Indices 1 2 3 4 5 6 
#
# 1 30.0018 28.4628 14.1540 0.0000 -5.8731 0.0000
# 2 28.4628 105.9924 23.8476 0.0000 -9.5609 0.0000
# 3 14.1540 23.8476 148.9264 0.0000 -12.3060 0.0000
# 4 0.0000 0.0000 0.0000 34.6395 0.0000 -4.5310
# 5 -5.8731 -9.5609 -12.3060 0.0000 10.7560 0.0000
# 6 0.0000 0.0000 0.0000 -4.5310 0.0000 19.4492
#
#
#
# Elastic Compliance Matrix: (Units=1/GPa)
#
#
# Indices 1 2 3 4 5 6 
#
# 1 0.047368 -0.011087 -0.001550 0.000000 0.014235 0.000000
# 2 -0.011087 0.012984 -0.000632 0.000000 0.004765 0.000000
# 3 -0.001550 -0.000632 0.007562 0.000000 0.007243 0.000000
# 4 0.000000 0.000000 0.000000 0.029776 0.000000 0.006937
# 5 0.014235 0.004765 0.007243 0.000000 0.113266 0.000000
# 6 0.000000 0.000000 0.000000 0.006937 0.000000 0.053032
#
#
# Mechanical properties :
#
#
# Convention : Reuss Voigt Hill
#
# Bulk Modulus (GPa) = 24.16895 46.42771 35.29833
# Shear Modulus (GPa) = 16.43019 27.53268 21.98144
#
# Velocity S-wave (km/s) = 2.88208 3.73086 3.33360
# Velocity P-wave (km/s) = 4.82639 6.48313 5.71511
#
# Compressibility (1/GPa) = 0.04137541
#
# Stress axis : x y z
#
# Youngs Moduli (GPa) = 21.11141 77.01886 132.24463
#
# Poissons Ratio (x) = 0.85392 0.20500
# Poissons Ratio (y) = 0.23406 0.08354
# Poissons Ratio (z) = 0.03273 0.04865
#
# Static dielectric constant tensor:
#      x y z
#    x 3.254020 0.000000 -0.047420 
#    y 0.000000 3.528600 0.000000 
#    z -0.047420 0.000000 4.155420 
# 
# 
# High freq. dielectric constant tensor:
#      x y z
#    x 1.740950 0.000000 -0.008240 
#    y 0.000000 1.780120 0.000000 
#    z -0.008240 0.000000 1.797160 
# 
# From -- ./inp_files/2527.got.cif
#   From: 2010.06.25/outbox.cif.g09.slc.cpg/sg9_2_cif.got.tgz:2527.got - 2010.06.27 21:40:51.
