data_PCOD8054704
_publ_section_title
;
Structure prediction by ZEFSAII (Michael W. Deem and Ramdas Pophale) SiO2 
 PCOD8054704
Probable space group: C C
;
_chemical_formula_sum "Si O2"
_cell_formula_units_Z 32
_cell_length_a 13.955883
_cell_length_b 9.679394
_cell_length_c 14.765933
_cell_angle_alpha 90.000000
_cell_angle_beta 40.199141
_cell_angle_gamma 90.000000
_cell_volume 1287.438388
_symmetry_space_group_name_H-M "C C"
_symmetry_group_IT_number 9
_symmetry_cell_setting 'monoclinic'
loop_
_space_group_symop_operation_xyz
x,y,z
x,-y,1/2+z
1/2+x,1/2+y,z
1/2+x,1/2-y,1/2+z
loop_
_atom_site_type_symbol
_atom_site_label
_atom_site_fract_x
_atom_site_fract_y
_atom_site_fract_z
Si Si1 0.633940 0.931216 0.577360
Si Si2 0.586891 0.521120 0.078009
Si Si3 0.399888 0.955808 0.386615
Si Si4 0.859649 0.889168 0.133031
Si Si5 0.056203 0.343626 0.432250
Si Si6 0.305982 0.697202 0.096293
Si Si7 0.339955 0.653956 0.364416
Si Si8 0.631870 0.721274 0.881978
O O1 0.571859 0.891830 0.524200
O O2 0.705795 0.800211 0.577667
O O3 0.497461 0.992242 0.732814
O O4 0.773472 0.037933 0.478229
O O5 0.468437 0.401190 0.142536
O O6 0.505004 0.624921 0.206680
O O7 0.742071 0.462395 0.006429
O O8 0.623177 0.589302 0.953631
O O9 0.484704 0.965250 0.421407
O O10 0.347994 0.798784 0.408298
O O11 0.715232 0.807791 0.273419
O O12 0.815985 0.038134 0.124455
O O13 0.950109 0.791130 0.998360
O O14 0.230009 0.802618 0.221897
O O15 0.468448 0.761482 0.963559
O O16 0.214939 0.654493 0.374765
#
# Coordination Sequence:
#
# PCOD8054704 Si02
#       8
#     4   4   4   4   4   4   4   4
#     4  12  26  46  71 103 149 189 234 298 359 429
#     4  10  22  43  72 106 139 182 241 298 354 414
#     4  11  25  43  73 110 134 186 248 292 359 425
#     4  11  24  48  70 103 147 190 232 292 356 435
#     4  12  27  47  73 101 150 193 235 292 361 431
#     4  11  23  46  69 106 145 184 238 293 358 420
#     4  11  21  44  74 102 136 184 241 306 345 414
#     4  10  20  41  74 103 136 180 237 297 348 412
#
# _framework density 24.855557999999998
#
# number of rings (size 3 to 8) (size 9 to 14) (size 15 to 20)
#    0.000    1.000    5.000    2.250    5.250    1.000 
#    0.000    0.000    0.000    0.000    0.000    0.000 
#    0.000    0.000    0.000    0.000    0.000    0.000 
#
# Total GULP energy -198294.162616 kJ/mol
# GULP energy per Si atom -12393.385163 kJ/mol
# Density = 2.479899 g / cm^3
# Si number density = 24.855558 Si / 1000 Ang^3
#
#
#
# Elastic Constant Matrix: (Units=GPa)
#
#
# Indices 1 2 3 4 5 6 
#
# 1 151.7679 -5.7769 65.7824 0.0000 -20.2519 0.0000
# 2 -5.7769 43.5886 31.8727 0.0000 -3.7034 0.0000
# 3 65.7824 31.8727 147.5749 0.0000 -30.6967 0.0000
# 4 0.0000 0.0000 0.0000 33.1168 0.0000 0.1589
# 5 -20.2519 -3.7034 -30.6967 0.0000 45.3540 0.0000
# 6 0.0000 0.0000 0.0000 0.1589 0.0000 20.4093
#
#
#
# Elastic Compliance Matrix: (Units=1/GPa)
#
#
# Indices 1 2 3 4 5 6 
#
# 1 0.009015 0.004816 -0.004818 0.000000 0.001158 0.000000
# 2 0.004816 0.029981 -0.008921 0.000000 -0.001440 0.000000
# 3 -0.004818 -0.008921 0.011931 0.000000 0.005196 0.000000
# 4 0.000000 0.000000 0.000000 0.030197 0.000000 -0.000235
# 5 0.001158 -0.001440 0.005196 0.000000 0.025965 0.000000
# 6 0.000000 0.000000 0.000000 -0.000235 0.000000 0.048999
#
#
# Mechanical properties :
#
#
# Convention : Reuss Voigt Hill
#
# Bulk Modulus (GPa) = 30.22870 58.52088 44.37479
# Shear Modulus (GPa) = 27.03252 36.51292 31.77272
#
# Velocity S-wave (km/s) = 3.30143 3.83692 3.57920
# Velocity P-wave (km/s) = 5.16921 6.57455 5.91378
#
# Compressibility (1/GPa) = 0.03308114
#
# Stress axis : x y z
#
# Youngs Moduli (GPa) = 110.92530 33.35418 83.81278
#
# Poissons Ratio (x) = -0.16063 0.40379
# Poissons Ratio (y) = -0.53422 0.74773
# Poissons Ratio (z) = 0.53442 0.29757
#
# Static dielectric constant tensor:
#      x y z
#    x 5.172700 0.000000 -0.377620 
#    y 0.000000 4.078590 0.000000 
#    z -0.377620 0.000000 4.596240 
# 
# 
# High freq. dielectric constant tensor:
#      x y z
#    x 2.009610 0.000000 -0.012260 
#    y 0.000000 1.959450 0.000000 
#    z -0.012260 0.000000 1.996300 
# 
# From -- ./inp_files/25908.got.cif
#   From: 2010.06.25/outbox.cif.g09.slc.cpg/sg9_13_cif.got.tgz:25908.got - 2010.06.27 21:40:51.
