data_PCOD8054449
_publ_section_title
;
Structure prediction by ZEFSAII (Michael W. Deem and Ramdas Pophale) SiO2 
 PCOD8054449
Probable space group: C C
;
_chemical_formula_sum "Si O2"
_cell_formula_units_Z 24
_cell_length_a 21.718447
_cell_length_b 5.071131
_cell_length_c 13.689663
_cell_angle_alpha 90.000000
_cell_angle_beta 141.928094
_cell_angle_gamma 90.000000
_cell_volume 929.747562
_symmetry_space_group_name_H-M "C C"
_symmetry_group_IT_number 9
_symmetry_cell_setting 'monoclinic'
loop_
_space_group_symop_operation_xyz
x,y,z
x,-y,1/2+z
1/2+x,1/2+y,z
1/2+x,1/2-y,1/2+z
loop_
_atom_site_type_symbol
_atom_site_label
_atom_site_fract_x
_atom_site_fract_y
_atom_site_fract_z
Si Si1 0.608960 0.952474 0.855300
Si Si2 0.047035 0.538220 0.069544
Si Si3 0.931626 0.038301 0.864180
Si Si4 0.805954 0.166290 0.050056
Si Si5 0.255835 0.684413 0.776985
Si Si6 0.173966 0.950477 0.023145
O O1 0.534269 0.004387 0.671441
O O2 0.720360 0.943037 0.948563
O O3 0.606170 0.182367 0.936249
O O4 0.594106 0.673150 0.889178
O O5 0.160914 0.500096 0.178916
O O6 0.974302 0.333371 0.924020
O O7 0.014932 0.838631 0.008797
O O8 0.826059 0.020510 0.790325
O O9 0.907479 0.954072 0.722278
O O10 0.766944 0.419789 0.063799
O O11 0.819444 0.250801 0.953837
O O12 0.219072 0.962399 0.684027
#
# Coordination Sequence:
#
# PCOD8054449 Si02
#       6
#     4   4   4   4   4   4
#     4   9  20  42  69  98 146 187 230 312 348 426
#     4  11  27  46  74 107 152 189 254 305 361 450
#     4  12  25  49  69 113 148 187 256 312 350 455
#     4   9  23  44  72 104 148 185 250 301 357 444
#     4  11  24  51  77 105 150 216 225 310 399 414
#     4  10  19  42  73 101 138 194 245 290 363 441
#
# _framework density 25.813457
#
# number of rings (size 3 to 8) (size 9 to 14) (size 15 to 20)
#    1.000    0.667    1.667    2.000    0.000    4.000 
#   18.000    0.000    0.000    0.000    0.000    0.000 
#    0.000    0.000    0.000    0.000    0.000    0.000 
#
# Total GULP energy -148689.391388 kJ/mol
# GULP energy per Si atom -12390.782616 kJ/mol
# Density = 2.575470 g / cm^3
# Si number density = 25.813457 Si / 1000 Ang^3
#
#
#
# Elastic Constant Matrix: (Units=GPa)
#
#
# Indices 1 2 3 4 5 6 
#
# 1 65.2179 0.7636 36.4716 0.0000 -10.4581 -0.0001
# 2 0.7636 129.2764 24.3300 -0.0002 -8.0635 -0.0003
# 3 36.4716 24.3300 125.6039 -0.0001 -33.2961 -0.0001
# 4 0.0000 -0.0002 -0.0001 32.1415 0.0000 4.1360
# 5 -10.4581 -8.0635 -33.2961 0.0000 59.7626 0.0000
# 6 -0.0001 -0.0003 -0.0001 4.1360 0.0000 29.3399
#
#
#
# Elastic Compliance Matrix: (Units=1/GPa)
#
#
# Indices 1 2 3 4 5 6 
#
# 1 0.018418 0.000936 -0.005446 0.000000 0.000315 0.000000
# 2 0.000936 0.008079 -0.001765 0.000000 0.000270 0.000000
# 3 -0.005446 -0.001765 0.011227 0.000000 0.005064 0.000000
# 4 0.000000 0.000000 0.000000 0.031687 0.000000 -0.004467
# 5 0.000315 0.000270 0.005064 0.000000 0.019646 0.000000
# 6 0.000000 0.000000 0.000000 -0.004467 0.000000 0.034713
#
#
# Mechanical properties :
#
#
# Convention : Reuss Voigt Hill
#
# Bulk Modulus (GPa) = 39.72304 49.24764 44.48534
# Shear Modulus (GPa) = 34.55147 41.48432 38.01790
#
# Velocity S-wave (km/s) = 3.66253 4.01319 3.84186
# Velocity P-wave (km/s) = 5.77126 6.37134 6.07871
#
# Compressibility (1/GPa) = 0.02517431
#
# Stress axis : x y z
#
# Youngs Moduli (GPa) = 54.29401 123.77966 89.07021
#
# Poissons Ratio (x) = -0.11583 0.48506
# Poissons Ratio (y) = -0.05081 0.15720
# Poissons Ratio (z) = 0.29567 0.21846
#
# Static dielectric constant tensor:
#      x y z
#    x 4.599780 0.000000 -0.364270 
#    y 0.000000 4.248740 0.000000 
#    z -0.364270 0.000000 4.712830 
# 
# 
# High freq. dielectric constant tensor:
#      x y z
#    x 2.016900 0.000000 -0.018480 
#    y 0.000000 2.021630 0.000000 
#    z -0.018480 0.000000 2.036360 
# 
# From -- ./inp_files/27627.got.cif
#   From: 2010.06.25/outbox.cif.g09.slc.cpg/sg9_14_cif.got.tgz:27627.got - 2010.06.27 21:40:51.
