data_PCOD8054522
_publ_section_title
;
Structure prediction by ZEFSAII (Michael W. Deem and Ramdas Pophale) SiO2 
 PCOD8054522
Probable space group: C C
;
_chemical_formula_sum "Si O2"
_cell_formula_units_Z 32
_cell_length_a 7.619785
_cell_length_b 13.075238
_cell_length_c 18.402165
_cell_angle_alpha 90.000000
_cell_angle_beta 90.063469
_cell_angle_gamma 90.000000
_cell_volume 1833.415819
_symmetry_space_group_name_H-M "C C"
_symmetry_group_IT_number 9
_symmetry_cell_setting 'monoclinic'
loop_
_space_group_symop_operation_xyz
x,y,z
x,-y,1/2+z
1/2+x,1/2+y,z
1/2+x,1/2-y,1/2+z
loop_
_atom_site_type_symbol
_atom_site_label
_atom_site_fract_x
_atom_site_fract_y
_atom_site_fract_z
Si Si1 0.800900 0.818901 0.523320
Si Si2 0.310085 0.477620 0.931134
Si Si3 0.298128 0.441375 0.268705
Si Si4 0.483435 0.800324 0.287147
Si Si5 0.097104 0.788015 0.285670
Si Si6 0.600748 0.788123 0.941847
Si Si7 0.987881 0.777455 0.942906
Si Si8 0.805465 0.148415 0.193267
O O1 0.618383 0.764253 0.503724
O O2 0.806419 0.833364 0.608370
O O3 0.960930 0.745034 0.501662
O O4 0.819267 0.928361 0.485491
O O5 0.316814 0.514068 0.848787
O O6 0.130658 0.411693 0.943400
O O7 0.477313 0.402024 0.944196
O O8 0.111421 0.386872 0.257072
O O9 0.453958 0.362719 0.252065
O O10 0.314359 0.528235 0.208204
O O11 0.285443 0.845696 0.296132
O O12 0.556387 0.759693 0.364287
O O13 0.473383 0.705275 0.230264
O O14 0.029367 0.744439 0.362635
O O15 0.126982 0.693837 0.229528
O O16 0.790262 0.734362 0.957241
#
# Coordination Sequence:
#
# PCOD8054522 Si02
#       8
#     4   4   4   4   4   4   4   4
#     4  12  22  40  60  86 127 156 179 263 306 307
#     4  10  20  36  63  93 103 153 211 224 284 364
#     4  12  18  40  67  81 117 159 197 240 296 342
#     4   9  19  39  59  85 115 153 198 241 281 359
#     4   9  19  39  59  85 115 153 198 241 281 359
#     4   9  19  39  60  87 115 148 208 234 278 370
#     4   9  19  39  60  87 115 148 208 234 278 370
#     4  10  24  40  54  94 125 140 209 249 276 363
#
# _framework density 17.453761
#
# number of rings (size 3 to 8) (size 9 to 14) (size 15 to 20)
#    1.500    0.500    5.000    0.000    0.000    2.000 
#    9.000    0.000    0.000    0.000    0.000    0.000 
#    0.000    0.000    0.000    0.000    0.000    0.000 
#
# Total GULP energy -198257.172670 kJ/mol
# GULP energy per Si atom -12391.073292 kJ/mol
# Density = 1.741404 g / cm^3
# Si number density = 17.453761 Si / 1000 Ang^3
#
#
#
# Elastic Constant Matrix: (Units=GPa)
#
#
# Indices 1 2 3 4 5 6 
#
# 1 44.1996 1.1425 15.4984 0.0000 -2.5755 0.0000
# 2 1.1425 54.8423 11.7953 0.0000 -1.2045 0.0000
# 3 15.4984 11.7953 81.4949 0.0000 -2.3390 0.0000
# 4 0.0000 0.0000 0.0000 25.4993 0.0000 -2.5208
# 5 -2.5755 -1.2045 -2.3390 0.0000 9.2807 0.0000
# 6 0.0000 0.0000 0.0000 -2.5208 0.0000 33.1405
#
#
#
# Elastic Compliance Matrix: (Units=1/GPa)
#
#
# Indices 1 2 3 4 5 6 
#
# 1 0.024553 0.000602 -0.004592 0.000000 0.005735 0.000000
# 2 0.000602 0.018864 -0.002790 0.000000 0.001912 0.000000
# 3 -0.004592 -0.002790 0.013599 0.000000 0.001791 0.000000
# 4 0.000000 0.000000 0.000000 0.039514 0.000000 0.003006
# 5 0.005735 0.001912 0.001791 0.000000 0.110041 0.000000
# 6 0.000000 0.000000 0.000000 0.003006 0.000000 0.030403
#
#
# Mechanical properties :
#
#
# Convention : Reuss Voigt Hill
#
# Bulk Modulus (GPa) = 23.01150 26.37881 24.69515
# Shear Modulus (GPa) = 18.86655 23.72414 21.29534
#
# Velocity S-wave (km/s) = 3.29134 3.69081 3.49678
# Velocity P-wave (km/s) = 5.25897 5.77140 5.52114
#
# Compressibility (1/GPa) = 0.04345653
#
# Stress axis : x y z
#
# Youngs Moduli (GPa) = 40.72751 53.01214 73.53363
#
# Poissons Ratio (x) = -0.03192 0.33767
# Poissons Ratio (y) = -0.02452 0.20515
# Poissons Ratio (z) = 0.18702 0.14790
#
# Static dielectric constant tensor:
#      x y z
#    x 3.095520 0.000000 0.003470 
#    y 0.000000 3.480910 0.000000 
#    z 0.003470 0.000000 3.051050 
# 
# 
# High freq. dielectric constant tensor:
#      x y z
#    x 1.660330 0.000000 -0.000140 
#    y 0.000000 1.670560 0.000000 
#    z -0.000140 0.000000 1.662330 
# 
# From -- ./inp_files/29302.got.cif
#   From: 2010.06.25/outbox.cif.g09.slc.cpg/sg9_15_cif.got.tgz:29302.got - 2010.06.27 21:40:51.
