data_PCOD8054825
_publ_section_title
;
Structure prediction by ZEFSAII (Michael W. Deem and Ramdas Pophale) SiO2 
 PCOD8054825
Probable space group: C C
;
_chemical_formula_sum "Si O2"
_cell_formula_units_Z 32
_cell_length_a 13.489516
_cell_length_b 8.968459
_cell_length_c 12.459272
_cell_angle_alpha 90.000000
_cell_angle_beta 104.316719
_cell_angle_gamma 90.000000
_cell_volume 1460.512799
_symmetry_space_group_name_H-M "C C"
_symmetry_group_IT_number 9
_symmetry_cell_setting 'monoclinic'
loop_
_space_group_symop_operation_xyz
x,y,z
x,-y,1/2+z
1/2+x,1/2+y,z
1/2+x,1/2-y,1/2+z
loop_
_atom_site_type_symbol
_atom_site_label
_atom_site_fract_x
_atom_site_fract_y
_atom_site_fract_z
Si Si1 0.090610 0.326405 0.243130
Si Si2 0.948010 0.166033 0.863009
Si Si3 0.770532 0.299682 0.933774
Si Si4 0.949146 0.834127 0.856047
Si Si5 0.508363 0.141093 0.188682
Si Si6 0.333808 0.128155 0.974511
Si Si7 0.643455 0.325768 0.549575
Si Si8 0.128913 0.844683 0.076364
O O1 0.192774 0.275135 0.329918
O O2 0.108173 0.302030 0.121559
O O3 0.992303 0.234266 0.257517
O O4 0.065431 0.499821 0.255821
O O5 0.879510 0.222163 0.944543
O O6 0.938818 0.276263 0.758993
O O7 0.909835 0.000750 0.819980
O O8 0.065211 0.164190 0.930193
O O9 0.782079 0.476886 0.916600
O O10 0.729810 0.275592 0.044862
O O11 0.858201 0.731326 0.878226
O O12 0.036994 0.840151 0.967903
O O13 0.598667 0.251470 0.172992
O O14 0.435363 0.091372 0.071078
O O15 0.253180 0.215354 0.028320
O O16 0.649605 0.483864 0.614642
#
# Coordination Sequence:
#
# PCOD8054825 Si02
#       8
#     4   4   4   4   4   4   4   4
#     4  11  22  37  59  88 119 156 201 252 311 373
#     4  11  22  38  59  88 124 159 202 257 306 365
#     4  10  21  39  60  86 119 156 202 256 308 367
#     4   9  20  37  59  84 115 155 199 248 304 361
#     4  11  22  38  62  91 121 160 207 258 309 368
#     4  10  21  41  64  86 118 165 209 253 310 370
#     4  10  21  38  59  85 119 161 201 250 310 368
#     4   8  19  38  58  80 113 152 197 250 304 360
#
# _framework density 21.910112000000002
#
# number of rings (size 3 to 8) (size 9 to 14) (size 15 to 20)
#    0.000    2.000    0.000    3.750    0.000    4.000 
#    0.000    7.500    0.000    0.000    0.000    0.000 
#    0.000    0.000    0.000    0.000    0.000    0.000 
#
# Total GULP energy -198421.825267 kJ/mol
# GULP energy per Si atom -12401.364079 kJ/mol
# Density = 2.186024 g / cm^3
# Si number density = 21.910112 Si / 1000 Ang^3
#
#
#
# Elastic Constant Matrix: (Units=GPa)
#
#
# Indices 1 2 3 4 5 6 
#
# 1 109.3692 42.4850 25.4243 0.0000 -33.2333 0.0000
# 2 42.4850 117.5566 25.9256 0.0000 -15.4610 0.0000
# 3 25.4243 25.9256 50.8684 0.0000 -15.3255 0.0000
# 4 0.0000 0.0000 0.0000 36.1385 0.0000 -8.2361
# 5 -33.2333 -15.4610 -15.3255 0.0000 43.2742 0.0000
# 6 0.0000 0.0000 0.0000 -8.2361 0.0000 39.2027
#
#
#
# Elastic Compliance Matrix: (Units=1/GPa)
#
#
# Indices 1 2 3 4 5 6 
#
# 1 0.013528 -0.003219 -0.002616 0.000000 0.008312 0.000000
# 2 -0.003219 0.010491 -0.003754 0.000000 -0.000053 0.000000
# 3 -0.002616 -0.003754 0.024482 0.000000 0.005320 0.000000
# 4 0.000000 0.000000 0.000000 0.029063 0.000000 0.006106
# 5 0.008312 -0.000053 0.005320 0.000000 0.031357 0.000000
# 6 0.000000 0.000000 0.000000 0.006106 0.000000 0.026791
#
#
# Mechanical properties :
#
#
# Convention : Reuss Voigt Hill
#
# Bulk Modulus (GPa) = 34.10368 51.71823 42.91095
# Shear Modulus (GPa) = 30.36486 35.98705 33.17595
#
# Velocity S-wave (km/s) = 3.72678 4.05716 3.89547
# Velocity P-wave (km/s) = 5.84103 6.75302 6.31351
#
# Compressibility (1/GPa) = 0.02932235
#
# Stress axis : x y z
#
# Youngs Moduli (GPa) = 73.92255 95.32289 40.84585
#
# Poissons Ratio (x) = 0.30681 0.10687
# Poissons Ratio (y) = 0.23793 0.15334
# Poissons Ratio (z) = 0.19342 0.35784
#
# Static dielectric constant tensor:
#      x y z
#    x 4.068240 0.000000 -0.343880 
#    y 0.000000 3.983900 0.000000 
#    z -0.343880 0.000000 3.615520 
# 
# 
# High freq. dielectric constant tensor:
#      x y z
#    x 1.866790 0.000000 -0.023620 
#    y 0.000000 1.859700 0.000000 
#    z -0.023620 0.000000 1.841080 
# 
# From -- ./inp_files/17829.got.cif
#   From: 2010.06.25/outbox.cif.g09.slc.cpg/sg9_9_cif.got.tgz:17829.got - 2010.06.27 21:40:51.
