data_PCOD8054796
_publ_section_title
;
Structure prediction by ZEFSAII (Michael W. Deem and Ramdas Pophale) SiO2 
 PCOD8054796
Probable space group: C C
;
_chemical_formula_sum "Si O2"
_cell_formula_units_Z 28
_cell_length_a 13.710911
_cell_length_b 18.824074
_cell_length_c 9.601013
_cell_angle_alpha 90.000000
_cell_angle_beta 145.963411
_cell_angle_gamma 90.000000
_cell_volume 1386.977872
_symmetry_space_group_name_H-M "C C"
_symmetry_group_IT_number 9
_symmetry_cell_setting 'monoclinic'
loop_
_space_group_symop_operation_xyz
x,y,z
x,-y,1/2+z
1/2+x,1/2+y,z
1/2+x,1/2-y,1/2+z
loop_
_atom_site_type_symbol
_atom_site_label
_atom_site_fract_x
_atom_site_fract_y
_atom_site_fract_z
Si Si1 0.281030 0.164368 0.467130
Si Si2 0.842504 0.654675 0.840915
Si Si3 0.548461 0.080952 0.610826
Si Si4 0.564468 0.717487 0.670389
Si Si5 0.876113 0.184182 0.978927
Si Si6 0.329799 0.326053 0.114179
Si Si7 0.061572 0.557777 0.305988
O O1 0.356118 0.128274 0.698055
O O2 0.374848 0.124073 0.450594
O O3 0.332741 0.247416 0.521379
O O4 0.072021 0.153964 0.229498
O O5 0.639959 0.663557 0.644231
O O6 0.916403 0.734669 0.926820
O O7 0.928315 0.603398 0.055677
O O8 0.507261 0.053540 0.405042
O O9 0.578367 0.018409 0.756402
O O10 0.725635 0.126491 0.831066
O O11 0.502001 0.668458 0.724661
O O12 0.709289 0.769488 0.898680
O O13 0.870489 0.206958 0.811762
O O14 0.249046 0.404473 0.024958
#
# Coordination Sequence:
#
# PCOD8054796 Si02
#       7
#     4   4   4   4   4   4   4
#     4  12  23  40  65  98 135 166 215 269 322 383
#     4  10  21  37  59  95 126 169 211 256 328 373
#     4  11  25  46  67  92 134 171 219 267 319 389
#     4   9  18  33  60  90 128 160 209 267 314 375
#     4  11  23  38  67  98 129 171 213 267 328 375
#     4   9  19  35  61  92 122 166 214 264 315 382
#     4  10  23  45  65  89 126 177 211 262 328 381
#
# _framework density 20.187775999999999
#
# number of rings (size 3 to 8) (size 9 to 14) (size 15 to 20)
#    0.000    1.714    1.429    2.571    8.000    0.000 
#   10.286    1.429    0.000    0.000    0.000    0.000 
#    0.000    0.000    0.000    0.000    0.000    0.000 
#
# Total GULP energy -173483.137758 kJ/mol
# GULP energy per Si atom -12391.652697 kJ/mol
# Density = 2.014183 g / cm^3
# Si number density = 20.187776 Si / 1000 Ang^3
#
#
#
# Elastic Constant Matrix: (Units=GPa)
#
#
# Indices 1 2 3 4 5 6 
#
# 1 152.9089 51.2080 52.4768 0.0000 -8.4909 0.0000
# 2 51.2080 80.4931 27.7316 0.0000 -5.7475 0.0000
# 3 52.4768 27.7316 68.0502 0.0000 -5.8669 0.0000
# 4 0.0000 0.0000 0.0000 10.0829 0.0000 -6.3584
# 5 -8.4909 -5.7475 -5.8669 0.0000 43.1008 0.0000
# 6 0.0000 0.0000 0.0000 -6.3584 0.0000 30.6449
#
#
#
# Elastic Compliance Matrix: (Units=1/GPa)
#
#
# Indices 1 2 3 4 5 6 
#
# 1 0.010057 -0.004306 -0.005949 0.000000 0.000597 0.000000
# 2 -0.004306 0.016351 -0.003267 0.000000 0.000888 0.000000
# 3 -0.005949 -0.003267 0.020718 0.000000 0.001213 0.000000
# 4 0.000000 0.000000 0.000000 0.114108 0.000000 0.023676
# 5 0.000597 0.000888 0.001213 0.000000 0.023602 0.000000
# 6 0.000000 0.000000 0.000000 0.023676 0.000000 0.037544
#
#
# Mechanical properties :
#
#
# Convention : Reuss Voigt Hill
#
# Bulk Modulus (GPa) = 49.79155 62.69834 56.24494
# Shear Modulus (GPa) = 19.52221 28.10144 23.81183
#
# Velocity S-wave (km/s) = 3.11309 3.73500 3.43814
# Velocity P-wave (km/s) = 6.13510 7.05162 6.60927
#
# Compressibility (1/GPa) = 0.02008373
#
# Stress axis : x y z
#
# Youngs Moduli (GPa) = 99.43783 61.15700 48.26632
#
# Poissons Ratio (x) = 0.26331 0.28714
# Poissons Ratio (y) = 0.42813 0.15767
# Poissons Ratio (z) = 0.59156 0.19978
#
# Static dielectric constant tensor:
#      x y z
#    x 4.231380 0.000000 0.103630 
#    y 0.000000 3.605300 0.000000 
#    z 0.103630 0.000000 3.715880 
# 
# 
# High freq. dielectric constant tensor:
#      x y z
#    x 1.813720 0.000000 -0.004700 
#    y 0.000000 1.761010 0.000000 
#    z -0.004700 0.000000 1.785310 
# 
# From -- ./inp_files/7815.got.cif
#   From: 2010.06.25/outbox.cif.g09.slc.cpg/sg9_4_cif.got.tgz:7815.got - 2010.06.27 21:40:51.
