data_PCOD8054766
_publ_section_title
;
Structure prediction by ZEFSAII (Michael W. Deem and Ramdas Pophale) SiO2 
 PCOD8054766
Probable space group: C C
;
_chemical_formula_sum "Si O2"
_cell_formula_units_Z 28
_cell_length_a 6.316291
_cell_length_b 23.072596
_cell_length_c 12.441986
_cell_angle_alpha 90.000000
_cell_angle_beta 45.231561
_cell_angle_gamma 90.000000
_cell_volume 1287.304922
_symmetry_space_group_name_H-M "C C"
_symmetry_group_IT_number 9
_symmetry_cell_setting 'monoclinic'
loop_
_space_group_symop_operation_xyz
x,y,z
x,-y,1/2+z
1/2+x,1/2+y,z
1/2+x,1/2-y,1/2+z
loop_
_atom_site_type_symbol
_atom_site_label
_atom_site_fract_x
_atom_site_fract_y
_atom_site_fract_z
Si Si1 0.363390 0.317375 0.404220
Si Si2 0.747126 0.102401 0.255970
Si Si3 0.420816 0.903970 0.488338
Si Si4 0.419351 0.031848 0.209115
Si Si5 0.414351 0.617875 0.423335
Si Si6 0.903764 0.404577 0.255905
Si Si7 0.931794 0.701037 0.254605
O O1 0.640017 0.357486 0.342542
O O2 0.460661 0.262461 0.300933
O O3 0.151272 0.351634 0.400065
O O4 0.168274 0.297459 0.574596
O O5 0.682407 0.046064 0.202590
O O6 0.702409 0.097249 0.400178
O O7 0.528385 0.153802 0.305553
O O8 0.090046 0.120585 0.120325
O O9 0.506085 0.944607 0.559130
O O10 0.449906 0.930574 0.359383
O O11 0.135203 0.063890 0.361527
O O12 0.345174 0.964644 0.214066
O O13 0.599371 0.678625 0.337566
O O14 0.203455 0.625348 0.602680
#
# Coordination Sequence:
#
# PCOD8054766 Si02
#       7
#     4   4   4   4   4   4   4
#     4  12  27  46  69 105 142 191 239 295 357 429
#     4  10  20  47  71  94 137 188 227 289 363 417
#     4  11  23  46  69  98 145 181 236 292 361 430
#     4  10  24  44  72  98 144 186 229 296 364 435
#     4  10  25  44  68 105 136 183 233 293 358 419
#     4  12  28  42  72 111 137 183 250 289 373 421
#     4  11  25  47  69  99 145 184 240 290 352 419
#
# _framework density 21.750869999999999
#
# number of rings (size 3 to 8) (size 9 to 14) (size 15 to 20)
#    0.000    1.143    5.714    0.000   10.000    4.571 
#    0.000    0.000    0.000    0.000    0.000    0.000 
#    0.000    0.000    0.000    0.000    0.000    0.000 
#
# Total GULP energy -173440.770271 kJ/mol
# GULP energy per Si atom -12388.626448 kJ/mol
# Density = 2.170136 g / cm^3
# Si number density = 21.750870 Si / 1000 Ang^3
#
#
#
# Elastic Constant Matrix: (Units=GPa)
#
#
# Indices 1 2 3 4 5 6 
#
# 1 105.7116 34.9336 40.2672 0.0000 16.9274 0.0000
# 2 34.9336 140.2942 42.0899 0.0000 3.0468 0.0000
# 3 40.2672 42.0899 132.6934 0.0000 4.9188 0.0000
# 4 0.0000 0.0000 0.0000 23.2463 0.0000 5.1502
# 5 16.9274 3.0468 4.9188 0.0000 30.7631 0.0000
# 6 0.0000 0.0000 0.0000 5.1502 0.0000 19.1259
#
#
#
# Elastic Compliance Matrix: (Units=1/GPa)
#
#
# Indices 1 2 3 4 5 6 
#
# 1 0.012182 -0.002056 -0.002820 0.000000 -0.006049 0.000000
# 2 -0.002056 0.008229 -0.002010 0.000000 0.000638 0.000000
# 3 -0.002820 -0.002010 0.009018 0.000000 0.000309 0.000000
# 4 0.000000 0.000000 0.000000 0.045747 0.000000 -0.012319
# 5 -0.006049 0.000638 0.000309 0.000000 0.035722 0.000000
# 6 0.000000 0.000000 0.000000 -0.012319 0.000000 0.055602
#
#
# Mechanical properties :
#
#
# Convention : Reuss Voigt Hill
#
# Bulk Modulus (GPa) = 63.87069 68.14227 66.00648
# Shear Modulus (GPa) = 26.95540 32.05430 29.50485
#
# Velocity S-wave (km/s) = 3.52416 3.84305 3.68705
# Velocity P-wave (km/s) = 6.78145 7.14763 6.96694
#
# Compressibility (1/GPa) = 0.01565663
#
# Stress axis : x y z
#
# Youngs Moduli (GPa) = 82.08855 121.52223 110.88736
#
# Poissons Ratio (x) = 0.24983 0.31275
# Poissons Ratio (y) = 0.16876 0.22288
# Poissons Ratio (z) = 0.23153 0.24426
#
# Static dielectric constant tensor:
#      x y z
#    x 4.352320 0.000000 0.108520 
#    y 0.000000 3.779990 0.000000 
#    z 0.108520 0.000000 4.026860 
# 
# 
# High freq. dielectric constant tensor:
#      x y z
#    x 1.862330 0.000000 0.005370 
#    y 0.000000 1.837160 0.000000 
#    z 0.005370 0.000000 1.862840 
# 
# From -- ./inp_files/13704.got.cif
#   From: 2010.06.25/outbox.cif.g09.slc.cpg/sg9_7_cif.got.tgz:13704.got - 2010.06.27 21:40:51.
