data_PCOD8054150
_publ_section_title
;
Structure prediction by ZEFSAII (Michael W. Deem and Ramdas Pophale) SiO2 
 PCOD8054150
Probable space group: C M
;
_chemical_formula_sum "Si O2"
_cell_formula_units_Z 32
_cell_length_a 14.542282
_cell_length_b 9.336051
_cell_length_c 28.596937
_cell_angle_alpha 90.000000
_cell_angle_beta 28.625902
_cell_angle_gamma 90.000000
_cell_volume 1860.078380
_symmetry_space_group_name_H-M "C M"
_symmetry_group_IT_number 8
_symmetry_cell_setting 'monoclinic'
loop_
_space_group_symop_operation_xyz
x,y,z
x,-y,z
1/2+x,1/2+y,z
1/2+x,1/2-y,z
loop_
_atom_site_type_symbol
_atom_site_label
_atom_site_fract_x
_atom_site_fract_y
_atom_site_fract_z
Si Si1 0.345850 0.830989 0.693840
Si Si2 0.073501 0.166746 0.050033
Si Si3 0.957516 0.833239 0.205939
Si Si4 0.993307 0.660575 0.840439
Si Si5 0.094943 0.168271 0.336604
Si Si6 0.242440 0.669656 0.553156
Si Si7 0.710136 0.667858 0.181879
Si Si8 0.285873 0.661754 0.636434
O O1 0.525555 0.775874 0.643618
O O2 0.401193 0.773565 0.617197
O O3 0.148047 0.757049 0.800386
O O4 0.317425 0.000000 0.706443
O O5 0.068063 0.196679 0.108036
O O6 0.913367 0.251555 0.092292
O O7 0.043137 0.000000 0.052524
O O8 0.279443 0.223533 0.939920
O O9 0.085957 0.780141 0.192608
O O10 0.759735 0.746262 0.292844
O O11 0.907785 0.000000 0.234039
O O12 0.995224 0.500000 0.860904
O O13 0.063554 0.659125 0.754697
O O14 0.098635 0.205696 0.279819
O O15 0.891578 0.224892 0.447476
O O16 0.122879 0.000000 0.332452
O O17 0.237235 0.500000 0.553901
O O18 0.305393 0.723730 0.575878
O O19 0.753046 0.500000 0.158909
O O20 0.370379 0.500000 0.602230
#
# Coordination Sequence:
#
# PCOD8054150 Si02
#       8
#     4   4   4   4   4   4   4   4
#     4   9  17  30  48  70  94 121 157 197 230 267
#     4   9  17  32  51  69  93 125 159 190 226 278
#     4   9  18  33  50  70  97 124 151 191 240 280
#     4   8  16  32  50  66  94 129 155 187 232 276
#     4   9  18  32  50  70  94 124 159 193 228 275
#     4   9  17  31  50  69  93 128 159 189 231 277
#     4   9  18  32  49  71  97 122 151 193 239 279
#     4   8  16  32  48  63  92 127 157 186 228 276
#
# _framework density 17.203575000000001
#
# number of rings (size 3 to 8) (size 9 to 14) (size 15 to 20)
#    0.750    2.500    0.000    0.000    0.000    2.000 
#    2.250    4.375    0.000    0.000    0.000    0.000 
#    0.000    0.000    0.000    0.000    0.000    0.000 
#
# Total GULP energy -198213.700741 kJ/mol
# GULP energy per Si atom -12388.356296 kJ/mol
# Density = 1.716442 g / cm^3
# Si number density = 17.203575 Si / 1000 Ang^3
#
#
#
# Elastic Constant Matrix: (Units=GPa)
#
#
# Indices 1 2 3 4 5 6 
#
# 1 86.5914 23.1682 15.2607 0.0005 -9.0235 -0.0001
# 2 23.1682 42.8426 18.4344 0.0006 -9.5135 0.0004
# 3 15.2607 18.4344 65.2974 0.0004 -9.7718 -0.0020
# 4 0.0005 0.0006 0.0004 22.1760 -0.0012 -4.8636
# 5 -9.0235 -9.5135 -9.7718 -0.0012 22.5988 0.0002
# 6 -0.0001 0.0004 -0.0020 -4.8636 0.0002 24.7086
#
#
#
# Elastic Compliance Matrix: (Units=1/GPa)
#
#
# Indices 1 2 3 4 5 6 
#
# 1 0.013697 -0.006449 -0.001035 0.000000 0.002306 0.000000
# 2 -0.006449 0.031222 -0.006122 0.000000 0.007921 -0.000001
# 3 -0.001035 -0.006122 0.018002 0.000000 0.004794 0.000002
# 4 0.000000 0.000000 0.000000 0.047128 0.000002 0.009277
# 5 0.002306 0.007921 0.004794 0.000002 0.050579 0.000000
# 6 0.000000 -0.000001 0.000002 0.009277 0.000000 0.042298
#
#
# Mechanical properties :
#
#
# Convention : Reuss Voigt Hill
#
# Bulk Modulus (GPa) = 28.00454 34.27309 31.13881
# Shear Modulus (GPa) = 20.65764 23.08786 21.87275
#
# Velocity S-wave (km/s) = 3.46898 3.66736 3.56955
# Velocity P-wave (km/s) = 5.68848 6.15614 5.92692
#
# Compressibility (1/GPa) = 0.03570850
#
# Stress axis : x y z
#
# Youngs Moduli (GPa) = 73.00945 32.02872 55.54900
#
# Poissons Ratio (x) = 0.20656 0.05750
# Poissons Ratio (y) = 0.47086 0.34005
# Poissons Ratio (z) = 0.07558 0.19607
#
# Static dielectric constant tensor:
#      x y z
#    x 3.170840 0.000000 0.004210 
#    y 0.000000 3.049520 0.000000 
#    z 0.004210 0.000000 3.245520 
# 
# 
# High freq. dielectric constant tensor:
#      x y z
#    x 1.651240 0.000000 -0.000740 
#    y 0.000000 1.649960 0.000000 
#    z -0.000740 0.000000 1.659430 
# 
# From -- ./inp_files/26415.got.cif
#   From: 2010.03.12/outbox.cif.g09.slc.cpg/sg8_14_cif.got.tgz:26415.got - 2010.03.31 10:45:26.
