data_PCOD8054437
_publ_section_title
;
Structure prediction by ZEFSAII (Michael W. Deem and Ramdas Pophale) SiO2 
 PCOD8054437
Probable space group: C C
;
_chemical_formula_sum "Si O2"
_cell_formula_units_Z 28
_cell_length_a 14.592048
_cell_length_b 13.523302
_cell_length_c 8.828713
_cell_angle_alpha 90.000000
_cell_angle_beta 143.655054
_cell_angle_gamma 90.000000
_cell_volume 1032.502651
_symmetry_space_group_name_H-M "C C"
_symmetry_group_IT_number 9
_symmetry_cell_setting 'monoclinic'
loop_
_space_group_symop_operation_xyz
x,y,z
x,-y,1/2+z
1/2+x,1/2+y,z
1/2+x,1/2-y,1/2+z
loop_
_atom_site_type_symbol
_atom_site_label
_atom_site_fract_x
_atom_site_fract_y
_atom_site_fract_z
Si Si1 0.758090 0.038812 0.125000
Si Si2 0.382575 0.869287 0.462688
Si Si3 0.608642 0.773314 0.563622
Si Si4 0.064317 0.933329 0.573456
Si Si5 0.136261 0.378122 0.161410
Si Si6 0.907403 0.251559 0.003253
Si Si7 0.780952 0.472317 0.605179
O O1 0.717860 0.135072 0.168700
O O2 0.654039 0.942998 0.033478
O O3 0.722811 0.055524 0.902016
O O4 0.941792 0.022366 0.387420
O O5 0.520904 0.794106 0.606587
O O6 0.211213 0.823826 0.216461
O O7 0.392725 0.901333 0.652405
O O8 0.394400 0.960206 0.359291
O O9 0.476616 0.755686 0.263004
O O10 0.157445 0.913082 0.542007
O O11 0.967109 0.838539 0.484483
O O12 0.189921 0.957311 0.867880
O O13 0.222932 0.269258 0.270381
O O14 0.958553 0.352561 0.980361
#
# Coordination Sequence:
#
# PCOD8054437 Si02
#       7
#     4   4   4   4   4   4   4
#     4  10  22  39  66  95 130 175 215 270 333 394
#     4  11  25  44  70  97 136 176 227 275 336 394
#     4  11  23  42  69  99 133 176 226 270 335 411
#     4  10  19  40  66  97 127 175 223 271 330 399
#     4  10  22  41  66  92 129 167 217 264 327 386
#     4  10  20  38  66  92 122 170 218 264 319 390
#     4  10  23  40  67  94 135 175 220 278 332 396
#
# _framework density 27.118572
#
# number of rings (size 3 to 8) (size 9 to 14) (size 15 to 20)
#    0.000    1.714    1.429    3.429    6.000    2.286 
#    5.143    1.429    0.000    0.000    0.000    0.000 
#    0.000    0.000    0.000    0.000    0.000    0.000 
#
# Total GULP energy -173630.397280 kJ/mol
# GULP energy per Si atom -12402.171234 kJ/mol
# Density = 2.705685 g / cm^3
# Si number density = 27.118572 Si / 1000 Ang^3
#
#
#
# Elastic Constant Matrix: (Units=GPa)
#
#
# Indices 1 2 3 4 5 6 
#
# 1 172.3692 33.1584 38.4549 0.0000 -7.2088 0.0000
# 2 33.1584 70.2059 10.3490 0.0000 -5.2478 0.0000
# 3 38.4549 10.3490 62.9087 0.0000 5.5055 0.0000
# 4 0.0000 0.0000 0.0000 31.0437 0.0000 -0.8735
# 5 -7.2088 -5.2478 5.5055 0.0000 48.7427 0.0000
# 6 0.0000 0.0000 0.0000 -0.8735 0.0000 55.8064
#
#
#
# Elastic Compliance Matrix: (Units=1/GPa)
#
#
# Indices 1 2 3 4 5 6 
#
# 1 0.007302 -0.002748 -0.004121 0.000000 0.001249 0.000000
# 2 -0.002748 0.015801 -0.001043 0.000000 0.001413 0.000000
# 3 -0.004121 -0.001043 0.018836 0.000000 -0.002849 0.000000
# 4 0.000000 0.000000 0.000000 0.032227 0.000000 0.000504
# 5 0.001249 0.001413 -0.002849 0.000000 0.021175 0.000000
# 6 0.000000 0.000000 0.000000 0.000504 0.000000 0.017927
#
#
# Mechanical properties :
#
#
# Convention : Reuss Voigt Hill
#
# Bulk Modulus (GPa) = 38.29221 52.15649 45.22435
# Shear Modulus (GPa) = 36.28563 42.02001 39.15282
#
# Velocity S-wave (km/s) = 3.66189 3.94063 3.80381
# Velocity P-wave (km/s) = 5.65952 6.32292 6.00039
#
# Compressibility (1/GPa) = 0.02611498
#
# Stress axis : x y z
#
# Youngs Moduli (GPa) = 136.95543 63.28722 53.08994
#
# Poissons Ratio (x) = 0.17390 0.21877
# Poissons Ratio (y) = 0.37632 0.05539
# Poissons Ratio (z) = 0.56435 0.06603
#
# Static dielectric constant tensor:
#      x y z
#    x 5.536160 0.000000 0.226740 
#    y 0.000000 4.962050 0.000000 
#    z 0.226740 0.000000 4.808900 
# 
# 
# High freq. dielectric constant tensor:
#      x y z
#    x 2.117300 0.000000 0.011060 
#    y 0.000000 2.092490 0.000000 
#    z 0.011060 0.000000 2.090280 
# 
# From -- ./inp_files/9631.got.cif
#   From: 2010.06.25/outbox.cif.g09.slc.cpg/sg9_5_cif.got.tgz:9631.got - 2010.06.27 21:40:51.
