data_PCOD8054912
_publ_section_title
;
Structure prediction by ZEFSAII (Michael W. Deem and Ramdas Pophale) SiO2 
 PCOD8054912
Probable space group: C C
;
_chemical_formula_sum "Si O2"
_cell_formula_units_Z 32
_cell_length_a 8.635529
_cell_length_b 20.196806
_cell_length_c 12.604316
_cell_angle_alpha 90.000000
_cell_angle_beta 134.120777
_cell_angle_gamma 90.000000
_cell_volume 1578.116584
_symmetry_space_group_name_H-M "C C"
_symmetry_group_IT_number 9
_symmetry_cell_setting 'monoclinic'
loop_
_space_group_symop_operation_xyz
x,y,z
x,-y,1/2+z
1/2+x,1/2+y,z
1/2+x,1/2-y,1/2+z
loop_
_atom_site_type_symbol
_atom_site_label
_atom_site_fract_x
_atom_site_fract_y
_atom_site_fract_z
Si Si1 0.748590 0.066509 0.491420
Si Si2 0.904774 0.057348 0.333144
Si Si3 0.757276 0.703620 0.011821
Si Si4 0.575797 0.685846 0.327924
Si Si5 0.430105 0.816955 0.825337
Si Si6 0.565875 0.937306 0.492650
Si Si7 0.594419 0.428441 0.335574
Si Si8 0.627561 0.208935 0.024367
O O1 0.864289 0.074988 0.435032
O O2 0.539144 0.112436 0.399399
O O3 0.917956 0.087577 0.662084
O O4 0.674368 0.990441 0.467056
O O5 0.076009 0.110914 0.371520
O O6 0.678555 0.060639 0.162021
O O7 0.010528 0.985278 0.374044
O O8 0.891929 0.693313 0.182903
O O9 0.918780 0.725857 0.995416
O O10 0.584438 0.760775 0.945916
O O11 0.633139 0.636392 0.924001
O O12 0.704664 0.686414 0.279435
O O13 0.677539 0.736447 0.459988
O O14 0.332988 0.710509 0.198052
O O15 0.313995 0.953027 0.384989
O O16 0.599732 0.864145 0.458728
#
# Coordination Sequence:
#
# PCOD8054912 Si02
#       8
#     4   4   4   4   4   4   4   4
#     4  11  22  38  62  89 119 158 204 251 305 364
#     4  10  22  39  60  85 120 161 199 247 307 367
#     4  11  23  41  64  89 123 161 203 250 306 367
#     4  11  23  39  60  87 120 156 199 249 302 359
#     4  12  24  40  62  90 123 159 202 253 305 362
#     4   9  21  40  58  84 119 155 198 248 303 364
#     4  10  22  39  61  89 118 155 203 252 304 362
#     4  10  21  40  61  85 118 157 198 246 302 363
#
# _framework density 20.277335999999998
#
# number of rings (size 3 to 8) (size 9 to 14) (size 15 to 20)
#    0.000    1.500    0.000    6.000    0.000    9.000 
#    0.000    1.250    0.000    0.000    0.000    0.000 
#    0.000    0.000    0.000    0.000    0.000    0.000 
#
# Total GULP energy -198481.643012 kJ/mol
# GULP energy per Si atom -12405.102688 kJ/mol
# Density = 2.023118 g / cm^3
# Si number density = 20.277336 Si / 1000 Ang^3
#
#
#
# Elastic Constant Matrix: (Units=GPa)
#
#
# Indices 1 2 3 4 5 6 
#
# 1 86.7915 34.4495 18.8379 0.0000 -1.3604 0.0000
# 2 34.4495 93.0633 37.5198 0.0000 -6.2422 0.0000
# 3 18.8379 37.5198 82.8567 0.0000 -1.6083 0.0000
# 4 0.0000 0.0000 0.0000 32.1707 0.0000 3.2343
# 5 -1.3604 -6.2422 -1.6083 0.0000 28.1714 0.0000
# 6 0.0000 0.0000 0.0000 3.2343 0.0000 35.8982
#
#
#
# Elastic Compliance Matrix: (Units=1/GPa)
#
#
# Indices 1 2 3 4 5 6 
#
# 1 0.013578 -0.004658 -0.000986 0.000000 -0.000433 0.000000
# 2 -0.004658 0.014932 -0.005649 0.000000 0.002761 0.000000
# 3 -0.000986 -0.005649 0.014843 0.000000 -0.000452 0.000000
# 4 0.000000 0.000000 0.000000 0.031368 0.000000 -0.002826
# 5 -0.000433 0.002761 -0.000452 0.000000 0.036062 0.000000
# 6 0.000000 0.000000 0.000000 -0.002826 0.000000 0.028111
#
#
# Mechanical properties :
#
#
# Convention : Reuss Voigt Hill
#
# Bulk Modulus (GPa) = 48.15435 49.36954 48.76195
# Shear Modulus (GPa) = 29.69078 30.70838 30.19958
#
# Velocity S-wave (km/s) = 3.83068 3.89578 3.86337
# Velocity P-wave (km/s) = 6.58521 6.68102 6.63329
#
# Compressibility (1/GPa) = 0.02076656
#
# Stress axis : x y z
#
# Youngs Moduli (GPa) = 73.64947 66.96929 67.37358
#
# Poissons Ratio (x) = 0.31191 0.06645
# Poissons Ratio (y) = 0.34302 0.38061
# Poissons Ratio (z) = 0.07264 0.37832
#
# Static dielectric constant tensor:
#      x y z
#    x 3.516360 0.000000 0.160000 
#    y 0.000000 3.855020 0.000000 
#    z 0.160000 0.000000 3.612170 
# 
# 
# High freq. dielectric constant tensor:
#      x y z
#    x 1.790010 0.000000 0.009720 
#    y 0.000000 1.807680 0.000000 
#    z 0.009720 0.000000 1.792180 
# 
# From -- ./inp_files/5609.got.cif
#   From: 2010.06.25/outbox.cif.g09.slc.cpg/sg9_3_cif.got.tgz:5609.got - 2010.06.27 21:40:51.
