data_PCOD8054925
_publ_section_title
;
Structure prediction by ZEFSAII (Michael W. Deem and Ramdas Pophale) SiO2 
 PCOD8054925
Probable space group: C C
;
_chemical_formula_sum "Si O2"
_cell_formula_units_Z 28
_cell_length_a 9.380945
_cell_length_b 13.780838
_cell_length_c 11.578933
_cell_angle_alpha 90.000000
_cell_angle_beta 124.626994
_cell_angle_gamma 90.000000
_cell_volume 1231.746468
_symmetry_space_group_name_H-M "C C"
_symmetry_group_IT_number 9
_symmetry_cell_setting 'monoclinic'
loop_
_space_group_symop_operation_xyz
x,y,z
x,-y,1/2+z
1/2+x,1/2+y,z
1/2+x,1/2-y,1/2+z
loop_
_atom_site_type_symbol
_atom_site_label
_atom_site_fract_x
_atom_site_fract_y
_atom_site_fract_z
Si Si1 0.228200 0.648504 0.707650
Si Si2 0.209120 0.696770 0.263920
Si Si3 0.578074 0.717462 0.940394
Si Si4 0.877930 0.969044 0.094913
Si Si5 0.579582 0.999634 0.294433
Si Si6 0.046650 0.169580 0.513236
Si Si7 0.192153 0.973324 0.612066
O O1 0.367013 0.714230 0.841240
O O2 0.129292 0.703206 0.559381
O O3 0.343189 0.556966 0.712026
O O4 0.085318 0.601379 0.725982
O O5 0.140595 0.759588 0.340260
O O6 0.140872 0.587120 0.239696
O O7 0.152463 0.741215 0.115126
O O8 0.420060 0.702737 0.351326
O O9 0.666123 0.615131 0.012896
O O10 0.050274 0.035198 0.151807
O O11 0.705610 0.016743 0.961329
O O12 0.906529 0.864763 0.045915
O O13 0.386882 0.024166 0.251543
O O14 0.163475 0.076337 0.532042
#
# Coordination Sequence:
#
# PCOD8054925 Si02
#       7
#     4   4   4   4   4   4   4
#     4  12  23  40  66  94 131 163 217 263 318 368
#     4  11  18  39  63  91 116 166 218 252 296 384
#     4  12  19  38  67  94 118 171 215 261 303 386
#     4   9  20  42  61  89 131 161 207 267 306 375
#     4  11  22  41  62  96 127 165 212 266 315 378
#     4   9  19  36  60  88 121 153 210 259 300 358
#     4  10  21  40  63  88 130 161 209 258 318 371
#
# _framework density 22.731952
#
# number of rings (size 3 to 8) (size 9 to 14) (size 15 to 20)
#    0.857    0.571    5.714    1.714    0.000    0.000 
#    7.714    2.857    0.000    0.000    0.000    0.000 
#    0.000    0.000    0.000    0.000    0.000    0.000 
#
# Total GULP energy -173446.080493 kJ/mol
# GULP energy per Si atom -12389.005749 kJ/mol
# Density = 2.268021 g / cm^3
# Si number density = 22.731952 Si / 1000 Ang^3
#
#
#
# Elastic Constant Matrix: (Units=GPa)
#
#
# Indices 1 2 3 4 5 6 
#
# 1 47.1908 23.7042 39.2145 0.0000 19.4388 0.0000
# 2 23.7042 86.2976 30.1020 0.0000 6.5311 0.0000
# 3 39.2145 30.1020 113.6722 0.0000 36.5679 0.0000
# 4 0.0000 0.0000 0.0000 34.1009 0.0000 3.3891
# 5 19.4388 6.5311 36.5679 0.0000 27.4676 0.0000
# 6 0.0000 0.0000 0.0000 3.3891 0.0000 29.6356
#
#
#
# Elastic Compliance Matrix: (Units=1/GPa)
#
#
# Indices 1 2 3 4 5 6 
#
# 1 0.035816 -0.006772 -0.005119 0.000000 -0.016922 0.000000
# 2 -0.006772 0.014151 -0.003272 0.000000 0.005783 0.000000
# 3 -0.005119 -0.003272 0.017515 0.000000 -0.018918 0.000000
# 4 0.000000 0.000000 0.000000 0.029662 0.000000 -0.003392
# 5 -0.016922 0.005783 -0.018918 0.000000 0.072193 0.000000
# 6 0.000000 0.000000 0.000000 -0.003392 0.000000 0.034131
#
#
# Mechanical properties :
#
#
# Convention : Reuss Voigt Hill
#
# Bulk Modulus (GPa) = 26.91195 48.13355 37.52275
# Shear Modulus (GPa) = 20.31040 28.51684 24.41362
#
# Velocity S-wave (km/s) = 2.99235 3.54571 3.28072
# Velocity P-wave (km/s) = 4.87887 6.16304 5.55817
#
# Compressibility (1/GPa) = 0.03715821
#
# Stress axis : x y z
#
# Youngs Moduli (GPa) = 27.92028 70.66403 57.09309
#
# Poissons Ratio (x) = 0.47852 0.29224
# Poissons Ratio (y) = 0.18907 0.18680
# Poissons Ratio (z) = 0.14292 0.23121
#
# Static dielectric constant tensor:
#      x y z
#    x 3.636170 0.000000 0.360910 
#    y 0.000000 4.002630 0.000000 
#    z 0.360910 0.000000 4.106950 
# 
# 
# High freq. dielectric constant tensor:
#      x y z
#    x 1.855730 0.000000 0.029210 
#    y 0.000000 1.891210 0.000000 
#    z 0.029210 0.000000 1.898100 
# 
# From -- ./inp_files/24847.got.cif
#   From: 2010.06.25/outbox.cif.g09.slc.cpg/sg9_13_cif.got.tgz:24847.got - 2010.06.27 21:40:51.
