data_PCOD8054421
_publ_section_title
;
Structure prediction by ZEFSAII (Michael W. Deem and Ramdas Pophale) SiO2 
 PCOD8054421
Probable space group: C C
;
_chemical_formula_sum "Si O2"
_cell_formula_units_Z 32
_cell_length_a 21.206428
_cell_length_b 9.090071
_cell_length_c 13.448441
_cell_angle_alpha 90.000000
_cell_angle_beta 39.078642
_cell_angle_gamma 90.000000
_cell_volume 1634.231695
_symmetry_space_group_name_H-M "C C"
_symmetry_group_IT_number 9
_symmetry_cell_setting 'monoclinic'
loop_
_space_group_symop_operation_xyz
x,y,z
x,-y,1/2+z
1/2+x,1/2+y,z
1/2+x,1/2-y,1/2+z
loop_
_atom_site_type_symbol
_atom_site_label
_atom_site_fract_x
_atom_site_fract_y
_atom_site_fract_z
Si Si1 0.605210 0.506786 0.785430
Si Si2 0.417239 0.670595 0.469684
Si Si3 0.580162 0.511924 0.035169
Si Si4 0.087310 0.424734 0.513197
Si Si5 0.695588 0.290950 0.010153
Si Si6 0.412979 0.717148 0.702956
Si Si7 0.571316 0.190914 0.658971
Si Si8 0.197911 0.685827 0.683710
O O1 0.495982 0.465667 0.873917
O O2 0.655001 0.635305 0.660474
O O3 0.672653 0.360163 0.718186
O O4 0.592448 0.576686 0.910117
O O5 0.386667 0.704283 0.619527
O O6 0.469245 0.809584 0.349771
O O7 0.314234 0.642072 0.538281
O O8 0.673045 0.403314 0.946521
O O9 0.474027 0.423345 0.171105
O O10 0.585980 0.639668 0.109054
O O11 0.138684 0.357619 0.549104
O O12 0.070775 0.596084 0.559143
O O13 0.148798 0.399869 0.336749
O O14 0.977303 0.362768 0.635517
O O15 0.810740 0.248132 0.886668
O O16 0.657789 0.131047 0.626333
#
# Coordination Sequence:
#
# PCOD8054421 Si02
#       8
#     4   4   4   4   4   4   4   4
#     4  10  20  38  65  92 121 168 214 263 311 377
#     4  10  19  39  65  87 121 171 207 250 324 378
#     4  10  20  40  62  91 127 161 211 260 311 381
#     4  11  23  39  60  91 129 164 211 265 309 380
#     4  11  20  39  66  90 120 169 215 252 320 377
#     4  10  20  39  67  87 120 166 214 257 320 375
#     4  11  24  38  61  94 128 163 210 260 316 373
#     4  11  20  40  62  86 128 172 204 257 325 373
#
# _framework density 19.581066
#
# number of rings (size 3 to 8) (size 9 to 14) (size 15 to 20)
#    0.000    1.500    8.750    0.000    1.750    2.000 
#    0.000    0.000    0.000    0.000    0.000    0.000 
#    0.000    0.000    0.000    0.000    0.000    0.000 
#
# Total GULP energy -198241.083401 kJ/mol
# GULP energy per Si atom -12390.067713 kJ/mol
# Density = 1.953650 g / cm^3
# Si number density = 19.581066 Si / 1000 Ang^3
#
#
#
# Elastic Constant Matrix: (Units=GPa)
#
#
# Indices 1 2 3 4 5 6 
#
# 1 100.8877 22.6232 56.6716 0.0001 0.7613 0.0000
# 2 22.6232 64.5789 28.0406 -0.0001 6.6790 0.0000
# 3 56.6716 28.0406 107.2353 0.0000 -9.8323 0.0000
# 4 0.0001 -0.0001 0.0000 26.5772 0.0000 13.2688
# 5 0.7613 6.6790 -9.8323 0.0000 38.7758 0.0000
# 6 0.0000 0.0000 0.0000 13.2688 0.0000 27.8825
#
#
#
# Elastic Compliance Matrix: (Units=1/GPa)
#
#
# Indices 1 2 3 4 5 6 
#
# 1 0.014437 -0.001667 -0.007364 0.000000 -0.001864 0.000000
# 2 -0.001667 0.018378 -0.004312 0.000000 -0.004226 0.000000
# 3 -0.007364 -0.004312 0.014770 0.000000 0.004632 0.000000
# 4 0.000000 0.000000 0.000000 0.049351 0.000000 -0.023485
# 5 -0.001864 -0.004226 0.004632 0.000000 0.027728 0.000000
# 6 0.000000 0.000000 0.000000 -0.023485 0.000000 0.047041
#
#
# Mechanical properties :
#
#
# Convention : Reuss Voigt Hill
#
# Bulk Modulus (GPa) = 47.85310 54.15252 51.00281
# Shear Modulus (GPa) = 24.34761 29.67154 27.00957
#
# Velocity S-wave (km/s) = 3.53005 3.89693 3.71802
# Velocity P-wave (km/s) = 6.41144 6.92558 6.67346
#
# Compressibility (1/GPa) = 0.02089729
#
# Stress axis : x y z
#
# Youngs Moduli (GPa) = 69.26780 54.41166 67.70669
#
# Poissons Ratio (x) = 0.09070 0.49862
# Poissons Ratio (y) = 0.11547 0.29197
# Poissons Ratio (z) = 0.51012 0.23464
#
# Static dielectric constant tensor:
#      x y z
#    x 3.728100 0.000000 0.069040 
#    y 0.000000 3.247760 0.000000 
#    z 0.069040 0.000000 3.544050 
# 
# 
# High freq. dielectric constant tensor:
#      x y z
#    x 1.777200 0.000000 0.007270 
#    y 0.000000 1.734950 0.000000 
#    z 0.007270 0.000000 1.757280 
# 
# From -- ./inp_files/26661.got.cif
#   From: 2010.06.25/outbox.cif.g09.slc.cpg/sg9_14_cif.got.tgz:26661.got - 2010.06.27 21:40:51.
