data_PCOD8054492
_publ_section_title
;
Structure prediction by ZEFSAII (Michael W. Deem and Ramdas Pophale) SiO2 
 PCOD8054492
Probable space group: C C
;
_chemical_formula_sum "Si O2"
_cell_formula_units_Z 32
_cell_length_a 8.077900
_cell_length_b 19.380060
_cell_length_c 9.521517
_cell_angle_alpha 90.000000
_cell_angle_beta 92.811044
_cell_angle_gamma 90.000000
_cell_volume 1488.801635
_symmetry_space_group_name_H-M "C C"
_symmetry_group_IT_number 9
_symmetry_cell_setting 'monoclinic'
loop_
_space_group_symop_operation_xyz
x,y,z
x,-y,1/2+z
1/2+x,1/2+y,z
1/2+x,1/2-y,1/2+z
loop_
_atom_site_type_symbol
_atom_site_label
_atom_site_fract_x
_atom_site_fract_y
_atom_site_fract_z
Si Si1 0.801830 0.295699 0.091480
Si Si2 0.138141 0.522124 0.045923
Si Si3 0.621848 0.610672 0.372904
Si Si4 0.589548 0.178510 0.428499
Si Si5 0.860169 0.107264 0.574904
Si Si6 0.953254 0.544736 0.302311
Si Si7 0.408666 0.358747 0.589861
Si Si8 0.063695 0.174422 0.816903
O O1 0.805174 0.212543 0.097490
O O2 0.734514 0.331429 0.233270
O O3 0.694862 0.320156 0.950084
O O4 0.986357 0.323772 0.071083
O O5 0.978853 0.529618 0.140266
O O6 0.271359 0.583233 0.055871
O O7 0.228140 0.452029 0.097671
O O8 0.048723 0.515249 0.892102
O O9 0.507424 0.574676 0.486672
O O10 0.511186 0.629832 0.235070
O O11 0.760315 0.554308 0.334769
O O12 0.780825 0.171694 0.483644
O O13 0.550188 0.115415 0.327497
O O14 0.539581 0.244207 0.334829
O O15 0.917590 0.138913 0.724026
O O16 0.549437 0.358820 0.471667
#
# Coordination Sequence:
#
# PCOD8054492 Si02
#       8
#     4   4   4   4   4   4   4   4
#     4   9  20  38  59  89 125 155 194 252 312 357
#     4  11  22  41  63  87 123 163 205 246 302 370
#     4  10  22  41  62  86 123 160 196 254 315 352
#     4   9  19  36  58  83 121 158 193 245 311 354
#     4  10  21  39  62  86 120 162 197 247 308 362
#     4  10  22  40  59  85 119 160 200 250 305 353
#     4  11  22  38  64  92 119 163 209 246 297 369
#     4  10  20  35  59  90 114 149 206 250 288 357
#
# _framework density 21.493798000000002
#
# number of rings (size 3 to 8) (size 9 to 14) (size 15 to 20)
#    0.000    2.000    0.000    3.750    0.000    7.000 
#    0.000   12.500    0.000    0.000    0.000    0.000 
#    0.000    0.000    0.000    0.000    0.000    0.000 
#
# Total GULP energy -198215.876504 kJ/mol
# GULP energy per Si atom -12388.492282 kJ/mol
# Density = 2.144488 g / cm^3
# Si number density = 21.493798 Si / 1000 Ang^3
#
#
#
# Elastic Constant Matrix: (Units=GPa)
#
#
# Indices 1 2 3 4 5 6 
#
# 1 92.3525 27.8835 30.9376 0.0000 -16.6554 0.0000
# 2 27.8835 75.5769 23.1297 0.0000 0.0762 0.0000
# 3 30.9376 23.1297 105.5450 0.0000 -22.3095 0.0000
# 4 0.0000 0.0000 0.0000 21.9593 0.0000 -3.0986
# 5 -16.6554 0.0762 -22.3095 0.0000 38.9799 0.0000
# 6 0.0000 0.0000 0.0000 -3.0986 0.0000 31.7449
#
#
#
# Elastic Compliance Matrix: (Units=1/GPa)
#
#
# Indices 1 2 3 4 5 6 
#
# 1 0.013699 -0.004430 -0.002054 0.000000 0.004686 0.000000
# 2 -0.004430 0.015762 -0.002915 0.000000 -0.003592 0.000000
# 3 -0.002054 -0.002915 0.011981 0.000000 0.005985 0.000000
# 4 0.000000 0.000000 0.000000 0.046175 0.000000 0.004507
# 5 0.004686 -0.003592 0.005985 0.000000 0.031089 0.000000
# 6 0.000000 0.000000 0.000000 0.004507 0.000000 0.031941
#
#
# Mechanical properties :
#
#
# Convention : Reuss Voigt Hill
#
# Bulk Modulus (GPa) = 44.16347 48.59737 46.38042
# Shear Modulus (GPa) = 28.24992 31.30507 29.77750
#
# Velocity S-wave (km/s) = 3.62930 3.82051 3.72613
# Velocity P-wave (km/s) = 6.17690 6.49005 6.33541
#
# Compressibility (1/GPa) = 0.02264315
#
# Stress axis : x y z
#
# Youngs Moduli (GPa) = 72.99846 63.44487 83.46880
#
# Poissons Ratio (x) = 0.28107 0.17145
# Poissons Ratio (y) = 0.32340 0.24329
# Poissons Ratio (z) = 0.14994 0.18493
#
# Static dielectric constant tensor:
#      x y z
#    x 4.132470 0.000000 -0.283740 
#    y 0.000000 3.815780 0.000000 
#    z -0.283740 0.000000 4.021240 
# 
# 
# High freq. dielectric constant tensor:
#      x y z
#    x 1.845830 0.000000 -0.021730 
#    y 0.000000 1.831230 0.000000 
#    z -0.021730 0.000000 1.850850 
# 
# From -- ./inp_files/5635.got.cif
#   From: 2010.06.25/outbox.cif.g09.slc.cpg/sg9_3_cif.got.tgz:5635.got - 2010.06.27 21:40:51.
