data_PCOD8054262
_publ_section_title
;
Structure prediction by ZEFSAII (Michael W. Deem and Ramdas Pophale) SiO2 
 PCOD8054262
Probable space group: C C
;
_chemical_formula_sum "Si O2"
_cell_formula_units_Z 28
_cell_length_a 26.213485
_cell_length_b 9.599354
_cell_length_c 8.881841
_cell_angle_alpha 90.000000
_cell_angle_beta 35.891727
_cell_angle_gamma 90.000000
_cell_volume 1310.257372
_symmetry_space_group_name_H-M "C C"
_symmetry_group_IT_number 9
_symmetry_cell_setting 'monoclinic'
loop_
_space_group_symop_operation_xyz
x,y,z
x,-y,1/2+z
1/2+x,1/2+y,z
1/2+x,1/2-y,1/2+z
loop_
_atom_site_type_symbol
_atom_site_label
_atom_site_fract_x
_atom_site_fract_y
_atom_site_fract_z
Si Si1 0.040570 0.034772 0.722160
Si Si2 0.097301 0.320333 0.507834
Si Si3 0.328259 0.112507 0.855315
Si Si4 0.780908 0.119377 0.661792
Si Si5 0.872217 0.891977 0.251625
Si Si6 0.919533 0.379554 0.823281
Si Si7 0.644199 0.581440 0.212832
O O1 0.060788 0.007545 0.497011
O O2 0.053201 0.201154 0.721318
O O3 0.124254 0.953138 0.589522
O O4 0.947415 0.982049 0.993073
O O5 0.175369 0.399532 0.407399
O O6 0.018798 0.416344 0.635686
O O7 0.141392 0.246801 0.255581
O O8 0.364030 0.149945 0.605074
O O9 0.391295 0.013687 0.798093
O O10 0.314518 0.251508 0.983838
O O11 0.238494 0.027783 0.040925
O O12 0.805341 0.146015 0.777847
O O13 0.823919 0.978707 0.496364
O O14 0.913824 0.756041 0.229785
#
# Coordination Sequence:
#
# PCOD8054262 Si02
#       7
#     4   4   4   4   4   4   4
#     4  10  18  37  62  92 122 164 218 262 308 389
#     4   9  22  39  62  92 132 168 216 267 325 393
#     4  11  24  41  67  95 137 171 225 271 333 395
#     4  11  24  43  65  98 133 177 221 272 331 396
#     4  12  23  41  71  98 130 176 224 276 328 394
#     4  12  24  43  66  98 131 178 220 276 330 396
#     4   9  19  36  61  91 121 168 212 268 303 391
#
# _framework density 21.369848000000001
#
# number of rings (size 3 to 8) (size 9 to 14) (size 15 to 20)
#    0.857    0.571    1.429    5.143    2.000    1.143 
#    0.000    0.000    3.143    0.000    0.000    0.000 
#    0.000    0.000    0.000    0.000    0.000    0.000 
#
# Total GULP energy -173438.672565 kJ/mol
# GULP energy per Si atom -12388.476612 kJ/mol
# Density = 2.132121 g / cm^3
# Si number density = 21.369848 Si / 1000 Ang^3
#
#
#
# Elastic Constant Matrix: (Units=GPa)
#
#
# Indices 1 2 3 4 5 6 
#
# 1 115.5407 22.7087 34.8653 0.0000 -23.2008 0.0000
# 2 22.7087 52.6406 16.0063 0.0000 -6.0691 0.0000
# 3 34.8653 16.0063 89.2674 0.0000 -13.0906 0.0000
# 4 0.0000 0.0000 0.0000 16.7851 0.0000 -1.5027
# 5 -23.2008 -6.0691 -13.0906 0.0000 44.4026 0.0000
# 6 0.0000 0.0000 0.0000 -1.5027 0.0000 36.3043
#
#
#
# Elastic Compliance Matrix: (Units=1/GPa)
#
#
# Indices 1 2 3 4 5 6 
#
# 1 0.011142 -0.003351 -0.003098 0.000000 0.004450 0.000000
# 2 -0.003351 0.021233 -0.002435 0.000000 0.000433 0.000000
# 3 -0.003098 -0.002435 0.013130 0.000000 0.001919 0.000000
# 4 0.000000 0.000000 0.000000 0.059798 0.000000 0.002475
# 5 0.004450 0.000433 0.001919 0.000000 0.025472 0.000000
# 6 0.000000 0.000000 0.000000 0.002475 0.000000 0.027647
#
#
# Mechanical properties :
#
#
# Convention : Reuss Voigt Hill
#
# Bulk Modulus (GPa) = 36.05344 44.95657 40.50500
# Shear Modulus (GPa) = 26.96333 31.75630 29.35982
#
# Velocity S-wave (km/s) = 3.55596 3.85909 3.71062
# Velocity P-wave (km/s) = 5.81099 6.39843 6.11177
#
# Compressibility (1/GPa) = 0.02773661
#
# Stress axis : x y z
#
# Youngs Moduli (GPa) = 89.74849 47.09699 76.15903
#
# Poissons Ratio (x) = 0.15785 0.23596
# Poissons Ratio (y) = 0.30079 0.18542
# Poissons Ratio (z) = 0.27806 0.11467
#
# Static dielectric constant tensor:
#      x y z
#    x 4.067380 0.000000 -0.111670 
#    y 0.000000 3.542470 0.000000 
#    z -0.111670 0.000000 3.823850 
# 
# 
# High freq. dielectric constant tensor:
#      x y z
#    x 1.859410 0.000000 -0.010470 
#    y 0.000000 1.807910 0.000000 
#    z -0.010470 0.000000 1.836640 
# 
# From -- ./inp_files/10436.got.cif
#   From: 2010.06.25/outbox.cif.g09.slc.cpg/sg9_6_cif.got.tgz:10436.got - 2010.06.27 21:40:51.
