data_PCOD8054890
_publ_section_title
;
Structure prediction by ZEFSAII (Michael W. Deem and Ramdas Pophale) SiO2 
 PCOD8054890
Probable space group: C C
;
_chemical_formula_sum "Si O2"
_cell_formula_units_Z 32
_cell_length_a 9.537846
_cell_length_b 18.106254
_cell_length_c 10.332035
_cell_angle_alpha 90.000000
_cell_angle_beta 57.817265
_cell_angle_gamma 90.000000
_cell_volume 1510.138154
_symmetry_space_group_name_H-M "C C"
_symmetry_group_IT_number 9
_symmetry_cell_setting 'monoclinic'
loop_
_space_group_symop_operation_xyz
x,y,z
x,-y,1/2+z
1/2+x,1/2+y,z
1/2+x,1/2-y,1/2+z
loop_
_atom_site_type_symbol
_atom_site_label
_atom_site_fract_x
_atom_site_fract_y
_atom_site_fract_z
Si Si1 0.641180 0.323221 0.875000
Si Si2 0.638938 0.966975 0.840628
Si Si3 0.341671 0.662897 0.360271
Si Si4 0.692520 0.924058 0.540015
Si Si5 0.030766 0.844791 0.333308
Si Si6 0.816569 0.379630 0.033089
Si Si7 0.523793 0.756024 0.060196
Si Si8 0.981209 0.718950 0.141699
O O1 0.489867 0.366186 0.879916
O O2 0.723167 0.375104 0.942199
O O3 0.788402 0.298857 0.705815
O O4 0.563971 0.248251 0.970954
O O5 0.775748 0.905726 0.810295
O O6 0.670042 0.981958 0.671525
O O7 0.451146 0.943288 0.960985
O O8 0.654139 0.039909 0.919938
O O9 0.186081 0.695794 0.518384
O O10 0.423048 0.727416 0.233082
O O11 0.573132 0.856262 0.637664
O O12 0.877523 0.896697 0.436217
O O13 0.087931 0.811694 0.441956
O O14 0.994540 0.779204 0.248871
O O15 0.178437 0.897465 0.209430
O O16 0.898681 0.301317 0.029316
#
# Coordination Sequence:
#
# PCOD8054890 Si02
#       8
#     4   4   4   4   4   4   4   4
#     4  11  21  36  66 102 130 165 219 291 339 398
#     4  11  26  47  67  95 141 189 228 273 340 425
#     4  11  23  38  63 100 138 168 217 286 341 399
#     4  12  24  46  70 100 136 187 229 278 344 411
#     4  11  19  38  73  98 121 172 228 279 336 400
#     4  10  21  39  67  94 130 173 220 276 334 404
#     4  11  18  37  64  98 131 165 219 278 337 387
#     4  11  20  39  68 101 129 165 222 283 347 394
#
# _framework density 21.190114999999999
#
# number of rings (size 3 to 8) (size 9 to 14) (size 15 to 20)
#    0.000    1.000    6.250    2.250    0.000    2.000 
#    6.750    1.250    0.000    0.000    0.000    0.000 
#    0.000    0.000    0.000    0.000    0.000    0.000 
#
# Total GULP energy -198342.915177 kJ/mol
# GULP energy per Si atom -12396.432199 kJ/mol
# Density = 2.114189 g / cm^3
# Si number density = 21.190115 Si / 1000 Ang^3
#
#
#
# Elastic Constant Matrix: (Units=GPa)
#
#
# Indices 1 2 3 4 5 6 
#
# 1 115.9016 7.5799 31.3257 0.0000 -18.5803 0.0000
# 2 7.5799 38.3918 21.3049 0.0000 -1.7195 0.0000
# 3 31.3257 21.3049 114.9123 0.0000 -22.3015 0.0000
# 4 0.0000 0.0000 0.0000 24.8837 0.0000 7.8983
# 5 -18.5803 -1.7195 -22.3015 0.0000 42.6321 0.0000
# 6 0.0000 0.0000 0.0000 7.8983 0.0000 13.4556
#
#
#
# Elastic Compliance Matrix: (Units=1/GPa)
#
#
# Indices 1 2 3 4 5 6 
#
# 1 0.009700 -0.000724 -0.001887 0.000000 0.003211 0.000000
# 2 -0.000724 0.029218 -0.005623 0.000000 -0.002079 0.000000
# 3 -0.001887 -0.005623 0.011192 0.000000 0.004805 0.000000
# 4 0.000000 0.000000 0.000000 0.049389 0.000000 -0.028991
# 5 0.003211 -0.002079 0.004805 0.000000 0.027286 0.000000
# 6 0.000000 0.000000 0.000000 -0.028991 0.000000 0.091336
#
#
# Mechanical properties :
#
#
# Convention : Reuss Voigt Hill
#
# Bulk Modulus (GPa) = 29.72526 43.29184 36.50855
# Shear Modulus (GPa) = 20.34156 30.12729 25.23442
#
# Velocity S-wave (km/s) = 3.10168 3.77472 3.45463
# Velocity P-wave (km/s) = 5.18513 6.28272 5.76012
#
# Compressibility (1/GPa) = 0.03364142
#
# Stress axis : x y z
#
# Youngs Moduli (GPa) = 103.09109 34.22603 89.35151
#
# Poissons Ratio (x) = 0.02479 0.16859
# Poissons Ratio (y) = 0.07467 0.50242
# Poissons Ratio (z) = 0.19451 0.19245
#
# Static dielectric constant tensor:
#      x y z
#    x 3.993620 0.000000 -0.219950 
#    y 0.000000 3.430250 0.000000 
#    z -0.219950 0.000000 4.145850 
# 
# 
# High freq. dielectric constant tensor:
#      x y z
#    x 1.834550 0.000000 -0.018510 
#    y 0.000000 1.784350 0.000000 
#    z -0.018510 0.000000 1.850630 
# 
# From -- ./inp_files/15156.got.cif
#   From: 2010.06.25/outbox.cif.g09.slc.cpg/sg9_8_cif.got.tgz:15156.got - 2010.06.27 21:40:51.
