data_PCOD8054123
_publ_section_title
;
Structure prediction by ZEFSAII (Michael W. Deem and Ramdas Pophale) SiO2 
 PCOD8054123
Probable space group: C M
;
_chemical_formula_sum "Si O2"
_cell_formula_units_Z 20
_cell_length_a 7.417786
_cell_length_b 26.917402
_cell_length_c 6.737668
_cell_angle_alpha 90.000000
_cell_angle_beta 40.188517
_cell_angle_gamma 90.000000
_cell_volume 868.124089
_symmetry_space_group_name_H-M "C M"
_symmetry_group_IT_number 8
_symmetry_cell_setting 'monoclinic'
loop_
_space_group_symop_operation_xyz
x,y,z
x,-y,z
1/2+x,1/2+y,z
1/2+x,1/2-y,z
loop_
_atom_site_type_symbol
_atom_site_label
_atom_site_fract_x
_atom_site_fract_y
_atom_site_fract_z
Si Si1 0.340480 0.500000 0.921860
Si Si2 0.936899 0.500000 0.627189
Si Si3 0.509196 0.294508 0.753907
Si Si4 0.170401 0.857777 0.291576
Si Si5 0.006509 0.768121 0.180562
Si Si6 0.672644 0.922337 0.736864
O O1 0.314106 0.453415 0.795742
O O2 0.616030 0.500000 0.827442
O O3 0.092806 0.500000 0.287450
O O4 0.010013 0.452855 0.703962
O O5 0.605429 0.347158 0.579546
O O6 0.197200 0.278364 0.951840
O O7 0.474949 0.303495 0.017118
O O8 0.717717 0.249684 0.518221
O O9 0.921583 0.892666 0.417377
O O10 0.169299 0.802012 0.203505
O O11 0.464200 0.883691 0.014346
#
# Coordination Sequence:
#
# PCOD8054123 Si02
#       6
#     2   2   4   4   4   4
#     4  11  24  47  76  98 140 177 218 277 357 427
#     4  11  24  47  76  98 140 177 218 277 357 427
#     4  12  23  41  64  91 129 182 231 276 334 388
#     4  12  24  41  68  98 144 172 236 287 328 404
#     4  12  23  41  64  91 129 182 231 276 334 388
#     4  11  26  44  68 108 136 176 224 288 346 407
#
# _framework density 23.038181000000002
#
# number of rings (size 3 to 8) (size 9 to 14) (size 15 to 20)
#    0.000    0.400    4.000    4.800    0.000    8.000 
#    0.000    0.000    0.000    0.000    0.000    0.000 
#    0.000    0.000    0.000    0.000    0.000    0.000 
#
# Total GULP energy -123958.920696 kJ/mol
# GULP energy per Si atom -12395.892070 kJ/mol
# Density = 2.298575 g / cm^3
# Si number density = 23.038181 Si / 1000 Ang^3
#
#
#
# Elastic Constant Matrix: (Units=GPa)
#
#
# Indices 1 2 3 4 5 6 
#
# 1 93.5228 2.0854 -0.5813 0.0000 2.0526 0.0000
# 2 2.0854 65.2024 0.5178 0.0000 0.0628 0.0000
# 3 -0.5813 0.5178 82.1452 0.0000 2.5419 0.0000
# 4 0.0000 0.0000 0.0000 28.7608 0.0000 -0.7890
# 5 2.0526 0.0628 2.5419 0.0000 38.4595 0.0000
# 6 0.0000 0.0000 0.0000 -0.7890 0.0000 19.9541
#
#
#
# Elastic Compliance Matrix: (Units=1/GPa)
#
#
# Indices 1 2 3 4 5 6 
#
# 1 0.010714 -0.000343 0.000096 0.000000 -0.000578 0.000000
# 2 -0.000343 0.015349 -0.000099 0.000000 0.000000 0.000000
# 3 0.000096 -0.000099 0.012200 0.000000 -0.000811 0.000000
# 4 0.000000 0.000000 0.000000 0.034807 0.000000 0.001376
# 5 -0.000578 0.000000 -0.000811 0.000000 0.026086 0.000000
# 6 0.000000 0.000000 0.000000 0.001376 0.000000 0.050169
#
#
# Mechanical properties :
#
#
# Convention : Reuss Voigt Hill
#
# Bulk Modulus (GPa) = 26.61719 27.21269 26.91494
# Shear Modulus (GPa) = 30.76162 33.35811 32.05987
#
# Velocity S-wave (km/s) = 3.65806 3.80932 3.73446
# Velocity P-wave (km/s) = 5.42407 5.58440 5.50482
#
# Compressibility (1/GPa) = 0.03756971
#
# Stress axis : x y z
#
# Youngs Moduli (GPa) = 93.34017 65.15245 81.96742
#
# Poissons Ratio (x) = 0.02234 -0.00786
# Poissons Ratio (y) = 0.03200 0.00813
# Poissons Ratio (z) = -0.00895 0.00646
#
# Static dielectric constant tensor:
#      x y z
#    x 4.258150 0.000000 0.115910 
#    y 0.000000 4.711930 0.000000 
#    z 0.115910 0.000000 4.195260 
# 
# 
# High freq. dielectric constant tensor:
#      x y z
#    x 1.917890 0.000000 0.001940 
#    y 0.000000 1.898530 0.000000 
#    z 0.001940 0.000000 1.930700 
# 
# From -- ./inp_files/9283.got.cif
#   From: 2010.03.12/outbox.cif.g09.slc.cpg/sg8_5_cif.got.tgz:9283.got - 2010.03.31 10:45:26.
