data_PCOD8054248
_publ_section_title
;
Structure prediction by ZEFSAII (Michael W. Deem and Ramdas Pophale) SiO2 
 PCOD8054248
Probable space group: C C
;
_chemical_formula_sum "Si O2"
_cell_formula_units_Z 32
_cell_length_a 9.262098
_cell_length_b 17.071125
_cell_length_c 14.903422
_cell_angle_alpha 90.000000
_cell_angle_beta 139.132547
_cell_angle_gamma 90.000000
_cell_volume 1541.849424
_symmetry_space_group_name_H-M "C C"
_symmetry_group_IT_number 9
_symmetry_cell_setting 'monoclinic'
loop_
_space_group_symop_operation_xyz
x,y,z
x,-y,1/2+z
1/2+x,1/2+y,z
1/2+x,1/2-y,1/2+z
loop_
_atom_site_type_symbol
_atom_site_label
_atom_site_fract_x
_atom_site_fract_y
_atom_site_fract_z
Si Si1 0.805390 0.631248 0.230370
Si Si2 0.780860 0.676222 0.542387
Si Si3 0.230587 0.402624 0.192284
Si Si4 0.554820 0.265671 0.273891
Si Si5 0.843638 0.094367 0.933251
Si Si6 0.129341 0.237885 0.296896
Si Si7 0.953015 0.179545 0.538288
Si Si8 0.669986 0.036427 0.473296
O O1 0.785753 0.689825 0.304941
O O2 0.940710 0.680259 0.220282
O O3 0.919604 0.554290 0.326008
O O4 0.592236 0.601680 0.080098
O O5 0.611962 0.693649 0.382788
O O6 0.625097 0.643261 0.547414
O O7 0.980386 0.622969 0.599713
O O8 0.891388 0.754890 0.637093
O O9 0.393013 0.329174 0.246524
O O10 0.328364 0.446696 0.326951
O O11 0.210975 0.463437 0.100248
O O12 0.592145 0.290672 0.188882
O O13 0.797265 0.252454 0.432293
O O14 0.731824 0.177849 0.866274
O O15 0.724010 0.047319 0.956397
O O16 0.809180 0.105693 0.496272
#
# Coordination Sequence:
#
# PCOD8054248 Si02
#       8
#     4   4   4   4   4   4   4   4
#     4  11  20  39  67  94 124 175 225 268 321 402
#     4  11  20  35  60  95 120 164 214 278 319 373
#     4  10  20  39  67  85 127 174 225 256 330 397
#     4  10  18  36  61  91 120 169 215 268 318 389
#     4  11  22  39  63 101 124 166 223 276 320 388
#     4  11  20  35  65  94 118 164 224 272 306 388
#     4  10  22  35  57  91 135 156 209 279 335 370
#     4  10  24  42  60  95 134 176 213 271 343 405
#
# _framework density 20.754297999999999
#
# number of rings (size 3 to 8) (size 9 to 14) (size 15 to 20)
#    0.000    1.500    5.000    1.500    1.750    2.000 
#    2.250    2.500    0.000    0.000    0.000    0.000 
#    0.000    0.000    0.000    0.000    0.000    0.000 
#
# Total GULP energy -198222.972901 kJ/mol
# GULP energy per Si atom -12388.935806 kJ/mol
# Density = 2.070706 g / cm^3
# Si number density = 20.754298 Si / 1000 Ang^3
#
#
#
# Elastic Constant Matrix: (Units=GPa)
#
#
# Indices 1 2 3 4 5 6 
#
# 1 119.0750 24.3236 43.5131 -0.0002 -25.4791 0.0000
# 2 24.3236 42.8286 30.8047 0.0000 -12.4690 0.0000
# 3 43.5131 30.8047 112.4226 -0.0003 -27.4053 0.0004
# 4 -0.0002 0.0000 -0.0003 13.8004 -0.0002 -5.8864
# 5 -25.4791 -12.4690 -27.4053 -0.0002 37.6999 0.0001
# 6 0.0000 0.0000 0.0004 -5.8864 0.0001 25.2145
#
#
#
# Elastic Compliance Matrix: (Units=1/GPa)
#
#
# Indices 1 2 3 4 5 6 
#
# 1 0.010856 -0.003239 -0.002172 0.000000 0.004687 0.000000
# 2 -0.003239 0.030733 -0.006348 0.000000 0.003361 0.000000
# 3 -0.002172 -0.006348 0.012890 0.000000 0.005802 0.000000
# 4 0.000000 0.000000 0.000000 0.080475 0.000001 0.018787
# 5 0.004687 0.003361 0.005802 0.000001 0.035023 0.000000
# 6 0.000000 0.000000 0.000000 0.018787 0.000000 0.044046
#
#
# Mechanical properties :
#
#
# Convention : Reuss Voigt Hill
#
# Bulk Modulus (GPa) = 32.29888 52.40101 42.34994
# Shear Modulus (GPa) = 20.17270 27.05528 23.61399
#
# Velocity S-wave (km/s) = 3.12104 3.61446 3.37677
# Velocity P-wave (km/s) = 5.34641 6.53622 5.97102
#
# Compressibility (1/GPa) = 0.03096083
#
# Stress axis : x y z
#
# Youngs Moduli (GPa) = 92.11286 32.53857 77.58242
#
# Poissons Ratio (x) = 0.10539 0.16850
# Poissons Ratio (y) = 0.29834 0.49250
# Poissons Ratio (z) = 0.20006 0.20656
#
# Static dielectric constant tensor:
#      x y z
#    x 3.944590 0.000000 -0.317510 
#    y 0.000000 3.373170 0.000000 
#    z -0.317510 0.000000 4.342560 
# 
# 
# High freq. dielectric constant tensor:
#      x y z
#    x 1.813740 0.000000 -0.014790 
#    y 0.000000 1.769100 0.000000 
#    z -0.014790 0.000000 1.833150 
# 
# From -- ./inp_files/15176.got.cif
#   From: 2010.06.25/outbox.cif.g09.slc.cpg/sg9_8_cif.got.tgz:15176.got - 2010.06.27 21:40:51.
