data_PCOD8055399
_publ_section_title
;
Structure prediction by ZEFSAII (Michael W. Deem and Ramdas Pophale) SiO2 
 PCOD8055399
Probable space group: C C
;
_chemical_formula_sum "Si O2"
_cell_formula_units_Z 32
_cell_length_a 24.253672
_cell_length_b 13.628363
_cell_length_c 9.262818
_cell_angle_alpha 90.000000
_cell_angle_beta 28.212679
_cell_angle_gamma 90.000000
_cell_volume 1447.411377
_symmetry_space_group_name_H-M "C C"
_symmetry_group_IT_number 9
_symmetry_cell_setting 'monoclinic'
loop_
_space_group_symop_operation_xyz
x,y,z
x,-y,1/2+z
1/2+x,1/2+y,z
1/2+x,1/2-y,1/2+z
loop_
_atom_site_type_symbol
_atom_site_label
_atom_site_fract_x
_atom_site_fract_y
_atom_site_fract_z
Si Si1 0.867330 0.232561 0.483570
Si Si2 0.481540 0.606349 0.713792
Si Si3 0.879763 0.525431 0.671548
Si Si4 0.013746 0.418342 0.131841
Si Si5 0.207066 0.795578 0.600284
Si Si6 0.246190 0.172378 0.508635
Si Si7 0.226387 0.675196 0.277473
Si Si8 0.009974 0.084942 0.981891
O O1 0.770055 0.264651 0.598304
O O2 0.971780 0.308777 0.256066
O O3 0.918803 0.130588 0.307923
O O4 0.807716 0.237341 0.779000
O O5 0.574899 0.689635 0.459123
O O6 0.532146 0.520292 0.497881
O O7 0.356016 0.638337 0.948898
O O8 0.465892 0.580115 0.918973
O O9 0.938853 0.502723 0.382437
O O10 0.989362 0.558463 0.519741
O O11 0.779967 0.608183 0.877731
O O12 0.823990 0.423875 0.857215
O O13 0.145252 0.410706 0.892836
O O14 0.204103 0.703255 0.496354
O O15 0.209351 0.218233 0.745029
O O16 0.130406 0.142763 0.690198
#
# Coordination Sequence:
#
# PCOD8055399 Si02
#       8
#     4   4   4   4   4   4   4   4
#     4  10  22  45  68  96 133 176 228 285 336 404
#     4  12  29  43  71 104 141 183 229 288 356 405
#     4  10  22  43  70  98 127 172 229 287 327 404
#     4  10  23  42  66  97 132 174 225 276 343 396
#     4  11  23  45  70  98 137 178 236 278 342 414
#     4  11  23  42  73  99 132 179 229 281 345 401
#     4  12  27  43  65 104 143 182 222 280 350 423
#     4  12  25  47  67 104 139 176 234 289 343 417
#
# _framework density 22.108433999999999
#
# number of rings (size 3 to 8) (size 9 to 14) (size 15 to 20)
#    0.000    1.000    5.000    0.750    7.000    1.000 
#    0.000    0.000    0.000    0.000    0.000    0.000 
#    0.000    0.000    0.000    0.000    0.000    0.000 
#
# Total GULP energy -198225.671257 kJ/mol
# GULP energy per Si atom -12389.104454 kJ/mol
# Density = 2.205811 g / cm^3
# Si number density = 22.108434 Si / 1000 Ang^3
#
#
#
# Elastic Constant Matrix: (Units=GPa)
#
#
# Indices 1 2 3 4 5 6 
#
# 1 63.8439 13.9634 51.1784 0.0000 -20.3166 0.0000
# 2 13.9634 39.5881 19.6899 0.0000 -1.6850 0.0000
# 3 51.1784 19.6899 78.3286 0.0000 -16.3648 0.0000
# 4 0.0000 0.0000 0.0000 31.1990 0.0000 0.5167
# 5 -20.3166 -1.6850 -16.3648 0.0000 36.0753 0.0000
# 6 0.0000 0.0000 0.0000 0.5167 0.0000 23.9208
#
#
#
# Elastic Compliance Matrix: (Units=1/GPa)
#
#
# Indices 1 2 3 4 5 6 
#
# 1 0.036399 -0.001916 -0.021030 0.000000 0.010870 0.000000
# 2 -0.001916 0.029122 -0.006639 0.000000 -0.002731 0.000000
# 3 -0.021030 -0.006639 0.028321 0.000000 0.000694 0.000000
# 4 0.000000 0.000000 0.000000 0.032064 0.000000 -0.000693
# 5 0.010870 -0.002731 0.000694 0.000000 0.034028 0.000000
# 6 0.000000 0.000000 0.000000 -0.000693 0.000000 0.041820
#
#
# Mechanical properties :
#
#
# Convention : Reuss Voigt Hill
#
# Bulk Modulus (GPa) = 28.84187 39.04712 33.94450
# Shear Modulus (GPa) = 18.34988 24.70095 21.52541
#
# Velocity S-wave (km/s) = 2.88409 3.34618 3.12369
# Velocity P-wave (km/s) = 4.91575 5.71219 5.32887
#
# Compressibility (1/GPa) = 0.03467181
#
# Stress axis : x y z
#
# Youngs Moduli (GPa) = 27.47313 34.33851 35.30944
#
# Poissons Ratio (x) = 0.06580 0.74255
# Poissons Ratio (y) = 0.05265 0.23442
# Poissons Ratio (z) = 0.57776 0.22797
#
# Static dielectric constant tensor:
#      x y z
#    x 4.075760 0.000000 -0.086510 
#    y 0.000000 4.142810 0.000000 
#    z -0.086510 0.000000 4.141250 
# 
# 
# High freq. dielectric constant tensor:
#      x y z
#    x 1.884740 0.000000 -0.004370 
#    y 0.000000 1.851900 0.000000 
#    z -0.004370 0.000000 1.868980 
# 
# From -- ./inp_files/7377.got.cif
#   From: 2010.06.25/outbox.cif.g09.slc.cpg/sg9_4_cif.got.tgz:7377.got - 2010.06.27 21:40:51.
