data_PCOD8055856
_publ_section_title
;
Structure prediction by ZEFSAII (Michael W. Deem and Ramdas Pophale) SiO2 
 PCOD8055856
Probable space group: C C
;
_chemical_formula_sum "Si O2"
_cell_formula_units_Z 20
_cell_length_a 5.170548
_cell_length_b 18.362345
_cell_length_c 9.398658
_cell_angle_alpha 90.000000
_cell_angle_beta 103.650611
_cell_angle_gamma 90.000000
_cell_volume 867.134400
_symmetry_space_group_name_H-M "C C"
_symmetry_group_IT_number 9
_symmetry_cell_setting 'monoclinic'
loop_
_space_group_symop_operation_xyz
x,y,z
x,-y,1/2+z
1/2+x,1/2+y,z
1/2+x,1/2-y,1/2+z
loop_
_atom_site_type_symbol
_atom_site_label
_atom_site_fract_x
_atom_site_fract_y
_atom_site_fract_z
Si Si1 0.960960 0.466971 0.282580
Si Si2 0.005517 0.099940 0.916138
Si Si3 0.943763 0.782837 0.179259
Si Si4 0.885994 0.348796 0.048957
Si Si5 0.315800 0.874780 0.728804
O O1 0.719055 0.448328 0.357621
O O2 0.923629 0.427630 0.125935
O O3 0.993733 0.552473 0.254692
O O4 0.231490 0.442886 0.391318
O O5 0.965361 0.178258 0.835771
O O6 0.072672 0.111933 0.090105
O O7 0.671888 0.809215 0.067536
O O8 0.971185 0.696178 0.195244
O O9 0.201218 0.799469 0.121137
O O10 0.730641 0.359073 0.880235
#
# Coordination Sequence:
#
# PCOD8055856 Si02
#       5
#     4   4   4   4   4
#     4  10  24  44  64  94 134 170 212 266 320 380
#     4  10  24  44  64  94 134 170 212 266 320 380
#     4  10  24  44  64  94 134 170 212 266 320 380
#     4  10  24  44  64  94 134 170 212 266 320 380
#     4  12  24  42  72  98 124 174 220 262 320 382
#
# _framework density 23.064477
#
# number of rings (size 3 to 8) (size 9 to 14) (size 15 to 20)
#    0.000    1.600    0.000    2.400    0.000   19.200 
#    0.000    0.000    0.000    0.000    0.000    0.000 
#    0.000    0.000    0.000    0.000    0.000    0.000 
#
# Total GULP energy -123992.003759 kJ/mol
# GULP energy per Si atom -12399.200376 kJ/mol
# Density = 2.301198 g / cm^3
# Si number density = 23.064477 Si / 1000 Ang^3
#
#
#
# Elastic Constant Matrix: (Units=GPa)
#
#
# Indices 1 2 3 4 5 6 
#
# 1 74.2947 17.1379 2.6787 0.0000 17.7336 0.0000
# 2 17.1379 187.9500 30.7400 0.0000 13.0972 0.0000
# 3 2.6787 30.7400 155.8556 0.0000 37.1016 0.0000
# 4 0.0000 0.0000 0.0000 17.8268 0.0000 0.4706
# 5 17.7336 13.0972 37.1016 0.0000 23.2617 0.0000
# 6 0.0000 0.0000 0.0000 0.4706 0.0000 13.6126
#
#
#
# Elastic Compliance Matrix: (Units=1/GPa)
#
#
# Indices 1 2 3 4 5 6 
#
# 1 0.018704 -0.001017 0.005058 0.000000 -0.021753 0.000000
# 2 -0.001017 0.005624 -0.000842 0.000000 -0.001048 0.000000
# 3 0.005058 -0.000842 0.011769 0.000000 -0.022152 0.000000
# 4 0.000000 0.000000 0.000000 0.056146 0.000000 -0.001941
# 5 -0.021753 -0.001048 -0.022152 0.000000 0.095495 0.000000
# 6 0.000000 0.000000 0.000000 -0.001941 0.000000 0.073528
#
#
# Mechanical properties :
#
#
# Convention : Reuss Voigt Hill
#
# Bulk Modulus (GPa) = 23.53272 57.69040 40.61156
# Shear Modulus (GPa) = 18.58494 35.44315 27.01405
#
# Velocity S-wave (km/s) = 2.84171 3.92433 3.42605
# Velocity P-wave (km/s) = 4.58173 6.75283 5.77031
#
# Compressibility (1/GPa) = 0.04249402
#
# Stress axis : x y z
#
# Youngs Moduli (GPa) = 53.46309 177.80722 84.97081
#
# Poissons Ratio (x) = 0.18080 -0.42974
# Poissons Ratio (y) = 0.05436 0.07157
# Poissons Ratio (z) = -0.27039 0.14977
#
# Static dielectric constant tensor:
#      x y z
#    x 3.860680 0.000000 0.158180 
#    y 0.000000 4.369880 0.000000 
#    z 0.158180 0.000000 4.315330 
# 
# 
# High freq. dielectric constant tensor:
#      x y z
#    x 1.893790 0.000000 0.008190 
#    y 0.000000 1.926840 0.000000 
#    z 0.008190 0.000000 1.923180 
# 
# From -- ./inp_files/3604.got.cif
#   From: 2010.06.25/outbox.cif.g09.slc.cpg/sg9_2_cif.got.tgz:3604.got - 2010.06.27 21:40:51.
