data_PCOD8055611
_publ_section_title
;
Structure prediction by ZEFSAII (Michael W. Deem and Ramdas Pophale) SiO2 
 PCOD8055611
Probable space group: C C
;
_chemical_formula_sum "Si O2"
_cell_formula_units_Z 32
_cell_length_a 5.465827
_cell_length_b 16.066353
_cell_length_c 15.564684
_cell_angle_alpha 90.000000
_cell_angle_beta 110.276464
_cell_angle_gamma 90.000000
_cell_volume 1282.126441
_symmetry_space_group_name_H-M "C C"
_symmetry_group_IT_number 9
_symmetry_cell_setting 'monoclinic'
loop_
_space_group_symop_operation_xyz
x,y,z
x,-y,1/2+z
1/2+x,1/2+y,z
1/2+x,1/2-y,1/2+z
loop_
_atom_site_type_symbol
_atom_site_label
_atom_site_fract_x
_atom_site_fract_y
_atom_site_fract_z
Si Si1 0.238710 0.691982 0.044670
Si Si2 0.285539 0.680054 0.796105
Si Si3 0.178137 0.927612 0.609672
Si Si4 0.260472 0.094032 0.932511
Si Si5 0.328444 0.177571 0.422336
Si Si6 0.944321 0.468017 0.280141
Si Si7 0.547551 0.223171 0.198401
Si Si8 0.778001 0.883908 0.867110
O O1 0.378041 0.602380 0.075975
O O2 0.205830 0.740389 0.130791
O O3 0.399579 0.756938 0.006086
O O4 0.968082 0.670057 0.963583
O O5 0.479037 0.635117 0.886292
O O6 0.227335 0.772323 0.825505
O O7 0.025374 0.624259 0.759284
O O8 0.411176 0.691584 0.716263
O O9 0.254214 0.956933 0.522114
O O10 0.333909 0.845710 0.652939
O O11 0.230653 0.999608 0.685578
O O12 0.319546 0.033141 0.859936
O O13 0.594618 0.128371 0.429807
O O14 0.089728 0.116828 0.424536
O O15 0.197686 0.528397 0.313415
O O16 0.736378 0.191921 0.296700
#
# Coordination Sequence:
#
# PCOD8055611 Si02
#       8
#     4   4   4   4   4   4   4   4
#     4  11  21  40  71 100 139 188 240 307 364 434
#     4  11  23  43  72 103 137 189 249 293 365 439
#     4  10  23  43  66 103 143 189 242 299 371 446
#     4  11  22  43  71  98 142 197 242 292 379 440
#     4  11  22  43  71  98 135 183 248 292 352 433
#     4  11  25  43  71 102 147 196 234 306 371 446
#     4   9  23  37  67  98 133 177 242 298 356 426
#     4  10  25  42  67 102 134 187 237 295 360 432
#
# _framework density 24.958534
#
# number of rings (size 3 to 8) (size 9 to 14) (size 15 to 20)
#    0.000    1.500    2.500    1.500    8.750    2.000 
#    2.250    1.250    0.000    0.000    0.000    0.000 
#    0.000    0.000    0.000    0.000    0.000    0.000 
#
# Total GULP energy -198367.435689 kJ/mol
# GULP energy per Si atom -12397.964731 kJ/mol
# Density = 2.490173 g / cm^3
# Si number density = 24.958534 Si / 1000 Ang^3
#
#
#
# Elastic Constant Matrix: (Units=GPa)
#
#
# Indices 1 2 3 4 5 6 
#
# 1 118.2189 12.2853 37.7750 0.0000 -17.0829 0.0000
# 2 12.2853 42.6557 19.9710 0.0000 -13.2002 0.0000
# 3 37.7750 19.9710 135.2340 0.0000 -36.5040 0.0000
# 4 0.0000 0.0000 0.0000 42.2239 0.0000 -6.2104
# 5 -17.0829 -13.2002 -36.5040 0.0000 44.6307 0.0000
# 6 0.0000 0.0000 0.0000 -6.2104 0.0000 36.2919
#
#
#
# Elastic Compliance Matrix: (Units=1/GPa)
#
#
# Indices 1 2 3 4 5 6 
#
# 1 0.009470 -0.001288 -0.002027 0.000000 0.001586 0.000000
# 2 -0.001288 0.026524 -0.002018 0.000000 0.005701 0.000000
# 3 -0.002027 -0.002018 0.010123 0.000000 0.006907 0.000000
# 4 0.000000 0.000000 0.000000 0.024295 0.000000 0.004157
# 5 0.001586 0.005701 0.006907 0.000000 0.030349 0.000000
# 6 0.000000 0.000000 0.000000 0.004157 0.000000 0.028266
#
#
# Mechanical properties :
#
#
# Convention : Reuss Voigt Hill
#
# Bulk Modulus (GPa) = 28.20814 48.46346 38.33580
# Shear Modulus (GPa) = 33.00150 39.70112 36.35131
#
# Velocity S-wave (km/s) = 3.64022 3.99266 3.82051
# Velocity P-wave (km/s) = 5.38469 6.38082 5.90380
#
# Compressibility (1/GPa) = 0.03545077
#
# Stress axis : x y z
#
# Youngs Moduli (GPa) = 105.60200 37.70230 98.78199
#
# Poissons Ratio (x) = 0.04854 0.20022
# Poissons Ratio (y) = 0.13597 0.19938
# Poissons Ratio (z) = 0.21404 0.07610
#
# Static dielectric constant tensor:
#      x y z
#    x 4.526210 0.000000 -0.201280 
#    y 0.000000 4.195530 0.000000 
#    z -0.201280 0.000000 4.577290 
# 
# 
# High freq. dielectric constant tensor:
#      x y z
#    x 1.998900 0.000000 -0.012290 
#    y 0.000000 1.967480 0.000000 
#    z -0.012290 0.000000 1.985880 
# 
# From -- ./inp_files/22097.got.cif
#   From: 2010.06.25/outbox.cif.g09.slc.cpg/sg9_12_cif.got.tgz:22097.got - 2010.06.27 21:40:51.
