data_PCOD8055373
_publ_section_title
;
Structure prediction by ZEFSAII (Michael W. Deem and Ramdas Pophale) SiO2 
 PCOD8055373
Probable space group: C C
;
_chemical_formula_sum "Si O2"
_cell_formula_units_Z 28
_cell_length_a 8.690890
_cell_length_b 11.763205
_cell_length_c 13.890610
_cell_angle_alpha 90.000000
_cell_angle_beta 119.599222
_cell_angle_gamma 90.000000
_cell_volume 1234.757408
_symmetry_space_group_name_H-M "C C"
_symmetry_group_IT_number 9
_symmetry_cell_setting 'monoclinic'
loop_
_space_group_symop_operation_xyz
x,y,z
x,-y,1/2+z
1/2+x,1/2+y,z
1/2+x,1/2-y,1/2+z
loop_
_atom_site_type_symbol
_atom_site_label
_atom_site_fract_x
_atom_site_fract_y
_atom_site_fract_z
Si Si1 0.669310 0.059090 0.475120
Si Si2 0.999356 0.155494 0.208913
Si Si3 0.884400 0.736830 0.354440
Si Si4 0.903463 0.757473 0.143836
Si Si5 0.089546 0.091247 0.038665
Si Si6 0.437222 0.394864 0.896720
Si Si7 0.135405 0.304570 0.545363
O O1 0.478049 0.119341 0.414603
O O2 0.810287 0.125306 0.584910
O O3 0.756308 0.065255 0.394222
O O4 0.634801 0.934762 0.508002
O O5 0.920680 0.088143 0.276708
O O6 0.842029 0.234627 0.115615
O O7 0.171819 0.228145 0.289875
O O8 0.049968 0.067250 0.139413
O O9 0.957413 0.769919 0.271585
O O10 0.929408 0.835609 0.443116
O O11 0.772523 0.653539 0.083149
O O12 0.072924 0.719737 0.135371
O O13 0.098446 0.971695 0.986808
O O14 0.503728 0.265883 0.935586
#
# Coordination Sequence:
#
# PCOD8055373 Si02
#       7
#     4   4   4   4   4   4   4
#     4  10  22  43  65  95 139 176 224 283 336 410
#     4  11  23  41  64  98 130 179 227 274 343 406
#     4  10  22  43  66  95 133 180 226 277 346 401
#     4   9  22  42  67  94 129 182 220 280 341 403
#     4  10  22  43  64  96 132 168 232 281 333 406
#     4  11  24  41  67  95 134 175 219 288 337 404
#     4  11  23  43  63 101 137 172 228 281 338 410
#
# _framework density 22.676517
#
# number of rings (size 3 to 8) (size 9 to 14) (size 15 to 20)
#    0.000    1.714    1.429    1.714    4.000    0.000 
#    5.143    0.000    0.000    0.000    0.000    0.000 
#    0.000    0.000    0.000    0.000    0.000    0.000 
#
# Total GULP energy -173481.076449 kJ/mol
# GULP energy per Si atom -12391.505461 kJ/mol
# Density = 2.262490 g / cm^3
# Si number density = 22.676517 Si / 1000 Ang^3
#
#
#
# Elastic Constant Matrix: (Units=GPa)
#
#
# Indices 1 2 3 4 5 6 
#
# 1 96.5279 30.1610 30.4666 0.0000 -0.1009 0.0000
# 2 30.1610 109.2882 19.1529 0.0000 -4.9369 0.0000
# 3 30.4666 19.1529 80.6407 0.0000 -14.9693 0.0000
# 4 0.0000 0.0000 0.0000 18.5421 0.0000 -0.1993
# 5 -0.1009 -4.9369 -14.9693 0.0000 52.0605 0.0000
# 6 0.0000 0.0000 0.0000 -0.1993 0.0000 30.4923
#
#
#
# Elastic Compliance Matrix: (Units=1/GPa)
#
#
# Indices 1 2 3 4 5 6 
#
# 1 0.012610 -0.002780 -0.004382 0.000000 -0.001499 0.000000
# 2 -0.002780 0.010164 -0.001253 0.000000 0.000598 0.000000
# 3 -0.004382 -0.001253 0.015138 0.000000 0.004225 0.000000
# 4 0.000000 0.000000 0.000000 0.053935 0.000000 0.000353
# 5 -0.001499 0.000598 0.004225 0.000000 0.020477 0.000000
# 6 0.000000 0.000000 0.000000 0.000353 0.000000 0.032797
#
#
# Mechanical properties :
#
#
# Convention : Reuss Voigt Hill
#
# Bulk Modulus (GPa) = 47.43260 49.55755 48.49507
# Shear Modulus (GPa) = 29.58953 33.99738 31.79346
#
# Velocity S-wave (km/s) = 3.61619 3.87619 3.74845
# Velocity P-wave (km/s) = 6.19663 6.47570 6.33771
#
# Compressibility (1/GPa) = 0.02108255
#
# Stress axis : x y z
#
# Youngs Moduli (GPa) = 79.30333 98.38801 66.05800
#
# Poissons Ratio (x) = 0.27350 0.28948
# Poissons Ratio (y) = 0.22044 0.08275
# Poissons Ratio (z) = 0.34752 0.12326
#
# Static dielectric constant tensor:
#      x y z
#    x 4.288650 0.000000 -0.164610 
#    y 0.000000 3.896140 0.000000 
#    z -0.164610 0.000000 4.303230 
# 
# 
# High freq. dielectric constant tensor:
#      x y z
#    x 1.904720 0.000000 -0.010480 
#    y 0.000000 1.871650 0.000000 
#    z -0.010480 0.000000 1.904590 
# 
# From -- ./inp_files/22825.got.cif
#   From: 2010.06.25/outbox.cif.g09.slc.cpg/sg9_12_cif.got.tgz:22825.got - 2010.06.27 21:40:51.
