data_PCOD8055682
_publ_section_title
;
Structure prediction by ZEFSAII (Michael W. Deem and Ramdas Pophale) SiO2 
 PCOD8055682
Probable space group: C C
;
_chemical_formula_sum "Si O2"
_cell_formula_units_Z 28
_cell_length_a 17.895074
_cell_length_b 6.744149
_cell_length_c 11.465614
_cell_angle_alpha 90.000000
_cell_angle_beta 117.613350
_cell_angle_gamma 90.000000
_cell_volume 1226.135750
_symmetry_space_group_name_H-M "C C"
_symmetry_group_IT_number 9
_symmetry_cell_setting 'monoclinic'
loop_
_space_group_symop_operation_xyz
x,y,z
x,-y,1/2+z
1/2+x,1/2+y,z
1/2+x,1/2-y,1/2+z
loop_
_atom_site_type_symbol
_atom_site_label
_atom_site_fract_x
_atom_site_fract_y
_atom_site_fract_z
Si Si1 0.897970 0.124043 0.805410
Si Si2 0.975991 0.372888 0.041465
Si Si3 0.614929 0.864844 0.558588
Si Si4 0.800499 0.731323 0.435561
Si Si5 0.035154 0.128686 0.298288
Si Si6 0.675965 0.385778 0.307247
Si Si7 0.751030 0.912332 0.041832
O O1 0.832952 0.097951 0.867385
O O2 0.835818 0.188698 0.655030
O O3 0.966051 0.287245 0.900450
O O4 0.948743 0.928012 0.803386
O O5 0.032998 0.568052 0.074142
O O6 0.019456 0.217144 0.159309
O O7 0.881364 0.411445 0.023823
O O8 0.587001 0.782795 0.413283
O O9 0.660263 0.693220 0.665557
O O10 0.675448 0.056731 0.581421
O O11 0.727952 0.590184 0.332254
O O12 0.768552 0.856452 0.522021
O O13 0.089516 0.931006 0.313629
O O14 0.724825 0.219011 0.414172
#
# Coordination Sequence:
#
# PCOD8055682 Si02
#       7
#     4   4   4   4   4   4   4
#     4  10  23  44  74  98 144 185 236 292 360 418
#     4  10  25  45  69 106 146 179 248 292 354 438
#     4  12  27  43  74 105 146 193 239 297 369 419
#     4  10  25  48  69 109 140 186 247 288 353 437
#     4  12  24  45  71 103 147 190 235 297 369 420
#     4  12  28  44  73 105 148 186 245 298 354 440
#     4  12  24  47  74 104 145 191 236 302 359 428
#
# _framework density 22.835971000000001
#
# number of rings (size 3 to 8) (size 9 to 14) (size 15 to 20)
#    0.857    0.000    2.857    3.429    4.000    4.571 
#    0.000    0.000    0.000    0.000    0.000    0.000 
#    0.000    0.000    0.000    0.000    0.000    0.000 
#
# Total GULP energy -173458.285522 kJ/mol
# GULP energy per Si atom -12389.877537 kJ/mol
# Density = 2.278400 g / cm^3
# Si number density = 22.835971 Si / 1000 Ang^3
#
#
#
# Elastic Constant Matrix: (Units=GPa)
#
#
# Indices 1 2 3 4 5 6 
#
# 1 95.0429 35.1603 45.8163 0.0000 5.3626 0.0000
# 2 35.1603 68.6719 49.0627 0.0000 3.3743 0.0000
# 3 45.8163 49.0627 138.1878 0.0000 26.1079 0.0000
# 4 0.0000 0.0000 0.0000 35.1194 0.0000 -3.3973
# 5 5.3626 3.3743 26.1079 0.0000 29.1454 0.0000
# 6 0.0000 0.0000 0.0000 -3.3973 0.0000 47.9403
#
#
#
# Elastic Compliance Matrix: (Units=1/GPa)
#
#
# Indices 1 2 3 4 5 6 
#
# 1 0.013730 -0.004986 -0.002905 0.000000 0.000654 0.000000
# 2 -0.004986 0.021884 -0.006995 0.000000 0.004650 0.000000
# 3 -0.002905 -0.006995 0.012554 0.000000 -0.009901 0.000000
# 4 0.000000 0.000000 0.000000 0.028671 0.000000 0.002032
# 5 0.000654 0.004650 -0.009901 0.000000 0.042521 0.000000
# 6 0.000000 0.000000 0.000000 0.002032 0.000000 0.021003
#
#
# Mechanical properties :
#
#
# Convention : Reuss Voigt Hill
#
# Bulk Modulus (GPa) = 54.36343 62.44236 58.40289
# Shear Modulus (GPa) = 28.36586 33.89858 31.13222
#
# Velocity S-wave (km/s) = 3.52825 3.85702 3.69629
# Velocity P-wave (km/s) = 6.36049 6.87304 6.62172
#
# Compressibility (1/GPa) = 0.01839472
#
# Stress axis : x y z
#
# Youngs Moduli (GPa) = 72.83430 45.69516 79.65571
#
# Poissons Ratio (x) = 0.22784 0.23143
# Poissons Ratio (y) = 0.36316 0.55721
# Poissons Ratio (z) = 0.21161 0.31965
#
# Static dielectric constant tensor:
#      x y z
#    x 4.220150 0.000000 0.266350 
#    y 0.000000 3.600500 0.000000 
#    z 0.266350 0.000000 4.107660 
# 
# 
# High freq. dielectric constant tensor:
#      x y z
#    x 1.914500 0.000000 0.016620 
#    y 0.000000 1.867510 0.000000 
#    z 0.016620 0.000000 1.911030 
# 
# From -- ./inp_files/19641.got.cif
#   From: 2010.06.25/outbox.cif.g09.slc.cpg/sg9_10_cif.got.tgz:19641.got - 2010.06.27 21:40:51.
