data_PCOD8055419
_publ_section_title
;
Structure prediction by ZEFSAII (Michael W. Deem and Ramdas Pophale) SiO2 
 PCOD8055419
Probable space group: C C
;
_chemical_formula_sum "Si O2"
_cell_formula_units_Z 32
_cell_length_a 8.757333
_cell_length_b 15.376104
_cell_length_c 11.945073
_cell_angle_alpha 90.000000
_cell_angle_beta 115.299317
_cell_angle_gamma 90.000000
_cell_volume 1454.177813
_symmetry_space_group_name_H-M "C C"
_symmetry_group_IT_number 9
_symmetry_cell_setting 'monoclinic'
loop_
_space_group_symop_operation_xyz
x,y,z
x,-y,1/2+z
1/2+x,1/2+y,z
1/2+x,1/2-y,1/2+z
loop_
_atom_site_type_symbol
_atom_site_label
_atom_site_fract_x
_atom_site_fract_y
_atom_site_fract_z
Si Si1 0.131020 0.189911 0.819500
Si Si2 0.206049 0.837688 0.963254
Si Si3 0.319970 0.640004 0.383199
Si Si4 0.100609 0.932899 0.715142
Si Si5 0.705976 0.960551 0.301013
Si Si6 0.347253 0.589230 0.635404
Si Si7 0.440174 0.673500 0.984557
Si Si8 0.832707 0.572378 0.724420
O O1 0.193734 0.285017 0.807523
O O2 0.270621 0.120287 0.819295
O O3 0.961213 0.173902 0.696267
O O4 0.088173 0.187997 0.938785
O O5 0.198237 0.906485 0.859453
O O6 0.305518 0.751820 0.953309
O O7 0.009368 0.821922 0.933492
O O8 0.301954 0.871992 0.102806
O O9 0.273156 0.557663 0.292495
O O10 0.273912 0.601018 0.490256
O O11 0.030608 0.846029 0.631849
O O12 0.235110 0.981348 0.677714
O O13 0.952588 0.001712 0.691191
O O14 0.694299 0.912159 0.176660
O O15 0.842872 0.914587 0.422761
O O16 0.526480 0.952211 0.303531
#
# Coordination Sequence:
#
# PCOD8055419 Si02
#       8
#     4   4   4   4   4   4   4   4
#     4  10  25  44  68 101 139 174 228 292 347 405
#     4  12  26  43  74 100 144 184 233 287 352 417
#     4  12  23  45  69 103 137 184 230 288 349 410
#     4  11  24  47  70  99 139 188 228 288 349 417
#     4  11  24  44  71 100 136 184 233 283 347 420
#     4  10  22  44  67  97 141 176 227 286 344 416
#     4  11  26  45  72 100 138 186 231 289 351 413
#     4  11  26  46  71 104 142 180 236 287 353 420
#
# _framework density 22.005561
#
# number of rings (size 3 to 8) (size 9 to 14) (size 15 to 20)
#    0.000    1.000    5.000    0.750   10.500    1.000 
#    0.000    0.000    0.000    0.000    0.000    0.000 
#    0.000    0.000    0.000    0.000    0.000    0.000 
#
# Total GULP energy -198299.446855 kJ/mol
# GULP energy per Si atom -12393.715428 kJ/mol
# Density = 2.195548 g / cm^3
# Si number density = 22.005561 Si / 1000 Ang^3
#
#
#
# Elastic Constant Matrix: (Units=GPa)
#
#
# Indices 1 2 3 4 5 6 
#
# 1 117.0333 39.4177 29.0777 0.0000 -7.0485 0.0000
# 2 39.4177 122.8063 32.8451 0.0000 3.5626 0.0000
# 3 29.0777 32.8451 75.7569 0.0000 -16.7763 0.0000
# 4 0.0000 0.0000 0.0000 33.7174 0.0000 6.5808
# 5 -7.0485 3.5626 -16.7763 0.0000 24.9832 0.0000
# 6 0.0000 0.0000 0.0000 6.5808 0.0000 31.3166
#
#
#
# Elastic Compliance Matrix: (Units=1/GPa)
#
#
# Indices 1 2 3 4 5 6 
#
# 1 0.010130 -0.002666 -0.002367 0.000000 0.001649 0.000000
# 2 -0.002666 0.010406 -0.004679 0.000000 -0.005378 0.000000
# 3 -0.002367 -0.004679 0.018956 0.000000 0.012729 0.000000
# 4 0.000000 0.000000 0.000000 0.030927 0.000000 -0.006499
# 5 0.001649 -0.005378 0.012729 0.000000 0.049806 0.000000
# 6 0.000000 0.000000 0.000000 -0.006499 0.000000 0.033298
#
#
# Mechanical properties :
#
#
# Convention : Reuss Voigt Hill
#
# Bulk Modulus (GPa) = 49.83308 57.58638 53.70973
# Shear Modulus (GPa) = 27.83386 32.28718 30.06052
#
# Velocity S-wave (km/s) = 3.56034 3.83460 3.70001
# Velocity P-wave (km/s) = 6.29255 6.76988 6.53558
#
# Compressibility (1/GPa) = 0.02006699
#
# Stress axis : x y z
#
# Youngs Moduli (GPa) = 98.71683 96.09636 52.75317
#
# Poissons Ratio (x) = 0.25621 0.12487
# Poissons Ratio (y) = 0.26320 0.24685
# Poissons Ratio (z) = 0.23368 0.44967
#
# Static dielectric constant tensor:
#      x y z
#    x 4.104030 0.000000 -0.256160 
#    y 0.000000 3.979210 0.000000 
#    z -0.256160 0.000000 3.778080 
# 
# 
# High freq. dielectric constant tensor:
#      x y z
#    x 1.873170 0.000000 -0.016600 
#    y 0.000000 1.865450 0.000000 
#    z -0.016600 0.000000 1.856240 
# 
# From -- ./inp_files/14580.got.cif
#   From: 2010.06.25/outbox.cif.g09.slc.cpg/sg9_8_cif.got.tgz:14580.got - 2010.06.27 21:40:51.
