data_PCOD8055967
_publ_section_title
;
Structure prediction by ZEFSAII (Michael W. Deem and Ramdas Pophale) SiO2 
 PCOD8055967
Probable space group: C C
;
_chemical_formula_sum "Si O2"
_cell_formula_units_Z 32
_cell_length_a 6.580834
_cell_length_b 25.218858
_cell_length_c 9.219346
_cell_angle_alpha 90.000000
_cell_angle_beta 65.486401
_cell_angle_gamma 90.000000
_cell_volume 1392.138309
_symmetry_space_group_name_H-M "C C"
_symmetry_group_IT_number 9
_symmetry_cell_setting 'monoclinic'
loop_
_space_group_symop_operation_xyz
x,y,z
x,-y,1/2+z
1/2+x,1/2+y,z
1/2+x,1/2-y,1/2+z
loop_
_atom_site_type_symbol
_atom_site_label
_atom_site_fract_x
_atom_site_fract_y
_atom_site_fract_z
Si Si1 0.147080 0.203702 0.246470
Si Si2 0.326999 0.625831 0.719814
Si Si3 0.897649 0.989289 0.282996
Si Si4 0.290985 0.834775 0.007957
Si Si5 0.687303 0.474684 0.458421
Si Si6 0.511927 0.935626 0.803475
Si Si7 0.941435 0.384945 0.526310
Si Si8 0.709255 0.201261 0.522554
O O1 0.220996 0.200799 0.391754
O O2 0.237497 0.151895 0.137292
O O3 0.249243 0.254054 0.133571
O O4 0.875817 0.206932 0.334369
O O5 0.308945 0.562248 0.724618
O O6 0.580010 0.647551 0.670326
O O7 0.257053 0.644244 0.580293
O O8 0.147399 0.647675 0.891844
O O9 0.963079 0.969503 0.425933
O O10 0.719661 0.037135 0.325535
O O11 0.121198 0.010078 0.140967
O O12 0.432613 0.886216 0.922272
O O13 0.452529 0.796052 0.049923
O O14 0.838078 0.422223 0.430155
O O15 0.818429 0.521937 0.344948
O O16 0.556549 0.916825 0.625072
#
# Coordination Sequence:
#
# PCOD8055967 Si02
#       8
#     4   4   4   4   4   4   4   4
#     4  10  25  50  70 104 136 174 237 293 357 431
#     4  11  24  42  67 102 141 179 237 283 345 426
#     4  12  26  39  67 102 144 190 237 290 350 416
#     4  10  25  44  73 104 136 186 231 291 357 419
#     4  12  25  41  65 101 141 191 237 290 347 418
#     4  11  24  44  65  98 144 188 236 287 346 417
#     4  11  24  47  70 102 145 188 237 295 354 421
#     4  11  25  47  75 101 135 180 228 301 358 424
#
# _framework density 22.986222000000001
#
# number of rings (size 3 to 8) (size 9 to 14) (size 15 to 20)
#    0.000    1.000    3.750    1.500    5.250    2.000 
#    2.250    0.000    0.000    0.000    0.000    0.000 
#    0.000    0.000    0.000    0.000    0.000    0.000 
#
# Total GULP energy -198340.337952 kJ/mol
# GULP energy per Si atom -12396.271122 kJ/mol
# Density = 2.293390 g / cm^3
# Si number density = 22.986222 Si / 1000 Ang^3
#
#
#
# Elastic Constant Matrix: (Units=GPa)
#
#
# Indices 1 2 3 4 5 6 
#
# 1 128.5261 35.3625 54.4522 0.0000 -8.4661 0.0000
# 2 35.3625 85.6469 39.0622 0.0000 3.2716 0.0000
# 3 54.4522 39.0622 104.4833 0.0000 -29.3042 0.0000
# 4 0.0000 0.0000 0.0000 35.4486 0.0000 -6.5443
# 5 -8.4661 3.2716 -29.3042 0.0000 43.8687 0.0000
# 6 0.0000 0.0000 0.0000 -6.5443 0.0000 29.9122
#
#
#
# Elastic Compliance Matrix: (Units=1/GPa)
#
#
# Indices 1 2 3 4 5 6 
#
# 1 0.010359 -0.001947 -0.005007 0.000000 -0.001200 0.000000
# 2 -0.001947 0.015665 -0.006491 0.000000 -0.005880 0.000000
# 3 -0.005007 -0.006491 0.017808 0.000000 0.011413 0.000000
# 4 0.000000 0.000000 0.000000 0.029397 0.000000 0.006432
# 5 -0.001200 -0.005880 0.011413 0.000000 0.030626 0.000000
# 6 0.000000 0.000000 0.000000 0.006432 0.000000 0.034838
#
#
# Mechanical properties :
#
#
# Convention : Reuss Voigt Hill
#
# Bulk Modulus (GPa) = 59.02754 64.04556 61.53655
# Shear Modulus (GPa) = 29.20041 34.49788 31.84914
#
# Velocity S-wave (km/s) = 3.56806 3.87823 3.72637
# Velocity P-wave (km/s) = 6.53529 6.92656 6.73377
#
# Compressibility (1/GPa) = 0.01694125
#
# Stress axis : x y z
#
# Youngs Moduli (GPa) = 96.53834 63.83746 56.15438
#
# Poissons Ratio (x) = 0.12432 0.28117
# Poissons Ratio (y) = 0.18800 0.36448
# Poissons Ratio (z) = 0.48337 0.41434
#
# Static dielectric constant tensor:
#      x y z
#    x 4.081690 0.000000 -0.299370 
#    y 0.000000 3.959290 0.000000 
#    z -0.299370 0.000000 4.206410 
# 
# 
# High freq. dielectric constant tensor:
#      x y z
#    x 1.907730 0.000000 -0.017530 
#    y 0.000000 1.898560 0.000000 
#    z -0.017530 0.000000 1.912040 
# 
# From -- ./inp_files/4327.got.cif
#   From: 2010.06.25/outbox.cif.g09.slc.cpg/sg9_3_cif.got.tgz:4327.got - 2010.06.27 21:40:51.
