data_PCOD8055254
_publ_section_title
;
Structure prediction by ZEFSAII (Michael W. Deem and Ramdas Pophale) SiO2 
 PCOD8055254
Probable space group: C C
;
_chemical_formula_sum "Si O2"
_cell_formula_units_Z 28
_cell_length_a 7.400281
_cell_length_b 28.215930
_cell_length_c 5.650728
_cell_angle_alpha 90.000000
_cell_angle_beta 110.152870
_cell_angle_gamma 90.000000
_cell_volume 1107.667218
_symmetry_space_group_name_H-M "C C"
_symmetry_group_IT_number 9
_symmetry_cell_setting 'monoclinic'
loop_
_space_group_symop_operation_xyz
x,y,z
x,-y,1/2+z
1/2+x,1/2+y,z
1/2+x,1/2-y,1/2+z
loop_
_atom_site_type_symbol
_atom_site_label
_atom_site_fract_x
_atom_site_fract_y
_atom_site_fract_z
Si Si1 0.613850 0.478312 0.252890
Si Si2 0.042248 0.512455 0.402995
Si Si3 0.536250 0.384162 0.013803
Si Si4 0.037006 0.194395 0.866861
Si Si5 0.221407 0.357770 0.528917
Si Si6 0.458497 0.802789 0.735208
Si Si7 0.455436 0.889962 0.034637
O O1 0.534811 0.499685 0.466203
O O2 0.845124 0.481888 0.338466
O O3 0.534826 0.424067 0.219962
O O4 0.151085 0.498062 0.205647
O O5 0.009540 0.568939 0.374321
O O6 0.551410 0.330608 0.118326
O O7 0.726562 0.395061 0.949871
O O8 0.341036 0.388220 0.774266
O O9 0.992651 0.249294 0.822728
O O10 0.236067 0.187442 0.089773
O O11 0.870636 0.168173 0.928919
O O12 0.090869 0.315283 0.572287
O O13 0.077920 0.394787 0.332805
O O14 0.520645 0.838479 0.970871
#
# Coordination Sequence:
#
# PCOD8055254 Si02
#       7
#     4   4   4   4   4   4   4
#     4  10  22  40  74 113 155 204 266 321 399 468
#     4  10  22  40  74 113 155 204 266 321 399 468
#     4  12  25  46  78 108 153 210 251 330 396 467
#     4  12  28  48  78 111 154 202 261 326 396 471
#     4  12  28  48  74 112 154 196 266 316 398 472
#     4  12  28  48  78 111 154 202 261 326 396 471
#     4  12  25  46  78 108 153 210 251 330 396 467
#
# _framework density 25.278348999999999
#
# number of rings (size 3 to 8) (size 9 to 14) (size 15 to 20)
#    0.000    0.571    5.714    2.571   10.000    2.286 
#    0.000    1.429    0.000    0.000    0.000    0.000 
#    0.000    0.000    0.000    0.000    0.000    0.000 
#
# Total GULP energy -173538.681865 kJ/mol
# GULP energy per Si atom -12395.620133 kJ/mol
# Density = 2.522081 g / cm^3
# Si number density = 25.278349 Si / 1000 Ang^3
#
#
#
# Elastic Constant Matrix: (Units=GPa)
#
#
# Indices 1 2 3 4 5 6 
#
# 1 65.0117 2.2155 31.6007 0.0000 22.2103 0.0000
# 2 2.2155 124.6030 42.3446 0.0000 2.6279 0.0000
# 3 31.6007 42.3446 145.0845 0.0000 -2.8183 0.0000
# 4 0.0000 0.0000 0.0000 45.4858 0.0000 -4.3745
# 5 22.2103 2.6279 -2.8183 0.0000 50.1912 0.0000
# 6 0.0000 0.0000 0.0000 -4.3745 0.0000 17.5042
#
#
#
# Elastic Compliance Matrix: (Units=1/GPa)
#
#
# Indices 1 2 3 4 5 6 
#
# 1 0.021240 0.001627 -0.005291 0.000000 -0.009781 0.000000
# 2 0.001627 0.009053 -0.003023 0.000000 -0.001364 0.000000
# 3 -0.005291 -0.003023 0.008986 0.000000 0.003004 0.000000
# 4 0.000000 0.000000 0.000000 0.022526 0.000000 0.005630
# 5 -0.009781 -0.001364 0.003004 0.000000 0.024492 0.000000
# 6 0.000000 0.000000 0.000000 0.005630 0.000000 0.058536
#
#
# Mechanical properties :
#
#
# Convention : Reuss Voigt Hill
#
# Bulk Modulus (GPa) = 38.60460 54.11344 46.35902
# Shear Modulus (GPa) = 29.96855 39.87214 34.92034
#
# Velocity S-wave (km/s) = 3.44691 3.97586 3.72080
# Velocity P-wave (km/s) = 5.58091 6.52151 6.06946
#
# Compressibility (1/GPa) = 0.02590365
#
# Stress axis : x y z
#
# Youngs Moduli (GPa) = 47.08126 110.46525 111.28919
#
# Poissons Ratio (x) = -0.17970 0.58883
# Poissons Ratio (y) = -0.07659 0.33642
# Poissons Ratio (z) = 0.24911 0.33393
#
# Static dielectric constant tensor:
#      x y z
#    x 4.495780 0.000000 -0.045080 
#    y 0.000000 4.571210 0.000000 
#    z -0.045080 0.000000 5.049680 
# 
# 
# High freq. dielectric constant tensor:
#      x y z
#    x 2.007110 0.000000 0.006200 
#    y 0.000000 2.014850 0.000000 
#    z 0.006200 0.000000 2.016710 
# 
# From -- ./inp_files/1425.got.cif
#   From: 2010.06.25/outbox.cif.g09.slc.cpg/sg9_1_cif.got.tgz:1425.got - 2010.06.27 21:40:51.
