data_PCOD8055907
_publ_section_title
;
Structure prediction by ZEFSAII (Michael W. Deem and Ramdas Pophale) SiO2 
 PCOD8055907
Probable space group: C C
;
_chemical_formula_sum "Si O2"
_cell_formula_units_Z 28
_cell_length_a 12.237905
_cell_length_b 7.517038
_cell_length_c 16.909141
_cell_angle_alpha 90.000000
_cell_angle_beta 128.488184
_cell_angle_gamma 90.000000
_cell_volume 1217.561666
_symmetry_space_group_name_H-M "C C"
_symmetry_group_IT_number 9
_symmetry_cell_setting 'monoclinic'
loop_
_space_group_symop_operation_xyz
x,y,z
x,-y,1/2+z
1/2+x,1/2+y,z
1/2+x,1/2-y,1/2+z
loop_
_atom_site_type_symbol
_atom_site_label
_atom_site_fract_x
_atom_site_fract_y
_atom_site_fract_z
Si Si1 0.219040 0.838442 0.847520
Si Si2 0.802080 0.978246 0.845088
Si Si3 0.834494 0.451142 0.745502
Si Si4 0.123119 0.327515 0.893364
Si Si5 0.410615 0.335505 0.734336
Si Si6 0.612066 0.462893 0.516453
Si Si7 0.733719 0.185861 0.011521
O O1 0.202437 0.651177 0.792834
O O2 0.293377 0.974508 0.820388
O O3 0.068052 0.910330 0.807701
O O4 0.301685 0.788583 0.965990
O O5 0.726108 0.825735 0.863713
O O6 0.820956 0.915000 0.764723
O O7 0.945234 0.044812 0.952378
O O8 0.906521 0.624559 0.742146
O O9 0.696946 0.399312 0.632824
O O10 0.958843 0.303821 0.795776
O O11 0.164739 0.163557 0.968528
O O12 0.138410 0.519194 0.943385
O O13 0.351964 0.390196 0.622490
O O14 0.638875 0.671807 0.514469
#
# Coordination Sequence:
#
# PCOD8055907 Si02
#       7
#     4   4   4   4   4   4   4
#     4  11  23  42  68  93 134 177 216 283 334 387
#     4  11  23  44  67  98 132 175 225 273 331 406
#     4  11  24  43  66 100 132 175 225 273 337 400
#     4  11  24  45  67  97 138 174 223 275 340 395
#     4  11  24  45  66  98 134 171 230 275 334 402
#     4  11  24  45  66 101 135 173 230 272 332 407
#     4  10  24  46  66  97 135 175 221 281 332 397
#
# _framework density 22.996782
#
# number of rings (size 3 to 8) (size 9 to 14) (size 15 to 20)
#    0.000    1.143    5.714    0.000    8.000    0.000 
#    5.143    0.000    0.000    0.000    0.000    0.000 
#    0.000    0.000    0.000    0.000    0.000    0.000 
#
# Total GULP energy -173501.643431 kJ/mol
# GULP energy per Si atom -12392.974531 kJ/mol
# Density = 2.294444 g / cm^3
# Si number density = 22.996782 Si / 1000 Ang^3
#
#
#
# Elastic Constant Matrix: (Units=GPa)
#
#
# Indices 1 2 3 4 5 6 
#
# 1 127.5954 2.7197 48.1219 0.0000 -18.2604 0.0000
# 2 2.7197 39.8005 11.4521 0.0000 0.1740 0.0000
# 3 48.1219 11.4521 159.3520 0.0000 -9.8532 0.0000
# 4 0.0000 0.0000 0.0000 27.9960 0.0000 -10.2161
# 5 -18.2604 0.1740 -9.8532 0.0000 30.5037 0.0000
# 6 0.0000 0.0000 0.0000 -10.2161 0.0000 40.0708
#
#
#
# Elastic Compliance Matrix: (Units=1/GPa)
#
#
# Indices 1 2 3 4 5 6 
#
# 1 0.009502 0.000070 -0.002574 0.000000 0.004856 0.000000
# 2 0.000070 0.025674 -0.001911 0.000000 -0.000722 0.000000
# 3 -0.002574 -0.001911 0.007240 0.000000 0.000809 0.000000
# 4 0.000000 0.000000 0.000000 0.039383 0.000000 0.010041
# 5 0.004856 -0.000722 0.000809 0.000000 0.035955 0.000000
# 6 0.000000 0.000000 0.000000 0.010041 0.000000 0.027516
#
#
# Mechanical properties :
#
#
# Convention : Reuss Voigt Hill
#
# Bulk Modulus (GPa) = 29.77476 50.14837 39.96157
# Shear Modulus (GPa) = 30.24907 37.34438 33.79673
#
# Velocity S-wave (km/s) = 3.63073 4.03413 3.83773
# Velocity P-wave (km/s) = 5.52736 6.59947 6.08706
#
# Compressibility (1/GPa) = 0.03358549
#
# Stress axis : x y z
#
# Youngs Moduli (GPa) = 105.24609 38.95065 138.11993
#
# Poissons Ratio (x) = -0.00273 0.35554
# Poissons Ratio (y) = -0.00739 0.26393
# Poissons Ratio (z) = 0.27091 0.07443
#
# Static dielectric constant tensor:
#      x y z
#    x 4.045650 0.000000 -0.021700 
#    y 0.000000 4.030580 0.000000 
#    z -0.021700 0.000000 4.460460 
# 
# 
# High freq. dielectric constant tensor:
#      x y z
#    x 1.905160 0.000000 -0.011200 
#    y 0.000000 1.904300 0.000000 
#    z -0.011200 0.000000 1.904060 
# 
# From -- ./inp_files/21222.got.cif
#   From: 2010.06.25/outbox.cif.g09.slc.cpg/sg9_11_cif.got.tgz:21222.got - 2010.06.27 21:40:51.
