data_PCOD8055443
_publ_section_title
;
Structure prediction by ZEFSAII (Michael W. Deem and Ramdas Pophale) SiO2 
 PCOD8055443
Probable space group: C C
;
_chemical_formula_sum "Si O2"
_cell_formula_units_Z 32
_cell_length_a 4.970572
_cell_length_b 31.621900
_cell_length_c 8.943668
_cell_angle_alpha 90.000000
_cell_angle_beta 88.606475
_cell_angle_gamma 90.000000
_cell_volume 1405.340413
_symmetry_space_group_name_H-M "C C"
_symmetry_group_IT_number 9
_symmetry_cell_setting 'monoclinic'
loop_
_space_group_symop_operation_xyz
x,y,z
x,-y,1/2+z
1/2+x,1/2+y,z
1/2+x,1/2-y,1/2+z
loop_
_atom_site_type_symbol
_atom_site_label
_atom_site_fract_x
_atom_site_fract_y
_atom_site_fract_z
Si Si1 0.689200 0.261825 0.257190
Si Si2 0.989040 0.441549 0.717857
Si Si3 0.376410 0.445100 0.462188
Si Si4 0.284411 0.128165 0.056195
Si Si5 0.362847 0.595606 0.660145
Si Si6 0.985307 0.035647 0.398812
Si Si7 0.872129 0.645456 0.731640
Si Si8 0.673786 0.276227 0.604937
O O1 0.838721 0.304911 0.202130
O O2 0.630186 0.261416 0.434653
O O3 0.414641 0.251119 0.173636
O O4 0.906646 0.227423 0.207413
O O5 0.965204 0.390716 0.689308
O O6 0.691188 0.458283 0.759246
O O7 0.103510 0.456783 0.556069
O O8 0.182382 0.456529 0.846539
O O9 0.542700 0.405873 0.530073
O O10 0.288436 0.437304 0.292010
O O11 0.541199 0.489108 0.462819
O O12 0.198014 0.173585 0.113673
O O13 0.459617 0.134914 0.902142
O O14 0.512976 0.571101 0.525413
O O15 0.572742 0.629230 0.716247
O O16 0.093129 0.622681 0.621560
#
# Coordination Sequence:
#
# PCOD8055443 Si02
#       8
#     4   4   4   4   4   4   4   4
#     4  11  24  46  70 106 137 181 232 293 349 423
#     4  12  25  46  65 100 133 181 227 286 342 402
#     4  11  25  46  73  94 132 195 238 274 336 425
#     4  10  24  45  74  98 133 189 235 271 338 439
#     4  11  23  43  66  97 130 184 227 281 339 410
#     4  12  28  42  65 105 143 168 231 300 348 383
#     4  10  22  44  72  93 133 182 236 264 338 435
#     4  11  25  46  73 105 141 180 236 287 356 425
#
# _framework density 22.770282999999999
#
# number of rings (size 3 to 8) (size 9 to 14) (size 15 to 20)
#    0.000    1.000    2.500    3.000    3.500    4.000 
#   13.500    0.000    0.000    0.000    0.000    0.000 
#    0.000    0.000    0.000    0.000    0.000    0.000 
#
# Total GULP energy -198250.421257 kJ/mol
# GULP energy per Si atom -12390.651329 kJ/mol
# Density = 2.271846 g / cm^3
# Si number density = 22.770283 Si / 1000 Ang^3
#
#
#
# Elastic Constant Matrix: (Units=GPa)
#
#
# Indices 1 2 3 4 5 6 
#
# 1 81.5068 19.4171 24.3063 0.0000 -7.2000 0.0000
# 2 19.4171 113.5504 45.0953 0.0000 -3.1737 0.0000
# 3 24.3063 45.0953 80.0524 0.0000 -7.0160 0.0000
# 4 0.0000 0.0000 0.0000 29.0362 0.0000 0.2681
# 5 -7.2000 -3.1737 -7.0160 0.0000 41.1417 0.0000
# 6 0.0000 0.0000 0.0000 0.2681 0.0000 25.6331
#
#
#
# Elastic Compliance Matrix: (Units=1/GPa)
#
#
# Indices 1 2 3 4 5 6 
#
# 1 0.013678 -0.000904 -0.003493 0.000000 0.001728 0.000000
# 2 -0.000904 0.011406 -0.006180 0.000000 -0.000332 0.000000
# 3 -0.003493 -0.006180 0.017195 0.000000 0.001844 0.000000
# 4 0.000000 0.000000 0.000000 0.034443 0.000000 -0.000360
# 5 0.001728 -0.000332 0.001844 0.000000 0.024898 0.000000
# 6 0.000000 0.000000 0.000000 -0.000360 0.000000 0.039016
#
#
# Mechanical properties :
#
#
# Convention : Reuss Voigt Hill
#
# Bulk Modulus (GPa) = 47.33240 50.30524 48.81882
# Shear Modulus (GPa) = 29.61526 31.58159 30.59842
#
# Velocity S-wave (km/s) = 3.61031 3.72824 3.66975
# Velocity P-wave (km/s) = 6.18152 6.37758 6.28031
#
# Compressibility (1/GPa) = 0.02112718
#
# Stress axis : x y z
#
# Youngs Moduli (GPa) = 73.10785 87.67094 58.15519
#
# Poissons Ratio (x) = 0.07922 0.20312
# Poissons Ratio (y) = 0.06606 0.35941
# Poissons Ratio (z) = 0.25534 0.54182
#
# Static dielectric constant tensor:
#      x y z
#    x 4.047410 0.000000 -0.075150 
#    y 0.000000 4.176780 0.000000 
#    z -0.075150 0.000000 4.177420 
# 
# 
# High freq. dielectric constant tensor:
#      x y z
#    x 1.901990 0.000000 -0.010150 
#    y 0.000000 1.905970 0.000000 
#    z -0.010150 0.000000 1.893860 
# 
# From -- ./inp_files/4372.got.cif
#   From: 2010.06.25/outbox.cif.g09.slc.cpg/sg9_3_cif.got.tgz:4372.got - 2010.06.27 21:40:51.
