data_PCOD8055146
_publ_section_title
;
Structure prediction by ZEFSAII (Michael W. Deem and Ramdas Pophale) SiO2 
 PCOD8055146
Probable space group: C C
;
_chemical_formula_sum "Si O2"
_cell_formula_units_Z 24
_cell_length_a 23.032134
_cell_length_b 11.883229
_cell_length_c 11.337647
_cell_angle_alpha 90.000000
_cell_angle_beta 160.437139
_cell_angle_gamma 90.000000
_cell_volume 1039.034635
_symmetry_space_group_name_H-M "C C"
_symmetry_group_IT_number 9
_symmetry_cell_setting 'monoclinic'
loop_
_space_group_symop_operation_xyz
x,y,z
x,-y,1/2+z
1/2+x,1/2+y,z
1/2+x,1/2-y,1/2+z
loop_
_atom_site_type_symbol
_atom_site_label
_atom_site_fract_x
_atom_site_fract_y
_atom_site_fract_z
Si Si1 0.344270 0.287706 0.072970
Si Si2 0.819924 0.649389 0.636406
Si Si3 0.672210 0.907531 0.937864
Si Si4 0.169031 0.906404 0.381093
Si Si5 0.726069 0.720661 0.219240
Si Si6 0.774850 0.143955 0.181681
O O1 0.548329 0.277083 0.451576
O O2 0.313007 0.388403 0.105398
O O3 0.254694 0.172213 0.945256
O O4 0.262720 0.324448 0.793976
O O5 0.714981 0.533868 0.437325
O O6 0.865626 0.688462 0.588706
O O7 0.704476 0.748639 0.474198
O O8 0.992105 0.644826 0.046703
O O9 0.740369 0.843622 0.186223
O O10 0.647016 0.038957 0.915242
O O11 0.242814 0.874605 0.651311
O O12 0.963172 0.891090 0.992821
#
# Coordination Sequence:
#
# PCOD8055146 Si02
#       6
#     4   4   4   4   4   4
#     4  10  21  47  72  96 148 182 227 291 344 416
#     4  12  25  45  74 102 140 184 235 287 349 410
#     4  11  25  48  69 108 139 181 242 284 348 423
#     4  10  24  47  69 103 142 180 236 285 348 417
#     4  10  24  46  69 106 141 183 231 288 351 413
#     4  11  25  47  69 103 140 184 233 289 350 411
#
# _framework density 23.098365000000001
#
# number of rings (size 3 to 8) (size 9 to 14) (size 15 to 20)
#    0.000    1.333    5.000    1.000    7.000    1.333 
#    6.000    0.000    0.000    0.000    0.000    0.000 
#    0.000    0.000    0.000    0.000    0.000    0.000 
#
# Total GULP energy -148754.967407 kJ/mol
# GULP energy per Si atom -12396.247284 kJ/mol
# Density = 2.304579 g / cm^3
# Si number density = 23.098365 Si / 1000 Ang^3
#
#
#
# Elastic Constant Matrix: (Units=GPa)
#
#
# Indices 1 2 3 4 5 6 
#
# 1 155.4528 77.5322 33.3466 0.0000 -14.9139 0.0000
# 2 77.5322 194.9892 35.6994 0.0000 -23.4065 0.0000
# 3 33.3466 35.6994 44.0524 0.0000 -12.8606 0.0000
# 4 0.0000 0.0000 0.0000 25.8276 0.0000 2.7379
# 5 -14.9139 -23.4065 -12.8606 0.0000 42.2114 0.0000
# 6 0.0000 0.0000 0.0000 2.7379 0.0000 23.9969
#
#
#
# Elastic Compliance Matrix: (Units=1/GPa)
#
#
# Indices 1 2 3 4 5 6 
#
# 1 0.008710 -0.002627 -0.004381 0.000000 0.000286 0.000000
# 2 -0.002627 0.006978 -0.003081 0.000000 0.002002 0.000000
# 3 -0.004381 -0.003081 0.030254 0.000000 0.005961 0.000000
# 4 0.000000 0.000000 0.000000 0.039192 0.000000 -0.004472
# 5 0.000286 0.002002 0.005961 0.000000 0.026718 0.000000
# 6 0.000000 0.000000 0.000000 -0.004472 0.000000 0.042182
#
#
# Mechanical properties :
#
#
# Convention : Reuss Voigt Hill
#
# Bulk Modulus (GPa) = 38.81571 76.40563 57.61067
# Shear Modulus (GPa) = 27.35221 34.93493 31.14357
#
# Velocity S-wave (km/s) = 3.44490 3.89323 3.67591
# Velocity P-wave (km/s) = 5.71525 7.30478 6.55835
#
# Compressibility (1/GPa) = 0.02576277
#
# Stress axis : x y z
#
# Youngs Moduli (GPa) = 114.80710 143.31732 33.05346
#
# Poissons Ratio (x) = 0.37649 0.14481
# Poissons Ratio (y) = 0.30159 0.10185
# Poissons Ratio (z) = 0.50298 0.44162
#
# Static dielectric constant tensor:
#      x y z
#    x 4.382650 0.000000 -0.162220 
#    y 0.000000 4.277100 0.000000 
#    z -0.162220 0.000000 4.037790 
# 
# 
# High freq. dielectric constant tensor:
#      x y z
#    x 1.928280 0.000000 -0.006240 
#    y 0.000000 1.919740 0.000000 
#    z -0.006240 0.000000 1.897860 
# 
# From -- ./inp_files/14091.got.cif
#   From: 2010.06.25/outbox.cif.g09.slc.cpg/sg9_8_cif.got.tgz:14091.got - 2010.06.27 21:40:51.
