data_PCOD8055813
_publ_section_title
;
Structure prediction by ZEFSAII (Michael W. Deem and Ramdas Pophale) SiO2 
 PCOD8055813
Probable space group: C C
;
_chemical_formula_sum "Si O2"
_cell_formula_units_Z 28
_cell_length_a 29.290875
_cell_length_b 5.180636
_cell_length_c 8.764577
_cell_angle_alpha 90.000000
_cell_angle_beta 64.407030
_cell_angle_gamma 90.000000
_cell_volume 1199.493246
_symmetry_space_group_name_H-M "C C"
_symmetry_group_IT_number 9
_symmetry_cell_setting 'monoclinic'
loop_
_space_group_symop_operation_xyz
x,y,z
x,-y,1/2+z
1/2+x,1/2+y,z
1/2+x,1/2-y,1/2+z
loop_
_atom_site_type_symbol
_atom_site_label
_atom_site_fract_x
_atom_site_fract_y
_atom_site_fract_z
Si Si1 0.248520 0.304243 0.814540
Si Si2 0.335672 0.314129 0.189410
Si Si3 0.795917 0.520825 0.985373
Si Si4 0.446902 0.691844 0.595913
Si Si5 0.134147 0.702491 0.396609
Si Si6 0.482316 0.783402 0.876536
Si Si7 0.597371 0.280173 0.117228
O O1 0.285910 0.530667 0.816836
O O2 0.191842 0.370342 0.853778
O O3 0.277426 0.191048 0.628587
O O4 0.246145 0.117589 0.965404
O O5 0.326465 0.245358 0.026805
O O6 0.391978 0.422763 0.124525
O O7 0.336626 0.069933 0.301730
O O8 0.448080 0.737909 0.775745
O O9 0.481316 0.449330 0.500100
O O10 0.465085 0.948157 0.479355
O O11 0.131170 0.750575 0.220226
O O12 0.106352 0.438838 0.478121
O O13 0.110314 0.942291 0.524116
O O14 0.539864 0.773513 0.741427
#
# Coordination Sequence:
#
# PCOD8055813 Si02
#       7
#     4   4   4   4   4   4   4
#     4  11  25  41  67  97 140 181 230 279 341 414
#     4  11  25  41  67  97 140 181 230 279 341 414
#     4  10  24  42  64  92 142 174 232 276 334 394
#     4  12  27  44  76 104 143 186 237 286 364 420
#     4  12  27  44  76 104 143 186 237 286 364 420
#     4  12  26  49  74 106 141 183 238 301 357 421
#     4  12  26  49  74 106 141 183 238 301 357 421
#
# _framework density 23.343192999999999
#
# number of rings (size 3 to 8) (size 9 to 14) (size 15 to 20)
#    0.000    0.571    0.000    6.857   16.000    0.000 
#    0.000    0.000    0.000    0.000    0.000    0.000 
#    0.000    0.000    0.000    0.000    0.000    0.000 
#
# Total GULP energy -173489.839839 kJ/mol
# GULP energy per Si atom -12392.131417 kJ/mol
# Density = 2.329006 g / cm^3
# Si number density = 23.343193 Si / 1000 Ang^3
#
#
#
# Elastic Constant Matrix: (Units=GPa)
#
#
# Indices 1 2 3 4 5 6 
#
# 1 96.5413 9.2980 9.4405 0.0000 -7.6199 0.0000
# 2 9.2980 104.8786 16.1842 0.0000 1.3570 0.0000
# 3 9.4405 16.1842 62.7130 0.0000 22.9641 0.0000
# 4 0.0000 0.0000 0.0000 29.0165 0.0000 -6.2013
# 5 -7.6199 1.3570 22.9641 0.0000 46.3991 0.0000
# 6 0.0000 0.0000 0.0000 -6.2013 0.0000 30.9742
#
#
#
# Elastic Compliance Matrix: (Units=1/GPa)
#
#
# Indices 1 2 3 4 5 6 
#
# 1 0.010919 -0.000603 -0.002627 0.000000 0.003111 0.000000
# 2 -0.000603 0.010018 -0.002871 0.000000 0.001029 0.000000
# 3 -0.002627 -0.002871 0.021019 0.000000 -0.010750 0.000000
# 4 0.000000 0.000000 0.000000 0.036004 0.000000 0.007208
# 5 0.003111 0.001029 -0.010750 0.000000 0.027353 0.000000
# 6 0.000000 0.000000 0.000000 0.007208 0.000000 0.033728
#
#
# Mechanical properties :
#
#
# Convention : Reuss Voigt Hill
#
# Bulk Modulus (GPa) = 33.61081 37.10872 35.35977
# Shear Modulus (GPa) = 31.02480 36.55864 33.79172
#
# Velocity S-wave (km/s) = 3.64960 3.96174 3.80887
# Velocity P-wave (km/s) = 5.67356 6.07114 5.87571
#
# Compressibility (1/GPa) = 0.02975233
#
# Stress axis : x y z
#
# Youngs Moduli (GPa) = 91.58517 99.81969 47.57680
#
# Poissons Ratio (x) = 0.06017 0.12500
# Poissons Ratio (y) = 0.05521 0.13661
# Poissons Ratio (z) = 0.24062 0.28663
#
# Static dielectric constant tensor:
#      x y z
#    x 4.482980 0.000000 0.195930 
#    y 0.000000 4.383020 0.000000 
#    z 0.195930 0.000000 4.425440 
# 
# 
# High freq. dielectric constant tensor:
#      x y z
#    x 1.936430 0.000000 0.013360 
#    y 0.000000 1.927330 0.000000 
#    z 0.013360 0.000000 1.940260 
# 
# From -- ./inp_files/11918.got.cif
#   From: 2010.06.25/outbox.cif.g09.slc.cpg/sg9_6_cif.got.tgz:11918.got - 2010.06.27 21:40:51.
