data_PCOD8055180
_publ_section_title
;
Structure prediction by ZEFSAII (Michael W. Deem and Ramdas Pophale) SiO2 
 PCOD8055180
Probable space group: C C
;
_chemical_formula_sum "Si O2"
_cell_formula_units_Z 28
_cell_length_a 13.313206
_cell_length_b 13.920747
_cell_length_c 13.467085
_cell_angle_alpha 90.000000
_cell_angle_beta 31.995645
_cell_angle_gamma 90.000000
_cell_volume 1322.439064
_symmetry_space_group_name_H-M "C C"
_symmetry_group_IT_number 9
_symmetry_cell_setting 'monoclinic'
loop_
_space_group_symop_operation_xyz
x,y,z
x,-y,1/2+z
1/2+x,1/2+y,z
1/2+x,1/2-y,1/2+z
loop_
_atom_site_type_symbol
_atom_site_label
_atom_site_fract_x
_atom_site_fract_y
_atom_site_fract_z
Si Si1 0.853180 0.879183 0.829490
Si Si2 0.063553 0.383299 0.662126
Si Si3 0.092618 0.134900 0.855223
Si Si4 0.312319 0.576656 0.778797
Si Si5 0.314341 0.529060 0.565645
Si Si6 0.659274 0.673570 0.576692
Si Si7 0.469738 0.786692 0.101846
O O1 0.976896 0.789003 0.687959
O O2 0.914234 0.975675 0.721130
O O3 0.875739 0.895262 0.928920
O O4 0.639259 0.859485 0.974498
O O5 0.116970 0.414904 0.505461
O O6 0.143428 0.461839 0.671826
O O7 0.184556 0.286374 0.576448
O O8 0.840337 0.369747 0.866932
O O9 0.131687 0.126010 0.706113
O O10 0.286331 0.144664 0.755823
O O11 0.986780 0.035115 0.964234
O O12 0.971498 0.227999 0.995009
O O13 0.248297 0.587627 0.718029
O O14 0.469575 0.657717 0.670568
#
# Coordination Sequence:
#
# PCOD8055180 Si02
#       7
#     4   4   4   4   4   4   4
#     4  10  22  44  61  94 128 169 213 271 308 387
#     4  11  23  42  68  93 129 171 214 265 317 388
#     4  11  20  35  68  99 120 167 211 275 314 379
#     4  11  24  43  64  95 137 165 211 273 316 383
#     4  11  23  43  63  93 137 162 214 268 323 374
#     4  12  22  41  68 100 128 166 215 268 327 374
#     4  10  22  38  68  90 129 168 220 256 329 375
#
# _framework density 21.172999000000001
#
# number of rings (size 3 to 8) (size 9 to 14) (size 15 to 20)
#    0.000    1.143    5.714    1.714    4.000    2.286 
#    2.571    0.000    0.000    0.000    0.000    0.000 
#    0.000    0.000    0.000    0.000    0.000    0.000 
#
# Total GULP energy -173529.938022 kJ/mol
# GULP energy per Si atom -12394.995573 kJ/mol
# Density = 2.112481 g / cm^3
# Si number density = 21.172999 Si / 1000 Ang^3
#
#
#
# Elastic Constant Matrix: (Units=GPa)
#
#
# Indices 1 2 3 4 5 6 
#
# 1 97.8926 20.8123 50.6373 0.0006 36.1056 -0.0002
# 2 20.8123 45.6416 15.9902 0.0020 3.9432 -0.0004
# 3 50.6373 15.9902 121.9444 0.0033 16.0876 -0.0010
# 4 0.0006 0.0020 0.0033 23.9502 -0.0005 0.0206
# 5 36.1056 3.9432 16.0876 -0.0005 40.4251 -0.0001
# 6 -0.0002 -0.0004 -0.0010 0.0206 -0.0001 37.3130
#
#
#
# Elastic Compliance Matrix: (Units=1/GPa)
#
#
# Indices 1 2 3 4 5 6 
#
# 1 0.019797 -0.005815 -0.005489 0.000000 -0.014931 0.000000
# 2 -0.005815 0.024719 -0.001260 -0.000002 0.003284 0.000000
# 3 -0.005489 -0.001260 0.010535 -0.000001 0.000833 0.000000
# 4 0.000000 -0.000002 -0.000001 0.041753 0.000001 -0.000023
# 5 -0.014931 0.003284 0.000833 0.000001 0.037421 0.000000
# 6 0.000000 0.000000 0.000000 -0.000023 0.000000 0.026800
#
#
# Mechanical properties :
#
#
# Convention : Reuss Voigt Hill
#
# Bulk Modulus (GPa) = 33.41709 48.92869 41.17289
# Shear Modulus (GPa) = 25.49360 32.20691 28.85026
#
# Velocity S-wave (km/s) = 3.47372 3.90440 3.69534
# Velocity P-wave (km/s) = 5.64855 6.59431 6.13967
#
# Compressibility (1/GPa) = 0.02992481
#
# Stress axis : x y z
#
# Youngs Moduli (GPa) = 50.51144 40.45459 94.92159
#
# Poissons Ratio (x) = 0.23523 0.52100
# Poissons Ratio (y) = 0.29371 0.11960
# Poissons Ratio (z) = 0.27724 0.05097
#
# Static dielectric constant tensor:
#      x y z
#    x 3.567510 0.000000 0.222410 
#    y 0.000000 3.819120 0.000000 
#    z 0.222410 0.000000 4.047670 
# 
# 
# High freq. dielectric constant tensor:
#      x y z
#    x 1.808090 0.000000 0.016160 
#    y 0.000000 1.818480 0.000000 
#    z 0.016160 0.000000 1.840880 
# 
# From -- ./inp_files/7194.got.cif
#   From: 2010.06.25/outbox.cif.g09.slc.cpg/sg9_4_cif.got.tgz:7194.got - 2010.06.27 21:40:51.
