data_PCOD8055805
_publ_section_title
;
Structure prediction by ZEFSAII (Michael W. Deem and Ramdas Pophale) SiO2 
 PCOD8055805
Probable space group: C C
;
_chemical_formula_sum "Si O2"
_cell_formula_units_Z 28
_cell_length_a 26.059640
_cell_length_b 5.085200
_cell_length_c 9.013096
_cell_angle_alpha 90.000000
_cell_angle_beta 86.455428
_cell_angle_gamma 90.000000
_cell_volume 1192.116909
_symmetry_space_group_name_H-M "C C"
_symmetry_group_IT_number 9
_symmetry_cell_setting 'monoclinic'
loop_
_space_group_symop_operation_xyz
x,y,z
x,-y,1/2+z
1/2+x,1/2+y,z
1/2+x,1/2-y,1/2+z
loop_
_atom_site_type_symbol
_atom_site_label
_atom_site_fract_x
_atom_site_fract_y
_atom_site_fract_z
Si Si1 0.871470 0.282756 0.185930
Si Si2 0.333579 0.703649 0.521897
Si Si3 0.990715 0.275386 0.161831
Si Si4 0.194641 0.070042 0.819536
Si Si5 0.725462 0.057059 0.657834
Si Si6 0.144092 0.210660 0.567381
Si Si7 0.529991 0.724034 0.482878
O O1 0.843100 0.240235 0.346391
O O2 0.847300 0.532708 0.108171
O O3 0.931336 0.315322 0.210143
O O4 0.867837 0.031578 0.079787
O O5 0.274351 0.621537 0.548469
O O6 0.021154 0.242540 0.309461
O O7 0.007401 0.533095 0.073721
O O8 0.003085 0.034406 0.051400
O O9 0.234484 0.300360 0.764968
O O10 0.140252 0.124359 0.740479
O O11 0.217188 0.790168 0.772157
O O12 0.179739 0.030132 0.993749
O O13 0.676869 0.985864 0.556617
O O14 0.091108 0.232689 0.493152
#
# Coordination Sequence:
#
# PCOD8055805 Si02
#       7
#     4   4   4   4   4   4   4
#     4  12  26  48  77 104 150 184 253 302 371 426
#     4  12  27  48  77 108 141 198 239 303 370 439
#     4  12  26  48  71 112 141 195 240 314 357 440
#     4  10  24  41  68  95 146 178 232 287 342 412
#     4  10  26  42  70 101 144 181 238 287 349 433
#     4  10  26  43  71 100 146 183 237 286 353 432
#     4  12  27  44  78 104 152 187 249 289 382 426
#
# _framework density 23.487629999999999
#
# number of rings (size 3 to 8) (size 9 to 14) (size 15 to 20)
#    0.857    0.000    0.000    6.000    8.000    1.143 
#    0.000    0.000    0.000    0.000    0.000    0.000 
#    0.000    0.000    0.000    0.000    0.000    0.000 
#
# Total GULP energy -173486.146907 kJ/mol
# GULP energy per Si atom -12391.867636 kJ/mol
# Density = 2.343417 g / cm^3
# Si number density = 23.487630 Si / 1000 Ang^3
#
#
#
# Elastic Constant Matrix: (Units=GPa)
#
#
# Indices 1 2 3 4 5 6 
#
# 1 96.6611 10.1158 -2.6567 0.0000 -8.4476 0.0000
# 2 10.1158 176.8520 26.4473 0.0000 0.1416 0.0000
# 3 -2.6567 26.4473 -99.1611 0.0000 69.2655 0.0000
# 4 0.0000 0.0000 0.0000 52.1736 0.0000 -4.8038
# 5 -8.4476 0.1416 69.2655 0.0000 6.6376 0.0000
# 6 0.0000 0.0000 0.0000 -4.8038 0.0000 60.3127
#
#
#
# Elastic Compliance Matrix: (Units=1/GPa)
#
#
# Indices 1 2 3 4 5 6 
#
# 1 0.010653 -0.000773 0.001085 0.000000 0.002257 0.000000
# 2 -0.000773 0.005687 0.000092 0.000000 -0.002069 0.000000
# 3 0.001085 0.000092 -0.001101 0.000000 0.012867 0.000000
# 4 0.000000 0.000000 0.000000 0.019308 0.000000 0.001538
# 5 0.002257 -0.002069 0.012867 0.000000 0.019298 0.000000
# 6 0.000000 0.000000 0.000000 0.001538 0.000000 0.016703
#
#
# Mechanical properties :
#
#
# Convention : Reuss Voigt Hill
#
# Bulk Modulus (GPa) = 62.32075 26.90722 44.61399
# Shear Modulus (GPa) = 66.58749 33.18783 49.88766
#
# Velocity S-wave (km/s) = 5.33025 3.76306 4.61368
# Velocity P-wave (km/s) = 8.02952 5.51013 6.88603
#
# Compressibility (1/GPa) = 0.01604602
#
# Stress axis : x y z
#
# Youngs Moduli (GPa) = 93.86690 175.85402 -908.28527
#
# Poissons Ratio (x) = 0.13600 0.98514
# Poissons Ratio (y) = 0.07259 0.08383
# Poissons Ratio (z) = -0.10181 -0.01623
#
# Static dielectric constant tensor:
#      x y z
#    x 4.600130 0.000000 0.131460 
#    y 0.000000 4.492680 0.000000 
#    z 0.131460 0.000000 4.345760 
# 
# 
# High freq. dielectric constant tensor:
#      x y z
#    x 1.925060 0.000000 0.005690 
#    y 0.000000 1.954600 0.000000 
#    z 0.005690 0.000000 1.947240 
# 
# From -- ./inp_files/12305.got.cif
#   From: 2010.06.25/outbox.cif.g09.slc.cpg/sg9_7_cif.got.tgz:12305.got - 2010.06.27 21:40:51.
