data_PCOD8055469
_publ_section_title
;
Structure prediction by ZEFSAII (Michael W. Deem and Ramdas Pophale) SiO2 
 PCOD8055469
Probable space group: C C
;
_chemical_formula_sum "Si O2"
_cell_formula_units_Z 32
_cell_length_a 8.555465
_cell_length_b 22.555805
_cell_length_c 14.189425
_cell_angle_alpha 90.000000
_cell_angle_beta 148.119992
_cell_angle_gamma 90.000000
_cell_volume 1446.163892
_symmetry_space_group_name_H-M "C C"
_symmetry_group_IT_number 9
_symmetry_cell_setting 'monoclinic'
loop_
_space_group_symop_operation_xyz
x,y,z
x,-y,1/2+z
1/2+x,1/2+y,z
1/2+x,1/2-y,1/2+z
loop_
_atom_site_type_symbol
_atom_site_label
_atom_site_fract_x
_atom_site_fract_y
_atom_site_fract_z
Si Si1 0.769420 0.170314 0.540120
Si Si2 0.576705 0.899216 0.691320
Si Si3 0.816957 0.294241 0.651012
Si Si4 0.248246 0.971393 0.683658
Si Si5 0.814863 0.486231 0.420900
Si Si6 0.740474 0.925131 0.175134
Si Si7 0.321571 0.376244 0.411505
Si Si8 0.142313 0.102692 0.581293
O O1 0.881946 0.227194 0.655499
O O2 0.504174 0.191075 0.339111
O O3 0.645547 0.124636 0.552866
O O4 0.028613 0.137058 0.616222
O O5 0.412953 0.836149 0.613515
O O6 0.485133 0.940135 0.735407
O O7 0.493717 0.927433 0.547519
O O8 0.927740 0.884753 0.882072
O O9 0.474282 0.311301 0.501543
O O10 0.402041 0.990916 0.860847
O O11 0.971764 0.925499 0.557301
O O12 0.129475 0.032032 0.579989
O O13 0.466266 0.474704 0.248629
O O14 0.939258 0.539825 0.550690
O O15 0.904204 0.898749 0.349015
O O16 0.970445 0.370897 0.238788
#
# Coordination Sequence:
#
# PCOD8055469 Si02
#       8
#     4   4   4   4   4   4   4   4
#     4  11  24  45  73  94 132 182 231 278 345 402
#     4  10  23  42  61  95 134 180 218 278 346 395
#     4  10  22  45  69  93 129 178 231 280 334 405
#     4  11  21  38  63  95 139 175 219 278 335 412
#     4  12  24  37  63  95 137 175 228 267 343 410
#     4  12  24  41  62 102 136 182 223 275 342 411
#     4  11  24  41  68  98 139 176 227 281 345 394
#     4  11  22  39  65  98 130 172 221 277 342 397
#
# _framework density 22.127506
#
# number of rings (size 3 to 8) (size 9 to 14) (size 15 to 20)
#    0.000    1.000    3.750    5.250    3.500    0.000 
#    0.000    5.000    0.000    0.000    0.000    0.000 
#    0.000    0.000    0.000    0.000    0.000    0.000 
#
# Total GULP energy -198261.385119 kJ/mol
# GULP energy per Si atom -12391.336570 kJ/mol
# Density = 2.207714 g / cm^3
# Si number density = 22.127506 Si / 1000 Ang^3
#
#
#
# Elastic Constant Matrix: (Units=GPa)
#
#
# Indices 1 2 3 4 5 6 
#
# 1 54.8919 32.3248 33.4967 -0.0001 1.4103 0.0000
# 2 32.3248 124.5601 31.1510 0.0000 13.0235 0.0000
# 3 33.4967 31.1510 115.3070 0.0001 10.4218 -0.0004
# 4 -0.0001 0.0000 0.0001 31.3900 0.0000 -9.9887
# 5 1.4103 13.0235 10.4218 0.0000 41.1710 -0.0001
# 6 0.0000 0.0000 -0.0004 -9.9887 -0.0001 33.1943
#
#
#
# Elastic Compliance Matrix: (Units=1/GPa)
#
#
# Indices 1 2 3 4 5 6 
#
# 1 0.024903 -0.005194 -0.006041 0.000000 0.002319 0.000000
# 2 -0.005194 0.009890 -0.000917 0.000000 -0.002718 0.000000
# 3 -0.006041 -0.000917 0.010879 0.000000 -0.002257 0.000000
# 4 0.000000 0.000000 0.000000 0.035231 0.000000 0.010601
# 5 0.002319 -0.002718 -0.002257 0.000000 0.025641 0.000000
# 6 0.000000 0.000000 0.000000 0.010601 0.000000 0.033316
#
#
# Mechanical properties :
#
#
# Convention : Reuss Voigt Hill
#
# Bulk Modulus (GPa) = 46.79987 54.30042 50.55015
# Shear Modulus (GPa) = 29.19090 34.33683 31.76387
#
# Velocity S-wave (km/s) = 3.63604 3.94353 3.79290
# Velocity P-wave (km/s) = 6.23087 6.73263 6.48660
#
# Compressibility (1/GPa) = 0.02136758
#
# Stress axis : x y z
#
# Youngs Moduli (GPa) = 40.15560 101.11374 91.91968
#
# Poissons Ratio (x) = 0.52523 0.55526
# Poissons Ratio (y) = 0.20859 0.08430
# Poissons Ratio (z) = 0.24257 0.09274
#
# Static dielectric constant tensor:
#      x y z
#    x 3.708020 0.000000 -0.068110 
#    y 0.000000 4.212890 0.000000 
#    z -0.068110 0.000000 4.183150 
# 
# 
# High freq. dielectric constant tensor:
#      x y z
#    x 1.837250 0.000000 -0.005490 
#    y 0.000000 1.860300 0.000000 
#    z -0.005490 0.000000 1.897970 
# 
# From -- ./inp_files/10140.got.cif
#   From: 2010.06.25/outbox.cif.g09.slc.cpg/sg9_6_cif.got.tgz:10140.got - 2010.06.27 21:40:51.
