data_PCOD8055723
_publ_section_title
;
Structure prediction by ZEFSAII (Michael W. Deem and Ramdas Pophale) SiO2 
 PCOD8055723
Probable space group: C C
;
_chemical_formula_sum "Si O2"
_cell_formula_units_Z 24
_cell_length_a 7.069905
_cell_length_b 7.826243
_cell_length_c 17.462878
_cell_angle_alpha 90.000000
_cell_angle_beta 84.278477
_cell_angle_gamma 90.000000
_cell_volume 961.421316
_symmetry_space_group_name_H-M "C C"
_symmetry_group_IT_number 9
_symmetry_cell_setting 'monoclinic'
loop_
_space_group_symop_operation_xyz
x,y,z
x,-y,1/2+z
1/2+x,1/2+y,z
1/2+x,1/2-y,1/2+z
loop_
_atom_site_type_symbol
_atom_site_label
_atom_site_fract_x
_atom_site_fract_y
_atom_site_fract_z
Si Si1 0.779780 0.879524 0.932340
Si Si2 0.567441 0.836290 0.218445
Si Si3 0.559802 0.495257 0.805098
Si Si4 0.850366 0.977046 0.102455
Si Si5 0.196678 0.163274 0.662634
Si Si6 0.433505 0.018783 0.871259
O O1 0.858727 0.689671 0.916803
O O2 0.552532 0.894966 0.923407
O O3 0.811576 0.933439 0.017213
O O4 0.890544 0.013962 0.872932
O O5 0.509686 0.641420 0.240466
O O6 0.763804 0.836557 0.164092
O O7 0.404306 0.918909 0.170049
O O8 0.581155 0.938063 0.297267
O O9 0.599268 0.668350 0.753430
O O10 0.746017 0.429425 0.844437
O O11 0.077754 0.957799 0.108629
O O12 0.739570 0.151778 0.125569
#
# Coordination Sequence:
#
# PCOD8055723 Si02
#       6
#     4   4   4   4   4   4
#     4  11  25  46  64 111 141 195 236 309 364 439
#     4  10  24  42  69 104 132 187 243 304 358 435
#     4  10  23  45  73  98 140 190 251 299 366 435
#     4  12  26  41  75  99 152 182 246 299 374 427
#     4  11  24  44  68 104 135 193 238 304 358 440
#     4  10  24  42  71  96 146 185 248 293 368 434
#
# _framework density 24.963042999999999
#
# number of rings (size 3 to 8) (size 9 to 14) (size 15 to 20)
#    0.000    1.333    1.667    2.000    9.333    5.333 
#    0.000    0.000    0.000    0.000    0.000    0.000 
#    0.000    0.000    0.000    0.000    0.000    0.000 
#
# Total GULP energy -148667.820516 kJ/mol
# GULP energy per Si atom -12388.985043 kJ/mol
# Density = 2.490623 g / cm^3
# Si number density = 24.963043 Si / 1000 Ang^3
#
#
#
# Elastic Constant Matrix: (Units=GPa)
#
#
# Indices 1 2 3 4 5 6 
#
# 1 119.3753 25.3875 33.9277 0.0000 36.1956 0.0000
# 2 25.3875 62.0999 15.7216 0.0000 -0.6137 0.0000
# 3 33.9277 15.7216 55.5956 0.0000 31.3067 0.0000
# 4 0.0000 0.0000 0.0000 13.0583 0.0000 9.1309
# 5 36.1956 -0.6137 31.3067 0.0000 44.5383 0.0000
# 6 0.0000 0.0000 0.0000 9.1309 0.0000 37.2444
#
#
#
# Elastic Compliance Matrix: (Units=1/GPa)
#
#
# Indices 1 2 3 4 5 6 
#
# 1 0.012648 -0.005077 -0.000754 0.000000 -0.009819 0.000000
# 2 -0.005077 0.020446 -0.008550 0.000000 0.010418 0.000000
# 3 -0.000754 -0.008550 0.034073 0.000000 -0.023456 0.000000
# 4 0.000000 0.000000 0.000000 0.092423 0.000000 -0.022659
# 5 -0.009819 0.010418 -0.023456 0.000000 0.047063 0.000000
# 6 0.000000 0.000000 0.000000 -0.022659 0.000000 0.032405
#
#
# Mechanical properties :
#
#
# Convention : Reuss Voigt Hill
#
# Bulk Modulus (GPa) = 26.03736 43.01606 34.52671
# Shear Modulus (GPa) = 17.81756 29.77046 23.79401
#
# Velocity S-wave (km/s) = 2.67452 3.45712 3.09069
# Velocity P-wave (km/s) = 4.47107 5.76237 5.15729
#
# Compressibility (1/GPa) = 0.03840635
#
# Stress axis : x y z
#
# Youngs Moduli (GPa) = 79.06327 48.90898 29.34864
#
# Poissons Ratio (x) = 0.24831 0.02212
# Poissons Ratio (y) = 0.40140 0.25093
# Poissons Ratio (z) = 0.05958 0.41817
#
# Static dielectric constant tensor:
#      x y z
#    x 4.850900 0.000000 0.022070 
#    y 0.000000 4.206760 0.000000 
#    z 0.022070 0.000000 4.440110 
# 
# 
# High freq. dielectric constant tensor:
#      x y z
#    x 2.011930 0.000000 0.018580 
#    y 0.000000 1.966420 0.000000 
#    z 0.018580 0.000000 1.990660 
# 
# From -- ./inp_files/28916.got.cif
#   From: 2010.06.25/outbox.cif.g09.slc.cpg/sg9_15_cif.got.tgz:28916.got - 2010.06.27 21:40:51.
