data_PCOD8055911
_publ_section_title
;
Structure prediction by ZEFSAII (Michael W. Deem and Ramdas Pophale) SiO2 
 PCOD8055911
Probable space group: C C
;
_chemical_formula_sum "Si O2"
_cell_formula_units_Z 28
_cell_length_a 9.923319
_cell_length_b 17.520975
_cell_length_c 10.100620
_cell_angle_alpha 90.000000
_cell_angle_beta 136.959832
_cell_angle_gamma 90.000000
_cell_volume 1198.596095
_symmetry_space_group_name_H-M "C C"
_symmetry_group_IT_number 9
_symmetry_cell_setting 'monoclinic'
loop_
_space_group_symop_operation_xyz
x,y,z
x,-y,1/2+z
1/2+x,1/2+y,z
1/2+x,1/2-y,1/2+z
loop_
_atom_site_type_symbol
_atom_site_label
_atom_site_fract_x
_atom_site_fract_y
_atom_site_fract_z
Si Si1 0.695010 0.906624 0.424950
Si Si2 0.239781 0.593376 0.250551
Si Si3 0.358461 0.170130 0.066183
Si Si4 0.936174 0.658091 0.525795
Si Si5 0.576330 0.329870 0.609318
Si Si6 0.217395 0.447307 0.087750
Si Si7 0.498617 0.341910 0.149706
O O1 0.717395 0.868778 0.587750
O O2 0.497214 0.873646 0.214119
O O3 0.883102 0.883457 0.469870
O O4 0.681380 0.998810 0.432433
O O5 0.437576 0.626354 0.461381
O O6 0.253410 0.501190 0.243067
O O7 0.051689 0.616543 0.205630
O O8 0.234846 0.155313 0.841303
O O9 0.217395 0.150600 0.087750
O O10 0.424805 0.256985 0.121409
O O11 0.699945 0.655313 0.334198
O O12 0.009985 0.743015 0.554091
O O13 0.028811 0.605131 0.477845
O O14 0.405980 0.394869 0.197656
#
# Coordination Sequence:
#
# PCOD8055911 Si02
#       7
#     4   4   4   4   4   4   4
#     4  10  26  46  65 105 144 177 221 286 352 399
#     4  10  26  46  65 105 144 177 221 286 352 399
#     4  12  24  42  75 105 127 184 240 277 330 411
#     4  12  22  44  74  99 138 180 232 282 333 407
#     4  12  24  42  75 105 127 184 240 277 330 411
#     4  10  24  46  70 100 146 176 222 290 346 400
#     4  12  22  44  74  99 138 180 232 282 333 407
#
# _framework density 23.360662999999999
#
# number of rings (size 3 to 8) (size 9 to 14) (size 15 to 20)
#    0.857    0.000    4.286    3.429    0.000    3.429 
#    0.000    2.857    0.000    0.000    0.000    0.000 
#    0.000    0.000    0.000    0.000    0.000    0.000 
#
# Total GULP energy -173560.742967 kJ/mol
# GULP energy per Si atom -12397.195926 kJ/mol
# Density = 2.330749 g / cm^3
# Si number density = 23.360663 Si / 1000 Ang^3
#
#
#
# Elastic Constant Matrix: (Units=GPa)
#
#
# Indices 1 2 3 4 5 6 
#
# 1 50.5244 33.0058 -7.1528 0.0000 -4.5740 0.0000
# 2 33.0058 146.4004 29.7717 0.0000 1.9932 0.0000
# 3 -7.1528 29.7717 123.8683 0.0000 15.7798 0.0000
# 4 0.0000 0.0000 0.0000 22.0555 0.0000 1.3982
# 5 -4.5740 1.9932 15.7798 0.0000 10.7746 0.0000
# 6 0.0000 0.0000 0.0000 1.3982 0.0000 -60.5410
#
#
#
# Elastic Compliance Matrix: (Units=1/GPa)
#
#
# Indices 1 2 3 4 5 6 
#
# 1 0.024833 -0.006075 0.001731 0.000000 0.009131 0.000000
# 2 -0.006075 0.008687 -0.002342 0.000000 -0.000755 0.000000
# 3 0.001731 -0.002342 0.010557 0.000000 -0.014293 0.000000
# 4 0.000000 0.000000 0.000000 0.045274 0.000000 0.001046
# 5 0.009131 -0.000755 -0.014293 0.000000 0.117759 0.000000
# 6 0.000000 0.000000 0.000000 0.001046 0.000000 -0.016494
#
#
# Mechanical properties :
#
#
# Convention : Reuss Voigt Hill
#
# Bulk Modulus (GPa) = 32.56969 48.00472 40.28721
# Shear Modulus (GPa) = 23.34015 12.13569 17.73792
#
# Velocity S-wave (km/s) = 3.16432 2.28171 2.75854
# Velocity P-wave (km/s) = 5.22713 5.24744 5.23730
#
# Compressibility (1/GPa) = 0.03070339
#
# Stress axis : x y z
#
# Youngs Moduli (GPa) = 40.26979 115.11763 94.72539
#
# Poissons Ratio (x) = 0.69931 -0.16395
# Poissons Ratio (y) = 0.24463 0.22189
# Poissons Ratio (z) = -0.06970 0.26966
#
# Static dielectric constant tensor:
#      x y z
#    x 3.890400 0.000000 -0.063990 
#    y 0.000000 4.137190 0.000000 
#    z -0.063990 0.000000 4.531390 
# 
# 
# High freq. dielectric constant tensor:
#      x y z
#    x 1.901240 0.000000 -0.017750 
#    y 0.000000 1.929880 0.000000 
#    z -0.017750 0.000000 1.945930 
# 
# From -- ./inp_files/16982.got.cif
#   From: 2010.06.25/outbox.cif.g09.slc.cpg/sg9_9_cif.got.tgz:16982.got - 2010.06.27 21:40:51.
