data_PCOD8055823
_publ_section_title
;
Structure prediction by ZEFSAII (Michael W. Deem and Ramdas Pophale) SiO2 
 PCOD8055823
Probable space group: C C
;
_chemical_formula_sum "Si O2"
_cell_formula_units_Z 28
_cell_length_a 11.728308
_cell_length_b 9.408123
_cell_length_c 11.981570
_cell_angle_alpha 90.000000
_cell_angle_beta 67.003054
_cell_angle_gamma 90.000000
_cell_volume 1216.992738
_symmetry_space_group_name_H-M "C C"
_symmetry_group_IT_number 9
_symmetry_cell_setting 'monoclinic'
loop_
_space_group_symop_operation_xyz
x,y,z
x,-y,1/2+z
1/2+x,1/2+y,z
1/2+x,1/2-y,1/2+z
loop_
_atom_site_type_symbol
_atom_site_label
_atom_site_fract_x
_atom_site_fract_y
_atom_site_fract_z
Si Si1 0.674570 0.573505 0.000000
Si Si2 0.482880 0.605504 0.686823
Si Si3 0.197507 0.790006 0.253635
Si Si4 0.760981 0.180042 0.633792
Si Si5 0.325870 0.557926 0.940488
Si Si6 0.367980 0.131903 0.504150
Si Si7 0.129779 0.505743 0.851987
O O1 0.540506 0.509551 0.079856
O O2 0.719215 0.686527 0.076490
O O3 0.772506 0.446735 0.959722
O O4 0.661954 0.634399 0.881889
O O5 0.589574 0.701511 0.701813
O O6 0.378364 0.710420 0.671661
O O7 0.417852 0.509198 0.806616
O O8 0.319819 0.863073 0.151799
O O9 0.214946 0.624238 0.274021
O O10 0.640143 0.124914 0.749899
O O11 0.821838 0.058859 0.535917
O O12 0.187566 0.572375 0.942167
O O13 0.380207 0.706505 0.962308
O O14 0.495289 0.047287 0.439739
#
# Coordination Sequence:
#
# PCOD8055823 Si02
#       7
#     4   4   4   4   4   4   4
#     4  11  26  46  71 109 141 189 244 298 362 432
#     4  10  24  42  72  98 146 185 235 299 356 420
#     4  11  22  46  70 101 142 189 235 295 369 418
#     4  11  24  44  69 105 141 189 245 288 365 432
#     4  11  22  41  72  99 141 190 238 290 365 424
#     4  11  26  44  70 107 145 186 239 308 358 432
#     4  11  24  43  72 105 142 190 238 298 361 436
#
# _framework density 23.007534
#
# number of rings (size 3 to 8) (size 9 to 14) (size 15 to 20)
#    0.000    1.143    4.286    0.857    0.000    9.143 
#    0.000    0.000    0.000    0.000    0.000    0.000 
#    0.000    0.000    0.000    0.000    0.000    0.000 
#
# Total GULP energy -173490.153952 kJ/mol
# GULP energy per Si atom -12392.153854 kJ/mol
# Density = 2.295517 g / cm^3
# Si number density = 23.007534 Si / 1000 Ang^3
#
#
#
# Elastic Constant Matrix: (Units=GPa)
#
#
# Indices 1 2 3 4 5 6 
#
# 1 87.2323 10.0220 41.2930 0.0000 -14.9160 0.0000
# 2 10.0220 49.4079 9.5971 0.0000 -1.4317 0.0000
# 3 41.2930 9.5971 112.4683 0.0000 -7.6546 0.0000
# 4 0.0000 0.0000 0.0000 23.3264 0.0000 -5.4736
# 5 -14.9160 -1.4317 -7.6546 0.0000 41.7850 0.0000
# 6 0.0000 0.0000 0.0000 -5.4736 0.0000 24.7934
#
#
#
# Elastic Compliance Matrix: (Units=1/GPa)
#
#
# Indices 1 2 3 4 5 6 
#
# 1 0.014769 -0.001906 -0.004967 0.000000 0.004297 0.000000
# 2 -0.001906 0.020833 -0.001089 0.000000 -0.000166 0.000000
# 3 -0.004967 -0.001089 0.010820 0.000000 0.000172 0.000000
# 4 0.000000 0.000000 0.000000 0.045212 0.000000 0.009981
# 5 0.004297 -0.000166 0.000172 0.000000 0.025492 0.000000
# 6 0.000000 0.000000 0.000000 0.009981 0.000000 0.042537
#
#
# Mechanical properties :
#
#
# Convention : Reuss Voigt Hill
#
# Bulk Modulus (GPa) = 32.79105 41.21474 37.00289
# Shear Modulus (GPa) = 26.91747 30.52737 28.72242
#
# Velocity S-wave (km/s) = 3.42415 3.64654 3.53709
# Velocity P-wave (km/s) = 5.46958 5.97345 5.72706
#
# Compressibility (1/GPa) = 0.03049613
#
# Stress axis : x y z
#
# Youngs Moduli (GPa) = 67.71068 48.00053 92.42359
#
# Poissons Ratio (x) = 0.09151 0.45909
# Poissons Ratio (y) = 0.12908 0.10066
# Poissons Ratio (z) = 0.33634 0.05228
#
# Static dielectric constant tensor:
#      x y z
#    x 4.163440 0.000000 -0.086430 
#    y 0.000000 4.095280 0.000000 
#    z -0.086430 0.000000 4.573470 
# 
# 
# High freq. dielectric constant tensor:
#      x y z
#    x 1.908140 0.000000 -0.002340 
#    y 0.000000 1.894160 0.000000 
#    z -0.002340 0.000000 1.930470 
# 
# From -- ./inp_files/17884.got.cif
#   From: 2010.06.25/outbox.cif.g09.slc.cpg/sg9_9_cif.got.tgz:17884.got - 2010.06.27 21:40:51.
