data_PCOD8055144
_publ_section_title
;
Structure prediction by ZEFSAII (Michael W. Deem and Ramdas Pophale) SiO2 
 PCOD8055144
Probable space group: C C
;
_chemical_formula_sum "Si O2"
_cell_formula_units_Z 24
_cell_length_a 8.854223
_cell_length_b 10.659838
_cell_length_c 11.538312
_cell_angle_alpha 90.000000
_cell_angle_beta 91.792382
_cell_angle_gamma 90.000000
_cell_volume 1088.505928
_symmetry_space_group_name_H-M "C C"
_symmetry_group_IT_number 9
_symmetry_cell_setting 'monoclinic'
loop_
_space_group_symop_operation_xyz
x,y,z
x,-y,1/2+z
1/2+x,1/2+y,z
1/2+x,1/2-y,1/2+z
loop_
_atom_site_type_symbol
_atom_site_label
_atom_site_fract_x
_atom_site_fract_y
_atom_site_fract_z
Si Si1 0.255130 0.549394 0.539640
Si Si2 0.252455 0.274999 0.447616
Si Si3 0.746759 0.635393 0.682516
Si Si4 0.069418 0.061979 0.081346
Si Si5 0.101035 0.235273 0.893793
Si Si6 0.570522 0.193041 0.719601
O O1 0.208640 0.410970 0.497931
O O2 0.436482 0.540828 0.559261
O O3 0.197881 0.646298 0.441154
O O4 0.183960 0.594645 0.660376
O O5 0.226994 0.176040 0.548499
O O6 0.420854 0.255061 0.403043
O O7 0.139138 0.251330 0.338508
O O8 0.687823 0.492783 0.675926
O O9 0.642560 0.722446 0.760398
O O10 0.913531 0.622585 0.739800
O O11 0.012557 0.193890 0.134923
O O12 0.147730 0.106231 0.962541
#
# Coordination Sequence:
#
# PCOD8055144 Si02
#       6
#     4   4   4   4   4   4
#     4  10  21  47  71  93 141 182 221 281 343 396
#     4  11  25  45  69 101 141 177 227 282 339 406
#     4  12  25  43  71 103 133 180 230 275 344 399
#     4  10  24  46  68  96 143 178 224 281 342 398
#     4  10  24  45  69 104 136 181 229 277 342 405
#     4  11  25  46  68 103 136 178 229 282 334 408
#
# _framework density 22.048570000000002
#
# number of rings (size 3 to 8) (size 9 to 14) (size 15 to 20)
#    0.000    1.333    5.000    1.000    7.000    4.000 
#    3.000    0.000    0.000    0.000    0.000    0.000 
#    0.000    0.000    0.000    0.000    0.000    0.000 
#
# Total GULP energy -148705.363432 kJ/mol
# GULP energy per Si atom -12392.113619 kJ/mol
# Density = 2.199839 g / cm^3
# Si number density = 22.048570 Si / 1000 Ang^3
#
#
#
# Elastic Constant Matrix: (Units=GPa)
#
#
# Indices 1 2 3 4 5 6 
#
# 1 108.5465 38.1714 31.6481 0.0000 10.8050 0.0000
# 2 38.1714 67.5037 -8.0743 0.0000 4.3186 0.0000
# 3 31.6481 -8.0743 85.4944 0.0000 1.7551 0.0000
# 4 0.0000 0.0000 0.0000 30.9030 0.0000 11.0353
# 5 10.8050 4.3186 1.7551 0.0000 41.4829 0.0000
# 6 0.0000 0.0000 0.0000 11.0353 0.0000 42.0119
#
#
#
# Elastic Compliance Matrix: (Units=1/GPa)
#
#
# Indices 1 2 3 4 5 6 
#
# 1 0.014261 -0.008623 -0.006041 0.000000 -0.002561 0.000000
# 2 -0.008623 0.020307 0.005112 0.000000 -0.000084 0.000000
# 3 -0.006041 0.005112 0.014407 0.000000 0.000432 0.000000
# 4 0.000000 0.000000 0.000000 0.035709 0.000000 -0.009380
# 5 -0.002561 -0.000084 0.000432 0.000000 0.024764 0.000000
# 6 0.000000 0.000000 0.000000 -0.009380 0.000000 0.026266
#
#
# Mechanical properties :
#
#
# Convention : Reuss Voigt Hill
#
# Bulk Modulus (GPa) = 33.47828 42.78168 38.12998
# Shear Modulus (GPa) = 30.34424 36.19953 33.27188
#
# Velocity S-wave (km/s) = 3.71380 4.05632 3.88883
# Velocity P-wave (km/s) = 5.79712 6.43302 6.12333
#
# Compressibility (1/GPa) = 0.02987011
#
# Stress axis : x y z
#
# Youngs Moduli (GPa) = 70.11970 49.24426 69.41159
#
# Poissons Ratio (x) = 0.42464 0.41932
# Poissons Ratio (y) = 0.60465 -0.35481
# Poissons Ratio (z) = 0.42360 -0.25172
#
# Static dielectric constant tensor:
#      x y z
#    x 3.872030 0.000000 0.018040 
#    y 0.000000 3.920720 0.000000 
#    z 0.018040 0.000000 4.048290 
# 
# 
# High freq. dielectric constant tensor:
#      x y z
#    x 1.867090 0.000000 0.008130 
#    y 0.000000 1.864530 0.000000 
#    z 0.008130 0.000000 1.875920 
# 
# From -- ./inp_files/14186.got.cif
#   From: 2010.06.25/outbox.cif.g09.slc.cpg/sg9_8_cif.got.tgz:14186.got - 2010.06.27 21:40:51.
