data_PCOD8055575
_publ_section_title
;
Structure prediction by ZEFSAII (Michael W. Deem and Ramdas Pophale) SiO2 
 PCOD8055575
Probable space group: C C
;
_chemical_formula_sum "Si O2"
_cell_formula_units_Z 32
_cell_length_a 4.915316
_cell_length_b 23.307103
_cell_length_c 12.507787
_cell_angle_alpha 90.000000
_cell_angle_beta 110.078831
_cell_angle_gamma 90.000000
_cell_volume 1345.823427
_symmetry_space_group_name_H-M "C C"
_symmetry_group_IT_number 9
_symmetry_cell_setting 'monoclinic'
loop_
_space_group_symop_operation_xyz
x,y,z
x,-y,1/2+z
1/2+x,1/2+y,z
1/2+x,1/2-y,1/2+z
loop_
_atom_site_type_symbol
_atom_site_label
_atom_site_fract_x
_atom_site_fract_y
_atom_site_fract_z
Si Si1 0.242190 0.214686 0.092920
Si Si2 0.160441 0.431459 0.954946
Si Si3 0.244225 0.911360 0.527195
Si Si4 0.764172 0.335328 0.814450
Si Si5 0.799311 0.589747 0.600320
Si Si6 0.690714 0.285143 0.027478
Si Si7 0.378296 0.433208 0.671516
Si Si8 0.273892 0.025704 0.813184
O O1 0.244980 0.157394 0.021966
O O2 0.372935 0.203371 0.229282
O O3 0.400101 0.265131 0.048744
O O4 0.913643 0.233310 0.068913
O O5 0.506716 0.430750 0.000667
O O6 0.056333 0.436956 0.063700
O O7 0.040787 0.372217 0.889507
O O8 0.050779 0.485095 0.870905
O O9 0.531959 0.933480 0.626978
O O10 0.206208 0.933832 0.403492
O O11 0.980573 0.936453 0.561811
O O12 0.499776 0.375276 0.740596
O O13 0.640042 0.297302 0.894894
O O14 0.809572 0.658603 0.604242
O O15 0.843793 0.567414 0.724830
O O16 0.489625 0.487838 0.752233
#
# Coordination Sequence:
#
# PCOD8055575 Si02
#       8
#     4   4   4   4   4   4   4   4
#     4  11  24  42  65  94 126 169 224 274 322 386
#     4  10  23  42  65  93 129 177 219 256 328 419
#     4  11  24  42  63  97 131 169 224 269 323 403
#     4   9  22  42  66  88 128 176 214 265 332 398
#     4  11  24  42  63  97 131 169 224 269 323 403
#     4  11  24  42  65  94 126 169 224 274 322 386
#     4  10  23  42  65  93 129 177 219 256 328 419
#     4  11  24  40  68  98 136 172 210 285 340 372
#
# _framework density 23.777266000000001
#
# number of rings (size 3 to 8) (size 9 to 14) (size 15 to 20)
#    0.000    1.500    0.000    4.500    0.000   19.000 
#    0.000    0.000    0.000    0.000    0.000    0.000 
#    0.000    0.000    0.000    0.000    0.000    0.000 
#
# Total GULP energy -198495.123314 kJ/mol
# GULP energy per Si atom -12405.945207 kJ/mol
# Density = 2.372315 g / cm^3
# Si number density = 23.777266 Si / 1000 Ang^3
#
#
#
# Elastic Constant Matrix: (Units=GPa)
#
#
# Indices 1 2 3 4 5 6 
#
# 1 56.9968 12.6025 6.0956 0.0000 -9.4572 0.0000
# 2 12.6025 116.9398 64.1930 0.0000 -12.7617 0.0000
# 3 6.0956 64.1930 147.8017 0.0000 -33.3520 0.0000
# 4 0.0000 0.0000 0.0000 40.1220 0.0000 -6.8062
# 5 -9.4572 -12.7617 -33.3520 0.0000 34.5762 0.0000
# 6 0.0000 0.0000 0.0000 -6.8062 0.0000 20.6706
#
#
#
# Elastic Compliance Matrix: (Units=1/GPa)
#
#
# Indices 1 2 3 4 5 6 
#
# 1 0.018833 -0.002217 0.001488 0.000000 0.005768 0.000000
# 2 -0.002217 0.011503 -0.005219 0.000000 -0.001395 0.000000
# 3 0.001488 -0.005219 0.011029 0.000000 0.009119 0.000000
# 4 0.000000 0.000000 0.000000 0.026399 0.000000 0.008692
# 5 0.005768 -0.001395 0.009119 0.000000 0.038780 0.000000
# 6 0.000000 0.000000 0.000000 0.008692 0.000000 0.051240
#
#
# Mechanical properties :
#
#
# Convention : Reuss Voigt Hill
#
# Bulk Modulus (GPa) = 33.93510 54.16894 44.05202
# Shear Modulus (GPa) = 27.85450 34.99691 31.42571
#
# Velocity S-wave (km/s) = 3.42640 3.84065 3.63942
# Velocity P-wave (km/s) = 5.47327 6.51911 6.01895
#
# Compressibility (1/GPa) = 0.02946801
#
# Stress axis : x y z
#
# Youngs Moduli (GPa) = 53.09853 86.93214 90.66886
#
# Poissons Ratio (x) = 0.19271 -0.13488
# Poissons Ratio (y) = 0.11771 0.47325
# Poissons Ratio (z) = -0.07899 0.45374
#
# Static dielectric constant tensor:
#      x y z
#    x 4.146080 0.000000 -0.192870 
#    y 0.000000 4.360930 0.000000 
#    z -0.192870 0.000000 4.357200 
# 
# 
# High freq. dielectric constant tensor:
#      x y z
#    x 1.943270 0.000000 -0.014590 
#    y 0.000000 1.947390 0.000000 
#    z -0.014590 0.000000 1.946530 
# 
# From -- ./inp_files/13781.got.cif
#   From: 2010.06.25/outbox.cif.g09.slc.cpg/sg9_7_cif.got.tgz:13781.got - 2010.06.27 21:40:51.
