data_PCOD8055821
_publ_section_title
;
Structure prediction by ZEFSAII (Michael W. Deem and Ramdas Pophale) SiO2 
 PCOD8055821
Probable space group: C C
;
_chemical_formula_sum "Si O2"
_cell_formula_units_Z 32
_cell_length_a 15.006786
_cell_length_b 10.066854
_cell_length_c 18.163259
_cell_angle_alpha 90.000000
_cell_angle_beta 31.415298
_cell_angle_gamma 90.000000
_cell_volume 1430.246515
_symmetry_space_group_name_H-M "C C"
_symmetry_group_IT_number 9
_symmetry_cell_setting 'monoclinic'
loop_
_space_group_symop_operation_xyz
x,y,z
x,-y,1/2+z
1/2+x,1/2+y,z
1/2+x,1/2-y,1/2+z
loop_
_atom_site_type_symbol
_atom_site_label
_atom_site_fract_x
_atom_site_fract_y
_atom_site_fract_z
Si Si1 0.041180 0.082088 0.852470
Si Si2 0.316853 0.869199 0.780831
Si Si3 0.223770 0.430461 0.108569
Si Si4 0.931685 0.337145 0.212161
Si Si5 0.576512 0.744320 0.968773
Si Si6 0.460959 0.143341 0.337262
Si Si7 0.891914 0.481976 0.031610
Si Si8 0.947018 0.761958 0.047627
O O1 0.039884 0.121428 0.940000
O O2 0.013692 0.211090 0.823345
O O3 0.221489 0.019200 0.701795
O O4 0.890152 0.975904 0.944220
O O5 0.351420 0.836841 0.841312
O O6 0.421009 0.772158 0.652312
O O7 0.113260 0.852585 0.914594
O O8 0.382268 0.017027 0.716854
O O9 0.134942 0.564151 0.199340
O O10 0.094639 0.342944 0.150397
O O11 0.280884 0.341854 0.137266
O O12 0.769330 0.267932 0.365017
O O13 0.959277 0.239671 0.123368
O O14 0.542033 0.883400 0.952317
O O15 0.351269 0.061371 0.475727
O O16 0.966429 0.629766 0.984203
#
# Coordination Sequence:
#
# PCOD8055821 Si02
#       8
#     4   4   4   4   4   4   4   4
#     4  11  23  42  74 102 137 177 238 287 355 415
#     4  11  26  44  68  99 139 177 237 282 345 421
#     4  11  26  44  67 102 143 183 226 294 354 421
#     4  11  25  46  68 102 142 176 239 289 346 415
#     4  11  21  43  71 102 135 183 228 294 338 420
#     4  10  24  42  69 103 136 181 236 290 344 421
#     4  11  23  41  71 103 138 183 231 281 361 416
#     4  12  24  46  68  97 144 184 221 291 357 415
#
# _framework density 22.373766
#
# number of rings (size 3 to 8) (size 9 to 14) (size 15 to 20)
#    0.000    1.000    2.500    3.750    7.000    4.000 
#    2.250    0.000    0.000    0.000    0.000    0.000 
#    0.000    0.000    0.000    0.000    0.000    0.000 
#
# Total GULP energy -198385.138041 kJ/mol
# GULP energy per Si atom -12399.071128 kJ/mol
# Density = 2.232284 g / cm^3
# Si number density = 22.373766 Si / 1000 Ang^3
#
#
#
# Elastic Constant Matrix: (Units=GPa)
#
#
# Indices 1 2 3 4 5 6 
#
# 1 108.9541 29.9370 41.4531 0.0003 -10.1334 -0.0003
# 2 29.9370 62.0263 21.3050 0.0015 -11.3684 -0.0003
# 3 41.4531 21.3050 103.7933 0.0028 -10.9454 -0.0002
# 4 0.0003 0.0015 0.0028 34.3065 -0.0002 -2.9242
# 5 -10.1334 -11.3684 -10.9454 -0.0002 41.8271 -0.0002
# 6 -0.0003 -0.0003 -0.0002 -2.9242 -0.0002 30.9338
#
#
#
# Elastic Compliance Matrix: (Units=1/GPa)
#
#
# Indices 1 2 3 4 5 6 
#
# 1 0.011864 -0.004296 -0.003781 0.000000 0.000717 0.000000
# 2 -0.004296 0.019539 -0.001897 -0.000001 0.003773 0.000000
# 3 -0.003781 -0.001897 0.011706 -0.000001 0.001632 0.000000
# 4 0.000000 -0.000001 -0.000001 0.029386 0.000000 0.002778
# 5 0.000717 0.003773 0.001632 0.000000 0.025534 0.000000
# 6 0.000000 0.000000 0.000000 0.002778 0.000000 0.032590
#
#
# Mechanical properties :
#
#
# Convention : Reuss Voigt Hill
#
# Bulk Modulus (GPa) = 43.17565 51.12931 47.15248
# Shear Modulus (GPa) = 31.58843 33.55205 32.57024
#
# Velocity S-wave (km/s) = 3.76154 3.87669 3.81955
# Velocity P-wave (km/s) = 6.18101 6.55288 6.36966
#
# Compressibility (1/GPa) = 0.02316120
#
# Stress axis : x y z
#
# Youngs Moduli (GPa) = 84.29085 51.18017 85.42686
#
# Poissons Ratio (x) = 0.21987 0.32297
# Poissons Ratio (y) = 0.36211 0.16205
# Poissons Ratio (z) = 0.31868 0.09709
#
# Static dielectric constant tensor:
#      x y z
#    x 4.152750 0.000000 -0.005820 
#    y 0.000000 3.948280 0.000000 
#    z -0.005820 0.000000 4.057130 
# 
# 
# High freq. dielectric constant tensor:
#      x y z
#    x 1.884970 0.000000 -0.001000 
#    y 0.000000 1.880020 0.000000 
#    z -0.001000 0.000000 1.883590 
# 
# From -- ./inp_files/30710.got.cif
#   From: 2010.06.25/outbox.cif.g09.slc.cpg/sg9_16_cif.got.tgz:30710.got - 2010.06.27 21:40:51.
