data_PCOD8055899
_publ_section_title
;
Structure prediction by ZEFSAII (Michael W. Deem and Ramdas Pophale) SiO2 
 PCOD8055899
Probable space group: C C
;
_chemical_formula_sum "Si O2"
_cell_formula_units_Z 32
_cell_length_a 14.815980
_cell_length_b 11.573199
_cell_length_c 25.164631
_cell_angle_alpha 90.000000
_cell_angle_beta 159.859279
_cell_angle_gamma 90.000000
_cell_volume 1485.749167
_symmetry_space_group_name_H-M "C C"
_symmetry_group_IT_number 9
_symmetry_cell_setting 'monoclinic'
loop_
_space_group_symop_operation_xyz
x,y,z
x,-y,1/2+z
1/2+x,1/2+y,z
1/2+x,1/2-y,1/2+z
loop_
_atom_site_type_symbol
_atom_site_label
_atom_site_fract_x
_atom_site_fract_y
_atom_site_fract_z
Si Si1 0.520240 0.356068 0.140310
Si Si2 0.214884 0.133477 0.977896
Si Si3 0.228517 0.331623 0.143497
Si Si4 0.119085 0.086324 0.038380
Si Si5 0.093676 0.678526 0.916230
Si Si6 0.690846 0.997155 0.381129
Si Si7 0.902067 0.024155 0.166524
Si Si8 0.783297 0.602017 0.468313
O O1 0.428995 0.230805 0.111456
O O2 0.558046 0.444366 0.210258
O O3 0.787679 0.342805 0.256076
O O4 0.297017 0.400641 0.976993
O O5 0.051363 0.091917 0.938809
O O6 0.025726 0.182381 0.827556
O O7 0.357321 0.020480 0.034423
O O8 0.127861 0.217986 0.060328
O O9 0.204020 0.440378 0.089518
O O10 0.057926 0.348021 0.101662
O O11 0.399345 0.025257 0.200896
O O12 0.887276 0.018660 0.940137
O O13 0.184579 0.619651 0.911798
O O14 0.154727 0.814329 0.942023
O O15 0.245537 0.626160 0.050641
O O16 0.095743 0.088532 0.313580
#
# Coordination Sequence:
#
# PCOD8055899 Si02
#       8
#     4   4   4   4   4   4   4   4
#     4  11  22  44  69  98 134 179 232 272 338 409
#     4  11  27  42  68 100 134 178 225 281 339 408
#     4  11  23  46  67  97 134 178 225 274 340 413
#     4  12  24  45  69 100 139 181 224 284 343 403
#     4  11  24  43  70 101 134 178 226 284 334 407
#     4  11  24  43  69 103 135 176 233 281 336 404
#     4  10  24  45  70  98 132 182 222 276 343 410
#     4  11  26  44  66 103 136 172 225 286 337 402
#
# _framework density 21.537956999999999
#
# number of rings (size 3 to 8) (size 9 to 14) (size 15 to 20)
#    0.000    1.000    5.000    0.750    5.250    2.000 
#    2.250    0.000    0.000    0.000    0.000    0.000 
#    0.000    0.000    0.000    0.000    0.000    0.000 
#
# Total GULP energy -198420.947123 kJ/mol
# GULP energy per Si atom -12401.309195 kJ/mol
# Density = 2.148894 g / cm^3
# Si number density = 21.537957 Si / 1000 Ang^3
#
#
#
# Elastic Constant Matrix: (Units=GPa)
#
#
# Indices 1 2 3 4 5 6 
#
# 1 105.2785 23.8743 30.3736 0.0003 4.7170 -0.0008
# 2 23.8743 102.2412 40.2930 0.0176 -6.9574 -0.0098
# 3 30.3736 40.2930 62.8095 0.1033 18.5337 -0.0529
# 4 0.0003 0.0176 0.1033 22.4738 -0.0576 -0.6291
# 5 4.7170 -6.9574 18.5337 -0.0576 36.0436 -0.0027
# 6 -0.0008 -0.0098 -0.0529 -0.6291 -0.0027 43.7613
#
#
#
# Elastic Compliance Matrix: (Units=1/GPa)
#
#
# Indices 1 2 3 4 5 6 
#
# 1 0.011117 -0.000304 -0.005581 0.000029 0.001356 -0.000006
# 2 -0.000304 0.015446 -0.012559 0.000070 0.009480 -0.000010
# 3 -0.005581 -0.012559 0.032039 -0.000183 -0.018168 0.000032
# 4 0.000029 0.000070 -0.000183 0.044515 0.000175 0.000640
# 5 0.001356 0.009480 -0.018168 0.000175 0.038739 -0.000015
# 6 -0.000006 -0.000010 0.000032 0.000640 -0.000015 0.022860
#
#
# Mechanical properties :
#
#
# Convention : Reuss Voigt Hill
#
# Bulk Modulus (GPa) = 46.05594 51.04568 48.55081
# Shear Modulus (GPa) = 23.94134 32.17495 28.05814
#
# Velocity S-wave (km/s) = 3.33767 3.86926 3.61325
# Velocity P-wave (km/s) = 6.02357 6.61160 6.32443
#
# Compressibility (1/GPa) = 0.02171272
#
# Stress axis : x y z
#
# Youngs Moduli (GPa) = 89.95215 64.73969 31.21242
#
# Poissons Ratio (x) = 0.01969 0.17420
# Poissons Ratio (y) = 0.02736 0.39201
# Poissons Ratio (z) = 0.50204 0.81309
#
# Static dielectric constant tensor:
#      x y z
#    x 4.108860 0.000030 0.042820 
#    y 0.000030 3.921500 -0.000080 
#    z 0.042820 -0.000080 3.630780 
# 
# 
# High freq. dielectric constant tensor:
#      x y z
#    x 1.856330 0.000000 0.001240 
#    y 0.000000 1.855280 -0.000010 
#    z 0.001240 -0.000010 1.834980 
# 
# From -- ./inp_files/9222.got.cif
#   From: 2010.06.25/outbox.cif.g09.slc.cpg/sg9_5_cif.got.tgz:9222.got - 2010.06.27 21:40:51.
