data_PCOD8055913
_publ_section_title
;
Structure prediction by ZEFSAII (Michael W. Deem and Ramdas Pophale) SiO2 
 PCOD8055913
Probable space group: C C
;
_chemical_formula_sum "Si O2"
_cell_formula_units_Z 32
_cell_length_a 27.624200
_cell_length_b 8.799870
_cell_length_c 10.283695
_cell_angle_alpha 90.000000
_cell_angle_beta 32.711131
_cell_angle_gamma 90.000000
_cell_volume 1350.932165
_symmetry_space_group_name_H-M "C C"
_symmetry_group_IT_number 9
_symmetry_cell_setting 'monoclinic'
loop_
_space_group_symop_operation_xyz
x,y,z
x,-y,1/2+z
1/2+x,1/2+y,z
1/2+x,1/2-y,1/2+z
loop_
_atom_site_type_symbol
_atom_site_label
_atom_site_fract_x
_atom_site_fract_y
_atom_site_fract_z
Si Si1 0.164660 0.926005 0.830310
Si Si2 0.350732 0.020569 0.339915
Si Si3 0.932043 0.230424 0.491421
Si Si4 0.013667 0.506765 0.660709
Si Si5 0.050478 0.014934 0.843207
Si Si6 0.433404 0.235699 0.504800
Si Si7 0.814514 0.970639 0.660405
Si Si8 0.203413 0.422549 0.172835
O O1 0.255738 0.024355 0.626937
O O2 0.099883 0.997488 0.868029
O O3 0.188491 0.751083 0.748947
O O4 0.120312 0.951103 0.070078
O O5 0.356538 0.861751 0.248706
O O6 0.358804 0.162901 0.225821
O O7 0.431617 0.033204 0.255317
O O8 0.001410 0.327423 0.249158
O O9 0.872350 0.123486 0.535897
O O10 0.993969 0.138517 0.451309
O O11 0.107045 0.502512 0.373807
O O12 0.011648 0.374371 0.774643
O O13 0.979405 0.153509 0.007193
O O14 0.385791 0.331466 0.496237
O O15 0.757487 0.980544 0.658285
O O16 0.751842 0.941995 0.926490
#
# Coordination Sequence:
#
# PCOD8055913 Si02
#       8
#     4   4   4   4   4   4   4   4
#     4  12  27  47  74 108 145 184 244 297 354 422
#     4  11  25  43  71 100 148 185 237 294 358 422
#     4  10  26  44  68 106 140 192 236 288 366 420
#     4  11  25  43  71 100 148 185 237 294 358 422
#     4  11  27  47  75 103 144 189 240 295 354 428
#     4  10  24  46  70 102 142 192 234 288 358 428
#     4  11  27  47  75 103 144 189 240 295 354 428
#     4  12  27  47  74 108 145 184 244 297 354 422
#
# _framework density 23.687349000000001
#
# number of rings (size 3 to 8) (size 9 to 14) (size 15 to 20)
#    0.000    1.000    2.500    1.500   14.000    3.000 
#    0.000    0.000    0.000    0.000    0.000    0.000 
#    0.000    0.000    0.000    0.000    0.000    0.000 
#
# Total GULP energy -198437.951097 kJ/mol
# GULP energy per Si atom -12402.371944 kJ/mol
# Density = 2.363344 g / cm^3
# Si number density = 23.687349 Si / 1000 Ang^3
#
#
#
# Elastic Constant Matrix: (Units=GPa)
#
#
# Indices 1 2 3 4 5 6 
#
# 1 77.0526 -2.5114 -0.4028 0.0000 -17.2974 0.0000
# 2 -2.5114 114.0101 26.9042 0.0000 -4.7974 0.0000
# 3 -0.4028 26.9042 90.7056 0.0000 -13.5424 0.0000
# 4 0.0000 0.0000 0.0000 18.0931 0.0000 -2.8446
# 5 -17.2974 -4.7974 -13.5424 0.0000 43.0634 0.0000
# 6 0.0000 0.0000 0.0000 -2.8446 0.0000 19.7131
#
#
#
# Elastic Compliance Matrix: (Units=1/GPa)
#
#
# Indices 1 2 3 4 5 6 
#
# 1 0.014360 0.000369 0.000862 0.000000 0.006080 0.000000
# 2 0.000369 0.009442 -0.002749 0.000000 0.000336 0.000000
# 3 0.000862 -0.002749 0.012434 0.000000 0.003950 0.000000
# 4 0.000000 0.000000 0.000000 0.056553 0.000000 0.008161
# 5 0.006080 0.000336 0.003950 0.000000 0.026943 0.000000
# 6 0.000000 0.000000 0.000000 0.008161 0.000000 0.051905
#
#
# Mechanical properties :
#
#
# Convention : Reuss Voigt Hill
#
# Bulk Modulus (GPa) = 30.12119 36.63869 33.37994
# Shear Modulus (GPa) = 26.91949 33.35914 30.13932
#
# Velocity S-wave (km/s) = 3.37478 3.75682 3.57091
# Velocity P-wave (km/s) = 5.28482 5.85828 5.57892
#
# Compressibility (1/GPa) = 0.03319922
#
# Stress axis : x y z
#
# Youngs Moduli (GPa) = 69.63993 105.90892 80.42721
#
# Poissons Ratio (x) = -0.03905 -0.06934
# Poissons Ratio (y) = -0.02568 0.22108
# Poissons Ratio (z) = -0.06004 0.29113
#
# Static dielectric constant tensor:
#      x y z
#    x 4.180250 0.000000 -0.038500 
#    y 0.000000 4.529960 0.000000 
#    z -0.038500 0.000000 4.586850 
# 
# 
# High freq. dielectric constant tensor:
#      x y z
#    x 1.928940 0.000000 -0.005940 
#    y 0.000000 1.955550 0.000000 
#    z -0.005940 0.000000 1.949630 
# 
# From -- ./inp_files/17784.got.cif
#   From: 2010.06.25/outbox.cif.g09.slc.cpg/sg9_9_cif.got.tgz:17784.got - 2010.06.27 21:40:51.
