data_PCOD8055998
_publ_section_title
;
Structure prediction by ZEFSAII (Michael W. Deem and Ramdas Pophale) SiO2 
 PCOD8055998
Probable space group: C C
;
_chemical_formula_sum "Si O2"
_cell_formula_units_Z 28
_cell_length_a 27.361072
_cell_length_b 5.459335
_cell_length_c 22.865712
_cell_angle_alpha 90.000000
_cell_angle_beta 159.795508
_cell_angle_gamma 90.000000
_cell_volume 1179.626245
_symmetry_space_group_name_H-M "C C"
_symmetry_group_IT_number 9
_symmetry_cell_setting 'monoclinic'
loop_
_space_group_symop_operation_xyz
x,y,z
x,-y,1/2+z
1/2+x,1/2+y,z
1/2+x,1/2-y,1/2+z
loop_
_atom_site_type_symbol
_atom_site_label
_atom_site_fract_x
_atom_site_fract_y
_atom_site_fract_z
Si Si1 0.508000 0.003703 0.376950
Si Si2 0.993587 0.527755 0.230931
Si Si3 0.703646 0.753680 0.889479
Si Si4 0.664019 0.290977 0.151493
Si Si5 0.918894 0.975014 0.439612
Si Si6 0.765220 0.325150 0.679952
Si Si7 0.568813 0.762724 0.207600
O O1 0.495718 0.900601 0.297171
O O2 0.609345 0.241508 0.485058
O O3 0.347832 0.050470 0.218960
O O4 0.582432 0.818980 0.504250
O O5 0.134230 0.687851 0.375097
O O6 0.979066 0.309726 0.166593
O O7 0.869451 0.726705 0.085234
O O8 0.648980 0.496745 0.801525
O O9 0.668313 0.994721 0.809273
O O10 0.783623 0.117171 0.314667
O O11 0.748936 0.518729 0.220708
O O12 0.556000 0.354717 0.082032
O O13 0.872370 0.885459 0.322761
O O14 0.961926 0.758910 0.532611
#
# Coordination Sequence:
#
# PCOD8055998 Si02
#       7
#     4   4   4   4   4   4   4
#     4  11  23  43  73 105 147 191 244 310 371 448
#     4  10  25  47  73 108 149 200 251 309 374 452
#     4  10  25  48  71 109 143 194 250 297 381 432
#     4  11  24  44  72 108 143 195 249 306 380 445
#     4  11  25  47  71 105 148 196 250 313 375 445
#     4  11  23  43  67 110 142 192 242 308 375 439
#     4  10  27  46  75 107 148 196 248 307 370 445
#
# _framework density 23.736332999999998
#
# number of rings (size 3 to 8) (size 9 to 14) (size 15 to 20)
#    0.857    0.571    2.857    0.857    4.000    4.571 
#    0.000    0.000    0.000    0.000    0.000    0.000 
#    0.000    0.000    0.000    0.000    0.000    0.000 
#
# Total GULP energy -173453.973763 kJ/mol
# GULP energy per Si atom -12389.569554 kJ/mol
# Density = 2.368231 g / cm^3
# Si number density = 23.736333 Si / 1000 Ang^3
#
#
#
# Elastic Constant Matrix: (Units=GPa)
#
#
# Indices 1 2 3 4 5 6 
#
# 1 97.1345 23.1253 55.7203 0.0000 -1.4414 0.0000
# 2 23.1253 103.8938 31.4143 -0.0003 -0.2437 0.0002
# 3 55.7203 31.4143 95.6903 0.0001 8.3320 0.0001
# 4 0.0000 -0.0003 0.0001 34.6823 0.0001 -1.0480
# 5 -1.4414 -0.2437 8.3320 0.0001 37.9188 0.0000
# 6 0.0000 0.0002 0.0001 -1.0480 0.0000 34.0509
#
#
#
# Elastic Compliance Matrix: (Units=1/GPa)
#
#
# Indices 1 2 3 4 5 6 
#
# 1 0.015767 -0.000731 -0.009168 0.000000 0.002609 0.000000
# 2 -0.000731 0.010747 -0.003167 0.000000 0.000737 0.000000
# 3 -0.009168 -0.003167 0.017190 0.000000 -0.004146 0.000000
# 4 0.000000 0.000000 0.000000 0.028860 0.000000 0.000888
# 5 0.002609 0.000737 -0.004146 0.000000 0.027387 0.000000
# 6 0.000000 0.000000 0.000000 0.000888 0.000000 0.029395
#
#
# Mechanical properties :
#
#
# Convention : Reuss Voigt Hill
#
# Bulk Modulus (GPa) = 56.90970 57.47095 57.19032
# Shear Modulus (GPa) = 30.99128 33.76096 32.37612
#
# Velocity S-wave (km/s) = 3.61729 3.77547 3.69723
# Velocity P-wave (km/s) = 6.44005 6.57802 6.50940
#
# Compressibility (1/GPa) = 0.01757170
#
# Stress axis : x y z
#
# Youngs Moduli (GPa) = 63.42312 93.04764 58.17457
#
# Poissons Ratio (x) = 0.06804 0.53336
# Poissons Ratio (y) = 0.04638 0.18422
# Poissons Ratio (z) = 0.58148 0.29464
#
# Static dielectric constant tensor:
#      x y z
#    x 4.100270 0.000000 0.162160 
#    y 0.000000 4.121200 0.000000 
#    z 0.162160 0.000000 4.156940 
# 
# 
# High freq. dielectric constant tensor:
#      x y z
#    x 1.936930 0.000000 0.011000 
#    y 0.000000 1.928780 0.000000 
#    z 0.011000 0.000000 1.939780 
# 
# From -- ./inp_files/36191.got.cif
#   From: 2010.06.25/outbox.cif.g09.slc.cpg/sg9_19_cif.got.tgz:36191.got - 2010.06.27 21:40:51.
