data_PCOD8055288
_publ_section_title
;
Structure prediction by ZEFSAII (Michael W. Deem and Ramdas Pophale) SiO2 
 PCOD8055288
Probable space group: C C
;
_chemical_formula_sum "Si O2"
_cell_formula_units_Z 24
_cell_length_a 8.000682
_cell_length_b 27.299732
_cell_length_c 7.786596
_cell_angle_alpha 90.000000
_cell_angle_beta 144.521994
_cell_angle_gamma 90.000000
_cell_volume 987.082053
_symmetry_space_group_name_H-M "C C"
_symmetry_group_IT_number 9
_symmetry_cell_setting 'monoclinic'
loop_
_space_group_symop_operation_xyz
x,y,z
x,-y,1/2+z
1/2+x,1/2+y,z
1/2+x,1/2-y,1/2+z
loop_
_atom_site_type_symbol
_atom_site_label
_atom_site_fract_x
_atom_site_fract_y
_atom_site_fract_z
Si Si1 0.486610 0.963176 0.872780
Si Si2 0.844851 0.282903 0.616538
Si Si3 0.571391 0.382656 0.941297
Si Si4 0.887823 0.039731 0.012198
Si Si5 0.617540 0.717689 0.299400
Si Si6 0.460747 0.884759 0.566147
O O1 0.385150 0.921824 0.655287
O O2 0.181125 0.986379 0.683933
O O3 0.675898 0.940116 0.185907
O O4 0.696097 0.003035 0.963697
O O5 0.666416 0.237900 0.388832
O O6 0.736804 0.297896 0.714254
O O7 0.825597 0.331547 0.487118
O O8 0.508842 0.415355 0.723407
O O9 0.648561 0.328151 0.948900
O O10 0.302549 0.382322 0.844010
O O11 0.835486 0.403301 0.277640
O O12 0.788689 0.764778 0.514796
#
# Coordination Sequence:
#
# PCOD8055288 Si02
#       6
#     4   4   4   4   4   4
#     4  12  27  49  75 102 138 182 234 289 350 416
#     4  10  22  41  66  96 134 180 227 276 337 406
#     4  12  26  44  69 103 141 179 227 283 345 410
#     4  12  27  49  75 102 138 182 234 289 350 416
#     4  10  22  41  66  96 134 180 227 276 337 406
#     4  12  26  44  69 103 141 179 227 283 345 410
#
# _framework density 24.314088000000002
#
# number of rings (size 3 to 8) (size 9 to 14) (size 15 to 20)
#    0.000    0.667    0.000    7.000    0.000   10.667 
#    0.000    0.000    0.000    0.000    0.000    0.000 
#    0.000    0.000    0.000    0.000    0.000    0.000 
#
# Total GULP energy -148837.991933 kJ/mol
# GULP energy per Si atom -12403.165994 kJ/mol
# Density = 2.425875 g / cm^3
# Si number density = 24.314088 Si / 1000 Ang^3
#
#
#
# Elastic Constant Matrix: (Units=GPa)
#
#
# Indices 1 2 3 4 5 6 
#
# 1 91.9729 33.9663 31.8077 0.0000 8.9536 0.0000
# 2 33.9663 82.6844 17.2245 0.0000 -12.4138 0.0000
# 3 31.8077 17.2245 136.9388 0.0000 -18.9616 0.0000
# 4 0.0000 0.0000 0.0000 65.0235 0.0000 36.0477
# 5 8.9536 -12.4138 -18.9616 0.0000 59.7781 0.0000
# 6 0.0000 0.0000 0.0000 36.0477 0.0000 72.2547
#
#
#
# Elastic Compliance Matrix: (Units=1/GPa)
#
#
# Indices 1 2 3 4 5 6 
#
# 1 0.014661 -0.006014 -0.003270 0.000000 -0.004482 0.000000
# 2 -0.006014 0.015164 0.000053 0.000000 0.004067 0.000000
# 3 -0.003270 0.000053 0.008498 0.000000 0.003196 0.000000
# 4 0.000000 0.000000 0.000000 0.021259 0.000000 -0.010606
# 5 -0.004482 0.004067 0.003196 0.000000 0.019258 0.000000
# 6 0.000000 0.000000 0.000000 -0.010606 0.000000 0.019131
#
#
# Mechanical properties :
#
#
# Convention : Reuss Voigt Hill
#
# Bulk Modulus (GPa) = 50.35041 53.06590 51.70815
# Shear Modulus (GPa) = 40.63242 54.65109 47.64176
#
# Velocity S-wave (km/s) = 4.09240 4.74615 4.43135
# Velocity P-wave (km/s) = 6.56381 7.20466 6.89169
#
# Compressibility (1/GPa) = 0.01986081
#
# Stress axis : x y z
#
# Youngs Moduli (GPa) = 68.20812 65.94358 117.67602
#
# Poissons Ratio (x) = 0.39662 0.38474
# Poissons Ratio (y) = 0.41024 -0.00620
# Poissons Ratio (z) = 0.22301 -0.00348
#
# Static dielectric constant tensor:
#      x y z
#    x 4.621200 0.000000 0.016860 
#    y 0.000000 4.030160 0.000000 
#    z 0.016860 0.000000 4.659040 
# 
# 
# High freq. dielectric constant tensor:
#      x y z
#    x 1.979770 0.000000 0.001540 
#    y 0.000000 1.954010 0.000000 
#    z 0.001540 0.000000 1.987090 
# 
# From -- ./inp_files/6337.got.cif
#   From: 2010.06.25/outbox.cif.g09.slc.cpg/sg9_4_cif.got.tgz:6337.got - 2010.06.27 21:40:51.
