data_PCOD8056622
_publ_section_title
;
Structure prediction by ZEFSAII (Michael W. Deem and Ramdas Pophale) SiO2 
 PCOD8056622
Probable space group: C C
;
_chemical_formula_sum "Si O2"
_cell_formula_units_Z 24
_cell_length_a 4.993078
_cell_length_b 25.376422
_cell_length_c 9.551774
_cell_angle_alpha 90.000000
_cell_angle_beta 54.205638
_cell_angle_gamma 90.000000
_cell_volume 981.677017
_symmetry_space_group_name_H-M "C C"
_symmetry_group_IT_number 9
_symmetry_cell_setting 'monoclinic'
loop_
_space_group_symop_operation_xyz
x,y,z
x,-y,1/2+z
1/2+x,1/2+y,z
1/2+x,1/2-y,1/2+z
loop_
_atom_site_type_symbol
_atom_site_label
_atom_site_fract_x
_atom_site_fract_y
_atom_site_fract_z
Si Si1 0.103250 0.468925 0.076880
Si Si2 0.896614 0.853126 0.680538
Si Si3 0.193783 0.351224 0.066317
Si Si4 0.473283 0.471765 0.690346
Si Si5 0.798905 0.293601 0.874777
Si Si6 0.296685 0.221034 0.875047
O O1 0.058863 0.409212 0.143341
O O2 0.180802 0.502547 0.190225
O O3 0.799144 0.492562 0.081041
O O4 0.403971 0.469851 0.876448
O O5 0.557143 0.832119 0.710036
O O6 0.194886 0.816505 0.535947
O O7 0.005935 0.913016 0.616748
O O8 0.790687 0.845243 0.874116
O O9 0.905129 0.312226 0.205614
O O10 0.537963 0.332832 0.036153
O O11 0.605541 0.256796 0.824791
O O12 0.986247 0.257217 0.929806
#
# Coordination Sequence:
#
# PCOD8056622 Si02
#       6
#     4   4   4   4   4   4
#     4  11  27  47  75 106 144 187 242 303 364 430
#     4  11  28  47  74 106 147 187 241 297 359 425
#     4  11  28  47  74 106 147 187 241 297 359 425
#     4  11  27  47  75 106 144 187 242 303 364 430
#     4  12  26  48  71 108 147 190 240 294 356 426
#     4  12  28  44  75 106 145 194 238 290 356 434
#
# _framework density 24.447963000000001
#
# number of rings (size 3 to 8) (size 9 to 14) (size 15 to 20)
#    0.000    0.667    1.667    3.000   18.667    0.000 
#    0.000    0.000    0.000    0.000    0.000    0.000 
#    0.000    0.000    0.000    0.000    0.000    0.000 
#
# Total GULP energy -148679.634973 kJ/mol
# GULP energy per Si atom -12389.969581 kJ/mol
# Density = 2.439232 g / cm^3
# Si number density = 24.447963 Si / 1000 Ang^3
#
#
#
# Elastic Constant Matrix: (Units=GPa)
#
#
# Indices 1 2 3 4 5 6 
#
# 1 123.2955 73.3415 24.1801 0.0000 -10.4122 0.0000
# 2 73.3415 227.5982 49.8150 0.0000 -15.4798 0.0000
# 3 24.1801 49.8150 85.0222 0.0000 -8.3465 0.0000
# 4 0.0000 0.0000 0.0000 33.6331 0.0000 -5.2131
# 5 -10.4122 -15.4798 -8.3465 0.0000 37.6270 0.0000
# 6 0.0000 0.0000 0.0000 -5.2131 0.0000 27.8607
#
#
#
# Elastic Compliance Matrix: (Units=1/GPa)
#
#
# Indices 1 2 3 4 5 6 
#
# 1 0.010192 -0.002966 -0.001026 0.000000 0.001372 0.000000
# 2 -0.002966 0.005982 -0.002556 0.000000 0.001073 0.000000
# 3 -0.001026 -0.002556 0.013719 0.000000 0.001708 0.000000
# 4 0.000000 0.000000 0.000000 0.030621 0.000000 0.005730
# 5 0.001372 0.001073 0.001708 0.000000 0.027777 0.000000
# 6 0.000000 0.000000 0.000000 0.005730 0.000000 0.036965
#
#
# Mechanical properties :
#
#
# Convention : Reuss Voigt Hill
#
# Bulk Modulus (GPa) = 59.53661 81.17656 70.35659
# Shear Modulus (GPa) = 34.73417 39.06279 36.89848
#
# Velocity S-wave (km/s) = 3.77336 4.00158 3.88914
# Velocity P-wave (km/s) = 6.58708 7.39094 7.00056
#
# Compressibility (1/GPa) = 0.01679639
#
# Stress axis : x y z
#
# Youngs Moduli (GPa) = 98.11345 167.16703 72.89411
#
# Poissons Ratio (x) = 0.49590 0.07478
# Poissons Ratio (y) = 0.29105 0.18631
# Poissons Ratio (z) = 0.10065 0.42726
#
# Static dielectric constant tensor:
#      x y z
#    x 4.584890 0.000000 -0.322340 
#    y 0.000000 4.872360 0.000000 
#    z -0.322340 0.000000 4.330300 
# 
# 
# High freq. dielectric constant tensor:
#      x y z
#    x 1.966200 0.000000 -0.008460 
#    y 0.000000 1.993190 0.000000 
#    z -0.008460 0.000000 1.966540 
# 
# From -- ./inp_files/13698.got.cif
#   From: 2010.06.25/outbox.cif.g09.slc.cpg/sg9_7_cif.got.tgz:13698.got - 2010.06.27 21:40:51.
