data_PCOD8056069
_publ_section_title
;
Structure prediction by ZEFSAII (Michael W. Deem and Ramdas Pophale) SiO2 
 PCOD8056069
Probable space group: C C
;
_chemical_formula_sum "Si O2"
_cell_formula_units_Z 20
_cell_length_a 8.398838
_cell_length_b 22.916006
_cell_length_c 9.247323
_cell_angle_alpha 90.000000
_cell_angle_beta 148.534096
_cell_angle_gamma 90.000000
_cell_volume 929.046043
_symmetry_space_group_name_H-M "C C"
_symmetry_group_IT_number 9
_symmetry_cell_setting 'monoclinic'
loop_
_space_group_symop_operation_xyz
x,y,z
x,-y,1/2+z
1/2+x,1/2+y,z
1/2+x,1/2-y,1/2+z
loop_
_atom_site_type_symbol
_atom_site_label
_atom_site_fract_x
_atom_site_fract_y
_atom_site_fract_z
Si Si1 0.625000 0.619487 0.613470
Si Si2 0.127754 0.106284 0.168262
Si Si3 0.470491 0.909545 0.657222
Si Si4 0.085101 0.210453 0.343248
Si Si5 0.972493 0.547190 0.657468
O O1 0.314739 0.608066 0.460234
O O2 0.569827 0.680700 0.489288
O O3 0.708266 0.569996 0.560740
O O4 0.893136 0.617867 0.940325
O O5 0.220473 0.116695 0.073912
O O6 0.211419 0.164339 0.324483
O O7 0.359772 0.057237 0.406553
O O8 0.784541 0.083066 0.925744
O O9 0.488572 0.978713 0.683876
O O10 0.279600 0.268461 0.525563
#
# Coordination Sequence:
#
# PCOD8056069 Si02
#       5
#     4   4   4   4   4
#     4  11  24  39  62  93 121 160 209 245 298 368
#     4  11  24  39  62  93 122 161 208 244 298 369
#     4  12  22  38  61  96 131 154 191 257 304 354
#     4  11  23  45  66  82 114 166 213 257 304 361
#     4  11  21  39  61  90 130 171 193 227 300 384
#
# _framework density 21.527459
#
# number of rings (size 3 to 8) (size 9 to 14) (size 15 to 20)
#    0.000    0.800    0.000   10.800    0.000    0.000 
#    0.000    6.000    0.000    0.000    0.000    0.000 
#    0.000    0.000    0.000    0.000    0.000    0.000 
#
# Total GULP energy -123935.872844 kJ/mol
# GULP energy per Si atom -12393.587284 kJ/mol
# Density = 2.147846 g / cm^3
# Si number density = 21.527459 Si / 1000 Ang^3
#
#
#
# Elastic Constant Matrix: (Units=GPa)
#
#
# Indices 1 2 3 4 5 6 
#
# 1 107.5913 37.6099 21.3506 0.0000 -1.4857 0.0000
# 2 37.6099 82.5509 19.5055 0.0000 -0.4399 0.0000
# 3 21.3506 19.5055 103.1671 0.0000 0.4926 0.0000
# 4 0.0000 0.0000 0.0000 32.2967 0.0000 4.2451
# 5 -1.4857 -0.4399 0.4926 0.0000 38.7928 0.0000
# 6 0.0000 0.0000 0.0000 4.2451 0.0000 11.5939
#
#
#
# Elastic Compliance Matrix: (Units=1/GPa)
#
#
# Indices 1 2 3 4 5 6 
#
# 1 0.011257 -0.004790 -0.001426 0.000000 0.000395 0.000000
# 2 -0.004790 0.014719 -0.001792 0.000000 0.000006 0.000000
# 3 -0.001426 -0.001792 0.010328 0.000000 -0.000206 0.000000
# 4 0.000000 0.000000 0.000000 0.032528 0.000000 -0.011910
# 5 0.000395 0.000006 -0.000206 0.000000 0.025796 0.000000
# 6 0.000000 0.000000 0.000000 -0.011910 0.000000 0.090613
#
#
# Mechanical properties :
#
#
# Convention : Reuss Voigt Hill
#
# Bulk Modulus (GPa) = 49.28660 50.02683 49.65671
# Shear Modulus (GPa) = 24.03620 30.85958 27.44789
#
# Velocity S-wave (km/s) = 3.34509 3.79026 3.57461
# Velocity P-wave (km/s) = 6.15337 6.51490 6.33671
#
# Compressibility (1/GPa) = 0.02028949
#
# Stress axis : x y z
#
# Youngs Moduli (GPa) = 88.83237 67.93808 96.82545
#
# Poissons Ratio (x) = 0.32540 0.13807
# Poissons Ratio (y) = 0.42548 0.17348
# Poissons Ratio (z) = 0.12668 0.12173
#
# Static dielectric constant tensor:
#      x y z
#    x 3.781140 0.000000 -0.077670 
#    y 0.000000 3.823570 0.000000 
#    z -0.077670 0.000000 4.025260 
# 
# 
# High freq. dielectric constant tensor:
#      x y z
#    x 1.839050 0.000000 -0.004160 
#    y 0.000000 1.837000 0.000000 
#    z -0.004160 0.000000 1.866030 
# 
# From -- ./inp_files/577.got.cif
#   From: 2010.06.25/outbox.cif.g09.slc.cpg/sg9_1_cif.got.tgz:577.got - 2010.06.27 21:40:51.
