data_PCOD8056249
_publ_section_title
;
Structure prediction by ZEFSAII (Michael W. Deem and Ramdas Pophale) SiO2 
 PCOD8056249
Probable space group: C C
;
_chemical_formula_sum "Si O2"
_cell_formula_units_Z 32
_cell_length_a 16.219658
_cell_length_b 10.962793
_cell_length_c 9.276556
_cell_angle_alpha 90.000000
_cell_angle_beta 67.456284
_cell_angle_gamma 90.000000
_cell_volume 1523.447949
_symmetry_space_group_name_H-M "C C"
_symmetry_group_IT_number 9
_symmetry_cell_setting 'monoclinic'
loop_
_space_group_symop_operation_xyz
x,y,z
x,-y,1/2+z
1/2+x,1/2+y,z
1/2+x,1/2-y,1/2+z
loop_
_atom_site_type_symbol
_atom_site_label
_atom_site_fract_x
_atom_site_fract_y
_atom_site_fract_z
Si Si1 0.089500 0.123101 0.183730
Si Si2 0.793989 0.386692 0.556797
Si Si3 0.833045 0.165394 0.723061
Si Si4 0.196834 0.548194 0.277189
Si Si5 0.344656 0.309272 0.531018
Si Si6 0.482365 0.508339 0.510498
Si Si7 0.586207 0.098554 0.627367
Si Si8 0.888543 0.583540 0.690110
O O1 0.191263 0.079544 0.101361
O O2 0.078250 0.268197 0.202621
O O3 0.051505 0.064870 0.353479
O O4 0.035928 0.076549 0.082746
O O5 0.800275 0.250369 0.615302
O O6 0.837557 0.477459 0.641700
O O7 0.843571 0.390088 0.372504
O O8 0.765744 0.053135 0.784936
O O9 0.933059 0.118836 0.625125
O O10 0.831944 0.237931 0.875654
O O11 0.248795 0.657202 0.162510
O O12 0.150769 0.607092 0.446919
O O13 0.122824 0.494135 0.221338
O O14 0.407768 0.427925 0.479928
O O15 0.389960 0.205136 0.594264
O O16 0.490579 0.044607 0.645937
#
# Coordination Sequence:
#
# PCOD8056249 Si02
#       8
#     4   4   4   4   4   4   4   4
#     4  12  24  45  69 104 139 180 233 284 344 411
#     4  12  26  46  70 100 143 182 225 284 351 412
#     4  11  23  43  69 102 138 178 227 280 351 401
#     4  11  24  42  70 103 137 176 229 286 336 418
#     4  11  23  43  69 102 138 178 227 280 351 401
#     4  11  24  42  70 103 137 176 229 286 336 418
#     4  12  24  45  69 104 139 180 233 284 344 411
#     4  12  26  46  70 100 143 182 225 284 351 412
#
# _framework density 21.004985000000001
#
# number of rings (size 3 to 8) (size 9 to 14) (size 15 to 20)
#    0.000    0.500    5.000    3.750    0.000    0.000 
#    0.000    3.750    0.000    0.000    0.000    0.000 
#    0.000    0.000    0.000    0.000    0.000    0.000 
#
# Total GULP energy -198533.170114 kJ/mol
# GULP energy per Si atom -12408.323132 kJ/mol
# Density = 2.095718 g / cm^3
# Si number density = 21.004985 Si / 1000 Ang^3
#
#
#
# Elastic Constant Matrix: (Units=GPa)
#
#
# Indices 1 2 3 4 5 6 
#
# 1 103.6579 6.7702 18.4804 0.0000 -4.9340 0.0000
# 2 6.7702 47.5414 -1.3238 0.0000 -3.0550 0.0000
# 3 18.4804 -1.3238 102.8287 0.0000 -4.2031 0.0000
# 4 0.0000 0.0000 0.0000 33.8141 0.0000 5.2189
# 5 -4.9340 -3.0550 -4.2031 0.0000 38.7620 0.0000
# 6 0.0000 0.0000 0.0000 5.2189 0.0000 31.1726
#
#
#
# Elastic Compliance Matrix: (Units=1/GPa)
#
#
# Indices 1 2 3 4 5 6 
#
# 1 0.010107 -0.001426 -0.001795 0.000000 0.000979 0.000000
# 2 -0.001426 0.021355 0.000595 0.000000 0.001566 0.000000
# 3 -0.001795 0.000595 0.010092 0.000000 0.000913 0.000000
# 4 0.000000 0.000000 0.000000 0.030358 0.000000 -0.005082
# 5 0.000979 0.001566 0.000913 0.000000 0.026146 0.000000
# 6 0.000000 0.000000 0.000000 -0.005082 0.000000 0.032930
#
#
# Mechanical properties :
#
#
# Convention : Reuss Voigt Hill
#
# Bulk Modulus (GPa) = 27.54643 33.54240 30.54442
# Shear Modulus (GPa) = 33.70634 36.08983 34.89809
#
# Velocity S-wave (km/s) = 4.01020 4.14956 4.08047
# Velocity P-wave (km/s) = 5.88090 6.24195 6.06411
#
# Compressibility (1/GPa) = 0.03630235
#
# Stress axis : x y z
#
# Youngs Moduli (GPa) = 98.94266 46.82827 99.08411
#
# Poissons Ratio (x) = 0.06679 0.17783
# Poissons Ratio (y) = 0.14112 -0.05898
# Poissons Ratio (z) = 0.17758 -0.02787
#
# Static dielectric constant tensor:
#      x y z
#    x 3.970860 0.000000 -0.032840 
#    y 0.000000 3.705990 0.000000 
#    z -0.032840 0.000000 3.930460 
# 
# 
# High freq. dielectric constant tensor:
#      x y z
#    x 1.838060 0.000000 0.000970 
#    y 0.000000 1.818130 0.000000 
#    z 0.000970 0.000000 1.839350 
# 
# From -- ./inp_files/9093.got.cif
#   From: 2010.06.25/outbox.cif.g09.slc.cpg/sg9_5_cif.got.tgz:9093.got - 2010.06.27 21:40:51.
