data_PCOD8056016
_publ_section_title
;
Structure prediction by ZEFSAII (Michael W. Deem and Ramdas Pophale) SiO2 
 PCOD8056016
Probable space group: C C
;
_chemical_formula_sum "Si O2"
_cell_formula_units_Z 20
_cell_length_a 5.116953
_cell_length_b 17.866578
_cell_length_c 8.547108
_cell_angle_alpha 90.000000
_cell_angle_beta 95.873270
_cell_angle_gamma 90.000000
_cell_volume 777.295650
_symmetry_space_group_name_H-M "C C"
_symmetry_group_IT_number 9
_symmetry_cell_setting 'monoclinic'
loop_
_space_group_symop_operation_xyz
x,y,z
x,-y,1/2+z
1/2+x,1/2+y,z
1/2+x,1/2-y,1/2+z
loop_
_atom_site_type_symbol
_atom_site_label
_atom_site_fract_x
_atom_site_fract_y
_atom_site_fract_z
Si Si1 0.035710 0.285440 0.531410
Si Si2 0.665679 0.419269 0.856924
Si Si3 0.675010 0.159670 0.477822
Si Si4 0.737330 0.573946 0.008541
Si Si5 0.915708 0.186663 0.797003
O O1 0.279073 0.268897 0.432339
O O2 0.764236 0.247140 0.444922
O O3 0.000460 0.375265 0.545075
O O4 0.089985 0.245724 0.702127
O O5 0.393140 0.395921 0.918586
O O6 0.602569 0.431476 0.670449
O O7 0.886365 0.355571 0.894010
O O8 0.794974 0.491822 0.946822
O O9 0.689712 0.151934 0.667738
O O10 0.563424 0.613908 0.867189
#
# Coordination Sequence:
#
# PCOD8056016 Si02
#       5
#     4   4   4   4   4
#     4  10  26  45  85 112 154 208 274 326 392 469
#     4  12  29  52  76 120 158 214 261 330 403 474
#     4  10  28  50  82 112 163 203 272 324 397 475
#     4  12  29  47  83 110 163 209 265 329 399 477
#     4  10  26  48  82 114 156 208 270 325 401 461
#
# _framework density 25.730233999999999
#
# number of rings (size 3 to 8) (size 9 to 14) (size 15 to 20)
#    1.200    0.000    0.000    2.400   16.800    1.600 
#    0.000    0.000    0.000    0.000    0.000    0.000 
#    0.000    0.000    0.000    0.000    0.000    0.000 
#
# Total GULP energy -123930.604102 kJ/mol
# GULP energy per Si atom -12393.060410 kJ/mol
# Density = 2.567167 g / cm^3
# Si number density = 25.730234 Si / 1000 Ang^3
#
#
#
# Elastic Constant Matrix: (Units=GPa)
#
#
# Indices 1 2 3 4 5 6 
#
# 1 78.8744 3.1969 22.2664 0.0000 -19.1624 0.0000
# 2 3.1969 128.8248 19.9063 0.0000 -14.9350 0.0000
# 3 22.2664 19.9063 147.7560 0.0000 -27.6939 0.0000
# 4 0.0000 0.0000 0.0000 44.8788 0.0000 8.3903
# 5 -19.1624 -14.9350 -27.6939 0.0000 49.3346 0.0000
# 6 0.0000 0.0000 0.0000 8.3903 0.0000 27.3741
#
#
#
# Elastic Compliance Matrix: (Units=1/GPa)
#
#
# Indices 1 2 3 4 5 6 
#
# 1 0.014220 0.000416 -0.001274 0.000000 0.004934 0.000000
# 2 0.000416 0.008123 -0.000744 0.000000 0.002203 0.000000
# 3 -0.001274 -0.000744 0.007739 0.000000 0.003624 0.000000
# 4 0.000000 0.000000 0.000000 0.023637 0.000000 -0.007245
# 5 0.004934 0.002203 0.003624 0.000000 0.024888 0.000000
# 6 0.000000 0.000000 0.000000 -0.007245 0.000000 0.038751
#
#
# Mechanical properties :
#
#
# Convention : Reuss Voigt Hill
#
# Bulk Modulus (GPa) = 37.20601 49.57715 43.39158
# Shear Modulus (GPa) = 38.60369 44.98988 41.79678
#
# Velocity S-wave (km/s) = 3.87760 4.18607 4.03479
# Velocity P-wave (km/s) = 5.87700 6.53254 6.21342
#
# Compressibility (1/GPa) = 0.02687738
#
# Stress axis : x y z
#
# Youngs Moduli (GPa) = 70.32385 123.11458 129.20745
#
# Poissons Ratio (x) = -0.05122 0.16463
# Poissons Ratio (y) = -0.02926 0.09615
# Poissons Ratio (z) = 0.08960 0.09161
#
# Static dielectric constant tensor:
#      x y z
#    x 4.177240 0.000000 0.019880 
#    y 0.000000 4.552070 0.000000 
#    z 0.019880 0.000000 4.955290 
# 
# 
# High freq. dielectric constant tensor:
#      x y z
#    x 2.007540 0.000000 0.005400 
#    y 0.000000 2.033400 0.000000 
#    z 0.005400 0.000000 2.063510 
# 
# From -- ./inp_files/3639.got.cif
#   From: 2010.06.25/outbox.cif.g09.slc.cpg/sg9_2_cif.got.tgz:3639.got - 2010.06.27 21:40:51.
