data_PCOD8056396
_publ_section_title
;
Structure prediction by ZEFSAII (Michael W. Deem and Ramdas Pophale) SiO2 
 PCOD8056396
Probable space group: C C
;
_chemical_formula_sum "Si O2"
_cell_formula_units_Z 32
_cell_length_a 18.191845
_cell_length_b 5.941801
_cell_length_c 13.182266
_cell_angle_alpha 90.000000
_cell_angle_beta 70.846308
_cell_angle_gamma 90.000000
_cell_volume 1346.021842
_symmetry_space_group_name_H-M "C C"
_symmetry_group_IT_number 9
_symmetry_cell_setting 'monoclinic'
loop_
_space_group_symop_operation_xyz
x,y,z
x,-y,1/2+z
1/2+x,1/2+y,z
1/2+x,1/2-y,1/2+z
loop_
_atom_site_type_symbol
_atom_site_label
_atom_site_fract_x
_atom_site_fract_y
_atom_site_fract_z
Si Si1 0.470680 0.370740 0.478130
Si Si2 0.587409 0.280002 0.974554
Si Si3 0.317534 0.652406 0.561655
Si Si4 0.574800 0.051962 0.313331
Si Si5 0.836478 0.456967 0.741101
Si Si6 0.745150 0.471194 0.969273
Si Si7 0.728395 0.778250 0.683070
Si Si8 0.004973 0.432693 0.150945
O O1 0.523249 0.588427 0.438894
O O2 0.381742 0.458074 0.504964
O O3 0.495117 0.178276 0.386018
O O4 0.492551 0.274950 0.580261
O O5 0.654268 0.456481 0.978224
O O6 0.616974 0.087692 0.883840
O O7 0.545809 0.155080 0.086739
O O8 0.351583 0.820763 0.630391
O O9 0.246410 0.540120 0.655142
O O10 0.281279 0.779092 0.478685
O O11 0.637861 0.242753 0.253431
O O12 0.556546 0.882479 0.227815
O O13 0.795126 0.345587 0.858348
O O14 0.781752 0.674499 0.746940
O O15 0.921712 0.519272 0.737784
O O16 0.752737 0.338951 0.068753
#
# Coordination Sequence:
#
# PCOD8056396 Si02
#       8
#     4   4   4   4   4   4   4   4
#     4  11  25  46  71 103 146 187 241 300 361 429
#     4  11  24  47  71 104 143 187 238 302 356 439
#     4  11  25  44  71 101 145 185 237 296 361 431
#     4  11  26  43  76 105 146 189 245 295 368 435
#     4  11  24  44  68 100 145 185 238 295 353 428
#     4  11  26  43  73 104 141 184 242 292 361 430
#     4  11  24  47  67 102 143 186 235 300 354 436
#     4  11  24  44  69 105 143 187 240 298 360 430
#
# _framework density 23.773759999999999
#
# number of rings (size 3 to 8) (size 9 to 14) (size 15 to 20)
#    0.000    1.000    3.750    1.500    5.250    4.000 
#    0.000    0.000    0.000    0.000    0.000    0.000 
#    0.000    0.000    0.000    0.000    0.000    0.000 
#
# Total GULP energy -198215.760129 kJ/mol
# GULP energy per Si atom -12388.485008 kJ/mol
# Density = 2.371965 g / cm^3
# Si number density = 23.773760 Si / 1000 Ang^3
#
#
#
# Elastic Constant Matrix: (Units=GPa)
#
#
# Indices 1 2 3 4 5 6 
#
# 1 126.2788 38.6636 56.2196 0.0000 -6.4486 0.0000
# 2 38.6636 77.5675 27.3788 -0.0001 0.7596 0.0000
# 3 56.2196 27.3788 118.7963 0.0000 -8.8220 0.0000
# 4 0.0000 -0.0001 0.0000 27.7403 0.0000 -1.1915
# 5 -6.4486 0.7596 -8.8220 0.0000 38.4985 0.0000
# 6 0.0000 0.0000 0.0000 -1.1915 0.0000 44.6195
#
#
#
# Elastic Compliance Matrix: (Units=1/GPa)
#
#
# Indices 1 2 3 4 5 6 
#
# 1 0.011097 -0.004041 -0.004249 0.000000 0.000965 0.000000
# 2 -0.004041 0.015546 -0.001774 0.000000 -0.001390 0.000000
# 3 -0.004249 -0.001774 0.010974 0.000000 0.001838 0.000000
# 4 0.000000 0.000000 0.000000 0.036090 0.000000 0.000964
# 5 0.000965 -0.001390 0.001838 0.000000 0.026585 0.000000
# 6 0.000000 0.000000 0.000000 0.000964 0.000000 0.022437
#
#
# Mechanical properties :
#
#
# Convention : Reuss Voigt Hill
#
# Bulk Modulus (GPa) = 57.17590 63.01851 60.09721
# Shear Modulus (GPa) = 33.62787 35.53037 34.57912
#
# Velocity S-wave (km/s) = 3.76506 3.87010 3.81794
# Velocity P-wave (km/s) = 6.55767 6.82168 6.69098
#
# Compressibility (1/GPa) = 0.01748989
#
# Stress axis : x y z
#
# Youngs Moduli (GPa) = 90.11396 64.32539 91.12742
#
# Poissons Ratio (x) = 0.25995 0.38716
# Poissons Ratio (y) = 0.36417 0.16163
# Poissons Ratio (z) = 0.38286 0.11409
#
# Static dielectric constant tensor:
#      x y z
#    x 4.243330 0.000000 -0.090780 
#    y 0.000000 4.370390 0.000000 
#    z -0.090780 0.000000 4.442990 
# 
# 
# High freq. dielectric constant tensor:
#      x y z
#    x 1.947960 0.000000 -0.006140 
#    y 0.000000 1.919930 0.000000 
#    z -0.006140 0.000000 1.955380 
# 
# From -- ./inp_files/26336.got.cif
#   From: 2010.06.25/outbox.cif.g09.slc.cpg/sg9_14_cif.got.tgz:26336.got - 2010.06.27 21:40:51.
