data_PCOD8056815
_publ_section_title
;
Structure prediction by ZEFSAII (Michael W. Deem and Ramdas Pophale) SiO2 
 PCOD8056815
Probable space group: P 2/M
;
_chemical_formula_sum "Si O2"
_cell_formula_units_Z 30
_cell_length_a 32.565215
_cell_length_b 8.505446
_cell_length_c 12.582231
_cell_angle_alpha 90.000000
_cell_angle_beta 154.025597
_cell_angle_gamma 90.000000
_cell_volume 1526.344716
_symmetry_space_group_name_H-M "P 2/M"
_symmetry_group_IT_number 10
_symmetry_cell_setting 'monoclinic'
loop_
_space_group_symop_operation_xyz
x,y,z
-x,y,-z
-x,-y,-z
x,-y,z
loop_
_atom_site_type_symbol
_atom_site_label
_atom_site_fract_x
_atom_site_fract_y
_atom_site_fract_z
Si Si1 0.980053 0.330326 0.715439
Si Si2 0.720480 0.315242 0.837316
Si Si3 0.198046 0.688487 0.418164
Si Si4 0.816422 0.685368 0.849861
Si Si5 0.659191 0.317723 0.070840
Si Si6 0.523861 0.182611 0.435904
Si Si7 0.000000 0.283995 0.000000
Si Si8 0.206479 0.819280 0.784246
O O1 0.957605 0.500000 0.609388
O O2 0.898752 0.207493 0.500745
O O3 0.075972 0.253763 0.893171
O O4 0.991751 0.371414 0.867825
O O5 0.738536 0.500000 0.889431
O O6 0.753496 0.247987 0.799288
O O7 0.611091 0.281192 0.596481
O O8 0.784095 0.224924 0.070725
O O9 0.174955 0.500000 0.377963
O O10 0.228608 0.731215 0.369025
O O11 0.283525 0.738206 0.692327
O O12 0.104677 0.793675 0.232755
O O13 0.821337 0.500000 0.870034
O O14 0.632598 0.500000 0.015284
O O15 0.721311 0.289431 0.111240
O O16 0.564110 0.217653 0.844857
O O17 0.500000 0.237005 0.500000
O O18 0.550087 0.000000 0.493767
O O19 0.234020 0.000000 0.830329
#
# Coordination Sequence:
#
# PCOD8056815 Si02
#       8
#     4   4   4   4   4   4   2   4
#     4  10  18  33  57  85 114 150 193 234 279 329
#     4  11  22  39  62  85 109 145 194 238 278 334
#     4   9  16  29  54  88 118 142 179 232 286 324
#     4   8  18  35  58  86 115 146 187 239 282 322
#     4  11  21  35  60  90 114 144 187 235 282 337
#     4  11  23  39  59  84 115 148 180 229 293 344
#     4  10  15  26  55  88 113 144 185 234 277 320
#     4  12  24  36  52  81 121 156 186 231 285 335
#
# _framework density 19.654800000000002
#
# number of rings (size 3 to 8) (size 9 to 14) (size 15 to 20)
#    0.000    1.733    2.667    4.400    0.000    1.067 
#    0.000    5.000    0.000    7.200    0.000    0.000 
#    0.000    0.000    0.000    0.000    0.000    0.000 
#
# Total GULP energy -371665.739634 kJ/mol
# GULP energy per Si atom -12388.857988 kJ/mol
# Density = 1.961006 g / cm^3
# Si number density = 19.654800 Si / 1000 Ang^3
#
#
#
# Elastic Constant Matrix: (Units=GPa)
#
#
# Indices 1 2 3 4 5 6 
#
# 1 130.2956 12.0385 53.5343 0.0000 1.6187 0.0000
# 2 12.0385 37.4588 17.6877 0.0000 -2.4010 0.0000
# 3 53.5343 17.6877 137.0187 0.0000 -5.1139 0.0000
# 4 0.0000 0.0000 0.0000 7.5269 0.0000 -0.0602
# 5 1.6187 -2.4010 -5.1139 0.0000 27.7553 0.0000
# 6 0.0000 0.0000 0.0000 -0.0602 0.0000 6.6467
#
#
#
# Elastic Compliance Matrix: (Units=1/GPa)
#
#
# Indices 1 2 3 4 5 6 
#
# 1 0.009252 -0.001413 -0.003481 0.000000 -0.001303 0.000000
# 2 -0.001413 0.028734 -0.003082 0.000000 0.002000 0.000000
# 3 -0.003481 -0.003082 0.009117 0.000000 0.001616 0.000000
# 4 0.000000 0.000000 0.000000 0.132866 0.000000 0.001202
# 5 -0.001303 0.002000 0.001616 0.000000 0.036576 0.000000
# 6 0.000000 0.000000 0.000000 0.001202 0.000000 0.150460
#
#
# Mechanical properties :
#
#
# Convention : Reuss Voigt Hill
#
# Bulk Modulus (GPa) = 32.10376 52.36602 42.23489
# Shear Modulus (GPa) = 12.71163 23.15330 17.93246
#
# Velocity S-wave (km/s) = 2.54588 3.43592 3.02382
# Velocity P-wave (km/s) = 5.00112 6.51471 5.80744
#
# Compressibility (1/GPa) = 0.03114900
#
# Stress axis : x y z
#
# Youngs Moduli (GPa) = 108.08666 34.80213 109.69066
#
# Poissons Ratio (x) = 0.04918 0.38183
# Poissons Ratio (y) = 0.15275 0.33812
# Poissons Ratio (z) = 0.37625 0.10728
#
# Static dielectric constant tensor:
#      x y z
#    x 3.808570 0.000000 -0.032180 
#    y 0.000000 3.142430 0.000000 
#    z -0.032180 0.000000 3.701730 
# 
# 
# High freq. dielectric constant tensor:
#      x y z
#    x 1.758080 0.000000 -0.003910 
#    y 0.000000 1.728560 0.000000 
#    z -0.003910 0.000000 1.775550 
# 
# From -- ./inp_files/58016.got.cif
#   From: 2010.06.25/outbox.cif.g09.slc.cpg/sg10_30_cif.got.tgz:58016.got - 2010.06.27 22:07:45.
