data_PCOD8056474
_publ_section_title
;
Structure prediction by ZEFSAII (Michael W. Deem and Ramdas Pophale) SiO2 
 PCOD8056474
Probable space group: C C
;
_chemical_formula_sum "Si O2"
_cell_formula_units_Z 32
_cell_length_a 11.504527
_cell_length_b 19.275146
_cell_length_c 8.201252
_cell_angle_alpha 90.000000
_cell_angle_beta 47.135701
_cell_angle_gamma 90.000000
_cell_volume 1333.002524
_symmetry_space_group_name_H-M "C C"
_symmetry_group_IT_number 9
_symmetry_cell_setting 'monoclinic'
loop_
_space_group_symop_operation_xyz
x,y,z
x,-y,1/2+z
1/2+x,1/2+y,z
1/2+x,1/2-y,1/2+z
loop_
_atom_site_type_symbol
_atom_site_label
_atom_site_fract_x
_atom_site_fract_y
_atom_site_fract_z
Si Si1 0.867000 0.794512 0.446950
Si Si2 0.261991 0.943504 0.410984
Si Si3 0.554737 0.282623 0.960568
Si Si4 0.757828 0.796011 0.042504
Si Si5 0.610909 0.568026 0.390289
Si Si6 0.771780 0.064903 0.871534
Si Si7 0.120299 0.436624 0.185481
Si Si8 0.172096 0.805699 0.341471
O O1 0.786108 0.866590 0.469559
O O2 0.741762 0.736350 0.620764
O O3 0.983193 0.810007 0.490196
O O4 0.958843 0.758577 0.210041
O O5 0.128630 0.935795 0.677792
O O6 0.437004 0.942435 0.317659
O O7 0.241291 0.883250 0.294350
O O8 0.239506 0.016995 0.345599
O O9 0.671279 0.220834 0.798438
O O10 0.649974 0.353591 0.910728
O O11 0.442101 0.301068 0.912156
O O12 0.693251 0.867907 0.029414
O O13 0.718343 0.733276 0.961868
O O14 0.434011 0.548683 0.618438
O O15 0.635368 0.073311 0.865688
O O16 0.723419 0.002428 0.034630
#
# Coordination Sequence:
#
# PCOD8056474 Si02
#       8
#     4   4   4   4   4   4   4   4
#     4  11  26  48  71 113 146 200 246 317 373 450
#     4  12  27  48  74 115 152 195 256 315 388 446
#     4  11  24  47  73 108 144 200 253 305 377 455
#     4  12  24  46  77 106 149 199 252 308 377 458
#     4  11  25  47  74 109 145 204 249 308 375 458
#     4  11  27  49  76 107 151 204 256 305 378 463
#     4  12  26  49  73 113 148 200 250 320 379 449
#     4  12  27  46  76 111 155 194 250 318 379 451
#
# _framework density 24.005958
#
# number of rings (size 3 to 8) (size 9 to 14) (size 15 to 20)
#    0.000    0.500    3.750    4.500    7.000    0.000 
#    2.250    0.000    0.000    0.000    0.000    0.000 
#    0.000    0.000    0.000    0.000    0.000    0.000 
#
# Total GULP energy -198426.299591 kJ/mol
# GULP energy per Si atom -12401.643724 kJ/mol
# Density = 2.395132 g / cm^3
# Si number density = 24.005958 Si / 1000 Ang^3
#
#
#
# Elastic Constant Matrix: (Units=GPa)
#
#
# Indices 1 2 3 4 5 6 
#
# 1 142.7760 57.5674 -0.9072 0.0000 -13.9033 0.0000
# 2 57.5674 142.2745 47.0555 0.0000 -8.5528 0.0000
# 3 -0.9072 47.0555 73.0579 0.0000 -0.6747 0.0000
# 4 0.0000 0.0000 0.0000 37.0103 0.0000 5.0876
# 5 -13.9033 -8.5528 -0.6747 0.0000 27.8639 0.0000
# 6 0.0000 0.0000 0.0000 5.0876 0.0000 44.1802
#
#
#
# Elastic Compliance Matrix: (Units=1/GPa)
#
#
# Indices 1 2 3 4 5 6 
#
# 1 0.009165 -0.004524 0.003057 0.000000 0.003258 0.000000
# 2 -0.004524 0.011357 -0.007361 0.000000 0.001051 0.000000
# 3 0.003057 -0.007361 0.018464 0.000000 -0.000287 0.000000
# 4 0.000000 0.000000 0.000000 0.027454 0.000000 -0.003161
# 5 0.003258 0.001051 -0.000287 0.000000 0.037830 0.000000
# 6 0.000000 0.000000 0.000000 -0.003161 0.000000 0.022999
#
#
# Mechanical properties :
#
#
# Convention : Reuss Voigt Hill
#
# Bulk Modulus (GPa) = 46.87988 62.83775 54.85882
# Shear Modulus (GPa) = 32.88750 38.77040 35.82895
#
# Velocity S-wave (km/s) = 3.70533 4.02311 3.86748
# Velocity P-wave (km/s) = 6.15441 6.91471 6.54561
#
# Compressibility (1/GPa) = 0.02133111
#
# Stress axis : x y z
#
# Youngs Moduli (GPa) = 109.11561 88.05326 54.15852
#
# Poissons Ratio (x) = 0.39831 -0.16559
# Poissons Ratio (y) = 0.49359 0.39867
# Poissons Ratio (z) = -0.33361 0.64818
#
# Static dielectric constant tensor:
#      x y z
#    x 4.354730 0.000000 0.050160 
#    y 0.000000 4.375790 0.000000 
#    z 0.050160 0.000000 4.330180 
# 
# 
# High freq. dielectric constant tensor:
#      x y z
#    x 1.963980 0.000000 0.004190 
#    y 0.000000 1.960000 0.000000 
#    z 0.004190 0.000000 1.947570 
# 
# From -- ./inp_files/8375.got.cif
#   From: 2010.06.25/outbox.cif.g09.slc.cpg/sg9_5_cif.got.tgz:8375.got - 2010.06.27 21:40:51.
