data_PCOD8056443
_publ_section_title
;
Structure prediction by ZEFSAII (Michael W. Deem and Ramdas Pophale) SiO2 
 PCOD8056443
Probable space group: C C
;
_chemical_formula_sum "Si O2"
_cell_formula_units_Z 32
_cell_length_a 8.882922
_cell_length_b 17.688138
_cell_length_c 14.278848
_cell_angle_alpha 90.000000
_cell_angle_beta 42.940074
_cell_angle_gamma 90.000000
_cell_volume 1528.364188
_symmetry_space_group_name_H-M "C C"
_symmetry_group_IT_number 9
_symmetry_cell_setting 'monoclinic'
loop_
_space_group_symop_operation_xyz
x,y,z
x,-y,1/2+z
1/2+x,1/2+y,z
1/2+x,1/2-y,1/2+z
loop_
_atom_site_type_symbol
_atom_site_label
_atom_site_fract_x
_atom_site_fract_y
_atom_site_fract_z
Si Si1 0.135990 0.921270 0.928600
Si Si2 0.709607 0.960271 0.026924
Si Si3 0.306959 0.816361 0.701046
Si Si4 0.397385 0.769673 0.300143
Si Si5 0.937491 0.557070 0.829980
Si Si6 0.488800 0.183964 0.553815
Si Si7 0.529070 0.328624 0.158183
Si Si8 0.123752 0.406493 0.434187
O O1 0.303486 0.864642 0.799366
O O2 0.225919 0.003617 0.915236
O O3 0.041794 0.886830 0.066753
O O4 0.955756 0.930566 0.929109
O O5 0.609142 0.971237 0.174983
O O6 0.571803 0.901160 0.028769
O O7 0.718844 0.039619 0.970707
O O8 0.490641 0.753165 0.633056
O O9 0.402848 0.864757 0.571211
O O10 0.071697 0.778507 0.781935
O O11 0.375595 0.854718 0.348971
O O12 0.476483 0.771542 0.157279
O O13 0.158145 0.730326 0.411967
O O14 0.049677 0.543686 0.879197
O O15 0.252405 0.175092 0.614654
O O16 0.322109 0.349715 0.318191
#
# Coordination Sequence:
#
# PCOD8056443 Si02
#       8
#     4   4   4   4   4   4   4   4
#     4  12  25  47  72 103 146 187 243 303 360 431
#     4  11  24  46  68 103 148 183 235 297 360 437
#     4  12  25  46  78 103 140 197 241 293 370 437
#     4  11  24  47  72 102 142 184 238 295 361 432
#     4  11  24  46  70 105 140 185 238 298 361 429
#     4  11  26  45  68 105 141 184 236 300 355 431
#     4  12  27  44  72 104 146 187 242 298 359 433
#     4  12  25  45  74 105 143 191 239 294 370 428
#
# _framework density 20.937417
#
# number of rings (size 3 to 8) (size 9 to 14) (size 15 to 20)
#    0.000    0.500    5.000    3.000    7.000    1.000 
#    2.250    0.000    0.000    0.000    0.000    0.000 
#    0.000    0.000    0.000    0.000    0.000    0.000 
#
# Total GULP energy -198460.564179 kJ/mol
# GULP energy per Si atom -12403.785261 kJ/mol
# Density = 2.088976 g / cm^3
# Si number density = 20.937417 Si / 1000 Ang^3
#
#
#
# Elastic Constant Matrix: (Units=GPa)
#
#
# Indices 1 2 3 4 5 6 
#
# 1 113.2219 35.2704 12.4831 0.0003 -11.9215 -0.0002
# 2 35.2704 90.3373 38.3372 -0.0004 6.7751 0.0002
# 3 12.4831 38.3372 91.8550 -0.0024 3.5789 0.0009
# 4 0.0003 -0.0004 -0.0024 36.6749 0.0001 -5.5638
# 5 -11.9215 6.7751 3.5789 0.0001 36.8868 0.0001
# 6 -0.0002 0.0002 0.0009 -5.5638 0.0001 35.1351
#
#
#
# Elastic Compliance Matrix: (Units=1/GPa)
#
#
# Indices 1 2 3 4 5 6 
#
# 1 0.010689 -0.004626 0.000312 0.000000 0.004274 0.000000
# 2 -0.004626 0.015593 -0.005731 0.000000 -0.003803 0.000000
# 3 0.000312 -0.005731 0.013242 0.000001 -0.000131 0.000000
# 4 0.000000 0.000000 0.000001 0.027938 0.000000 0.004424
# 5 0.004274 -0.003803 -0.000131 0.000000 0.029203 0.000000
# 6 0.000000 0.000000 0.000000 0.004424 0.000000 0.029162
#
#
# Mechanical properties :
#
#
# Convention : Reuss Voigt Hill
#
# Bulk Modulus (GPa) = 51.46065 51.95507 51.70786
# Shear Modulus (GPa) = 32.80946 35.69427 34.25187
#
# Velocity S-wave (km/s) = 3.96286 4.13341 4.04903
# Velocity P-wave (km/s) = 6.75061 6.90279 6.82712
#
# Compressibility (1/GPa) = 0.01943232
#
# Stress axis : x y z
#
# Youngs Moduli (GPa) = 93.55427 64.13040 75.52002
#
# Poissons Ratio (x) = 0.29667 -0.02353
# Poissons Ratio (y) = 0.43279 0.43282
# Poissons Ratio (z) = -0.02915 0.36755
#
# Static dielectric constant tensor:
#      x y z
#    x 3.769650 0.000000 0.051110 
#    y 0.000000 3.820290 0.000000 
#    z 0.051110 0.000000 3.837410 
# 
# 
# High freq. dielectric constant tensor:
#      x y z
#    x 1.821920 0.000000 0.004490 
#    y 0.000000 1.827690 0.000000 
#    z 0.004490 0.000000 1.830930 
# 
# From -- ./inp_files/5410.got.cif
#   From: 2010.06.25/outbox.cif.g09.slc.cpg/sg9_3_cif.got.tgz:5410.got - 2010.06.27 21:40:51.
