data_PCOD8056454
_publ_section_title
;
Structure prediction by ZEFSAII (Michael W. Deem and Ramdas Pophale) SiO2 
 PCOD8056454
Probable space group: C C
;
_chemical_formula_sum "Si O2"
_cell_formula_units_Z 32
_cell_length_a 16.423429
_cell_length_b 16.518940
_cell_length_c 9.559064
_cell_angle_alpha 90.000000
_cell_angle_beta 34.643370
_cell_angle_gamma 90.000000
_cell_volume 1474.233845
_symmetry_space_group_name_H-M "C C"
_symmetry_group_IT_number 9
_symmetry_cell_setting 'monoclinic'
loop_
_space_group_symop_operation_xyz
x,y,z
x,-y,1/2+z
1/2+x,1/2+y,z
1/2+x,1/2-y,1/2+z
loop_
_atom_site_type_symbol
_atom_site_label
_atom_site_fract_x
_atom_site_fract_y
_atom_site_fract_z
Si Si1 0.901250 0.751646 0.104280
Si Si2 0.732307 0.098571 0.925820
Si Si3 0.717972 0.713125 0.096134
Si Si4 0.940656 0.689513 0.345154
Si Si5 0.309178 0.476563 0.610468
Si Si6 0.903486 0.818357 0.617092
Si Si7 0.623839 0.535382 0.143862
Si Si8 0.682478 0.590695 0.777446
O O1 0.866305 0.843670 0.199404
O O2 0.790045 0.719184 0.146576
O O3 0.889873 0.695001 0.256887
O O4 0.062429 0.745373 0.818338
O O5 0.698970 0.037544 0.843714
O O6 0.597480 0.154577 0.142684
O O7 0.763256 0.045035 0.019352
O O8 0.696865 0.619205 0.089013
O O9 0.815437 0.761128 0.846620
O O10 0.940412 0.776978 0.417395
O O11 0.832115 0.635043 0.587151
O O12 0.315515 0.398305 0.701342
O O13 0.454368 0.529287 0.406786
O O14 0.054854 0.843274 0.472050
O O15 0.693206 0.457662 0.118130
O O16 0.658735 0.524375 0.931374
#
# Coordination Sequence:
#
# PCOD8056454 Si02
#       8
#     4   4   4   4   4   4   4   4
#     4  12  26  45  74 108 141 189 242 306 362 425
#     4  12  26  45  70 106 145 192 243 297 364 435
#     4  12  26  46  77 107 144 185 252 301 358 431
#     4  12  26  46  69 103 148 194 240 302 364 425
#     4  11  25  45  74 101 145 189 242 292 370 436
#     4  11  25  47  73 104 141 192 238 301 362 437
#     4  11  24  46  73 102 137 190 239 298 364 434
#     4  11  26  44  70 103 143 187 244 291 368 431
#
# _framework density 21.706191
#
# number of rings (size 3 to 8) (size 9 to 14) (size 15 to 20)
#    0.000    0.500    5.000    3.000    3.500    1.000 
#    2.250    0.000    0.000    0.000    0.000    0.000 
#    0.000    0.000    0.000    0.000    0.000    0.000 
#
# Total GULP energy -198403.408804 kJ/mol
# GULP energy per Si atom -12400.213050 kJ/mol
# Density = 2.165679 g / cm^3
# Si number density = 21.706191 Si / 1000 Ang^3
#
#
#
# Elastic Constant Matrix: (Units=GPa)
#
#
# Indices 1 2 3 4 5 6 
#
# 1 107.0015 29.9165 38.1903 -0.0001 8.3568 0.0001
# 2 29.9165 82.9185 59.1185 0.0000 0.9279 -0.0001
# 3 38.1903 59.1185 102.7366 -0.0002 1.3029 0.0001
# 4 -0.0001 0.0000 -0.0002 35.2302 0.0001 14.8034
# 5 8.3568 0.9279 1.3029 0.0001 31.6528 -0.0001
# 6 0.0001 -0.0001 0.0001 14.8034 -0.0001 35.4226
#
#
#
# Elastic Compliance Matrix: (Units=1/GPa)
#
#
# Indices 1 2 3 4 5 6 
#
# 1 0.011164 -0.001803 -0.003078 0.000000 -0.002768 0.000000
# 2 -0.001803 0.020742 -0.011270 0.000000 0.000332 0.000000
# 3 -0.003078 -0.011270 0.017357 0.000000 0.000428 0.000000
# 4 0.000000 0.000000 0.000000 0.034431 0.000000 -0.014389
# 5 -0.002768 0.000332 0.000428 0.000000 0.032296 0.000000
# 6 0.000000 0.000000 0.000000 -0.014389 0.000000 0.034244
#
#
# Mechanical properties :
#
#
# Convention : Reuss Voigt Hill
#
# Bulk Modulus (GPa) = 58.95125 60.78969 59.87047
# Shear Modulus (GPa) = 26.56912 31.48987 29.02949
#
# Velocity S-wave (km/s) = 3.50242 3.81298 3.66099
# Velocity P-wave (km/s) = 6.60103 6.88851 6.74630
#
# Compressibility (1/GPa) = 0.01696317
#
# Stress axis : x y z
#
# Youngs Moduli (GPa) = 89.57097 48.21223 57.61307
#
# Poissons Ratio (x) = 0.08692 0.17731
# Poissons Ratio (y) = 0.16148 0.64927
# Poissons Ratio (z) = 0.27567 0.54333
#
# Static dielectric constant tensor:
#      x y z
#    x 4.029910 0.000000 0.212820 
#    y 0.000000 3.905090 0.000000 
#    z 0.212820 0.000000 3.976840 
# 
# 
# High freq. dielectric constant tensor:
#      x y z
#    x 1.855330 0.000000 0.015050 
#    y 0.000000 1.858600 0.000000 
#    z 0.015050 0.000000 1.858920 
# 
# From -- ./inp_files/9941.got.cif
#   From: 2010.06.25/outbox.cif.g09.slc.cpg/sg9_5_cif.got.tgz:9941.got - 2010.06.27 21:40:51.
