data_PCOD8056593
_publ_section_title
;
Structure prediction by ZEFSAII (Michael W. Deem and Ramdas Pophale) SiO2 
 PCOD8056593
Probable space group: C C
;
_chemical_formula_sum "Si O2"
_cell_formula_units_Z 24
_cell_length_a 9.206546
_cell_length_b 21.432586
_cell_length_c 9.143559
_cell_angle_alpha 90.000000
_cell_angle_beta 31.732212
_cell_angle_gamma 90.000000
_cell_volume 948.922949
_symmetry_space_group_name_H-M "C C"
_symmetry_group_IT_number 9
_symmetry_cell_setting 'monoclinic'
loop_
_space_group_symop_operation_xyz
x,y,z
x,-y,1/2+z
1/2+x,1/2+y,z
1/2+x,1/2-y,1/2+z
loop_
_atom_site_type_symbol
_atom_site_label
_atom_site_fract_x
_atom_site_fract_y
_atom_site_fract_z
Si Si1 0.025180 0.028168 0.075080
Si Si2 0.528345 0.704773 0.574134
Si Si3 0.912150 0.128920 0.939120
Si Si4 0.529976 0.055483 0.061689
Si Si5 0.887276 0.214017 0.218665
Si Si6 0.594717 0.379957 0.759556
O O1 0.973033 0.058237 0.281904
O O2 0.064065 0.076985 0.908355
O O3 0.761371 0.983910 0.276868
O O4 0.299572 0.986852 0.837703
O O5 0.434988 0.652557 0.532777
O O6 0.791380 0.744099 0.298599
O O7 0.601449 0.662744 0.654099
O O8 0.649156 0.098087 0.088100
O O9 0.816283 0.185449 0.122599
O O10 0.399935 0.101570 0.051887
O O11 0.580940 0.224682 0.544129
O O12 0.092142 0.170441 0.134340
#
# Coordination Sequence:
#
# PCOD8056593 Si02
#       6
#     4   4   4   4   4   4
#     4  11  27  46  72 104 144 188 237 289 352 422
#     4  12  26  44  69 102 137 178 230 288 346 410
#     4  11  26  46  73 104 142 187 235 291 353 419
#     4  12  25  45  72 108 142 185 237 294 350 418
#     4  11  26  47  71 102 139 185 236 289 350 420
#     4  11  26  46  73 104 142 187 235 291 353 419
#
# _framework density 25.291833
#
# number of rings (size 3 to 8) (size 9 to 14) (size 15 to 20)
#    0.000    0.667    0.000    6.000    0.000   16.000 
#    0.000    0.000    0.000    0.000    0.000    0.000 
#    0.000    0.000    0.000    0.000    0.000    0.000 
#
# Total GULP energy -148668.849407 kJ/mol
# GULP energy per Si atom -12389.070784 kJ/mol
# Density = 2.523427 g / cm^3
# Si number density = 25.291833 Si / 1000 Ang^3
#
#
#
# Elastic Constant Matrix: (Units=GPa)
#
#
# Indices 1 2 3 4 5 6 
#
# 1 131.5774 39.9621 16.6386 0.0000 11.1750 0.0000
# 2 39.9621 105.6667 29.5967 0.0000 -2.8842 0.0000
# 3 16.6386 29.5967 93.3575 0.0000 -3.6393 0.0000
# 4 0.0000 0.0000 0.0000 16.9141 0.0000 5.4959
# 5 11.1750 -2.8842 -3.6393 0.0000 38.1742 0.0000
# 6 0.0000 0.0000 0.0000 5.4959 0.0000 29.4173
#
#
#
# Elastic Compliance Matrix: (Units=1/GPa)
#
#
# Indices 1 2 3 4 5 6 
#
# 1 0.008925 -0.003268 -0.000669 0.000000 -0.002923 0.000000
# 2 -0.003268 0.011591 -0.003032 0.000000 0.001543 0.000000
# 3 -0.000669 -0.003032 0.011835 0.000000 0.001095 0.000000
# 4 0.000000 0.000000 0.000000 0.062943 0.000000 -0.011759
# 5 -0.002923 0.001543 0.001095 0.000000 0.027272 0.000000
# 6 0.000000 0.000000 0.000000 -0.011759 0.000000 0.036191
#
#
# Mechanical properties :
#
#
# Convention : Reuss Voigt Hill
#
# Bulk Modulus (GPa) = 54.30752 55.88848 55.09800
# Shear Modulus (GPa) = 27.95908 33.19474 30.57691
#
# Velocity S-wave (km/s) = 3.32845 3.62673 3.48079
# Velocity P-wave (km/s) = 6.02415 6.29944 6.16334
#
# Compressibility (1/GPa) = 0.01841366
#
# Stress axis : x y z
#
# Youngs Moduli (GPa) = 112.03856 86.27346 84.49803
#
# Poissons Ratio (x) = 0.28195 0.05650
# Poissons Ratio (y) = 0.36615 0.25620
# Poissons Ratio (z) = 0.07491 0.26158
#
# Static dielectric constant tensor:
#      x y z
#    x 4.938490 0.000000 0.360830 
#    y 0.000000 5.110720 0.000000 
#    z 0.360830 0.000000 4.402210 
# 
# 
# High freq. dielectric constant tensor:
#      x y z
#    x 2.025210 0.000000 0.013410 
#    y 0.000000 2.036680 0.000000 
#    z 0.013410 0.000000 1.986960 
# 
# From -- ./inp_files/6140.got.cif
#   From: 2010.06.25/outbox.cif.g09.slc.cpg/sg9_4_cif.got.tgz:6140.got - 2010.06.27 21:40:51.
