data_PCOD8056260
_publ_section_title
;
Structure prediction by ZEFSAII (Michael W. Deem and Ramdas Pophale) SiO2 
 PCOD8056260
Probable space group: C C
;
_chemical_formula_sum "Si O2"
_cell_formula_units_Z 28
_cell_length_a 8.253774
_cell_length_b 16.843243
_cell_length_c 14.629567
_cell_angle_alpha 90.000000
_cell_angle_beta 39.419445
_cell_angle_gamma 90.000000
_cell_volume 1291.452717
_symmetry_space_group_name_H-M "C C"
_symmetry_group_IT_number 9
_symmetry_cell_setting 'monoclinic'
loop_
_space_group_symop_operation_xyz
x,y,z
x,-y,1/2+z
1/2+x,1/2+y,z
1/2+x,1/2-y,1/2+z
loop_
_atom_site_type_symbol
_atom_site_label
_atom_site_fract_x
_atom_site_fract_y
_atom_site_fract_z
Si Si1 0.703720 0.121242 0.837100
Si Si2 0.485354 0.924087 0.093732
Si Si3 0.022317 0.294459 0.934179
Si Si4 0.521609 0.777262 0.723632
Si Si5 0.790092 0.346581 0.656262
Si Si6 0.965933 0.011982 0.310549
Si Si7 0.515574 0.804106 0.242052
O O1 0.881571 0.193273 0.788457
O O2 0.562681 0.132844 0.802507
O O3 0.868605 0.039755 0.766196
O O4 0.500529 0.108701 0.005790
O O5 0.507436 0.850713 0.152161
O O6 0.475785 0.881529 0.998484
O O7 0.736993 0.981182 0.986039
O O8 0.229963 0.972700 0.232159
O O9 0.050474 0.309831 0.813534
O O10 0.264403 0.247680 0.869533
O O11 0.790751 0.235193 0.056833
O O12 0.364709 0.840973 0.731187
O O13 0.530808 0.397349 0.755615
O O14 0.752138 0.257357 0.634497
#
# Coordination Sequence:
#
# PCOD8056260 Si02
#       7
#     4   4   4   4   4   4   4
#     4  11  23  44  66  99 142 182 224 291 355 424
#     4  12  26  47  69 103 145 187 231 298 352 430
#     4  12  21  43  73 106 134 180 237 301 343 422
#     4  11  24  40  75 102 136 181 240 289 358 411
#     4  11  24  43  69 104 135 181 234 295 346 419
#     4  12  25  47  67  95 149 185 226 292 367 412
#     4  11  25  42  73 103 133 184 242 286 345 420
#
# _framework density 21.681011000000002
#
# number of rings (size 3 to 8) (size 9 to 14) (size 15 to 20)
#    0.000    0.571    7.143    0.857    2.000    0.000 
#    5.143    0.000    0.000    0.000    0.000    0.000 
#    0.000    0.000    0.000    0.000    0.000    0.000 
#
# Total GULP energy -173571.137108 kJ/mol
# GULP energy per Si atom -12397.938365 kJ/mol
# Density = 2.163166 g / cm^3
# Si number density = 21.681011 Si / 1000 Ang^3
#
#
#
# Elastic Constant Matrix: (Units=GPa)
#
#
# Indices 1 2 3 4 5 6 
#
# 1 92.4667 40.5746 40.6587 -0.0031 -2.8801 0.0007
# 2 40.5746 92.9721 34.0302 -0.0033 -5.3293 0.0018
# 3 40.6587 34.0302 103.8730 -0.0134 -12.7009 0.0034
# 4 -0.0031 -0.0033 -0.0134 30.1277 0.0066 -12.5118
# 5 -2.8801 -5.3293 -12.7009 0.0066 38.4945 -0.0015
# 6 0.0007 0.0018 0.0034 -12.5118 -0.0015 39.2219
#
#
#
# Elastic Compliance Matrix: (Units=1/GPa)
#
#
# Indices 1 2 3 4 5 6 
#
# 1 0.014857 -0.004963 -0.004312 -0.000001 -0.000998 0.000000
# 2 -0.004963 0.013885 -0.002518 0.000000 0.000720 0.000000
# 3 -0.004312 -0.002518 0.012565 0.000004 0.003474 0.000001
# 4 -0.000001 0.000000 0.000004 0.038261 -0.000005 0.012205
# 5 -0.000998 0.000720 0.003474 -0.000005 0.027149 -0.000001
# 6 0.000000 0.000000 0.000001 0.012205 -0.000001 0.029389
#
#
# Mechanical properties :
#
#
# Convention : Reuss Voigt Hill
#
# Bulk Modulus (GPa) = 56.42973 57.75989 57.09481
# Shear Modulus (GPa) = 30.19347 33.17205 31.68276
#
# Velocity S-wave (km/s) = 3.73583 3.91577 3.82686
# Velocity P-wave (km/s) = 6.68524 6.86607 6.77626
#
# Compressibility (1/GPa) = 0.01772116
#
# Stress axis : x y z
#
# Youngs Moduli (GPa) = 67.30711 72.02099 79.58843
#
# Poissons Ratio (x) = 0.35744 0.34316
# Poissons Ratio (y) = 0.33405 0.20042
# Poissons Ratio (z) = 0.29020 0.18136
#
# Static dielectric constant tensor:
#      x y z
#    x 3.974980 0.000000 -0.314950 
#    y 0.000000 3.914280 0.000000 
#    z -0.314950 0.000000 3.978390 
# 
# 
# High freq. dielectric constant tensor:
#      x y z
#    x 1.845370 0.000000 -0.024420 
#    y 0.000000 1.852380 0.000000 
#    z -0.024420 0.000000 1.854630 
# 
# From -- ./inp_files/5332.got.cif
#   From: 2010.06.25/outbox.cif.g09.slc.cpg/sg9_3_cif.got.tgz:5332.got - 2010.06.27 21:40:51.
