data_PCOD8056076
_publ_section_title
;
Structure prediction by ZEFSAII (Michael W. Deem and Ramdas Pophale) SiO2 
 PCOD8056076
Probable space group: C C
;
_chemical_formula_sum "Si O2"
_cell_formula_units_Z 28
_cell_length_a 15.330050
_cell_length_b 11.998906
_cell_length_c 8.251485
_cell_angle_alpha 90.000000
_cell_angle_beta 120.903591
_cell_angle_gamma 90.000000
_cell_volume 1302.330421
_symmetry_space_group_name_H-M "C C"
_symmetry_group_IT_number 9
_symmetry_cell_setting 'monoclinic'
loop_
_space_group_symop_operation_xyz
x,y,z
x,-y,1/2+z
1/2+x,1/2+y,z
1/2+x,1/2-y,1/2+z
loop_
_atom_site_type_symbol
_atom_site_label
_atom_site_fract_x
_atom_site_fract_y
_atom_site_fract_z
Si Si1 0.430570 0.348349 0.459510
Si Si2 0.271853 0.520855 0.245884
Si Si3 0.448617 0.672239 0.319319
Si Si4 0.155161 0.374689 0.914302
Si Si5 0.105724 0.976556 0.105874
Si Si6 0.438534 0.800845 0.646464
Si Si7 0.720126 0.367679 0.503482
O O1 0.321166 0.407900 0.364058
O O2 0.440820 0.269113 0.632212
O O3 0.516627 0.440480 0.571473
O O4 0.444366 0.287467 0.300419
O O5 0.358699 0.580977 0.225177
O O6 0.230154 0.609729 0.333972
O O7 0.174798 0.479553 0.049884
O O8 0.558438 0.611733 0.433809
O O9 0.433997 0.749008 0.462596
O O10 0.187712 0.256976 0.025401
O O11 0.037201 0.378960 0.752051
O O12 0.143494 0.901855 0.289224
O O13 0.202029 0.045288 0.131048
O O14 0.338383 0.875965 0.570257
#
# Coordination Sequence:
#
# PCOD8056076 Si02
#       7
#     4   4   4   4   4   4   4
#     4  11  21  40  72 103 125 178 245 277 326 413
#     4  11  22  41  68 102 138 175 226 289 342 402
#     4  11  21  40  72 103 125 178 245 277 326 413
#     4  12  24  44  69 100 143 178 224 294 346 398
#     4  11  22  41  68 102 138 175 226 289 342 402
#     4  12  26  46  70 100 142 180 224 292 346 402
#     4  12  24  44  69 100 143 178 224 294 346 398
#
# _framework density 21.499918999999998
#
# number of rings (size 3 to 8) (size 9 to 14) (size 15 to 20)
#    0.000    0.571    8.571    0.000    4.000    1.143 
#    5.143    4.286    0.000    0.000    0.000    0.000 
#    0.000    0.000    0.000    0.000    0.000    0.000 
#
# Total GULP energy -173484.728954 kJ/mol
# GULP energy per Si atom -12391.766354 kJ/mol
# Density = 2.145098 g / cm^3
# Si number density = 21.499919 Si / 1000 Ang^3
#
#
#
# Elastic Constant Matrix: (Units=GPa)
#
#
# Indices 1 2 3 4 5 6 
#
# 1 87.3883 17.9487 24.7321 0.0000 18.0824 0.0000
# 2 17.9487 48.1099 11.4114 0.0000 4.7820 0.0000
# 3 24.7321 11.4114 98.1586 0.0000 -3.0965 0.0000
# 4 0.0000 0.0000 0.0000 34.9182 0.0000 6.1121
# 5 18.0824 4.7820 -3.0965 0.0000 44.3712 0.0000
# 6 0.0000 0.0000 0.0000 6.1121 0.0000 41.8200
#
#
#
# Elastic Compliance Matrix: (Units=1/GPa)
#
#
# Indices 1 2 3 4 5 6 
#
# 1 0.014383 -0.004012 -0.003336 0.000000 -0.005662 0.000000
# 2 -0.004012 0.022771 -0.001666 0.000000 -0.000935 0.000000
# 3 -0.003336 -0.001666 0.011295 0.000000 0.002327 0.000000
# 4 0.000000 0.000000 0.000000 0.029390 0.000000 -0.004295
# 5 -0.005662 -0.000935 0.002327 0.000000 0.025108 0.000000
# 6 0.000000 0.000000 0.000000 -0.004295 0.000000 0.024540
#
#
# Mechanical properties :
#
#
# Convention : Reuss Voigt Hill
#
# Bulk Modulus (GPa) = 32.87200 37.98236 35.42718
# Shear Modulus (GPa) = 32.12242 36.19286 34.15764
#
# Velocity S-wave (km/s) = 3.86952 4.10737 3.99022
# Velocity P-wave (km/s) = 5.94027 6.34024 6.14351
#
# Compressibility (1/GPa) = 0.03042102
#
# Stress axis : x y z
#
# Youngs Moduli (GPa) = 69.52699 43.91636 88.53276
#
# Poissons Ratio (x) = 0.17619 0.29536
# Poissons Ratio (y) = 0.27893 0.14748
# Poissons Ratio (z) = 0.23195 0.07316
#
# Static dielectric constant tensor:
#      x y z
#    x 3.986070 0.000000 0.138430 
#    y 0.000000 3.540770 0.000000 
#    z 0.138430 0.000000 4.086080 
# 
# 
# High freq. dielectric constant tensor:
#      x y z
#    x 1.845930 0.000000 0.004210 
#    y 0.000000 1.804690 0.000000 
#    z 0.004210 0.000000 1.857670 
# 
# From -- ./inp_files/8997.got.cif
#   From: 2010.06.25/outbox.cif.g09.slc.cpg/sg9_5_cif.got.tgz:8997.got - 2010.06.27 21:40:51.
