data_PCOD8056956
_publ_section_title
;
Structure prediction by ZEFSAII (Michael W. Deem and Ramdas Pophale) SiO2 
 PCOD8056956
Probable space group: P 2/M
;
_chemical_formula_sum "Si O2"
_cell_formula_units_Z 32
_cell_length_a 20.950776
_cell_length_b 8.880370
_cell_length_c 11.392080
_cell_angle_alpha 90.000000
_cell_angle_beta 114.500739
_cell_angle_gamma 90.000000
_cell_volume 1928.655040
_symmetry_space_group_name_H-M "P 2/M"
_symmetry_group_IT_number 10
_symmetry_cell_setting 'monoclinic'
loop_
_space_group_symop_operation_xyz
x,y,z
-x,y,-z
-x,-y,-z
x,-y,z
loop_
_atom_site_type_symbol
_atom_site_label
_atom_site_fract_x
_atom_site_fract_y
_atom_site_fract_z
Si Si1 0.152602 0.325685 0.217778
Si Si2 0.401712 0.321845 0.981628
Si Si3 0.434392 0.178511 0.522302
Si Si4 0.981754 0.832584 0.848724
Si Si5 0.131303 0.173672 0.959154
Si Si6 0.535266 0.820781 0.190677
Si Si7 0.292289 0.823648 0.301282
Si Si8 0.281253 0.171901 0.019543
O O1 0.161960 0.500000 0.245183
O O2 0.083411 0.272907 0.237829
O O3 0.224714 0.247686 0.314564
O O4 0.140326 0.287470 0.073032
O O5 0.413242 0.500000 0.986079
O O6 0.457940 0.245941 0.111321
O O7 0.324447 0.283311 0.969495
O O8 0.410160 0.252718 0.858436
O O9 0.500000 0.246441 0.500000
O O10 0.439982 0.226953 0.661606
O O11 0.362389 0.244108 0.413768
O O12 0.434733 0.000000 0.509362
O O13 0.055903 0.792009 0.839107
O O14 0.957876 0.000000 0.797157
O O15 0.000000 0.818812 0.000000
O O16 0.131050 0.000000 0.007040
O O17 0.198374 0.193735 0.924712
O O18 0.532831 0.000000 0.171849
O O19 0.293849 0.784308 0.164665
O O20 0.287205 0.000000 0.317986
O O21 0.305036 0.000000 0.014737
#
# Coordination Sequence:
#
# PCOD8056956 Si02
#       8
#     4   4   4   4   4   4   4   4
#     4  10  17  23  34  55  83 114 146 177 210 252
#     4  11  21  32  46  65  91 118 144 177 217 259
#     4   9  17  30  50  72  88 106 140 184 222 255
#     4   8  13  23  37  52  74 108 146 179 214 253
#     4   8  15  26  39  55  78 110 146 182 217 255
#     4  10  19  33  52  69  85 110 146 183 217 256
#     4   9  17  30  46  63  86 115 146 181 219 260
#     4   9  16  28  46  65  86 115 149 181 215 256
#
# _framework density 16.591874000000001
#
# number of rings (size 3 to 8) (size 9 to 14) (size 15 to 20)
#    0.000    2.750    0.000    5.625    0.000    6.250 
#    0.000    1.250    0.000    2.625    0.000    0.000 
#    0.000    1.000    0.000   11.500    0.000    6.625 
#
# Total GULP energy -396548.391032 kJ/mol
# GULP energy per Si atom -12392.137220 kJ/mol
# Density = 1.655411 g / cm^3
# Si number density = 16.591874 Si / 1000 Ang^3
#
#
#
# Elastic Constant Matrix: (Units=GPa)
#
#
# Indices 1 2 3 4 5 6 
#
# 1 155.9354 48.2272 56.3991 0.0000 25.1226 0.0000
# 2 48.2272 73.0108 26.5521 0.0000 3.7613 0.0000
# 3 56.3991 26.5521 59.3373 0.0000 9.7300 0.0000
# 4 0.0000 0.0000 0.0000 6.6648 0.0000 1.2427
# 5 25.1226 3.7613 9.7300 0.0000 22.0996 0.0000
# 6 0.0000 0.0000 0.0000 1.2427 0.0000 15.4282
#
#
#
# Elastic Compliance Matrix: (Units=1/GPa)
#
#
# Indices 1 2 3 4 5 6 
#
# 1 0.012339 -0.004735 -0.008021 0.000000 -0.009690 0.000000
# 2 -0.004735 0.018180 -0.004322 0.000000 0.004191 0.000000
# 3 -0.008021 -0.004322 0.026724 0.000000 -0.001913 0.000000
# 4 0.000000 0.000000 0.000000 0.152329 0.000000 -0.012270
# 5 -0.009690 0.004191 -0.001913 0.000000 0.056394 0.000000
# 6 0.000000 0.000000 0.000000 -0.012270 0.000000 0.065805
#
#
# Mechanical properties :
#
#
# Convention : Reuss Voigt Hill
#
# Bulk Modulus (GPa) = 43.31196 61.18226 52.24711
# Shear Modulus (GPa) = 13.38250 19.31220 16.34735
#
# Velocity S-wave (km/s) = 2.84310 3.41538 3.14229
# Velocity P-wave (km/s) = 6.07771 7.24624 6.68755
#
# Compressibility (1/GPa) = 0.02308831
#
# Stress axis : x y z
#
# Youngs Moduli (GPa) = 81.04189 55.00547 37.41938
#
# Poissons Ratio (x) = 0.26043 0.30013
# Poissons Ratio (y) = 0.38370 0.16174
# Poissons Ratio (z) = 0.65001 0.23775
#
# Static dielectric constant tensor:
#      x y z
#    x 3.597810 0.000000 0.336980 
#    y 0.000000 2.935200 0.000000 
#    z 0.336980 0.000000 2.781870 
# 
# 
# High freq. dielectric constant tensor:
#      x y z
#    x 1.656370 0.000000 0.026680 
#    y 0.000000 1.626090 0.000000 
#    z 0.026680 0.000000 1.576880 
# 
# From -- ./inp_files/56293.got.cif
#   From: 2010.06.25/outbox.cif.g09.slc.cpg/sg10_29_cif.got.tgz:56293.got - 2010.06.27 22:07:45.
