data_PCOD8056688
_publ_section_title
;
Structure prediction by ZEFSAII (Michael W. Deem and Ramdas Pophale) SiO2 
 PCOD8056688
Probable space group: C C
;
_chemical_formula_sum "Si O2"
_cell_formula_units_Z 28
_cell_length_a 10.114200
_cell_length_b 11.196957
_cell_length_c 14.595208
_cell_angle_alpha 90.000000
_cell_angle_beta 143.084300
_cell_angle_gamma 90.000000
_cell_volume 992.785905
_symmetry_space_group_name_H-M "C C"
_symmetry_group_IT_number 9
_symmetry_cell_setting 'monoclinic'
loop_
_space_group_symop_operation_xyz
x,y,z
x,-y,1/2+z
1/2+x,1/2+y,z
1/2+x,1/2-y,1/2+z
loop_
_atom_site_type_symbol
_atom_site_label
_atom_site_fract_x
_atom_site_fract_y
_atom_site_fract_z
Si Si1 0.003010 0.405295 0.645940
Si Si2 0.279855 0.405127 0.213917
Si Si3 0.597672 0.214066 0.895700
Si Si4 0.164636 0.963856 0.863002
Si Si5 0.384022 0.690241 0.463145
Si Si6 0.506615 0.308996 0.516734
Si Si7 0.256181 0.981028 0.216577
O O1 0.200338 0.461299 0.695347
O O2 0.133454 0.357575 0.808107
O O3 0.816762 0.511538 0.539812
O O4 0.872623 0.294015 0.531238
O O5 0.476688 0.434766 0.254022
O O6 0.356707 0.332653 0.346018
O O7 0.092887 0.327089 0.059959
O O8 0.571906 0.329138 0.814750
O O9 0.512895 0.252437 0.948120
O O10 0.448903 0.101046 0.780446
O O11 0.853462 0.173595 0.023786
O O12 0.307865 0.986512 0.850688
O O13 0.520301 0.581546 0.578985
O O14 0.722825 0.396060 0.639575
#
# Coordination Sequence:
#
# PCOD8056688 Si02
#       7
#     4   4   4   4   4   4   4
#     4  12  24  48  76 117 159 212 275 338 412 496
#     4  12  28  51  75 118 165 213 280 338 415 495
#     4  12  26  49  86 111 163 219 269 341 417 487
#     4  12  26  51  83 111 166 211 270 348 405 489
#     4  12  24  48  78 116 161 202 280 339 408 485
#     4  12  29  50  79 114 164 216 274 340 413 498
#     4  12  27  49  77 125 152 213 282 332 416 502
#
# _framework density 28.203464
#
# number of rings (size 3 to 8) (size 9 to 14) (size 15 to 20)
#    0.000    0.000    7.143    0.857    6.000    3.429 
#    2.571    0.000    0.000    0.000    0.000    0.000 
#    0.000    0.000    0.000    0.000    0.000    0.000 
#
# Total GULP energy -173477.028531 kJ/mol
# GULP energy per Si atom -12391.216324 kJ/mol
# Density = 2.813927 g / cm^3
# Si number density = 28.203464 Si / 1000 Ang^3
#
#
#
# Elastic Constant Matrix: (Units=GPa)
#
#
# Indices 1 2 3 4 5 6 
#
# 1 42.8861 12.4218 12.3184 0.0001 9.3583 0.0000
# 2 12.4218 157.8091 58.6829 0.0005 3.2555 0.0001
# 3 12.3184 58.6829 126.3046 0.0014 10.4505 0.0004
# 4 0.0001 0.0005 0.0014 54.4079 0.0004 11.8899
# 5 9.3583 3.2555 10.4505 0.0004 38.0247 0.0001
# 6 0.0000 0.0001 0.0004 11.8899 0.0001 45.9266
#
#
#
# Elastic Compliance Matrix: (Units=1/GPa)
#
#
# Indices 1 2 3 4 5 6 
#
# 1 0.025360 -0.001372 -0.001360 0.000000 -0.005750 0.000000
# 2 -0.001372 0.007738 -0.003515 0.000000 0.000641 0.000000
# 3 -0.001360 -0.003515 0.009854 0.000000 -0.002073 0.000000
# 4 0.000000 0.000000 0.000000 0.019482 0.000000 -0.005044
# 5 -0.005750 0.000641 -0.002073 0.000000 0.028229 0.000000
# 6 0.000000 0.000000 0.000000 -0.005044 0.000000 0.023080
#
#
# Mechanical properties :
#
#
# Convention : Reuss Voigt Hill
#
# Bulk Modulus (GPa) = 32.82995 54.87176 43.85086
# Shear Modulus (GPa) = 36.65951 43.91029 40.28490
#
# Velocity S-wave (km/s) = 3.60922 3.95005 3.78347
# Velocity P-wave (km/s) = 5.38835 6.34837 5.88796
#
# Compressibility (1/GPa) = 0.03045999
#
# Stress axis : x y z
#
# Youngs Moduli (GPa) = 39.43155 129.22421 101.47659
#
# Poissons Ratio (x) = 0.17727 0.13803
# Poissons Ratio (y) = 0.05409 0.35666
# Poissons Ratio (z) = 0.05364 0.45418
#
# Static dielectric constant tensor:
#      x y z
#    x 4.862190 0.000000 0.235290 
#    y 0.000000 5.433860 0.000000 
#    z 0.235290 0.000000 5.154970 
# 
# 
# High freq. dielectric constant tensor:
#      x y z
#    x 2.122220 0.000000 0.013750 
#    y 0.000000 2.164000 0.000000 
#    z 0.013750 0.000000 2.144950 
# 
# From -- ./inp_files/30093.got.cif
#   From: 2010.06.25/outbox.cif.g09.slc.cpg/sg9_16_cif.got.tgz:30093.got - 2010.06.27 21:40:51.
