data_PCOD8056899
_publ_section_title
;
Structure prediction by ZEFSAII (Michael W. Deem and Ramdas Pophale) SiO2 
 PCOD8056899
Probable space group: P 2/M
;
_chemical_formula_sum "Si O2"
_cell_formula_units_Z 30
_cell_length_a 14.685746
_cell_length_b 9.654741
_cell_length_c 11.511888
_cell_angle_alpha 90.000000
_cell_angle_beta 109.887561
_cell_angle_gamma 90.000000
_cell_volume 1534.893574
_symmetry_space_group_name_H-M "P 2/M"
_symmetry_group_IT_number 10
_symmetry_cell_setting 'monoclinic'
loop_
_space_group_symop_operation_xyz
x,y,z
-x,y,-z
-x,-y,-z
x,-y,z
loop_
_atom_site_type_symbol
_atom_site_label
_atom_site_fract_x
_atom_site_fract_y
_atom_site_fract_z
Si Si1 0.000000 0.744152 0.000000
Si Si2 0.932810 0.155625 0.732752
Si Si3 0.306694 0.158103 0.672273
Si Si4 0.645047 0.661040 0.771024
Si Si5 0.191122 0.653896 0.980812
Si Si6 0.720354 0.163916 0.602585
Si Si7 0.135786 0.840041 0.754048
Si Si8 0.466022 0.661281 0.857456
O O1 0.041920 0.840755 0.119924
O O2 0.084108 0.646132 0.988206
O O3 0.829475 0.228056 0.662695
O O4 0.024736 0.218763 0.699737
O O5 0.918060 0.000000 0.683755
O O6 0.317499 0.197104 0.542538
O O7 0.192952 0.176668 0.657793
O O8 0.370938 0.255348 0.780806
O O9 0.338781 0.000000 0.708296
O O10 0.651178 0.500000 0.738018
O O11 0.734541 0.705975 0.889986
O O12 0.648292 0.755349 0.657428
O O13 0.547516 0.694120 0.797931
O O14 0.220531 0.500000 0.950797
O O15 0.197654 0.758873 0.877082
O O16 0.716954 0.000000 0.629050
O O17 0.130289 0.000000 0.791738
O O18 0.439083 0.500000 0.848294
O O19 0.500000 0.709495 0.000000
#
# Coordination Sequence:
#
# PCOD8056899 Si02
#       8
#     2   4   4   4   4   4   4   4
#     4  10  16  28  50  78 109 146 181 222 273 320
#     4   9  17  30  51  80 112 148 188 225 267 323
#     4  10  22  39  58  82 113 145 186 233 279 325
#     4  10  21  37  56  82 112 145 183 225 274 331
#     4  10  19  31  51  80 111 141 178 226 277 327
#     4  10  21  37  56  81 114 153 186 222 272 328
#     4   9  19  34  53  79 109 146 187 231 274 323
#     4  10  22  41  65  86 108 141 183 229 280 334
#
# _framework density 19.545328999999999
#
# number of rings (size 3 to 8) (size 9 to 14) (size 15 to 20)
#    0.000    2.267    1.333    1.200    0.000    5.067 
#    0.000    5.333    0.000    0.000    0.000    3.733 
#    0.000    0.000    0.000    0.000    0.000    0.000 
#
# Total GULP energy -371908.078334 kJ/mol
# GULP energy per Si atom -12396.935944 kJ/mol
# Density = 1.950084 g / cm^3
# Si number density = 19.545329 Si / 1000 Ang^3
#
#
#
# Elastic Constant Matrix: (Units=GPa)
#
#
# Indices 1 2 3 4 5 6 
#
# 1 98.2497 33.0245 44.1292 0.0000 -11.5253 0.0000
# 2 33.0245 54.8721 33.0233 0.0000 -7.8255 0.0000
# 3 44.1292 33.0233 81.3487 0.0000 -8.2489 0.0000
# 4 0.0000 0.0000 0.0000 26.8205 0.0000 -1.4896
# 5 -11.5253 -7.8255 -8.2489 0.0000 31.5659 0.0000
# 6 0.0000 0.0000 0.0000 -1.4896 0.0000 25.6408
#
#
#
# Elastic Compliance Matrix: (Units=1/GPa)
#
#
# Indices 1 2 3 4 5 6 
#
# 1 0.014742 -0.005087 -0.005664 0.000000 0.002641 0.000000
# 2 -0.005087 0.026257 -0.007630 0.000000 0.002658 0.000000
# 3 -0.005664 -0.007630 0.018553 0.000000 0.000889 0.000000
# 4 0.000000 0.000000 0.000000 0.037406 0.000000 0.002173
# 5 0.002641 0.002658 0.000889 0.000000 0.033535 0.000000
# 6 0.000000 0.000000 0.000000 0.002173 0.000000 0.039127
#
#
# Mechanical properties :
#
#
# Convention : Reuss Voigt Hill
#
# Bulk Modulus (GPa) = 43.87961 50.53604 47.20782
# Shear Modulus (GPa) = 23.36701 25.09170 24.22935
#
# Velocity S-wave (km/s) = 3.46139 3.58686 3.52469
# Velocity P-wave (km/s) = 6.20273 6.56247 6.38514
#
# Compressibility (1/GPa) = 0.02278963
#
# Stress axis : x y z
#
# Youngs Moduli (GPa) = 67.83380 38.08578 53.90007
#
# Poissons Ratio (x) = 0.19373 0.30530
# Poissons Ratio (y) = 0.34506 0.41125
# Poissons Ratio (z) = 0.38423 0.29059
#
# Static dielectric constant tensor:
#      x y z
#    x 3.750140 0.000000 -0.052560 
#    y 0.000000 3.293880 0.000000 
#    z -0.052560 0.000000 3.397770 
# 
# 
# High freq. dielectric constant tensor:
#      x y z
#    x 1.775940 0.000000 -0.004890 
#    y 0.000000 1.738490 0.000000 
#    z -0.004890 0.000000 1.748390 
# 
# From -- ./inp_files/49992.got.cif
#   From: 2010.06.25/outbox.cif.g09.slc.cpg/sg10_25_cif.got.tgz:49992.got - 2010.06.27 22:07:45.
