data_PCOD8056650
_publ_section_title
;
Structure prediction by ZEFSAII (Michael W. Deem and Ramdas Pophale) SiO2 
 PCOD8056650
Probable space group: C C
;
_chemical_formula_sum "Si O2"
_cell_formula_units_Z 20
_cell_length_a 8.222857
_cell_length_b 16.082543
_cell_length_c 7.822025
_cell_angle_alpha 90.000000
_cell_angle_beta 57.105697
_cell_angle_gamma 90.000000
_cell_volume 868.574943
_symmetry_space_group_name_H-M "C C"
_symmetry_group_IT_number 9
_symmetry_cell_setting 'monoclinic'
loop_
_space_group_symop_operation_xyz
x,y,z
x,-y,1/2+z
1/2+x,1/2+y,z
1/2+x,1/2-y,1/2+z
loop_
_atom_site_type_symbol
_atom_site_label
_atom_site_fract_x
_atom_site_fract_y
_atom_site_fract_z
Si Si1 0.076270 0.000317 0.695930
Si Si2 0.273322 0.162408 0.171727
Si Si3 0.932934 0.616986 0.429692
Si Si4 0.572637 0.166241 0.705380
Si Si5 0.281398 0.502665 0.108611
O O1 0.134163 0.916950 0.765629
O O2 0.247394 0.066586 0.602093
O O3 0.005195 0.978883 0.545966
O O4 0.852423 0.031191 0.878024
O O5 0.387912 0.171417 0.286953
O O6 0.155886 0.245863 0.212391
O O7 0.405526 0.143321 0.933459
O O8 0.994640 0.674206 0.554416
O O9 0.106107 0.554794 0.283731
O O10 0.731805 0.094723 0.626206
#
# Coordination Sequence:
#
# PCOD8056650 Si02
#       5
#     4   4   4   4   4
#     4  12  23  45  78 104 139 188 239 293 359 426
#     4  12  27  48  70 107 149 187 240 298 356 425
#     4  12  26  50  74 106 146 190 242 298 350 432
#     4  12  27  48  70 107 149 187 240 298 356 425
#     4  12  23  45  78 104 139 188 239 293 359 426
#
# _framework density 23.026223000000002
#
# number of rings (size 3 to 8) (size 9 to 14) (size 15 to 20)
#    0.000    0.000    6.000    4.800    0.000    1.600 
#    3.600    0.000    0.000    0.000    0.000    0.000 
#    0.000    0.000    0.000    0.000    0.000    0.000 
#
# Total GULP energy -123884.139295 kJ/mol
# GULP energy per Si atom -12388.413930 kJ/mol
# Density = 2.297381 g / cm^3
# Si number density = 23.026223 Si / 1000 Ang^3
#
#
#
# Elastic Constant Matrix: (Units=GPa)
#
#
# Indices 1 2 3 4 5 6 
#
# 1 137.1766 31.4804 16.1600 0.0000 24.0173 0.0000
# 2 31.4804 55.5634 19.3120 0.0000 13.9594 0.0000
# 3 16.1600 19.3120 131.7838 0.0000 -12.5361 0.0000
# 4 0.0000 0.0000 0.0000 19.6233 0.0000 7.1754
# 5 24.0173 13.9594 -12.5361 0.0000 49.7930 0.0000
# 6 0.0000 0.0000 0.0000 7.1754 0.0000 31.2687
#
#
#
# Elastic Compliance Matrix: (Units=1/GPa)
#
#
# Indices 1 2 3 4 5 6 
#
# 1 0.008876 -0.003880 -0.000844 0.000000 -0.003406 0.000000
# 2 -0.003880 0.022705 -0.003359 0.000000 -0.005340 0.000000
# 3 -0.000844 -0.003359 0.008516 0.000000 0.003493 0.000000
# 4 0.000000 0.000000 0.000000 0.055627 0.000000 -0.012765
# 5 -0.003406 -0.005340 0.003493 0.000000 0.024102 0.000000
# 6 0.000000 0.000000 0.000000 -0.012765 0.000000 0.034910
#
#
# Mechanical properties :
#
#
# Convention : Reuss Voigt Hill
#
# Bulk Modulus (GPa) = 41.78718 50.93653 46.36185
# Shear Modulus (GPa) = 27.95167 37.30843 32.63005
#
# Velocity S-wave (km/s) = 3.48790 4.02961 3.76850
# Velocity P-wave (km/s) = 5.86580 6.61963 6.25408
#
# Compressibility (1/GPa) = 0.02393078
#
# Stress axis : x y z
#
# Youngs Moduli (GPa) = 112.66337 44.04359 117.42287
#
# Poissons Ratio (x) = 0.17088 0.09909
# Poissons Ratio (y) = 0.43712 0.39447
# Poissons Ratio (z) = 0.09507 0.14796
#
# Static dielectric constant tensor:
#      x y z
#    x 4.592020 0.000000 0.271070 
#    y 0.000000 3.816660 0.000000 
#    z 0.271070 0.000000 4.625610 
# 
# 
# High freq. dielectric constant tensor:
#      x y z
#    x 1.935390 0.000000 0.011110 
#    y 0.000000 1.878030 0.000000 
#    z 0.011110 0.000000 1.953750 
# 
# From -- ./inp_files/4736.got.cif
#   From: 2010.06.25/outbox.cif.g09.slc.cpg/sg9_3_cif.got.tgz:4736.got - 2010.06.27 21:40:51.
