data_PCOD8056844
_publ_section_title
;
Structure prediction by ZEFSAII (Michael W. Deem and Ramdas Pophale) SiO2 
 PCOD8056844
Probable space group: P 2/M
;
_chemical_formula_sum "Si O2"
_cell_formula_units_Z 32
_cell_length_a 15.812178
_cell_length_b 14.446770
_cell_length_c 11.299542
_cell_angle_alpha 90.000000
_cell_angle_beta 58.320347
_cell_angle_gamma 90.000000
_cell_volume 2196.603449
_symmetry_space_group_name_H-M "P 2/M"
_symmetry_group_IT_number 10
_symmetry_cell_setting 'monoclinic'
loop_
_space_group_symop_operation_xyz
x,y,z
-x,y,-z
-x,-y,-z
x,-y,z
loop_
_atom_site_type_symbol
_atom_site_label
_atom_site_fract_x
_atom_site_fract_y
_atom_site_fract_z
Si Si1 0.170595 0.290697 0.055994
Si Si2 0.602438 0.606456 0.493000
Si Si3 0.869177 0.898737 0.209502
Si Si4 0.978114 0.396409 0.154072
Si Si5 0.087866 0.101268 0.097936
Si Si6 0.214250 0.290598 0.748024
Si Si7 0.347871 0.609086 0.047227
Si Si8 0.550871 0.608499 0.787720
O O1 0.206250 0.300838 0.894935
O O2 0.067197 0.343730 0.154216
O O3 0.153547 0.183373 0.106366
O O4 0.251484 0.333573 0.083138
O O5 0.500000 0.615056 0.500000
O O6 0.639127 0.500000 0.468568
O O7 0.681365 0.668392 0.366956
O O8 0.588769 0.648401 0.635015
O O9 0.790998 0.816502 0.291385
O O10 0.970614 0.882796 0.209469
O O11 0.823167 0.000000 0.275288
O O12 0.897774 0.895314 0.052118
O O13 0.970460 0.500000 0.211148
O O14 0.874225 0.344963 0.252927
O O15 0.000000 0.397857 0.000000
O O16 0.121045 0.000000 0.123171
O O17 0.329236 0.500000 0.040063
O O18 0.369152 0.630762 0.169345
O O19 0.441544 0.646417 0.902096
O O20 0.536677 0.500000 0.784816
#
# Coordination Sequence:
#
# PCOD8056844 Si02
#       8
#     4   4   4   4   4   4   4   4
#     4  10  16  23  38  62  85 107 137 167 201 245
#     4  10  19  29  42  60  83 110 138 167 199 239
#     4   8  13  23  38  55  79 110 138 165 203 245
#     4   9  16  23  31  51  85 114 132 157 196 241
#     4   8  13  22  36  56  83 108 133 170 205 238
#     4  10  17  25  38  59  85 111 136 164 205 247
#     4   9  16  27  44  61  80 106 136 172 203 233
#     4   8  16  30  43  58  79 106 142 173 198 231
#
# _framework density 14.567945999999999
#
# number of rings (size 3 to 8) (size 9 to 14) (size 15 to 20)
#    0.000    3.000    1.250    3.000    0.000    2.500 
#    0.000    0.000    0.000    1.125    0.000    7.000 
#    0.000    2.000    0.000    0.000    0.000    0.000 
#
# Total GULP energy -396554.272687 kJ/mol
# GULP energy per Si atom -12392.321021 kJ/mol
# Density = 1.453479 g / cm^3
# Si number density = 14.567946 Si / 1000 Ang^3
#
#
#
# Elastic Constant Matrix: (Units=GPa)
#
#
# Indices 1 2 3 4 5 6 
#
# 1 82.4070 45.9921 17.8664 0.0000 -5.5176 0.0000
# 2 45.9921 107.8017 24.1307 0.0000 -8.8186 0.0000
# 3 17.8664 24.1307 42.6597 0.0000 -2.4957 0.0000
# 4 0.0000 0.0000 0.0000 11.0295 0.0000 -3.9258
# 5 -5.5176 -8.8186 -2.4957 0.0000 17.1649 0.0000
# 6 0.0000 0.0000 0.0000 -3.9258 0.0000 12.9183
#
#
#
# Elastic Compliance Matrix: (Units=1/GPa)
#
#
# Indices 1 2 3 4 5 6 
#
# 1 0.016372 -0.006111 -0.003304 0.000000 0.001643 0.000000
# 2 -0.006111 0.013279 -0.004708 0.000000 0.004173 0.000000
# 3 -0.003304 -0.004708 0.027518 0.000000 0.000520 0.000000
# 4 0.000000 0.000000 0.000000 0.101663 0.000000 0.030895
# 5 0.001643 0.004173 0.000520 0.000000 0.061006 0.000000
# 6 0.000000 0.000000 0.000000 0.030895 0.000000 0.086798
#
#
# Mechanical properties :
#
#
# Convention : Reuss Voigt Hill
#
# Bulk Modulus (GPa) = 34.57356 45.42742 40.00049
# Shear Modulus (GPa) = 14.51288 17.88117 16.19702
#
# Velocity S-wave (km/s) = 3.15972 3.50727 3.33802
# Velocity P-wave (km/s) = 6.09064 6.90305 6.50953
#
# Compressibility (1/GPa) = 0.02892384
#
# Stress axis : x y z
#
# Youngs Moduli (GPa) = 61.08103 75.30949 36.33929
#
# Poissons Ratio (x) = 0.46020 0.12006
# Poissons Ratio (y) = 0.37325 0.17107
# Poissons Ratio (z) = 0.20181 0.35453
#
# Static dielectric constant tensor:
#      x y z
#    x 2.711080 0.000000 -0.047280 
#    y 0.000000 3.050330 0.000000 
#    z -0.047280 0.000000 2.677670 
# 
# 
# High freq. dielectric constant tensor:
#      x y z
#    x 1.545810 0.000000 -0.013600 
#    y 0.000000 1.548840 0.000000 
#    z -0.013600 0.000000 1.514660 
# 
# From -- ./inp_files/51268.got.cif
#   From: 2010.06.25/outbox.cif.g09.slc.cpg/sg10_26_cif.got.tgz:51268.got - 2010.06.27 22:07:45.
