data_PCOD8056165
_publ_section_title
;
Structure prediction by ZEFSAII (Michael W. Deem and Ramdas Pophale) SiO2 
 PCOD8056165
Probable space group: C C
;
_chemical_formula_sum "Si O2"
_cell_formula_units_Z 28
_cell_length_a 13.946335
_cell_length_b 12.239356
_cell_length_c 7.854235
_cell_angle_alpha 90.000000
_cell_angle_beta 114.421510
_cell_angle_gamma 90.000000
_cell_volume 1220.720111
_symmetry_space_group_name_H-M "C C"
_symmetry_group_IT_number 9
_symmetry_cell_setting 'monoclinic'
loop_
_space_group_symop_operation_xyz
x,y,z
x,-y,1/2+z
1/2+x,1/2+y,z
1/2+x,1/2-y,1/2+z
loop_
_atom_site_type_symbol
_atom_site_label
_atom_site_fract_x
_atom_site_fract_y
_atom_site_fract_z
Si Si1 0.195920 0.785712 0.762100
Si Si2 0.005667 0.573591 0.915283
Si Si3 0.829077 0.135521 0.357602
Si Si4 0.062521 0.811291 0.997870
Si Si5 0.358067 0.055572 0.518888
Si Si6 0.218192 0.156378 0.911458
Si Si7 0.723215 0.932808 0.440706
O O1 0.112015 0.821924 0.844805
O O2 0.306374 0.847605 0.874041
O O3 0.156509 0.814906 0.542436
O O4 0.217891 0.655855 0.784781
O O5 0.899541 0.602609 0.729095
O O6 0.968708 0.482475 0.019858
O O7 0.043707 0.684904 0.032595
O O8 0.105211 0.522546 0.888319
O O9 0.801756 0.248165 0.432911
O O10 0.953371 0.123634 0.417820
O O11 0.797218 0.032898 0.449401
O O12 0.766737 0.132654 0.135199
O O13 0.137550 0.862305 0.197143
O O14 0.277995 0.956565 0.487965
#
# Coordination Sequence:
#
# PCOD8056165 Si02
#       7
#     4   4   4   4   4   4   4
#     4  11  25  48  74 108 147 191 250 309 369 445
#     4  11  22  43  73 107 140 192 243 306 363 431
#     4  12  24  49  72 104 154 193 247 311 374 444
#     4  11  26  49  73 104 153 195 240 306 375 446
#     4  12  23  44  76 109 145 189 249 311 364 441
#     4  12  25  47  76 110 149 191 251 311 375 440
#     4  11  25  46  72 104 148 191 250 308 366 445
#
# _framework density 22.937280000000001
#
# number of rings (size 3 to 8) (size 9 to 14) (size 15 to 20)
#    0.000    0.571    5.714    3.429    0.000    2.286 
#   10.286    0.000    0.000    0.000    0.000    0.000 
#    0.000    0.000    0.000    0.000    0.000    0.000 
#
# Total GULP energy -173628.996364 kJ/mol
# GULP energy per Si atom -12402.071169 kJ/mol
# Density = 2.288507 g / cm^3
# Si number density = 22.937280 Si / 1000 Ang^3
#
#
#
# Elastic Constant Matrix: (Units=GPa)
#
#
# Indices 1 2 3 4 5 6 
#
# 1 134.2047 37.2867 35.7791 0.0000 7.6171 0.0000
# 2 37.2867 70.4505 -1.8496 0.0000 4.6049 0.0000
# 3 35.7791 -1.8496 101.9274 0.0000 0.9834 0.0000
# 4 0.0000 0.0000 0.0000 30.1776 0.0000 8.7200
# 5 7.6171 4.6049 0.9834 0.0000 41.3548 0.0000
# 6 0.0000 0.0000 0.0000 8.7200 0.0000 31.0838
#
#
#
# Elastic Compliance Matrix: (Units=1/GPa)
#
#
# Indices 1 2 3 4 5 6 
#
# 1 0.009935 -0.005277 -0.003572 0.000000 -0.001157 0.000000
# 2 -0.005277 0.017108 0.002172 0.000000 -0.000985 0.000000
# 3 -0.003572 0.002172 0.011103 0.000000 0.000152 0.000000
# 4 0.000000 0.000000 0.000000 0.036060 0.000000 -0.010116
# 5 -0.001157 -0.000985 0.000152 0.000000 0.024500 0.000000
# 6 0.000000 0.000000 0.000000 -0.010116 0.000000 0.035009
#
#
# Mechanical properties :
#
#
# Convention : Reuss Voigt Hill
#
# Bulk Modulus (GPa) = 40.33316 49.89058 45.11187
# Shear Modulus (GPa) = 32.18880 36.21431 34.20156
#
# Velocity S-wave (km/s) = 3.75018 3.97777 3.86565
# Velocity P-wave (km/s) = 6.03109 6.54943 6.29560
#
# Compressibility (1/GPa) = 0.02479349
#
# Stress axis : x y z
#
# Youngs Moduli (GPa) = 100.65082 58.45076 90.06767
#
# Poissons Ratio (x) = 0.30842 0.32173
# Poissons Ratio (y) = 0.53109 -0.19564
# Poissons Ratio (z) = 0.35954 -0.12696
#
# Static dielectric constant tensor:
#      x y z
#    x 4.334730 0.000000 -0.051220 
#    y 0.000000 4.014300 0.000000 
#    z -0.051220 0.000000 4.152550 
# 
# 
# High freq. dielectric constant tensor:
#      x y z
#    x 1.909190 0.000000 -0.000780 
#    y 0.000000 1.903900 0.000000 
#    z -0.000780 0.000000 1.908880 
# 
# From -- ./inp_files/9019.got.cif
#   From: 2010.06.25/outbox.cif.g09.slc.cpg/sg9_5_cif.got.tgz:9019.got - 2010.06.27 21:40:51.
