data_PCOD8056725
_publ_section_title
;
Structure prediction by ZEFSAII (Michael W. Deem and Ramdas Pophale) SiO2 
 PCOD8056725
Probable space group: C C
;
_chemical_formula_sum "Si O2"
_cell_formula_units_Z 28
_cell_length_a 21.858416
_cell_length_b 5.020337
_cell_length_c 14.752786
_cell_angle_alpha 90.000000
_cell_angle_beta 136.284589
_cell_angle_gamma 90.000000
_cell_volume 1118.798672
_symmetry_space_group_name_H-M "C C"
_symmetry_group_IT_number 9
_symmetry_cell_setting 'monoclinic'
loop_
_space_group_symop_operation_xyz
x,y,z
x,-y,1/2+z
1/2+x,1/2+y,z
1/2+x,1/2-y,1/2+z
loop_
_atom_site_type_symbol
_atom_site_label
_atom_site_fract_x
_atom_site_fract_y
_atom_site_fract_z
Si Si1 0.725670 0.925320 0.803990
Si Si2 0.555283 0.298009 0.061556
Si Si3 0.499223 0.210364 0.610610
Si Si4 0.021314 0.373133 0.332866
Si Si5 0.209405 0.512825 0.490268
Si Si6 0.329080 0.993691 0.166504
Si Si7 0.820767 0.571042 0.362479
O O1 0.658585 0.773080 0.664644
O O2 0.683859 0.990645 0.856667
O O3 0.802834 0.704057 0.897603
O O4 0.743786 0.207461 0.775133
O O5 0.546265 0.591742 0.091757
O O6 0.512628 0.088568 0.086244
O O7 0.514454 0.308408 0.915939
O O8 0.531907 0.278430 0.747740
O O9 0.393575 0.241999 0.495464
O O10 0.114425 0.536041 0.441070
O O11 0.926517 0.525909 0.223658
O O12 0.268187 0.762208 0.576853
O O13 0.271788 0.262293 0.578105
O O14 0.351551 0.984791 0.296384
#
# Coordination Sequence:
#
# PCOD8056725 Si02
#       7
#     4   4   4   4   4   4   4
#     4  12  25  49  76 109 158 198 256 326 382 461
#     4  12  27  48  76 112 153 201 256 314 387 462
#     4  12  27  48  76 112 153 201 256 314 387 462
#     4  12  28  52  84 114 162 206 258 328 394 464
#     4  12  28  49  78 116 155 205 263 318 391 465
#     4  12  28  49  78 116 155 205 263 318 391 465
#     4  12  25  49  76 109 158 198 256 326 382 461
#
# _framework density 25.026845999999999
#
# number of rings (size 3 to 8) (size 9 to 14) (size 15 to 20)
#    0.000    0.000    2.857    6.857    4.000    4.571 
#    0.000    0.000    0.000    0.000    0.000    0.000 
#    0.000    0.000    0.000    0.000    0.000    0.000 
#
# Total GULP energy -173504.104469 kJ/mol
# GULP energy per Si atom -12393.150319 kJ/mol
# Density = 2.496988 g / cm^3
# Si number density = 25.026846 Si / 1000 Ang^3
#
#
#
# Elastic Constant Matrix: (Units=GPa)
#
#
# Indices 1 2 3 4 5 6 
#
# 1 140.4197 42.3499 51.1362 -0.0002 15.0264 0.0004
# 2 42.3499 129.1209 23.4846 -0.0025 11.0001 -0.0047
# 3 51.1362 23.4846 137.6354 -0.0002 -12.4180 -0.0003
# 4 -0.0002 -0.0025 -0.0002 32.6375 -0.0007 -0.7806
# 5 15.0264 11.0001 -12.4180 -0.0007 60.5609 -0.0023
# 6 0.0004 -0.0047 -0.0003 -0.7806 -0.0023 38.6920
#
#
#
# Elastic Compliance Matrix: (Units=1/GPa)
#
#
# Indices 1 2 3 4 5 6 
#
# 1 0.009267 -0.002221 -0.003296 0.000000 -0.002572 -0.000001
# 2 -0.002221 0.008714 -0.000769 0.000001 -0.001190 0.000001
# 3 -0.003296 -0.000769 0.008872 0.000000 0.002777 0.000000
# 4 0.000000 0.000001 0.000000 0.030654 0.000000 0.000618
# 5 -0.002572 -0.001190 0.002777 0.000000 0.017936 0.000001
# 6 -0.000001 0.000001 0.000000 0.000618 0.000001 0.025858
#
#
# Mechanical properties :
#
#
# Convention : Reuss Voigt Hill
#
# Bulk Modulus (GPa) = 70.02267 71.23525 70.62896
# Shear Modulus (GPa) = 42.14674 45.72510 43.93592
#
# Velocity S-wave (km/s) = 4.10818 4.27903 4.19448
# Velocity P-wave (km/s) = 7.10934 7.27590 7.19310
#
# Compressibility (1/GPa) = 0.01428109
#
# Stress axis : x y z
#
# Youngs Moduli (GPa) = 107.91215 114.75386 112.71520
#
# Poissons Ratio (x) = 0.25485 0.37151
# Poissons Ratio (y) = 0.23965 0.08669
# Poissons Ratio (z) = 0.35568 0.08826
#
# Static dielectric constant tensor:
#      x y z
#    x 4.782440 -0.000020 0.106710 
#    y -0.000020 4.377310 -0.000020 
#    z 0.106710 -0.000020 4.921210 
# 
# 
# High freq. dielectric constant tensor:
#      x y z
#    x 2.012240 0.000000 0.007150 
#    y 0.000000 1.980690 0.000000 
#    z 0.007150 0.000000 2.019580 
# 
# From -- ./inp_files/27114.got.cif
#   From: 2010.06.25/outbox.cif.g09.slc.cpg/sg9_14_cif.got.tgz:27114.got - 2010.06.27 21:40:51.
