data_PCOD8056717
_publ_section_title
;
Structure prediction by ZEFSAII (Michael W. Deem and Ramdas Pophale) SiO2 
 PCOD8056717
Probable space group: C C
;
_chemical_formula_sum "Si O2"
_cell_formula_units_Z 32
_cell_length_a 11.615270
_cell_length_b 13.327756
_cell_length_c 11.600403
_cell_angle_alpha 90.000000
_cell_angle_beta 129.206743
_cell_angle_gamma 90.000000
_cell_volume 1391.516382
_symmetry_space_group_name_H-M "C C"
_symmetry_group_IT_number 9
_symmetry_cell_setting 'monoclinic'
loop_
_space_group_symop_operation_xyz
x,y,z
x,-y,1/2+z
1/2+x,1/2+y,z
1/2+x,1/2-y,1/2+z
loop_
_atom_site_type_symbol
_atom_site_label
_atom_site_fract_x
_atom_site_fract_y
_atom_site_fract_z
Si Si1 0.464530 0.436672 0.484690
Si Si2 0.877254 0.354249 0.044580
Si Si3 0.359669 0.671022 0.699646
Si Si4 0.644359 0.276510 0.721526
Si Si5 0.567184 0.802258 0.675608
Si Si6 0.703639 0.035482 0.426888
Si Si7 0.684450 0.394966 0.138792
Si Si8 0.953549 0.533745 0.937804
O O1 0.464945 0.374328 0.366134
O O2 0.573428 0.382922 0.643802
O O3 0.293556 0.446323 0.419245
O O4 0.528889 0.549682 0.514209
O O5 0.767357 0.392823 0.070631
O O6 0.008082 0.288937 0.185554
O O7 0.781866 0.286920 0.895800
O O8 0.961729 0.445231 0.035596
O O9 0.209581 0.722645 0.649739
O O10 0.445099 0.756096 0.682936
O O11 0.315567 0.577500 0.593297
O O12 0.668207 0.876891 0.813887
O O13 0.664235 0.714773 0.679709
O O14 0.495785 0.861973 0.524341
O O15 0.558098 0.988435 0.393741
O O16 0.784414 0.459859 0.288843
#
# Coordination Sequence:
#
# PCOD8056717 Si02
#       8
#     4   4   4   4   4   4   4   4
#     4  12  28  47  75 110 149 195 252 305 377 444
#     4  12  28  47  77 108 153 196 249 311 378 444
#     4  12  25  48  76 104 151 196 249 305 373 448
#     4  12  26  49  73 112 143 201 248 308 378 449
#     4  12  28  49  76 110 151 194 250 308 378 446
#     4  12  26  49  75 110 147 195 249 307 374 445
#     4  12  30  46  74 111 149 198 244 312 371 447
#     4  12  27  51  76 109 149 197 249 310 377 449
#
# _framework density 22.996497000000002
#
# number of rings (size 3 to 8) (size 9 to 14) (size 15 to 20)
#    0.000    0.000    5.000    3.750   10.500    0.000 
#    0.000    0.000    0.000    0.000    0.000    0.000 
#    0.000    0.000    0.000    0.000    0.000    0.000 
#
# Total GULP energy -198495.851176 kJ/mol
# GULP energy per Si atom -12405.990699 kJ/mol
# Density = 2.294416 g / cm^3
# Si number density = 22.996497 Si / 1000 Ang^3
#
#
#
# Elastic Constant Matrix: (Units=GPa)
#
#
# Indices 1 2 3 4 5 6 
#
# 1 122.7784 45.8277 25.2485 0.0000 1.7794 0.0000
# 2 45.8277 109.1707 31.5746 0.0000 1.9589 0.0000
# 3 25.2485 31.5746 71.7777 0.0000 8.6961 0.0000
# 4 0.0000 0.0000 0.0000 44.0860 0.0000 8.8052
# 5 1.7794 1.9589 8.6961 0.0000 33.5422 0.0000
# 6 0.0000 0.0000 0.0000 8.8052 0.0000 49.2271
#
#
#
# Elastic Compliance Matrix: (Units=1/GPa)
#
#
# Indices 1 2 3 4 5 6 
#
# 1 0.009878 -0.003596 -0.001915 0.000000 0.000182 0.000000
# 2 -0.003596 0.011816 -0.003998 0.000000 0.000537 0.000000
# 3 -0.001915 -0.003998 0.016853 0.000000 -0.004034 0.000000
# 4 0.000000 0.000000 0.000000 0.023523 0.000000 -0.004208
# 5 0.000182 0.000537 -0.004034 0.000000 0.030818 0.000000
# 6 0.000000 0.000000 0.000000 -0.004208 0.000000 0.021067
#
#
# Mechanical properties :
#
#
# Convention : Reuss Voigt Hill
#
# Bulk Modulus (GPa) = 51.20525 56.55871 53.88198
# Shear Modulus (GPa) = 35.84664 38.77613 37.31138
#
# Velocity S-wave (km/s) = 3.95243 4.11076 4.03237
# Velocity P-wave (km/s) = 6.56840 6.86870 6.72023
#
# Compressibility (1/GPa) = 0.01952925
#
# Stress axis : x y z
#
# Youngs Moduli (GPa) = 101.23335 84.62950 59.33681
#
# Poissons Ratio (x) = 0.30434 0.11363
# Poissons Ratio (y) = 0.36404 0.23723
# Poissons Ratio (z) = 0.19386 0.33835
#
# Static dielectric constant tensor:
#      x y z
#    x 4.155560 0.000000 0.001340 
#    y 0.000000 4.197530 0.000000 
#    z 0.001340 0.000000 4.182420 
# 
# 
# High freq. dielectric constant tensor:
#      x y z
#    x 1.915100 0.000000 0.005840 
#    y 0.000000 1.922670 0.000000 
#    z 0.005840 0.000000 1.914740 
# 
# From -- ./inp_files/16890.got.cif
#   From: 2010.06.25/outbox.cif.g09.slc.cpg/sg9_9_cif.got.tgz:16890.got - 2010.06.27 21:40:51.
