data_PCOD8056515
_publ_section_title
;
Structure prediction by ZEFSAII (Michael W. Deem and Ramdas Pophale) SiO2 
 PCOD8056515
Probable space group: C C
;
_chemical_formula_sum "Si O2"
_cell_formula_units_Z 20
_cell_length_a 13.467933
_cell_length_b 7.609069
_cell_length_c 18.790368
_cell_angle_alpha 90.000000
_cell_angle_beta 26.000826
_cell_angle_gamma 90.000000
_cell_volume 844.155692
_symmetry_space_group_name_H-M "C C"
_symmetry_group_IT_number 9
_symmetry_cell_setting 'monoclinic'
loop_
_space_group_symop_operation_xyz
x,y,z
x,-y,1/2+z
1/2+x,1/2+y,z
1/2+x,1/2-y,1/2+z
loop_
_atom_site_type_symbol
_atom_site_label
_atom_site_fract_x
_atom_site_fract_y
_atom_site_fract_z
Si Si1 0.777310 0.719589 0.469400
Si Si2 0.914578 0.936378 0.798140
Si Si3 0.219994 0.436350 0.639147
Si Si4 0.817291 0.943606 0.218635
Si Si5 0.857266 0.719605 0.967881
O O1 0.772915 0.768600 0.556232
O O2 0.528424 0.683283 0.599459
O O3 0.957234 0.562195 0.338207
O O4 0.879067 0.885362 0.362840
O O5 0.177337 0.937782 0.599080
O O6 0.764481 0.935619 0.822149
O O7 0.861550 0.768654 0.881124
O O8 0.370077 0.435558 0.615151
O O9 0.255578 0.614619 0.574414
O O10 0.606176 0.816712 0.337781
#
# Coordination Sequence:
#
# PCOD8056515 Si02
#       5
#     4   4   4   4   4
#     4  11  25  48  70 104 142 180 232 287 341 412
#     4  11  25  45  74 102 140 181 234 284 340 416
#     4  11  25  45  74 102 140 181 234 284 340 416
#     4  12  24  46  78  98 138 192 220 290 352 398
#     4  11  25  48  70 104 142 180 232 287 341 412
#
# _framework density 23.692311
#
# number of rings (size 3 to 8) (size 9 to 14) (size 15 to 20)
#    0.000    0.800    4.000    2.400    0.000    1.600 
#    0.000    0.000    0.000    0.000    0.000    0.000 
#    0.000    0.000    0.000    0.000    0.000    0.000 
#
# Total GULP energy -123974.205268 kJ/mol
# GULP energy per Si atom -12397.420527 kJ/mol
# Density = 2.363839 g / cm^3
# Si number density = 23.692311 Si / 1000 Ang^3
#
#
#
# Elastic Constant Matrix: (Units=GPa)
#
#
# Indices 1 2 3 4 5 6 
#
# 1 197.0194 64.9643 80.9927 0.0098 31.4894 -0.0066
# 2 64.9643 84.8023 66.7565 0.0370 -6.5880 0.0163
# 3 80.9927 66.7565 142.5275 0.0056 12.8833 -0.0019
# 4 0.0098 0.0370 0.0056 38.1080 0.0184 4.9209
# 5 31.4894 -6.5880 12.8833 0.0184 41.4178 0.0155
# 6 -0.0066 0.0163 -0.0019 4.9209 0.0155 50.6322
#
#
#
# Elastic Compliance Matrix: (Units=1/GPa)
#
#
# Indices 1 2 3 4 5 6 
#
# 1 0.008903 -0.006215 -0.001489 0.000007 -0.007294 0.000005
# 2 -0.006215 0.024509 -0.008980 -0.000025 0.011417 -0.000010
# 3 -0.001489 -0.008980 0.012445 0.000009 -0.004167 0.000004
# 4 0.000007 -0.000025 0.000009 0.026575 -0.000023 -0.002583
# 5 -0.007294 0.011417 -0.004167 -0.000023 0.032802 -0.000013
# 6 0.000005 -0.000010 0.000004 -0.002583 -0.000013 0.020001
#
#
# Mechanical properties :
#
#
# Convention : Reuss Voigt Hill
#
# Bulk Modulus (GPa) = 80.06596 94.41957 87.24276
# Shear Modulus (GPa) = 30.71927 40.14064 35.42996
#
# Velocity S-wave (km/s) = 3.60473 4.12059 3.87126
# Velocity P-wave (km/s) = 7.15492 7.91062 7.54224
#
# Compressibility (1/GPa) = 0.01248970
#
# Stress axis : x y z
#
# Youngs Moduli (GPa) = 112.32546 40.80174 80.35402
#
# Poissons Ratio (x) = 0.25357 0.11964
# Poissons Ratio (y) = 0.69806 0.72156
# Poissons Ratio (z) = 0.16725 0.36639
#
# Static dielectric constant tensor:
#      x y z
#    x 4.557100 -0.000010 0.561990 
#    y -0.000010 4.405560 -0.000060 
#    z 0.561990 -0.000060 4.714000 
# 
# 
# High freq. dielectric constant tensor:
#      x y z
#    x 1.943380 0.000000 0.030990 
#    y 0.000000 1.950730 0.000000 
#    z 0.030990 0.000000 1.959120 
# 
# From -- ./inp_files/6630.got.cif
#   From: 2010.06.25/outbox.cif.g09.slc.cpg/sg9_4_cif.got.tgz:6630.got - 2010.06.27 21:40:51.
