data_PCOD8056006
_publ_section_title
;
Structure prediction by ZEFSAII (Michael W. Deem and Ramdas Pophale) SiO2 
 PCOD8056006
Probable space group: C C
;
_chemical_formula_sum "Si O2"
_cell_formula_units_Z 32
_cell_length_a 24.385597
_cell_length_b 6.156482
_cell_length_c 25.662590
_cell_angle_alpha 90.000000
_cell_angle_beta 158.767233
_cell_angle_gamma 90.000000
_cell_volume 1395.289142
_symmetry_space_group_name_H-M "C C"
_symmetry_group_IT_number 9
_symmetry_cell_setting 'monoclinic'
loop_
_space_group_symop_operation_xyz
x,y,z
x,-y,1/2+z
1/2+x,1/2+y,z
1/2+x,1/2-y,1/2+z
loop_
_atom_site_type_symbol
_atom_site_label
_atom_site_fract_x
_atom_site_fract_y
_atom_site_fract_z
Si Si1 0.232570 0.458314 0.845970
Si Si2 0.970675 0.027901 0.278708
Si Si3 0.434070 0.767750 0.844100
Si Si4 0.150057 0.373707 0.493501
Si Si5 0.447014 0.241536 0.601608
Si Si6 0.725627 0.360175 0.162528
Si Si7 0.909588 0.915316 0.900985
Si Si8 0.161500 0.047821 0.856883
O O1 0.294008 0.375509 0.845362
O O2 0.195123 0.256170 0.850750
O O3 0.080736 0.590294 0.697310
O O4 0.367372 0.607947 0.987851
O O5 0.807645 0.051934 0.105523
O O6 0.044015 0.265525 0.355422
O O7 0.936914 0.914281 0.302974
O O8 0.086026 0.884256 0.345217
O O9 0.438705 0.660289 0.905988
O O10 0.273636 0.889190 0.701766
O O11 0.571388 0.930986 0.954857
O O12 0.198896 0.196291 0.579011
O O13 0.529869 0.391507 0.717393
O O14 0.315768 0.082018 0.506766
O O15 0.857470 0.220413 0.304719
O O16 0.574714 0.327810 0.063816
#
# Coordination Sequence:
#
# PCOD8056006 Si02
#       8
#     4   4   4   4   4   4   4   4
#     4  11  27  47  73 104 141 188 243 302 358 426
#     4  12  26  42  72 101 139 186 231 288 353 423
#     4  12  24  42  70 102 139 183 229 276 359 427
#     4  12  23  46  65 106 144 177 231 291 347 431
#     4  10  25  49  71 103 138 177 246 298 359 426
#     4  12  24  46  65 102 145 176 227 288 346 426
#     4  12  28  42  74 102 142 183 231 289 353 427
#     4  11  25  48  72 102 140 188 240 304 359 420
#
# _framework density 22.934315999999999
#
# number of rings (size 3 to 8) (size 9 to 14) (size 15 to 20)
#    0.000    0.500    5.000    2.250    5.250    5.000 
#    0.000    0.000    0.000    0.000    0.000    0.000 
#    0.000    0.000    0.000    0.000    0.000    0.000 
#
# Total GULP energy -198304.253880 kJ/mol
# GULP energy per Si atom -12394.015867 kJ/mol
# Density = 2.288212 g / cm^3
# Si number density = 22.934316 Si / 1000 Ang^3
#
#
#
# Elastic Constant Matrix: (Units=GPa)
#
#
# Indices 1 2 3 4 5 6 
#
# 1 109.2650 32.9502 33.1851 -0.0015 34.0875 -0.0017
# 2 32.9502 101.0893 44.5003 0.0004 13.0843 0.0143
# 3 33.1851 44.5003 157.8397 -0.0002 24.3796 -0.0002
# 4 -0.0015 0.0004 -0.0002 38.1370 0.0017 7.1209
# 5 34.0875 13.0843 24.3796 0.0017 34.5426 -0.0010
# 6 -0.0017 0.0143 -0.0002 7.1209 -0.0010 31.1842
#
#
#
# Elastic Compliance Matrix: (Units=1/GPa)
#
#
# Indices 1 2 3 4 5 6 
#
# 1 0.014001 -0.002847 -0.000195 0.000001 -0.012600 0.000001
# 2 -0.002847 0.012035 -0.002833 0.000001 0.000250 -0.000006
# 3 -0.000195 -0.002833 0.007834 0.000000 -0.004264 0.000001
# 4 0.000001 0.000001 0.000000 0.027389 -0.000003 -0.006254
# 5 -0.012600 0.000250 -0.004264 -0.000003 0.044299 0.000001
# 6 0.000001 -0.000006 0.000001 -0.006254 0.000001 0.033496
#
#
# Mechanical properties :
#
#
# Convention : Reuss Voigt Hill
#
# Bulk Modulus (GPa) = 45.20821 65.49613 55.35217
# Shear Modulus (GPa) = 31.61043 37.94333 34.77688
#
# Velocity S-wave (km/s) = 3.71658 4.07189 3.89828
# Velocity P-wave (km/s) = 6.17836 7.12230 6.66706
#
# Compressibility (1/GPa) = 0.02211988
#
# Stress axis : x y z
#
# Youngs Moduli (GPa) = 71.42501 83.09103 127.65190
#
# Poissons Ratio (x) = 0.23655 0.02485
# Poissons Ratio (y) = 0.20334 0.36166
# Poissons Ratio (z) = 0.01391 0.23541
#
# Static dielectric constant tensor:
#      x y z
#    x 3.834770 -0.000020 0.253220 
#    y -0.000020 4.200400 -0.000010 
#    z 0.253220 -0.000010 4.682820 
# 
# 
# High freq. dielectric constant tensor:
#      x y z
#    x 1.887780 0.000000 0.020220 
#    y 0.000000 1.904670 0.000000 
#    z 0.020220 0.000000 1.933900 
# 
# From -- ./inp_files/12562.got.cif
#   From: 2010.06.25/outbox.cif.g09.slc.cpg/sg9_7_cif.got.tgz:12562.got - 2010.06.27 21:40:51.
