data_PCOD8056468
_publ_section_title
;
Structure prediction by ZEFSAII (Michael W. Deem and Ramdas Pophale) SiO2 
 PCOD8056468
Probable space group: C C
;
_chemical_formula_sum "Si O2"
_cell_formula_units_Z 24
_cell_length_a 13.807990
_cell_length_b 5.192683
_cell_length_c 21.652853
_cell_angle_alpha 90.000000
_cell_angle_beta 38.002990
_cell_angle_gamma 90.000000
_cell_volume 955.891033
_symmetry_space_group_name_H-M "C C"
_symmetry_group_IT_number 9
_symmetry_cell_setting 'monoclinic'
loop_
_space_group_symop_operation_xyz
x,y,z
x,-y,1/2+z
1/2+x,1/2+y,z
1/2+x,1/2-y,1/2+z
loop_
_atom_site_type_symbol
_atom_site_label
_atom_site_fract_x
_atom_site_fract_y
_atom_site_fract_z
Si Si1 0.030110 0.839665 0.139300
Si Si2 0.999548 0.260498 0.962407
Si Si3 0.719527 0.534587 0.278372
Si Si4 0.960866 0.616022 0.868375
Si Si5 0.694632 0.794378 0.673977
Si Si6 0.629167 0.155719 0.521001
O O1 0.094589 0.882256 0.176394
O O2 0.133893 0.607457 0.057809
O O3 0.848313 0.747382 0.230557
O O4 0.032381 0.114768 0.104050
O O5 0.930575 0.413288 0.938427
O O6 0.170361 0.134815 0.862191
O O7 0.048600 0.430557 0.997221
O O8 0.849708 0.086948 0.061479
O O9 0.546958 0.645733 0.354762
O O10 0.766068 0.372997 0.194524
O O11 0.074691 0.511614 0.757146
O O12 0.800026 0.724437 0.921997
#
# Coordination Sequence:
#
# PCOD8056468 Si02
#       6
#     4   4   4   4   4   4
#     4  12  27  48  77 112 152 200 251 307 380 450
#     4  11  24  47  71 108 150 195 249 312 368 448
#     4  11  26  44  75 108 147 201 251 309 379 445
#     4  11  26  44  75 108 147 201 251 309 379 445
#     4  11  24  47  71 108 150 195 249 312 368 448
#     4  12  27  48  77 112 152 200 251 307 380 450
#
# _framework density 25.107464
#
# number of rings (size 3 to 8) (size 9 to 14) (size 15 to 20)
#    0.000    0.667    3.333    3.000    9.333    2.667 
#    0.000    0.000    0.000    0.000    0.000    0.000 
#    0.000    0.000    0.000    0.000    0.000    0.000 
#
# Total GULP energy -148660.579234 kJ/mol
# GULP energy per Si atom -12388.381603 kJ/mol
# Density = 2.505032 g / cm^3
# Si number density = 25.107464 Si / 1000 Ang^3
#
#
#
# Elastic Constant Matrix: (Units=GPa)
#
#
# Indices 1 2 3 4 5 6 
#
# 1 86.6515 -15.2104 32.3597 0.0252 4.3102 0.0011
# 2 -15.2104 55.7712 6.9037 0.0541 15.0369 0.0081
# 3 32.3597 6.9037 148.0158 -0.0006 -4.5289 -0.0016
# 4 0.0252 0.0541 -0.0006 25.3120 0.0072 -21.4875
# 5 4.3102 15.0369 -4.5289 0.0072 38.9741 0.0006
# 6 0.0011 0.0081 -0.0016 -21.4875 0.0006 25.6493
#
#
#
# Elastic Compliance Matrix: (Units=1/GPa)
#
#
# Indices 1 2 3 4 5 6 
#
# 1 0.013946 0.005301 -0.003418 -0.000091 -0.003985 -0.000078
# 2 0.005301 0.022233 -0.002485 -0.000195 -0.009453 -0.000170
# 3 -0.003418 -0.002485 0.007687 0.000033 0.002230 0.000029
# 4 -0.000091 -0.000195 0.000033 0.136781 0.000062 0.114587
# 5 -0.003985 -0.009453 0.002230 0.000062 0.030005 0.000054
# 6 -0.000078 -0.000170 0.000029 0.114587 0.000054 0.134982
#
#
# Mechanical properties :
#
#
# Convention : Reuss Voigt Hill
#
# Bulk Modulus (GPa) = 23.44049 37.61605 30.52827
# Shear Modulus (GPa) = 13.84821 35.74611 24.79716
#
# Velocity S-wave (km/s) = 2.35107 3.77732 3.14608
# Velocity P-wave (km/s) = 4.08979 5.83427 5.03811
#
# Compressibility (1/GPa) = 0.04266123
#
# Stress axis : x y z
#
# Youngs Moduli (GPa) = 71.70695 44.97908 130.08234
#
# Poissons Ratio (x) = -0.23843 0.44462
# Poissons Ratio (y) = -0.38011 0.32327
# Poissons Ratio (z) = 0.24509 0.11178
#
# Static dielectric constant tensor:
#      x y z
#    x 4.576460 -0.000040 0.077080 
#    y -0.000040 4.176980 -0.000020 
#    z 0.077080 -0.000020 4.782670 
# 
# 
# High freq. dielectric constant tensor:
#      x y z
#    x 2.018300 0.000000 -0.007490 
#    y 0.000000 1.966900 0.000000 
#    z -0.007490 0.000000 2.025560 
# 
# From -- ./inp_files/17341.got.cif
#   From: 2010.06.25/outbox.cif.g09.slc.cpg/sg9_9_cif.got.tgz:17341.got - 2010.06.27 21:40:51.
