data_PCOD8056524
_publ_section_title
;
Structure prediction by ZEFSAII (Michael W. Deem and Ramdas Pophale) SiO2 
 PCOD8056524
Probable space group: C C
;
_chemical_formula_sum "Si O2"
_cell_formula_units_Z 24
_cell_length_a 25.897209
_cell_length_b 7.083711
_cell_length_c 17.416168
_cell_angle_alpha 90.000000
_cell_angle_beta 18.817290
_cell_angle_gamma 90.000000
_cell_volume 1030.540973
_symmetry_space_group_name_H-M "C C"
_symmetry_group_IT_number 9
_symmetry_cell_setting 'monoclinic'
loop_
_space_group_symop_operation_xyz
x,y,z
x,-y,1/2+z
1/2+x,1/2+y,z
1/2+x,1/2-y,1/2+z
loop_
_atom_site_type_symbol
_atom_site_label
_atom_site_fract_x
_atom_site_fract_y
_atom_site_fract_z
Si Si1 0.369910 0.204572 0.471490
Si Si2 0.046174 0.968113 0.465820
Si Si3 0.333565 0.538108 0.634277
Si Si4 0.491656 0.825703 0.638372
Si Si5 0.527128 0.845201 0.278378
Si Si6 0.886382 0.285085 0.306089
O O1 0.220740 0.058137 0.683159
O O2 0.323744 0.400163 0.575517
O O3 0.508420 0.073461 0.315395
O O4 0.424326 0.272038 0.310225
O O5 0.023541 0.831490 0.569513
O O6 0.008184 0.183589 0.544237
O O7 0.923508 0.916437 0.571756
O O8 0.165628 0.586754 0.908751
O O9 0.426703 0.730076 0.482706
O O10 0.375925 0.004083 0.784059
O O11 0.452779 0.791989 0.299667
O O12 0.713184 0.805253 0.033924
#
# Coordination Sequence:
#
# PCOD8056524 Si02
#       6
#     4   4   4   4   4   4
#     4  11  25  46  70 104 144 184 243 298 359 427
#     4  12  25  44  73 104 143 195 240 295 365 428
#     4  12  25  44  73 104 143 195 240 295 365 428
#     4  11  25  46  70 104 144 184 243 298 359 427
#     4  11  25  46  74 107 147 190 242 300 361 429
#     4  11  25  46  74 107 147 190 242 300 361 429
#
# _framework density 23.288741000000002
#
# number of rings (size 3 to 8) (size 9 to 14) (size 15 to 20)
#    0.000    0.667    3.333    5.000    0.000    9.333 
#    0.000    0.000    0.000    0.000    0.000    0.000 
#    0.000    0.000    0.000    0.000    0.000    0.000 
#
# Total GULP energy -148744.094754 kJ/mol
# GULP energy per Si atom -12395.341229 kJ/mol
# Density = 2.323573 g / cm^3
# Si number density = 23.288741 Si / 1000 Ang^3
#
#
#
# Elastic Constant Matrix: (Units=GPa)
#
#
# Indices 1 2 3 4 5 6 
#
# 1 86.1378 4.0823 38.2459 -0.0001 -3.3213 0.0000
# 2 4.0823 56.2013 9.9277 -0.0002 10.1549 -0.0001
# 3 38.2459 9.9277 136.9795 0.0000 9.3760 0.0000
# 4 -0.0001 -0.0002 0.0000 32.7246 -0.0001 3.2738
# 5 -3.3213 10.1549 9.3760 -0.0001 33.7397 0.0000
# 6 0.0000 -0.0001 0.0000 3.2738 0.0000 30.6832
#
#
#
# Elastic Compliance Matrix: (Units=1/GPa)
#
#
# Indices 1 2 3 4 5 6 
#
# 1 0.013473 -0.000769 -0.003887 0.000000 0.002638 0.000000
# 2 -0.000769 0.018994 -0.000780 0.000000 -0.005576 0.000000
# 3 -0.003887 -0.000780 0.008616 0.000000 -0.002542 0.000000
# 4 0.000000 0.000000 0.000000 0.030888 0.000000 -0.003296
# 5 0.002638 -0.005576 -0.002542 0.000000 0.032283 0.000000
# 6 0.000000 0.000000 0.000000 -0.003296 0.000000 0.032943
#
#
# Mechanical properties :
#
#
# Convention : Reuss Voigt Hill
#
# Bulk Modulus (GPa) = 33.09929 42.64785 37.87357
# Shear Modulus (GPa) = 31.61772 34.56701 33.09236
#
# Velocity S-wave (km/s) = 3.68861 3.85681 3.77365
# Velocity P-wave (km/s) = 5.69075 6.17946 5.94013
#
# Compressibility (1/GPa) = 0.03021213
#
# Stress axis : x y z
#
# Youngs Moduli (GPa) = 74.22171 52.64736 116.06161
#
# Poissons Ratio (x) = 0.04047 0.45109
# Poissons Ratio (y) = 0.05705 0.09057
# Poissons Ratio (z) = 0.28847 0.04108
#
# Static dielectric constant tensor:
#      x y z
#    x 3.911270 0.000000 0.098380 
#    y 0.000000 4.378250 0.000000 
#    z 0.098380 0.000000 4.424140 
# 
# 
# High freq. dielectric constant tensor:
#      x y z
#    x 1.902110 0.000000 0.008900 
#    y 0.000000 1.929150 0.000000 
#    z 0.008900 0.000000 1.945490 
# 
# From -- ./inp_files/27696.got.cif
#   From: 2010.06.25/outbox.cif.g09.slc.cpg/sg9_14_cif.got.tgz:27696.got - 2010.06.27 21:40:51.
