data_PCOD8057058
_publ_section_title
;
Structure prediction by ZEFSAII (Michael W. Deem and Ramdas Pophale) SiO2 
 PCOD8057058
Probable space group: P 2/M
;
_chemical_formula_sum "Si O2"
_cell_formula_units_Z 32
_cell_length_a 15.741075
_cell_length_b 9.320471
_cell_length_c 14.798172
_cell_angle_alpha 90.000000
_cell_angle_beta 61.962490
_cell_angle_gamma 90.000000
_cell_volume 1916.301987
_symmetry_space_group_name_H-M "P 2/M"
_symmetry_group_IT_number 10
_symmetry_cell_setting 'monoclinic'
loop_
_space_group_symop_operation_xyz
x,y,z
-x,y,-z
-x,-y,-z
x,-y,z
loop_
_atom_site_type_symbol
_atom_site_label
_atom_site_fract_x
_atom_site_fract_y
_atom_site_fract_z
Si Si1 0.847388 0.329620 0.726860
Si Si2 0.061019 0.331090 0.821042
Si Si3 0.847388 0.670380 0.925751
Si Si4 0.762746 0.670359 0.151286
Si Si5 0.061020 0.668910 0.617939
Si Si6 0.388096 0.834177 0.453544
Si Si7 0.611904 0.165823 0.341640
Si Si8 0.762746 0.670359 0.585968
O O1 0.855141 0.500000 0.725846
O O2 0.813879 0.273421 0.843060
O O3 0.772062 0.283226 0.686854
O O4 0.954397 0.269014 0.650109
O O5 0.057990 0.500000 0.836372
O O6 0.141905 0.267814 0.847002
O O7 0.091420 0.290073 0.704290
O O8 0.954397 0.269014 0.895494
O O9 0.855141 0.500000 0.919013
O O10 0.772061 0.716774 0.041084
O O11 0.753383 0.500000 0.167108
O O12 0.668630 0.740623 0.240546
O O13 0.057990 0.500000 0.605637
O O14 0.141906 0.732186 0.511093
O O15 0.361593 0.787267 0.569203
O O16 0.500000 0.806743 0.379584
O O17 0.331371 0.740623 0.409175
O O18 0.362123 0.000000 0.452378
O O19 0.637877 0.000000 0.314502
O O20 0.753383 0.500000 0.579509
#
# Coordination Sequence:
#
# PCOD8057058 Si02
#       8
#     4   4   4   4   4   4   4   4
#     4   8  14  24  38  60  93 127 150 170 205 253
#     4   8  13  21  35  60  93 121 143 171 209 252
#     4   8  14  24  38  60  93 127 150 170 205 253
#     4  10  17  25  44  71  91 110 145 188 217 240
#     4   8  13  21  35  60  93 121 143 171 209 252
#     4   9  19  35  50  63  84 114 141 167 213 277
#     4   9  19  35  50  63  84 114 141 167 213 277
#     4  10  17  25  44  71  91 110 145 188 217 240
#
# _framework density 16.698830000000001
#
# number of rings (size 3 to 8) (size 9 to 14) (size 15 to 20)
#    0.000    3.250    0.000    3.750    0.000    5.000 
#    0.000    1.250    0.000    4.500    0.000    8.750 
#    0.000    0.000    0.000    0.000    0.000    0.000 
#
# Total GULP energy -396503.086091 kJ/mol
# GULP energy per Si atom -12390.721440 kJ/mol
# Density = 1.666082 g / cm^3
# Si number density = 16.698830 Si / 1000 Ang^3
#
#
#
# Elastic Constant Matrix: (Units=GPa)
#
#
# Indices 1 2 3 4 5 6 
#
# 1 104.0399 30.7271 61.3936 0.0000 18.4957 0.0000
# 2 30.7271 25.0483 33.0418 0.0000 2.0046 0.0000
# 3 61.3936 33.0418 132.6588 0.0000 6.2889 0.0000
# 4 0.0000 0.0000 0.0000 9.4738 0.0000 6.4411
# 5 18.4957 2.0046 6.2889 0.0000 21.4303 0.0000
# 6 0.0000 0.0000 0.0000 6.4411 0.0000 2.0362
#
#
#
# Elastic Compliance Matrix: (Units=1/GPa)
#
#
# Indices 1 2 3 4 5 6 
#
# 1 0.019784 -0.017787 -0.004051 0.000000 -0.014222 0.000000
# 2 -0.017787 0.075482 -0.011117 0.000000 0.011553 0.000000
# 3 -0.004051 -0.011117 0.012136 0.000000 0.000975 0.000000
# 4 0.000000 0.000000 0.000000 -0.091738 0.000000 0.290187
# 5 -0.014222 0.011553 0.000975 0.000000 0.057571 0.000000
# 6 0.000000 0.000000 0.000000 0.290187 0.000000 -0.426822
#
#
# Mechanical properties :
#
#
# Convention : Reuss Voigt Hill
#
# Bulk Modulus (GPa) = 24.10113 56.89690 40.49901
# Shear Modulus (GPa) = -18.25831 15.69371 -1.28230
#
# Velocity S-wave (km/s) = -3.31023 3.06896 -0.87725
# Velocity P-wave (km/s) = 0.38210 6.83406 4.82485
#
# Compressibility (1/GPa) = 0.04149184
#
# Stress axis : x y z
#
# Youngs Moduli (GPa) = 50.54627 13.24827 82.40120
#
# Poissons Ratio (x) = 0.23564 0.33384
# Poissons Ratio (y) = 0.89905 0.91602
# Poissons Ratio (z) = 0.20479 0.14728
#
# Static dielectric constant tensor:
#      x y z
#    x 3.214480 0.000000 0.146900 
#    y 0.000000 2.585640 0.000000 
#    z 0.146900 0.000000 3.384090 
# 
# 
# High freq. dielectric constant tensor:
#      x y z
#    x 1.633630 0.000000 0.011200 
#    y 0.000000 1.583090 0.000000 
#    z 0.011200 0.000000 1.646560 
# 
# From -- ./inp_files/66476.got.cif
#   From: 2010.06.25/outbox.cif.g09.slc.cpg/sg10_34_cif.got.tgz:66476.got - 2010.06.27 22:07:45.
