data_PCOD8057195
_publ_section_title
;
Structure prediction by ZEFSAII (Michael W. Deem and Ramdas Pophale) SiO2 
 PCOD8057195
Probable space group: P 2/M
;
_chemical_formula_sum "Si O2"
_cell_formula_units_Z 32
_cell_length_a 21.235569
_cell_length_b 8.664933
_cell_length_c 11.604230
_cell_angle_alpha 90.000000
_cell_angle_beta 56.699353
_cell_angle_gamma 90.000000
_cell_volume 1784.630906
_symmetry_space_group_name_H-M "P 2/M"
_symmetry_group_IT_number 10
_symmetry_cell_setting 'monoclinic'
loop_
_space_group_symop_operation_xyz
x,y,z
-x,y,-z
-x,-y,-z
x,-y,z
loop_
_atom_site_type_symbol
_atom_site_label
_atom_site_fract_x
_atom_site_fract_y
_atom_site_fract_z
Si Si1 0.103380 0.817160 0.448185
Si Si2 0.322227 0.180198 0.447610
Si Si3 0.452996 0.327301 0.876814
Si Si4 0.978262 0.181295 0.151684
Si Si5 0.477558 0.818586 0.399058
Si Si6 0.830451 0.681928 0.408042
Si Si7 0.952980 0.317716 0.707575
Si Si8 0.615508 0.326020 0.826878
O O1 0.170892 0.764202 0.463912
O O2 0.112912 0.758911 0.305958
O O3 0.032106 0.728320 0.572261
O O4 0.091728 0.000000 0.463155
O O5 0.395379 0.244235 0.442957
O O6 0.249282 0.270978 0.569141
O O7 0.331988 0.213659 0.300897
O O8 0.310122 0.000000 0.479497
O O9 0.431813 0.500000 0.859601
O O10 0.456879 0.223119 0.758497
O O11 0.532932 0.325234 0.857452
O O12 0.390911 0.268143 0.032999
O O13 0.897985 0.258261 0.259986
O O14 0.045472 0.249346 0.164503
O O15 0.971148 0.000000 0.181059
O O16 0.000000 0.221684 0.000000
O O17 0.500000 0.746369 0.500000
O O18 0.472686 0.000000 0.412479
O O19 0.837905 0.500000 0.414617
O O20 0.941692 0.500000 0.723094
O O21 0.648601 0.500000 0.789502
#
# Coordination Sequence:
#
# PCOD8057195 Si02
#       8
#     4   4   4   4   4   4   4   4
#     4  10  17  28  46  68  95 123 154 190 234 286
#     4  10  19  31  48  70  96 126 161 201 248 301
#     4   8  14  25  43  66  91 118 148 187 232 279
#     4  10  20  34  52  74 100 131 169 210 250 294
#     4   9  18  31  47  69  97 129 166 207 246 288
#     4  11  21  33  50  72  99 128 161 204 254 304
#     4  10  17  27  45  70  98 124 154 192 236 281
#     4   8  14  26  43  65  92 118 146 184 234 284
#
# _framework density 17.930878
#
# number of rings (size 3 to 8) (size 9 to 14) (size 15 to 20)
#    0.000    2.500    0.000    7.125    0.000    2.250 
#    0.000    2.500    0.000    1.500    0.000    1.750 
#    0.000    0.000    0.000    0.000    0.000    0.000 
#
# Total GULP energy -396508.482892 kJ/mol
# GULP energy per Si atom -12390.890090 kJ/mol
# Density = 1.789007 g / cm^3
# Si number density = 17.930878 Si / 1000 Ang^3
#
#
#
# Elastic Constant Matrix: (Units=GPa)
#
#
# Indices 1 2 3 4 5 6 
#
# 1 74.7739 31.5407 51.5276 0.0000 15.3659 0.0000
# 2 31.5407 78.0833 37.0087 0.0000 8.2596 0.0000
# 3 51.5276 37.0087 96.9758 0.0000 20.8694 0.0000
# 4 0.0000 0.0000 0.0000 22.3754 0.0000 1.0303
# 5 15.3659 8.2596 20.8694 0.0000 28.4047 0.0000
# 6 0.0000 0.0000 0.0000 1.0303 0.0000 21.3538
#
#
#
# Elastic Compliance Matrix: (Units=1/GPa)
#
#
# Indices 1 2 3 4 5 6 
#
# 1 0.022500 -0.004160 -0.009513 0.000000 -0.003973 0.000000
# 2 -0.004160 0.016405 -0.004167 0.000000 0.000541 0.000000
# 3 -0.009513 -0.004167 0.018516 0.000000 -0.007246 0.000000
# 4 0.000000 0.000000 0.000000 0.044792 0.000000 -0.002161
# 5 -0.003973 0.000541 -0.007246 0.000000 0.042521 0.000000
# 6 0.000000 0.000000 0.000000 -0.002161 0.000000 0.046934
#
#
# Mechanical properties :
#
#
# Convention : Reuss Voigt Hill
#
# Bulk Modulus (GPa) = 45.99343 54.44300 50.21822
# Shear Modulus (GPa) = 21.31342 23.07718 22.19530
#
# Velocity S-wave (km/s) = 3.45141 3.59138 3.52209
# Velocity P-wave (km/s) = 6.44896 6.90116 6.67889
#
# Compressibility (1/GPa) = 0.02174223
#
# Stress axis : x y z
#
# Youngs Moduli (GPa) = 44.44425 60.95811 54.00701
#
# Poissons Ratio (x) = 0.25356 0.51376
# Poissons Ratio (y) = 0.18487 0.22504
# Poissons Ratio (z) = 0.42279 0.25400
#
# Static dielectric constant tensor:
#      x y z
#    x 3.711970 0.000000 0.397530 
#    y 0.000000 3.293660 0.000000 
#    z 0.397530 0.000000 3.472980 
# 
# 
# High freq. dielectric constant tensor:
#      x y z
#    x 1.668340 0.000000 0.018510 
#    y 0.000000 1.698800 0.000000 
#    z 0.018510 0.000000 1.672390 
# 
# From -- ./inp_files/56387.got.cif
#   From: 2010.06.25/outbox.cif.g09.slc.cpg/sg10_29_cif.got.tgz:56387.got - 2010.06.27 22:07:45.
