data_PCOD8057318
_publ_section_title
;
Structure prediction by ZEFSAII (Michael W. Deem and Ramdas Pophale) SiO2 
 PCOD8057318
Probable space group: P 2/M
;
_chemical_formula_sum "Si O2"
_cell_formula_units_Z 32
_cell_length_a 12.647598
_cell_length_b 8.528788
_cell_length_c 17.927547
_cell_angle_alpha 90.000000
_cell_angle_beta 101.979569
_cell_angle_gamma 90.000000
_cell_volume 1891.705493
_symmetry_space_group_name_H-M "P 2/M"
_symmetry_group_IT_number 10
_symmetry_cell_setting 'monoclinic'
loop_
_space_group_symop_operation_xyz
x,y,z
-x,y,-z
-x,-y,-z
x,-y,z
loop_
_atom_site_type_symbol
_atom_site_label
_atom_site_fract_x
_atom_site_fract_y
_atom_site_fract_z
Si Si1 0.188760 0.815203 0.687318
Si Si2 0.978301 0.186314 0.579582
Si Si3 0.322846 0.812054 0.841345
Si Si4 0.441971 0.813756 0.165948
Si Si5 0.624769 0.827024 0.995692
Si Si6 0.737291 0.182983 0.566730
Si Si7 0.352522 0.681247 0.594069
Si Si8 0.576829 0.182699 0.671960
O O1 0.226841 0.748401 0.773720
O O2 0.276205 0.780032 0.636857
O O3 0.071445 0.745026 0.648004
O O4 0.180362 0.000000 0.692256
O O5 0.861098 0.241806 0.590722
O O6 0.000000 0.253219 0.500000
O O7 0.985800 0.000000 0.579236
O O8 0.434730 0.752930 0.820713
O O9 0.323098 0.000000 0.845128
O O10 0.312391 0.743923 0.925202
O O11 0.370801 0.742680 0.085656
O O12 0.394490 0.763508 0.239214
O O13 0.440801 0.000000 0.155774
O O14 0.675065 0.000000 0.994686
O O15 0.500000 0.839120 0.000000
O O16 0.673903 0.278868 0.495076
O O17 0.682409 0.216784 0.638222
O O18 0.732207 0.000000 0.544638
O O19 0.331233 0.500000 0.606287
O O20 0.477328 0.719759 0.625697
O O21 0.544302 0.000000 0.665479
#
# Coordination Sequence:
#
# PCOD8057318 Si02
#       8
#     4   4   4   4   4   4   4   4
#     4  10  17  29  49  67  86 114 149 182 215 252
#     4   9  16  28  48  67  82 105 143 190 225 246
#     4   8  12  19  36  61  86 109 137 171 207 249
#     4   8  12  20  36  60  87 110 135 169 208 248
#     4   7  10  16  29  56  89 110 128 165 208 244
#     4  10  20  34  49  64  82 111 151 186 215 251
#     4  12  23  32  44  64  91 117 143 176 220 263
#     4  10  19  31  48  66  85 114 149 179 209 254
#
# _framework density 16.915952000000001
#
# number of rings (size 3 to 8) (size 9 to 14) (size 15 to 20)
#    0.000    2.750    2.500    3.000    0.000    2.000 
#    0.000    1.250    0.000    0.000    0.000    2.625 
#    0.000    7.000    0.000    0.000    0.000    4.125 
#
# Total GULP energy -396420.797865 kJ/mol
# GULP energy per Si atom -12388.149933 kJ/mol
# Density = 1.687745 g / cm^3
# Si number density = 16.915952 Si / 1000 Ang^3
#
#
#
# Elastic Constant Matrix: (Units=GPa)
#
#
# Indices 1 2 3 4 5 6 
#
# 1 93.0650 5.5933 73.7459 0.0000 2.9683 0.0000
# 2 5.5933 8.0999 8.9901 0.0000 3.7905 0.0000
# 3 73.7459 8.9901 183.9149 0.0000 20.8029 0.0000
# 4 0.0000 0.0000 0.0000 0.7351 0.0000 -1.5735
# 5 2.9683 3.7905 20.8029 0.0000 19.4662 0.0000
# 6 0.0000 0.0000 0.0000 -1.5735 0.0000 2.4563
#
#
#
# Elastic Compliance Matrix: (Units=1/GPa)
#
#
# Indices 1 2 3 4 5 6 
#
# 1 0.016482 -0.006535 -0.006994 0.000000 0.006234 0.000000
# 2 -0.006535 0.141271 -0.001463 0.000000 -0.024949 0.000000
# 3 -0.006994 -0.001463 0.009283 0.000000 -0.008569 0.000000
# 4 0.000000 0.000000 0.000000 -3.665373 0.000000 -2.347979
# 5 0.006234 -0.024949 -0.008569 0.000000 0.064436 0.000000
# 6 0.000000 0.000000 0.000000 -2.347979 0.000000 -1.096960
#
#
# Mechanical properties :
#
#
# Convention : Reuss Voigt Hill
#
# Bulk Modulus (GPa) = 7.29663 51.30425 29.30044
# Shear Modulus (GPa) = -1.12229 17.64823 8.26297
#
# Velocity S-wave (km/s) = -0.81541 3.23350 2.21254
# Velocity P-wave (km/s) = 1.85373 6.65849 4.88732
#
# Compressibility (1/GPa) = 0.13704948
#
# Stress axis : x y z
#
# Youngs Moduli (GPa) = 60.67363 7.07859 107.72782
#
# Poissons Ratio (x) = 0.04626 0.75350
# Poissons Ratio (y) = 0.39653 0.15761
# Poissons Ratio (z) = 0.42438 0.01036
#
# Static dielectric constant tensor:
#      x y z
#    x 3.079420 0.000000 0.267580 
#    y 0.000000 2.639300 0.000000 
#    z 0.267580 0.000000 3.773050 
# 
# 
# High freq. dielectric constant tensor:
#      x y z
#    x 1.613700 0.000000 0.013290 
#    y 0.000000 1.598110 0.000000 
#    z 0.013290 0.000000 1.669930 
# 
# From -- ./inp_files/75979.got.cif
#   From: 2010.06.25/outbox.cif.g09.slc.cpg/sg10_38_cif.got.tgz:75979.got - 2010.06.27 22:07:45.
