data_PCOD8057799
_publ_section_title
;
Structure prediction by ZEFSAII (Michael W. Deem and Ramdas Pophale) SiO2 
 PCOD8057799
Probable space group: P 2/M
;
_chemical_formula_sum "Si O2"
_cell_formula_units_Z 32
_cell_length_a 15.606631
_cell_length_b 9.035060
_cell_length_c 14.371655
_cell_angle_alpha 90.000000
_cell_angle_beta 87.921089
_cell_angle_gamma 90.000000
_cell_volume 2025.167949
_symmetry_space_group_name_H-M "P 2/M"
_symmetry_group_IT_number 10
_symmetry_cell_setting 'monoclinic'
loop_
_space_group_symop_operation_xyz
x,y,z
-x,y,-z
-x,-y,-z
x,-y,z
loop_
_atom_site_type_symbol
_atom_site_label
_atom_site_fract_x
_atom_site_fract_y
_atom_site_fract_z
Si Si1 0.644560 0.675732 0.209496
Si Si2 0.401094 0.174884 0.608651
Si Si3 0.595112 0.825441 0.597015
Si Si4 0.507235 0.827566 0.892689
Si Si5 0.827216 0.676796 0.878757
Si Si6 0.011364 0.338281 0.889980
Si Si7 0.193103 0.323119 0.911950
Si Si8 0.679039 0.173270 0.779411
O O1 0.641831 0.500000 0.211458
O O2 0.654879 0.737994 0.313457
O O3 0.558672 0.734675 0.165561
O O4 0.726358 0.736018 0.149247
O O5 0.367531 0.217124 0.506159
O O6 0.498562 0.233537 0.613812
O O7 0.393856 0.000000 0.627047
O O8 0.654788 0.765150 0.677612
O O9 0.588024 0.000000 0.605593
O O10 0.602688 0.790707 0.854217
O O11 0.485575 0.000000 0.879852
O O12 0.500000 0.778797 0.000000
O O13 0.826985 0.500000 0.873278
O O14 0.924338 0.739537 0.854720
O O15 0.764525 0.742045 0.804386
O O16 0.796142 0.730591 0.981978
O O17 0.016375 0.500000 0.842812
O O18 0.103768 0.257561 0.870550
O O19 0.000000 0.357478 0.000000
O O20 0.187240 0.500000 0.910164
O O21 0.698917 0.000000 0.776692
#
# Coordination Sequence:
#
# PCOD8057799 Si02
#       8
#     4   4   4   4   4   4   4   4
#     4  11  20  28  42  66  92 115 138 174 223 259
#     4   9  16  31  50  62  77 107 150 186 211 253
#     4   8  15  29  49  63  75 108 150 183 213 250
#     4  10  20  32  44  58  83 122 158 177 195 241
#     4   9  16  27  45  66  85 111 147 179 206 243
#     4   7  11  23  43  62  80 108 146 179 203 240
#     4   8  15  27  42  62  89 117 143 171 208 255
#     4  10  18  29  43  62  87 113 141 173 215 257
#
# _framework density 15.801157999999999
#
# number of rings (size 3 to 8) (size 9 to 14) (size 15 to 20)
#    0.000    3.000    1.250    3.375    0.000    0.750 
#    0.000    2.500    0.000    4.875    0.000    0.875 
#    0.000    7.000    0.000    0.000    0.000    0.000 
#
# Total GULP energy -396478.826456 kJ/mol
# GULP energy per Si atom -12389.963327 kJ/mol
# Density = 1.576519 g / cm^3
# Si number density = 15.801158 Si / 1000 Ang^3
#
#
#
# Elastic Constant Matrix: (Units=GPa)
#
#
# Indices 1 2 3 4 5 6 
#
# 1 90.2948 19.4127 37.3769 0.0000 21.2553 0.0000
# 2 19.4127 25.4838 18.6573 0.0000 3.6101 0.0000
# 3 37.3769 18.6573 97.3589 0.0000 17.0780 0.0000
# 4 0.0000 0.0000 0.0000 18.5565 0.0000 5.0318
# 5 21.2553 3.6101 17.0780 0.0000 18.5018 0.0000
# 6 0.0000 0.0000 0.0000 5.0318 0.0000 10.1042
#
#
#
# Elastic Compliance Matrix: (Units=1/GPa)
#
#
# Indices 1 2 3 4 5 6 
#
# 1 0.018014 -0.009813 -0.002077 0.000000 -0.016863 0.000000
# 2 -0.009813 0.051005 -0.007444 0.000000 0.008192 0.000000
# 3 -0.002077 -0.007444 0.014106 0.000000 -0.009181 0.000000
# 4 0.000000 0.000000 0.000000 0.062302 0.000000 -0.031026
# 5 -0.016863 0.008192 -0.009181 0.000000 0.080297 0.000000
# 6 0.000000 0.000000 0.000000 -0.031026 0.000000 0.114419
#
#
# Mechanical properties :
#
#
# Convention : Reuss Voigt Hill
#
# Bulk Modulus (GPa) = 22.49383 40.44791 31.47087
# Shear Modulus (GPa) = 12.70227 18.61187 15.65707
#
# Velocity S-wave (km/s) = 2.83836 3.43575 3.15124
# Velocity P-wave (km/s) = 5.00082 6.43372 5.76199
#
# Compressibility (1/GPa) = 0.04445663
#
# Stress axis : x y z
#
# Youngs Moduli (GPa) = 55.51294 19.60587 70.89264
#
# Poissons Ratio (x) = 0.19239 0.14727
# Poissons Ratio (y) = 0.54473 0.52773
# Poissons Ratio (z) = 0.11532 0.14595
#
# Static dielectric constant tensor:
#      x y z
#    x 3.234160 0.000000 0.037020 
#    y 0.000000 2.633370 0.000000 
#    z 0.037020 0.000000 3.167300 
# 
# 
# High freq. dielectric constant tensor:
#      x y z
#    x 1.600680 0.000000 0.004930 
#    y 0.000000 1.570840 0.000000 
#    z 0.004930 0.000000 1.593490 
# 
# From -- ./inp_files/66032.got.cif
#   From: 2010.06.25/outbox.cif.g09.slc.cpg/sg10_34_cif.got.tgz:66032.got - 2010.06.27 22:07:45.
