data_PCOD8057557
_publ_section_title
;
Structure prediction by ZEFSAII (Michael W. Deem and Ramdas Pophale) SiO2 
 PCOD8057557
Probable space group: P 2/M
;
_chemical_formula_sum "Si O2"
_cell_formula_units_Z 32
_cell_length_a 20.513701
_cell_length_b 9.392195
_cell_length_c 14.845481
_cell_angle_alpha 90.000000
_cell_angle_beta 137.648966
_cell_angle_gamma 90.000000
_cell_volume 1926.873821
_symmetry_space_group_name_H-M "P 2/M"
_symmetry_group_IT_number 10
_symmetry_cell_setting 'monoclinic'
loop_
_space_group_symop_operation_xyz
x,y,z
-x,y,-z
-x,-y,-z
x,-y,z
loop_
_atom_site_type_symbol
_atom_site_label
_atom_site_fract_x
_atom_site_fract_y
_atom_site_fract_z
Si Si1 0.822177 0.335835 0.991197
Si Si2 0.461439 0.338889 0.334527
Si Si3 0.792133 0.841348 0.643252
Si Si4 0.601864 0.164656 0.366677
Si Si5 0.470584 0.166788 0.067622
Si Si6 0.974351 0.336027 0.874715
Si Si7 0.674288 0.657229 0.977196
Si Si8 0.310709 0.163630 0.274369
O O1 0.796461 0.500000 0.938665
O O2 0.783216 0.304211 0.053549
O O3 0.937378 0.312487 0.104363
O O4 0.775314 0.228740 0.872641
O O5 0.485911 0.500000 0.389660
O O6 0.558161 0.259455 0.402248
O O7 0.410002 0.254196 0.364153
O O8 0.387375 0.336635 0.176524
O O9 0.718483 0.810803 0.484356
O O10 0.881661 0.735825 0.735074
O O11 0.722626 0.825764 0.657688
O O12 0.835514 0.000000 0.681424
O O13 0.556718 0.208761 0.224191
O O14 0.577347 0.000000 0.362592
O O15 0.452264 0.000000 0.044974
O O16 0.500000 0.226764 0.000000
O O17 0.368024 0.234530 0.992581
O O18 0.947084 0.500000 0.859219
O O19 0.000000 0.272227 0.000000
O O20 0.671164 0.500000 0.017365
O O21 0.328863 0.000000 0.263361
#
# Coordination Sequence:
#
# PCOD8057557 Si02
#       8
#     4   4   4   4   4   4   4   4
#     4   9  17  30  45  64  90 119 154 193 229 261
#     4   9  17  29  44  62  86 117 154 189 221 260
#     4  10  21  32  43  62  89 121 155 191 228 269
#     4   9  18  33  47  62  90 121 147 181 228 275
#     4   9  17  30  50  73  93 114 143 179 221 274
#     4  10  19  31  48  66  87 120 159 199 236 262
#     4   8  15  27  44  66  92 117 142 177 220 268
#     4  10  18  27  41  61  85 118 156 189 223 261
#
# _framework density 16.607211
#
# number of rings (size 3 to 8) (size 9 to 14) (size 15 to 20)
#    0.000    2.750    1.250    1.500    0.000    5.500 
#    0.000    2.500    0.000    0.000    0.000    0.875 
#    0.000    7.000    0.000    0.000    0.000    0.000 
#
# Total GULP energy -396635.003662 kJ/mol
# GULP energy per Si atom -12394.843864 kJ/mol
# Density = 1.656941 g / cm^3
# Si number density = 16.607211 Si / 1000 Ang^3
#
#
#
# Elastic Constant Matrix: (Units=GPa)
#
#
# Indices 1 2 3 4 5 6 
#
# 1 103.1212 38.8740 41.3520 0.0000 9.6765 0.0000
# 2 38.8740 74.6284 32.5327 0.0000 10.4164 0.0000
# 3 41.3520 32.5327 61.5053 0.0000 13.5733 0.0000
# 4 0.0000 0.0000 0.0000 17.6530 0.0000 8.1716
# 5 9.6765 10.4164 13.5733 0.0000 23.2657 0.0000
# 6 0.0000 0.0000 0.0000 8.1716 0.0000 27.1650
#
#
#
# Elastic Compliance Matrix: (Units=1/GPa)
#
#
# Indices 1 2 3 4 5 6 
#
# 1 0.014229 -0.004229 -0.007394 0.000000 0.000289 0.000000
# 2 -0.004229 0.018831 -0.006479 0.000000 -0.002892 0.000000
# 3 -0.007394 -0.006479 0.026786 0.000000 -0.009652 0.000000
# 4 0.000000 0.000000 0.000000 0.065812 0.000000 -0.019797
# 5 0.000289 -0.002892 -0.009652 0.000000 0.049787 0.000000
# 6 0.000000 0.000000 0.000000 -0.019797 0.000000 0.042767
#
#
# Mechanical properties :
#
#
# Convention : Reuss Voigt Hill
#
# Bulk Modulus (GPa) = 42.29469 51.64136 46.96802
# Shear Modulus (GPa) = 19.06237 22.04981 20.55609
#
# Velocity S-wave (km/s) = 3.39165 3.64775 3.52203
# Velocity P-wave (km/s) = 6.39223 6.99319 6.69945
#
# Compressibility (1/GPa) = 0.02364363
#
# Stress axis : x y z
#
# Youngs Moduli (GPa) = 70.27686 53.10492 37.33234
#
# Poissons Ratio (x) = 0.22460 0.27602
# Poissons Ratio (y) = 0.29723 0.24186
# Poissons Ratio (z) = 0.51960 0.34404
#
# Static dielectric constant tensor:
#      x y z
#    x 3.201200 0.000000 0.146270 
#    y 0.000000 3.220910 0.000000 
#    z 0.146270 0.000000 2.924340 
# 
# 
# High freq. dielectric constant tensor:
#      x y z
#    x 1.626110 0.000000 0.018840 
#    y 0.000000 1.643920 0.000000 
#    z 0.018840 0.000000 1.604910 
# 
# From -- ./inp_files/66117.got.cif
#   From: 2010.06.25/outbox.cif.g09.slc.cpg/sg10_34_cif.got.tgz:66117.got - 2010.06.27 22:07:45.
