data_PCOD8057008
_publ_section_title
;
Structure prediction by ZEFSAII (Michael W. Deem and Ramdas Pophale) SiO2 
 PCOD8057008
Probable space group: P 2/M
;
_chemical_formula_sum "Si O2"
_cell_formula_units_Z 32
_cell_length_a 12.180708
_cell_length_b 9.175845
_cell_length_c 24.060343
_cell_angle_alpha 90.000000
_cell_angle_beta 131.072776
_cell_angle_gamma 90.000000
_cell_volume 2027.309875
_symmetry_space_group_name_H-M "P 2/M"
_symmetry_group_IT_number 10
_symmetry_cell_setting 'monoclinic'
loop_
_space_group_symop_operation_xyz
x,y,z
-x,y,-z
-x,-y,-z
x,-y,z
loop_
_atom_site_type_symbol
_atom_site_label
_atom_site_fract_x
_atom_site_fract_y
_atom_site_fract_z
Si Si1 0.333396 0.168502 0.007546
Si Si2 0.663635 0.830960 0.118946
Si Si3 0.831094 0.834862 0.612126
Si Si4 0.643988 0.164536 0.661361
Si Si5 0.884893 0.331590 0.798443
Si Si6 0.932527 0.671902 0.035402
Si Si7 0.406566 0.665052 0.524817
Si Si8 0.071326 0.669042 0.751176
O O1 0.317340 0.219097 0.938463
O O2 0.226600 0.259333 0.011104
O O3 0.292420 0.000000 0.999086
O O4 0.497940 0.196170 0.082990
O O5 0.766660 0.734535 0.192420
O O6 0.706145 0.000000 0.139392
O O7 0.735197 0.834024 0.635395
O O8 0.744448 0.750715 0.534812
O O9 0.982378 0.751808 0.673481
O O10 0.862860 0.000000 0.603429
O O11 0.738069 0.238968 0.741321
O O12 0.495297 0.254442 0.603214
O O13 0.605008 0.000000 0.666028
O O14 0.839412 0.500000 0.786919
O O15 0.960902 0.275946 0.879911
O O16 0.996526 0.304705 0.785599
O O17 0.912192 0.500000 0.030287
O O18 0.000000 0.725805 0.000000
O O19 0.500000 0.664786 0.500000
O O20 0.372300 0.500000 0.532046
O O21 0.078728 0.500000 0.737831
#
# Coordination Sequence:
#
# PCOD8057008 Si02
#       8
#     4   4   4   4   4   4   4   4
#     4   9  18  31  46  63  83 107 139 175 216 261
#     4   9  17  29  44  62  84 109 136 175 218 256
#     4   9  16  24  34  50  75 105 135 168 203 243
#     4   9  16  24  36  52  70  98 134 171 206 242
#     4   9  17  28  39  55  78 104 136 173 211 251
#     4  10  20  33  47  63  85 112 142 179 221 261
#     4   9  15  23  34  49  71 100 133 168 202 241
#     4  10  17  25  39  59  80 107 140 174 209 250
#
# _framework density 15.784464
#
# number of rings (size 3 to 8) (size 9 to 14) (size 15 to 20)
#    0.000    2.750    1.250    2.250    0.000    6.250 
#    0.000    1.250    0.000    0.000    0.000    0.000 
#    0.000    0.000    0.000    1.125    0.000   21.875 
#
# Total GULP energy -396786.718864 kJ/mol
# GULP energy per Si atom -12399.584964 kJ/mol
# Density = 1.574854 g / cm^3
# Si number density = 15.784464 Si / 1000 Ang^3
#
#
#
# Elastic Constant Matrix: (Units=GPa)
#
#
# Indices 1 2 3 4 5 6 
#
# 1 51.8113 29.7045 33.0890 0.0000 10.1722 0.0000
# 2 29.7045 105.3518 62.2889 0.0000 20.6212 0.0000
# 3 33.0890 62.2889 110.0772 0.0000 31.0910 0.0000
# 4 0.0000 0.0000 0.0000 31.7191 0.0000 9.9290
# 5 10.1722 20.6212 31.0910 0.0000 19.3895 0.0000
# 6 0.0000 0.0000 0.0000 9.9290 0.0000 15.5783
#
#
#
# Elastic Compliance Matrix: (Units=1/GPa)
#
#
# Indices 1 2 3 4 5 6 
#
# 1 0.024917 -0.003867 -0.005066 0.000000 -0.000837 0.000000
# 2 -0.003867 0.015042 -0.006222 0.000000 -0.003992 0.000000
# 3 -0.005066 -0.006222 0.021035 0.000000 -0.024455 0.000000
# 4 0.000000 0.000000 0.000000 0.039384 0.000000 -0.025102
# 5 -0.000837 -0.003992 -0.024455 0.000000 0.095474 0.000000
# 6 0.000000 0.000000 0.000000 -0.025102 0.000000 0.080191
#
#
# Mechanical properties :
#
#
# Convention : Reuss Voigt Hill
#
# Bulk Modulus (GPa) = 32.58763 57.48947 45.03855
# Shear Modulus (GPa) = 15.79370 22.81457 19.30413
#
# Velocity S-wave (km/s) = 3.16663 3.80594 3.50091
# Velocity P-wave (km/s) = 5.83612 7.47089 6.70353
#
# Compressibility (1/GPa) = 0.03068649
#
# Stress axis : x y z
#
# Youngs Moduli (GPa) = 40.13309 66.47846 47.53877
#
# Poissons Ratio (x) = 0.25705 0.24081
# Poissons Ratio (y) = 0.15518 0.29579
# Poissons Ratio (z) = 0.20330 0.41363
#
# Static dielectric constant tensor:
#      x y z
#    x 2.473100 0.000000 0.227060 
#    y 0.000000 3.079840 0.000000 
#    z 0.227060 0.000000 3.084950 
# 
# 
# High freq. dielectric constant tensor:
#      x y z
#    x 1.534260 0.000000 0.033400 
#    y 0.000000 1.617280 0.000000 
#    z 0.033400 0.000000 1.608690 
# 
# From -- ./inp_files/56402.got.cif
#   From: 2010.06.25/outbox.cif.g09.slc.cpg/sg10_29_cif.got.tgz:56402.got - 2010.06.27 22:07:45.
