data_PCOD8057125
_publ_section_title
;
Structure prediction by ZEFSAII (Michael W. Deem and Ramdas Pophale) SiO2 
 PCOD8057125
Probable space group: P 2/M
;
_chemical_formula_sum "Si O2"
_cell_formula_units_Z 32
_cell_length_a 16.913056
_cell_length_b 9.338933
_cell_length_c 16.767825
_cell_angle_alpha 90.000000
_cell_angle_beta 50.605914
_cell_angle_gamma 90.000000
_cell_volume 2046.740007
_symmetry_space_group_name_H-M "P 2/M"
_symmetry_group_IT_number 10
_symmetry_cell_setting 'monoclinic'
loop_
_space_group_symop_operation_xyz
x,y,z
-x,y,-z
-x,-y,-z
x,-y,z
loop_
_atom_site_type_symbol
_atom_site_label
_atom_site_fract_x
_atom_site_fract_y
_atom_site_fract_z
Si Si1 0.403723 0.167796 0.009036
Si Si2 0.534739 0.167538 0.208539
Si Si3 0.179696 0.664172 0.547862
Si Si4 0.661470 0.659684 0.688145
Si Si5 0.756855 0.664034 0.796293
Si Si6 0.350518 0.669927 0.550716
Si Si7 0.564752 0.668951 0.339374
Si Si8 0.977862 0.328506 0.603084
O O1 0.298295 0.244695 0.100163
O O2 0.389914 0.000000 0.032168
O O3 0.500000 0.223710 0.000000
O O4 0.419127 0.206378 0.906769
O O5 0.418725 0.221616 0.286842
O O6 0.598163 0.247518 0.237848
O O7 0.536850 0.000000 0.223824
O O8 0.165675 0.500000 0.580508
O O9 0.235497 0.680640 0.427477
O O10 0.248188 0.736659 0.574675
O O11 0.066448 0.730076 0.606886
O O12 0.616333 0.500000 0.700858
O O13 0.687133 0.679101 0.763497
O O14 0.764506 0.500000 0.819748
O O15 0.869658 0.727300 0.706202
O O16 0.347666 0.500000 0.546914
O O17 0.450408 0.718182 0.437272
O O18 0.358606 0.716257 0.638066
O O19 0.571612 0.500000 0.319749
O O20 0.977958 0.500000 0.599323
O O21 0.000000 0.268646 0.500000
#
# Coordination Sequence:
#
# PCOD8057125 Si02
#       8
#     4   4   4   4   4   4   4   4
#     4  10  21  35  46  59  86 123 153 181 224 272
#     4  11  21  31  44  63  87 119 154 183 222 267
#     4   9  14  23  42  66  93 124 150 170 209 266
#     4  10  17  26  44  66  90 120 151 181 213 254
#     4  10  19  29  45  70  92 115 152 191 220 247
#     4   8  14  24  42  67  91 119 147 175 215 267
#     4   9  16  28  45  65  90 115 148 185 217 261
#     4   9  15  24  40  68  99 119 141 180 221 257
#
# _framework density 15.634619000000001
#
# number of rings (size 3 to 8) (size 9 to 14) (size 15 to 20)
#    0.000    2.500    3.750    1.125    0.000    1.250 
#    0.000    1.250    0.000    1.125    0.000    0.875 
#    0.000    7.000    0.000    0.000    0.000    0.000 
#
# Total GULP energy -396567.911304 kJ/mol
# GULP energy per Si atom -12392.747228 kJ/mol
# Density = 1.559903 g / cm^3
# Si number density = 15.634619 Si / 1000 Ang^3
#
#
#
# Elastic Constant Matrix: (Units=GPa)
#
#
# Indices 1 2 3 4 5 6 
#
# 1 106.6296 26.6842 56.2491 0.0000 5.7734 0.0000
# 2 26.6842 33.3188 33.9138 0.0000 8.2145 0.0000
# 3 56.2491 33.9138 82.4538 0.0000 8.6287 0.0000
# 4 0.0000 0.0000 0.0000 10.9811 0.0000 5.5271
# 5 5.7734 8.2145 8.6287 0.0000 25.7628 0.0000
# 6 0.0000 0.0000 0.0000 5.5271 0.0000 12.4833
#
#
#
# Elastic Compliance Matrix: (Units=1/GPa)
#
#
# Indices 1 2 3 4 5 6 
#
# 1 0.014800 -0.002857 -0.008985 0.000000 0.000603 0.000000
# 2 -0.002857 0.054622 -0.019444 0.000000 -0.010264 0.000000
# 3 -0.008985 -0.019444 0.026317 0.000000 -0.000601 0.000000
# 4 0.000000 0.000000 0.000000 0.117179 0.000000 -0.051882
# 5 0.000603 -0.010264 -0.000601 0.000000 0.042154 0.000000
# 6 0.000000 0.000000 0.000000 -0.051882 0.000000 0.103078
#
#
# Mechanical properties :
#
#
# Convention : Reuss Voigt Hill
#
# Bulk Modulus (GPa) = 30.14779 50.67739 40.41259
# Shear Modulus (GPa) = 11.58004 16.88245 14.23124
#
# Velocity S-wave (km/s) = 2.72447 3.28961 3.02029
# Velocity P-wave (km/s) = 5.40570 6.84928 6.16986
#
# Compressibility (1/GPa) = 0.03316993
#
# Stress axis : x y z
#
# Youngs Moduli (GPa) = 67.56752 18.30755 37.99757
#
# Poissons Ratio (x) = 0.05230 0.34139
# Poissons Ratio (y) = 0.19302 0.73881
# Poissons Ratio (z) = 0.60707 0.35597
#
# Static dielectric constant tensor:
#      x y z
#    x 3.327300 0.000000 0.092370 
#    y 0.000000 2.640710 0.000000 
#    z 0.092370 0.000000 2.861800 
# 
# 
# High freq. dielectric constant tensor:
#      x y z
#    x 1.599310 0.000000 0.011530 
#    y 0.000000 1.560230 0.000000 
#    z 0.011530 0.000000 1.578150 
# 
# From -- ./inp_files/78515.got.cif
#   From: 2010.06.25/outbox.cif.g09.slc.cpg/sg10_40_cif.got.tgz:78515.got - 2010.06.27 22:07:45.
