data_PCOD8057279
_publ_section_title
;
Structure prediction by ZEFSAII (Michael W. Deem and Ramdas Pophale) SiO2 
 PCOD8057279
Probable space group: P 2/M
;
_chemical_formula_sum "Si O2"
_cell_formula_units_Z 20
_cell_length_a 14.887272
_cell_length_b 8.611489
_cell_length_c 16.315339
_cell_angle_alpha 90.000000
_cell_angle_beta 26.093357
_cell_angle_gamma 90.000000
_cell_volume 919.981955
_symmetry_space_group_name_H-M "P 2/M"
_symmetry_group_IT_number 10
_symmetry_cell_setting 'monoclinic'
loop_
_space_group_symop_operation_xyz
x,y,z
-x,y,-z
-x,-y,-z
x,-y,z
loop_
_atom_site_type_symbol
_atom_site_label
_atom_site_fract_x
_atom_site_fract_y
_atom_site_fract_z
Si Si1 0.194626 0.816020 0.729439
Si Si2 0.534789 0.317861 0.063944
Si Si3 0.416590 0.683595 0.685012
Si Si4 0.356185 0.182098 0.362152
Si Si5 0.023132 0.682627 0.232870
O O1 0.213805 0.758320 0.808451
O O2 0.385269 0.743972 0.525034
O O3 0.995149 0.752126 0.844988
O O4 0.199685 0.000000 0.722407
O O5 0.492982 0.500000 0.107217
O O6 0.373139 0.226531 0.252840
O O7 0.500000 0.261366 0.000000
O O8 0.761174 0.271459 0.905943
O O9 0.398567 0.500000 0.695691
O O10 0.447482 0.739229 0.753175
O O11 0.143688 0.245488 0.570008
O O12 0.364606 0.000000 0.369484
O O13 0.989183 0.500000 0.255721
#
# Coordination Sequence:
#
# PCOD8057279 Si02
#       5
#     4   4   4   4   4
#     4  10  17  28  49  80 117 151 187 230 280 334
#     4  10  23  43  64  85 111 147 193 243 291 341
#     4  10  17  29  51  79 113 152 194 231 271 330
#     4  11  22  37  59  87 120 153 188 234 288 343
#     4  10  20  37  61  86 115 152 194 236 281 339
#
# _framework density 21.739557000000001
#
# number of rings (size 3 to 8) (size 9 to 14) (size 15 to 20)
#    0.000    1.800    0.000    9.600    0.000    2.800 
#    0.000    5.000    0.000    6.000    0.000    0.000 
#    0.000    0.000    0.000    0.000    0.000    0.000 
#
# Total GULP energy -247985.181216 kJ/mol
# GULP energy per Si atom -12399.259061 kJ/mol
# Density = 2.169008 g / cm^3
# Si number density = 21.739557 Si / 1000 Ang^3
#
#
#
# Elastic Constant Matrix: (Units=GPa)
#
#
# Indices 1 2 3 4 5 6 
#
# 1 124.0207 27.5603 12.5577 0.0000 -3.4403 0.0000
# 2 27.5603 143.8440 6.5574 0.0000 -9.6947 0.0000
# 3 12.5577 6.5574 26.5529 0.0000 -4.6049 0.0000
# 4 0.0000 0.0000 0.0000 136.3583 0.0000 106.7486
# 5 -3.4403 -9.6947 -4.6049 0.0000 32.5740 0.0000
# 6 0.0000 0.0000 0.0000 106.7486 0.0000 106.0080
#
#
#
# Elastic Compliance Matrix: (Units=1/GPa)
#
#
# Indices 1 2 3 4 5 6 
#
# 1 0.008782 -0.001514 -0.003789 0.000000 -0.000059 0.000000
# 2 -0.001514 0.007408 -0.000778 0.000000 0.001935 0.000000
# 3 -0.003789 -0.000778 0.040529 0.000000 0.005098 0.000000
# 4 0.000000 0.000000 0.000000 0.034645 0.000000 -0.034888
# 5 -0.000059 0.001935 0.005098 0.000000 0.031990 0.000000
# 6 0.000000 0.000000 0.000000 -0.034888 0.000000 0.044565
#
#
# Mechanical properties :
#
#
# Convention : Reuss Voigt Hill
#
# Bulk Modulus (GPa) = 22.44358 43.08537 32.76448
# Shear Modulus (GPa) = 25.64989 71.50421 48.57705
#
# Velocity S-wave (km/s) = 3.43865 5.74131 4.73218
# Velocity P-wave (km/s) = 5.10999 7.98825 6.70538
#
# Compressibility (1/GPa) = 0.04455616
#
# Stress axis : x y z
#
# Youngs Moduli (GPa) = 113.87404 134.99140 24.67366
#
# Poissons Ratio (x) = 0.20434 0.09350
# Poissons Ratio (y) = 0.17238 0.01920
# Poissons Ratio (z) = 0.43152 0.10502
#
# Static dielectric constant tensor:
#      x y z
#    x 4.883260 0.000000 -0.052160 
#    y 0.000000 3.824190 0.000000 
#    z -0.052160 0.000000 3.643380 
# 
# 
# High freq. dielectric constant tensor:
#      x y z
#    x 1.867890 0.000000 0.000020 
#    y 0.000000 1.859160 0.000000 
#    z 0.000020 0.000000 1.834620 
# 
# From -- ./inp_files/33540.got.cif
#   From: 2010.06.25/outbox.cif.g09.slc.cpg/sg10_17_cif.got.tgz:33540.got - 2010.06.27 22:07:45.
