data_PCOD8057340
_publ_section_title
;
Structure prediction by ZEFSAII (Michael W. Deem and Ramdas Pophale) SiO2 
 PCOD8057340
Probable space group: P 2/M
;
_chemical_formula_sum "Si O2"
_cell_formula_units_Z 32
_cell_length_a 18.859292
_cell_length_b 14.468409
_cell_length_c 12.945703
_cell_angle_alpha 90.000000
_cell_angle_beta 26.001047
_cell_angle_gamma 90.000000
_cell_volume 1548.567120
_symmetry_space_group_name_H-M "P 2/M"
_symmetry_group_IT_number 10
_symmetry_cell_setting 'monoclinic'
loop_
_space_group_symop_operation_xyz
x,y,z
-x,y,-z
-x,-y,-z
x,-y,z
loop_
_atom_site_type_symbol
_atom_site_label
_atom_site_fract_x
_atom_site_fract_y
_atom_site_fract_z
Si Si1 0.542479 0.638101 0.054683
Si Si2 0.393129 0.148935 0.047381
Si Si3 0.143935 0.601429 0.240698
Si Si4 0.174067 0.244954 0.799037
Si Si5 0.072069 0.276710 0.152498
Si Si6 0.798764 0.391302 0.401355
Si Si7 0.349226 0.896659 0.436803
Si Si8 0.120327 0.895551 0.542730
O O1 0.386262 0.628209 0.329825
O O2 0.500000 0.592087 0.000000
O O3 0.600544 0.741626 0.961554
O O4 0.691461 0.586366 0.911725
O O5 0.210962 0.116423 0.313017
O O6 0.500000 0.106402 0.000000
O O7 0.463143 0.111068 0.846551
O O8 0.090954 0.500000 0.269542
O O9 0.174490 0.669636 0.104782
O O10 0.000000 0.642641 0.500000
O O11 0.178779 0.346311 0.740778
O O12 0.313060 0.175769 0.575946
O O13 0.190380 0.260315 0.900162
O O14 0.000000 0.198511 0.000000
O O15 0.914630 0.338386 0.330698
O O16 0.025352 0.176968 0.260156
O O17 0.839711 0.500000 0.344293
O O18 0.238303 0.870869 0.483940
O O19 0.315974 0.000000 0.521400
O O20 0.053291 0.000000 0.639512
#
# Coordination Sequence:
#
# PCOD8057340 Si02
#       8
#     4   4   4   4   4   4   4   4
#     4  11  21  37  64  90 122 152 192 246 300 356
#     4   9  16  30  52  83 121 151 186 242 303 360
#     4  11  24  40  60  90 122 156 196 239 304 371
#     4  10  20  35  52  81 118 160 207 247 296 347
#     4  11  22  39  58  84 125 164 196 245 304 358
#     4  11  21  36  58  85 116 157 210 254 290 345
#     4  10  17  29  52  86 122 154 197 253 305 352
#     4  10  18  30  54  87 119 156 201 248 303 359
#
# _framework density 20.664263999999999
#
# number of rings (size 3 to 8) (size 9 to 14) (size 15 to 20)
#    0.000    1.625    3.750    4.125    0.000    7.000 
#    0.000    0.625    0.000    5.625    0.000    0.875 
#    0.000    0.000    0.000    0.000    0.000    0.000 
#
# Total GULP energy -396720.782487 kJ/mol
# GULP energy per Si atom -12397.524453 kJ/mol
# Density = 2.061723 g / cm^3
# Si number density = 20.664264 Si / 1000 Ang^3
#
#
#
# Elastic Constant Matrix: (Units=GPa)
#
#
# Indices 1 2 3 4 5 6 
#
# 1 80.8449 35.0124 46.0362 0.0000 15.1846 0.0000
# 2 35.0124 139.0332 37.8720 0.0000 15.2786 0.0000
# 3 46.0362 37.8720 117.0920 0.0000 23.9044 0.0000
# 4 0.0000 0.0000 0.0000 39.2148 0.0000 -10.4950
# 5 15.1846 15.2786 23.9044 0.0000 28.3863 0.0000
# 6 0.0000 0.0000 0.0000 -10.4950 0.0000 24.2485
#
#
#
# Elastic Compliance Matrix: (Units=1/GPa)
#
#
# Indices 1 2 3 4 5 6 
#
# 1 0.017054 -0.002505 -0.005202 0.000000 -0.003394 0.000000
# 2 -0.002505 0.008409 -0.001310 0.000000 -0.002083 0.000000
# 3 -0.005202 -0.001310 0.012435 0.000000 -0.006984 0.000000
# 4 0.000000 0.000000 0.000000 0.028841 0.000000 0.012483
# 5 -0.003394 -0.002083 -0.006984 0.000000 0.044046 0.000000
# 6 0.000000 0.000000 0.000000 0.012483 0.000000 0.046642
#
#
# Mechanical properties :
#
#
# Convention : Reuss Voigt Hill
#
# Bulk Modulus (GPa) = 50.34009 63.86792 57.10400
# Shear Modulus (GPa) = 27.46020 32.90657 30.18339
#
# Velocity S-wave (km/s) = 3.64933 3.99487 3.82600
# Velocity P-wave (km/s) = 6.49389 7.22863 6.87109
#
# Compressibility (1/GPa) = 0.01986488
#
# Stress axis : x y z
#
# Youngs Moduli (GPa) = 58.63832 118.92063 80.41887
#
# Poissons Ratio (x) = 0.29786 0.41833
# Poissons Ratio (y) = 0.14687 0.10533
# Poissons Ratio (z) = 0.30503 0.15576
#
# Static dielectric constant tensor:
#      x y z
#    x 3.330340 0.000000 0.223940 
#    y 0.000000 3.737520 0.000000 
#    z 0.223940 0.000000 3.848530 
# 
# 
# High freq. dielectric constant tensor:
#      x y z
#    x 1.754530 0.000000 0.020460 
#    y 0.000000 1.820570 0.000000 
#    z 0.020460 0.000000 1.807160 
# 
# From -- ./inp_files/54006.got.cif
#   From: 2010.06.25/outbox.cif.g09.slc.cpg/sg10_28_cif.got.tgz:54006.got - 2010.06.27 22:07:45.
