data_PCOD8057234
_publ_section_title
;
Structure prediction by ZEFSAII (Michael W. Deem and Ramdas Pophale) SiO2 
 PCOD8057234
Probable space group: P 2/M
;
_chemical_formula_sum "Si O2"
_cell_formula_units_Z 24
_cell_length_a 12.259886
_cell_length_b 8.724477
_cell_length_c 23.500757
_cell_angle_alpha 90.000000
_cell_angle_beta 145.304742
_cell_angle_gamma 90.000000
_cell_volume 1430.807918
_symmetry_space_group_name_H-M "P 2/M"
_symmetry_group_IT_number 10
_symmetry_cell_setting 'monoclinic'
loop_
_space_group_symop_operation_xyz
x,y,z
-x,y,-z
-x,-y,-z
x,-y,z
loop_
_atom_site_type_symbol
_atom_site_label
_atom_site_fract_x
_atom_site_fract_y
_atom_site_fract_z
Si Si1 0.582589 0.679901 0.777744
Si Si2 0.272992 0.180456 0.351031
Si Si3 0.805771 0.682116 0.443697
Si Si4 0.314745 0.318518 0.484846
Si Si5 0.086035 0.678643 0.168531
Si Si6 0.830605 0.173101 0.972539
O O1 0.580217 0.500000 0.787744
O O2 0.376029 0.744331 0.669888
O O3 0.732862 0.721740 0.792900
O O4 0.639288 0.759257 0.861617
O O5 0.212182 0.231964 0.388476
O O6 0.464191 0.270625 0.415338
O O7 0.105494 0.227903 0.235672
O O8 0.310658 0.000000 0.365627
O O9 0.803589 0.500000 0.439209
O O10 0.792939 0.733211 0.503891
O O11 0.000000 0.750557 0.500000
O O12 0.304239 0.500000 0.470951
O O13 0.076307 0.500000 0.178112
O O14 0.889599 0.729612 0.053416
O O15 0.791104 0.000000 0.974724
O O16 0.000000 0.184729 0.000000
#
# Coordination Sequence:
#
# PCOD8057234 Si02
#       6
#     4   4   4   4   4   4
#     4   9  16  28  44  64  90 122 155 190 227 269
#     4  11  20  29  44  67  95 125 153 190 235 280
#     4   9  17  30  49  71  93 121 160 199 230 263
#     4  10  18  31  47  66  91 123 159 193 230 275
#     4  10  17  28  45  67  91 122 155 187 228 280
#     4   9  17  27  40  63  92 122 150 185 229 277
#
# _framework density 16.77374
#
# number of rings (size 3 to 8) (size 9 to 14) (size 15 to 20)
#    0.000    2.333    1.667    4.000    0.000    2.667 
#    0.000    0.000    0.000    4.500    0.000    1.167 
#    0.000    9.333    0.000    0.000    0.000    0.000 
#
# Total GULP energy -297572.004565 kJ/mol
# GULP energy per Si atom -12398.833524 kJ/mol
# Density = 1.673556 g / cm^3
# Si number density = 16.773740 Si / 1000 Ang^3
#
#
#
# Elastic Constant Matrix: (Units=GPa)
#
#
# Indices 1 2 3 4 5 6 
#
# 1 74.4910 17.1651 48.8044 0.0000 -8.6105 0.0000
# 2 17.1651 57.0529 36.9607 0.0000 -8.6930 0.0000
# 3 48.8044 36.9607 142.4734 0.0000 -20.2271 0.0000
# 4 0.0000 0.0000 0.0000 23.1588 0.0000 -6.1909
# 5 -8.6105 -8.6930 -20.2271 0.0000 22.0453 0.0000
# 6 0.0000 0.0000 0.0000 -6.1909 0.0000 7.9939
#
#
#
# Elastic Compliance Matrix: (Units=1/GPa)
#
#
# Indices 1 2 3 4 5 6 
#
# 1 0.017468 -0.001567 -0.005400 0.000000 0.001250 0.000000
# 2 -0.001567 0.021487 -0.004509 0.000000 0.003724 0.000000
# 3 -0.005400 -0.004509 0.010907 0.000000 0.006121 0.000000
# 4 0.000000 0.000000 0.000000 0.054454 0.000000 0.042172
# 5 0.001250 0.003724 0.006121 0.000000 0.052934 0.000000
# 6 0.000000 0.000000 0.000000 0.042172 0.000000 0.157756
#
#
# Mechanical properties :
#
#
# Convention : Reuss Voigt Hill
#
# Bulk Modulus (GPa) = 37.15858 53.31976 45.23917
# Shear Modulus (GPa) = 14.41227 22.04541 18.22884
#
# Velocity S-wave (km/s) = 2.93442 3.62923 3.30016
# Velocity P-wave (km/s) = 5.80362 7.02982 6.44595
#
# Compressibility (1/GPa) = 0.02691168
#
# Stress axis : x y z
#
# Youngs Moduli (GPa) = 57.24860 46.53883 91.68303
#
# Poissons Ratio (x) = 0.07292 0.49505
# Poissons Ratio (y) = 0.08970 0.41339
# Poissons Ratio (z) = 0.30912 0.20984
#
# Static dielectric constant tensor:
#      x y z
#    x 2.903660 0.000000 -0.198340 
#    y 0.000000 3.042080 0.000000 
#    z -0.198340 0.000000 3.405110 
# 
# 
# High freq. dielectric constant tensor:
#      x y z
#    x 1.588480 0.000000 -0.027080 
#    y 0.000000 1.643390 0.000000 
#    z -0.027080 0.000000 1.656600 
# 
# From -- ./inp_files/48672.got.cif
#   From: 2010.06.25/outbox.cif.g09.slc.cpg/sg10_25_cif.got.tgz:48672.got - 2010.06.27 22:07:45.
