data_PCOD8057093
_publ_section_title
;
Structure prediction by ZEFSAII (Michael W. Deem and Ramdas Pophale) SiO2 
 PCOD8057093
Probable space group: P 2/M
;
_chemical_formula_sum "Si O2"
_cell_formula_units_Z 24
_cell_length_a 12.445599
_cell_length_b 9.093016
_cell_length_c 21.947728
_cell_angle_alpha 90.000000
_cell_angle_beta 142.801962
_cell_angle_gamma 90.000000
_cell_volume 1501.624142
_symmetry_space_group_name_H-M "P 2/M"
_symmetry_group_IT_number 10
_symmetry_cell_setting 'monoclinic'
loop_
_space_group_symop_operation_xyz
x,y,z
-x,y,-z
-x,-y,-z
x,-y,z
loop_
_atom_site_type_symbol
_atom_site_label
_atom_site_fract_x
_atom_site_fract_y
_atom_site_fract_z
Si Si1 0.529614 0.826681 0.946605
Si Si2 0.734145 0.827926 0.278076
Si Si3 0.768267 0.173529 0.837610
Si Si4 0.581128 0.326089 0.326658
Si Si5 0.843776 0.826034 0.007887
Si Si6 0.062515 0.662426 0.458945
O O1 0.359957 0.790102 0.828189
O O2 0.554839 0.000000 0.964566
O O3 0.500000 0.755613 0.000000
O O4 0.710046 0.759698 0.998138
O O5 0.628543 0.746472 0.283576
O O6 0.939214 0.774783 0.365571
O O7 0.729800 0.000000 0.290573
O O8 0.604988 0.260661 0.733137
O O9 0.951361 0.216915 0.885401
O O10 0.731921 0.000000 0.817141
O O11 0.785391 0.229385 0.914897
O O12 0.568915 0.500000 0.311411
O O13 0.730619 0.287744 0.445440
O O14 0.826788 0.000000 0.998369
O O15 0.043617 0.500000 0.421169
O O16 0.000000 0.657332 0.500000
#
# Coordination Sequence:
#
# PCOD8057093 Si02
#       6
#     4   4   4   4   4   4
#     4   9  16  26  42  64  87 111 140 171 206 247
#     4  10  17  26  42  62  83 110 143 176 204 240
#     4   9  15  25  43  62  83 110 140 171 205 249
#     4  10  18  27  40  60  87 115 138 166 211 257
#     4   8  14  25  40  60  85 111 137 170 210 247
#     4   8  16  28  39  55  83 114 137 165 212 258
#
# _framework density 15.982694
#
# number of rings (size 3 to 8) (size 9 to 14) (size 15 to 20)
#    0.000    3.000    1.667    3.000    0.000    3.667 
#    0.000    1.667    0.000    2.000    0.000    1.167 
#    0.000    9.333    0.000    0.000    0.000    0.000 
#
# Total GULP energy -297391.445478 kJ/mol
# GULP energy per Si atom -12391.310228 kJ/mol
# Density = 1.594632 g / cm^3
# Si number density = 15.982694 Si / 1000 Ang^3
#
#
#
# Elastic Constant Matrix: (Units=GPa)
#
#
# Indices 1 2 3 4 5 6 
#
# 1 87.5506 23.5283 60.3267 0.0000 16.0058 0.0000
# 2 23.5283 54.5048 47.4805 0.0000 11.2185 0.0000
# 3 60.3267 47.4805 120.7625 0.0000 31.1697 0.0000
# 4 0.0000 0.0000 0.0000 10.2443 0.0000 6.7178
# 5 16.0058 11.2185 31.1697 0.0000 29.2763 0.0000
# 6 0.0000 0.0000 0.0000 6.7178 0.0000 8.4740
#
#
#
# Elastic Compliance Matrix: (Units=1/GPa)
#
#
# Indices 1 2 3 4 5 6 
#
# 1 0.017420 0.000082 -0.008643 0.000000 -0.000353 0.000000
# 2 0.000082 0.027944 -0.011380 0.000000 0.001363 0.000000
# 3 -0.008643 -0.011380 0.020308 0.000000 -0.012535 0.000000
# 4 0.000000 0.000000 0.000000 0.203301 0.000000 -0.161167
# 5 -0.000353 0.001363 -0.012535 0.000000 0.047174 0.000000
# 6 0.000000 0.000000 0.000000 -0.161167 0.000000 0.245774
#
#
# Mechanical properties :
#
#
# Convention : Reuss Voigt Hill
#
# Bulk Modulus (GPa) = 38.77341 58.38765 48.58053
# Shear Modulus (GPa) = 8.19134 18.36442 13.27788
#
# Velocity S-wave (km/s) = 2.26633 3.39340 2.88543
# Velocity P-wave (km/s) = 5.58217 7.20865 6.44691
#
# Compressibility (1/GPa) = 0.02579087
#
# Stress axis : x y z
#
# Youngs Moduli (GPa) = 57.40484 35.78574 49.24108
#
# Poissons Ratio (x) = -0.00295 0.42562
# Poissons Ratio (y) = -0.00473 0.56035
# Poissons Ratio (z) = 0.49618 0.40723
#
# Static dielectric constant tensor:
#      x y z
#    x 3.113160 0.000000 0.390790 
#    y 0.000000 2.813000 0.000000 
#    z 0.390790 0.000000 3.309890 
# 
# 
# High freq. dielectric constant tensor:
#      x y z
#    x 1.573220 0.000000 0.036930 
#    y 0.000000 1.589110 0.000000 
#    z 0.036930 0.000000 1.614250 
# 
# From -- ./inp_files/48650.got.cif
#   From: 2010.06.25/outbox.cif.g09.slc.cpg/sg10_25_cif.got.tgz:48650.got - 2010.06.27 22:07:45.
