data_PCOD8057543
_publ_section_title
;
Structure prediction by ZEFSAII (Michael W. Deem and Ramdas Pophale) SiO2 
 PCOD8057543
Probable space group: P 2/M
;
_chemical_formula_sum "Si O2"
_cell_formula_units_Z 32
_cell_length_a 20.245686
_cell_length_b 13.205253
_cell_length_c 25.570103
_cell_angle_alpha 90.000000
_cell_angle_beta 161.490039
_cell_angle_gamma 90.000000
_cell_volume 2170.269843
_symmetry_space_group_name_H-M "P 2/M"
_symmetry_group_IT_number 10
_symmetry_cell_setting 'monoclinic'
loop_
_space_group_symop_operation_xyz
x,y,z
-x,y,-z
-x,-y,-z
x,-y,z
loop_
_atom_site_type_symbol
_atom_site_label
_atom_site_fract_x
_atom_site_fract_y
_atom_site_fract_z
Si Si1 0.403391 0.619986 0.122652
Si Si2 0.825175 0.619984 0.243256
Si Si3 0.723586 0.379493 0.449765
Si Si4 0.489921 0.620646 0.909868
Si Si5 0.050298 0.383155 0.186812
Si Si6 0.533640 0.113724 0.586896
Si Si7 0.374354 0.694705 0.510767
Si Si8 0.824664 0.279864 0.825261
O O1 0.415878 0.500000 0.129082
O O2 0.541238 0.658124 0.274611
O O3 0.494351 0.666046 0.136799
O O4 0.166588 0.656365 0.951840
O O5 0.820401 0.500000 0.238894
O O6 0.723270 0.657393 0.221688
O O7 0.061077 0.657621 0.414743
O O8 0.687543 0.660377 0.091471
O O9 0.719386 0.500000 0.456488
O O10 0.698490 0.321090 0.485073
O O11 0.494836 0.500000 0.911283
O O12 0.033246 0.500000 0.158003
O O13 0.231300 0.370596 0.365057
O O14 0.092368 0.319606 0.167014
O O15 0.500000 0.115494 0.500000
O O16 0.359994 0.185457 0.484479
O O17 0.761678 0.161265 0.770971
O O18 0.518821 0.000000 0.598189
O O19 0.615183 0.658241 0.684540
O O20 0.000000 0.294339 0.000000
#
# Coordination Sequence:
#
# PCOD8057543 Si02
#       8
#     4   4   4   4   4   4   4   4
#     4   9  18  27  38  56  82 118 150 184 220 246
#     4   8  14  23  38  55  76 110 149 187 213 246
#     4  10  18  27  39  60  88 117 147 179 218 255
#     4   8  13  24  37  53  75 107 154 187 212 247
#     4  11  20  31  44  61  87 121 156 181 209 252
#     4   9  18  36  54  69  85 106 141 184 227 269
#     4  10  19  32  45  65  81 115 146 178 217 258
#     4  10  20  33  47  68  89 111 145 176 223 262
#
# _framework density 14.74471
#
# number of rings (size 3 to 8) (size 9 to 14) (size 15 to 20)
#    0.750    1.875    1.250    3.000    0.000    4.500 
#    0.000    2.500    0.000    0.000    0.000    0.000 
#    0.000    0.000    0.000   12.375    0.000    1.375 
#
# Total GULP energy -396521.409434 kJ/mol
# GULP energy per Si atom -12391.294045 kJ/mol
# Density = 1.471115 g / cm^3
# Si number density = 14.744710 Si / 1000 Ang^3
#
#
#
# Elastic Constant Matrix: (Units=GPa)
#
#
# Indices 1 2 3 4 5 6 
#
# 1 107.0439 20.0462 50.0449 0.0000 3.5985 0.0000
# 2 20.0462 38.6972 12.6657 0.0000 6.0669 0.0000
# 3 50.0449 12.6657 104.9263 0.0000 -0.3603 0.0000
# 4 0.0000 0.0000 0.0000 4.6592 0.0000 -6.1410
# 5 3.5985 6.0669 -0.3603 0.0000 25.7357 0.0000
# 6 0.0000 0.0000 0.0000 -6.1410 0.0000 7.8890
#
#
#
# Elastic Compliance Matrix: (Units=1/GPa)
#
#
# Indices 1 2 3 4 5 6 
#
# 1 0.012852 -0.004717 -0.005563 0.000000 -0.000763 0.000000
# 2 -0.004717 0.029729 -0.001361 0.000000 -0.006368 0.000000
# 3 -0.005563 -0.001361 0.012352 0.000000 0.001272 0.000000
# 4 0.000000 0.000000 0.000000 -8.255204 0.000000 -6.426081
# 5 -0.000763 -0.006368 0.001272 0.000000 0.040482 0.000000
# 6 0.000000 0.000000 0.000000 -6.426081 0.000000 -4.875482
#
#
# Mechanical properties :
#
#
# Convention : Reuss Voigt Hill
#
# Bulk Modulus (GPa) = 31.59384 46.24232 38.91808
# Shear Modulus (GPa) = -0.38457 18.85081 9.23312
#
# Velocity S-wave (km/s) = -0.51126 3.57946 2.50511
# Velocity P-wave (km/s) = 4.59622 6.96516 5.90079
#
# Compressibility (1/GPa) = 0.03165174
#
# Stress axis : x y z
#
# Youngs Moduli (GPa) = 77.81042 33.63720 80.95633
#
# Poissons Ratio (x) = 0.15867 0.45035
# Poissons Ratio (y) = 0.36705 0.11015
# Poissons Ratio (z) = 0.43285 0.04577
#
# Static dielectric constant tensor:
#      x y z
#    x 3.061290 0.000000 0.022540 
#    y 0.000000 2.423460 0.000000 
#    z 0.022540 0.000000 3.104880 
# 
# 
# High freq. dielectric constant tensor:
#      x y z
#    x 1.576210 0.000000 -0.001130 
#    y 0.000000 1.493620 0.000000 
#    z -0.001130 0.000000 1.572280 
# 
# From -- ./inp_files/90270.got.cif
#   From: 2010.06.25/outbox.cif.g09.slc.cpg/sg10_46_cif.got.tgz:90270.got - 2010.06.27 22:07:45.
