data_PCOD8057729
_publ_section_title
;
Structure prediction by ZEFSAII (Michael W. Deem and Ramdas Pophale) SiO2 
 PCOD8057729
Probable space group: P 2/M
;
_chemical_formula_sum "Si O2"
_cell_formula_units_Z 28
_cell_length_a 16.414894
_cell_length_b 13.946660
_cell_length_c 12.526260
_cell_angle_alpha 90.000000
_cell_angle_beta 147.293766
_cell_angle_gamma 90.000000
_cell_volume 1549.495458
_symmetry_space_group_name_H-M "P 2/M"
_symmetry_group_IT_number 10
_symmetry_cell_setting 'monoclinic'
loop_
_space_group_symop_operation_xyz
x,y,z
-x,y,-z
-x,-y,-z
x,-y,z
loop_
_atom_site_type_symbol
_atom_site_label
_atom_site_fract_x
_atom_site_fract_y
_atom_site_fract_z
Si Si1 0.127489 0.611479 0.898805
Si Si2 0.205412 0.894963 0.669956
Si Si3 0.174333 0.714006 0.386553
Si Si4 0.178411 0.605039 0.189020
Si Si5 0.565494 0.772640 0.182049
Si Si6 0.251994 0.783849 0.924758
Si Si7 0.004850 0.892323 0.754779
O O1 0.138412 0.500000 0.880812
O O2 0.210735 0.672688 0.899277
O O3 0.951797 0.640202 0.711366
O O4 0.214558 0.634049 0.106693
O O5 0.353083 0.871878 0.761253
O O6 0.185184 0.813864 0.736613
O O7 0.056611 0.895276 0.433787
O O8 0.228376 0.000000 0.747272
O O9 0.238547 0.682539 0.341120
O O10 0.310410 0.707246 0.621637
O O11 0.101793 0.820946 0.294223
O O12 0.248210 0.500000 0.291707
O O13 0.000000 0.598357 0.000000
O O14 0.500000 0.723486 0.000000
O O15 0.432710 0.796567 0.120068
O O16 0.174830 0.849330 0.932688
O O17 0.006497 0.000000 0.806613
#
# Coordination Sequence:
#
# PCOD8057729 Si02
#       7
#     4   4   4   4   4   4   4
#     4   9  18  33  53  74  92 116 157 205 247 284
#     4   9  17  30  49  71  94 125 167 204 231 270
#     4   9  16  30  52  71  95 125 158 198 237 278
#     4   8  14  28  53  77  90 110 154 205 244 279
#     4   9  19  31  45  68 100 132 160 189 228 279
#     4  10  18  28  46  68  98 126 152 193 240 279
#     4   9  17  28  46  72  97 124 160 199 237 277
#
# _framework density 18.070398000000001
#
# number of rings (size 3 to 8) (size 9 to 14) (size 15 to 20)
#    0.000    3.000    0.000    2.143    0.000    5.429 
#    0.000    2.143    0.000   54.000    0.000    0.000 
#    0.000   45.714    0.000    0.000    0.000    0.000 
#
# Total GULP energy -346878.849606 kJ/mol
# GULP energy per Si atom -12388.530343 kJ/mol
# Density = 1.802927 g / cm^3
# Si number density = 18.070398 Si / 1000 Ang^3
#
#
#
# Elastic Constant Matrix: (Units=GPa)
#
#
# Indices 1 2 3 4 5 6 
#
# 1 73.7954 57.1304 39.9180 0.0000 3.4492 0.0000
# 2 57.1304 140.1910 40.0703 0.0000 -10.7129 0.0000
# 3 39.9180 40.0703 81.5855 0.0000 -0.4576 0.0000
# 4 0.0000 0.0000 0.0000 19.1792 0.0000 -7.6290
# 5 3.4492 -10.7129 -0.4576 0.0000 27.4870 0.0000
# 6 0.0000 0.0000 0.0000 -7.6290 0.0000 16.3339
#
#
#
# Elastic Compliance Matrix: (Units=1/GPa)
#
#
# Indices 1 2 3 4 5 6 
#
# 1 0.024529 -0.008195 -0.008012 0.000000 -0.006406 0.000000
# 2 -0.008195 0.011321 -0.001520 0.000000 0.005415 0.000000
# 3 -0.008012 -0.001520 0.016928 0.000000 0.000695 0.000000
# 4 0.000000 0.000000 0.000000 0.064037 0.000000 0.029909
# 5 -0.006406 0.005415 0.000695 0.000000 0.039307 0.000000
# 6 0.000000 0.000000 0.000000 0.029909 0.000000 0.075192
#
#
# Mechanical properties :
#
#
# Convention : Reuss Voigt Hill
#
# Bulk Modulus (GPa) = 57.72881 63.31217 60.52049
# Shear Modulus (GPa) = 18.34567 23.16357 20.75462
#
# Velocity S-wave (km/s) = 3.18973 3.58418 3.39269
# Velocity P-wave (km/s) = 6.75143 7.22779 6.99367
#
# Compressibility (1/GPa) = 0.01732237
#
# Stress axis : x y z
#
# Youngs Moduli (GPa) = 40.76781 88.32953 59.07413
#
# Poissons Ratio (x) = 0.72390 0.47332
# Poissons Ratio (y) = 0.33411 0.08980
# Poissons Ratio (z) = 0.32665 0.13427
#
# Static dielectric constant tensor:
#      x y z
#    x 3.405130 0.000000 -0.034190 
#    y 0.000000 3.419570 0.000000 
#    z -0.034190 0.000000 3.280850 
# 
# 
# High freq. dielectric constant tensor:
#      x y z
#    x 1.685300 0.000000 0.007790 
#    y 0.000000 1.688420 0.000000 
#    z 0.007790 0.000000 1.672940 
# 
# From -- ./inp_files/51412.got.cif
#   From: 2010.06.25/outbox.cif.g09.slc.cpg/sg10_26_cif.got.tgz:51412.got - 2010.06.27 22:07:45.
