data_PCOD8057020
_publ_section_title
;
Structure prediction by ZEFSAII (Michael W. Deem and Ramdas Pophale) SiO2 
 PCOD8057020
Probable space group: P 2/M
;
_chemical_formula_sum "Si O2"
_cell_formula_units_Z 28
_cell_length_a 15.515831
_cell_length_b 7.913314
_cell_length_c 31.935334
_cell_angle_alpha 90.000000
_cell_angle_beta 26.361295
_cell_angle_gamma 90.000000
_cell_volume 1741.073933
_symmetry_space_group_name_H-M "P 2/M"
_symmetry_group_IT_number 10
_symmetry_cell_setting 'monoclinic'
loop_
_space_group_symop_operation_xyz
x,y,z
-x,y,-z
-x,-y,-z
x,-y,z
loop_
_atom_site_type_symbol
_atom_site_label
_atom_site_fract_x
_atom_site_fract_y
_atom_site_fract_z
Si Si1 0.280106 0.309043 0.281057
Si Si2 0.794819 0.000000 0.537187
Si Si3 0.746725 0.000000 0.651346
Si Si4 0.824721 0.305079 0.466790
Si Si5 0.671602 0.812027 0.958455
Si Si6 0.940477 0.192800 0.771588
Si Si7 0.695111 0.693032 0.433137
Si Si8 0.386197 0.309878 0.144289
O O1 0.326770 0.500000 0.276937
O O2 0.403551 0.264251 0.185719
O O3 0.055907 0.295506 0.366268
O O4 0.338150 0.170990 0.290686
O O5 0.735003 0.173466 0.539417
O O6 0.685174 0.000000 0.629505
O O7 0.023579 0.000000 0.444320
O O8 0.758465 0.500000 0.504911
O O9 0.755394 0.232976 0.451970
O O10 0.856727 0.734494 0.852557
O O11 0.722301 0.000000 0.951915
O O12 0.500000 0.817061 0.000000
O O13 0.600498 0.707328 0.029933
O O14 0.773780 0.194980 0.808652
O O15 0.130638 0.295005 0.675981
O O16 0.002775 0.000000 0.750468
O O17 0.500000 0.782874 0.500000
O O18 0.645930 0.500000 0.462761
O O19 0.309802 0.500000 0.172667
#
# Coordination Sequence:
#
# PCOD8057020 Si02
#       8
#     4   2   2   4   4   4   4   4
#     4   9  17  26  40  62  84 110 143 172 208 254
#     4   9  18  30  43  62  77 105 147 171 210 269
#     4   9  18  28  42  60  82 108 135 176 218 246
#     4   9  17  30  44  59  82 111 140 179 217 247
#     4   8  16  27  36  55  80 107 142 175 209 245
#     4  10  19  28  41  57  80 111 144 182 215 247
#     4  10  20  32  45  62  83 110 147 186 221 250
#     4  10  17  25  40  60  81 111 146 175 206 250
#
# _framework density 16.082028000000001
#
# number of rings (size 3 to 8) (size 9 to 14) (size 15 to 20)
#    0.000    2.714    1.429    1.714    3.000    4.000 
#    0.000    2.857    0.000    0.000    0.000    0.000 
#    0.000    0.000    0.000    2.571    0.000   16.143 
#
# Total GULP energy -346923.873333 kJ/mol
# GULP energy per Si atom -12390.138333 kJ/mol
# Density = 1.604542 g / cm^3
# Si number density = 16.082028 Si / 1000 Ang^3
#
#
#
# Elastic Constant Matrix: (Units=GPa)
#
#
# Indices 1 2 3 4 5 6 
#
# 1 57.2338 33.9652 49.2893 0.0000 23.1741 0.0000
# 2 33.9652 75.1256 31.7624 0.0000 21.9669 0.0000
# 3 49.2893 31.7624 89.1440 0.0000 27.6361 0.0000
# 4 0.0000 0.0000 0.0000 17.7068 0.0000 9.2145
# 5 23.1741 21.9669 27.6361 0.0000 26.8140 0.0000
# 6 0.0000 0.0000 0.0000 9.2145 0.0000 16.0261
#
#
#
# Elastic Compliance Matrix: (Units=1/GPa)
#
#
# Indices 1 2 3 4 5 6 
#
# 1 0.041098 -0.008226 -0.015975 0.000000 -0.012316 0.000000
# 2 -0.008226 0.019581 0.000500 0.000000 -0.009448 0.000000
# 3 -0.015975 0.000500 0.023100 0.000000 -0.010412 0.000000
# 4 0.000000 0.000000 0.000000 0.080589 0.000000 -0.046336
# 5 -0.012316 -0.009448 -0.010412 0.000000 0.066409 0.000000
# 6 0.000000 0.000000 0.000000 -0.046336 0.000000 0.089040
#
#
# Mechanical properties :
#
#
# Convention : Reuss Voigt Hill
#
# Bulk Modulus (GPa) = 27.48862 50.17080 38.82971
# Shear Modulus (GPa) = 13.18069 19.20847 16.19458
#
# Velocity S-wave (km/s) = 2.86596 3.45977 3.17677
# Velocity P-wave (km/s) = 5.29920 6.87201 6.13620
#
# Compressibility (1/GPa) = 0.03637869
#
# Stress axis : x y z
#
# Youngs Moduli (GPa) = 24.33235 51.06979 43.28978
#
# Poissons Ratio (x) = 0.42008 0.69154
# Poissons Ratio (y) = 0.20015 -0.02166
# Poissons Ratio (z) = 0.38870 -0.02555
#
# Static dielectric constant tensor:
#      x y z
#    x 2.816050 0.000000 0.322140 
#    y 0.000000 3.140580 0.000000 
#    z 0.322140 0.000000 3.151080 
# 
# 
# High freq. dielectric constant tensor:
#      x y z
#    x 1.560490 0.000000 0.038920 
#    y 0.000000 1.625860 0.000000 
#    z 0.038920 0.000000 1.598890 
# 
# From -- ./inp_files/95191.got.cif
#   From: 2010.06.25/outbox.cif.g09.slc.cpg/sg10_48_cif.got.tgz:95191.got - 2010.06.27 22:07:45.
