data_PCOD8057133
_publ_section_title
;
Structure prediction by ZEFSAII (Michael W. Deem and Ramdas Pophale) SiO2 
 PCOD8057133
Probable space group: P 2/M
;
_chemical_formula_sum "Si O2"
_cell_formula_units_Z 26
_cell_length_a 6.687971
_cell_length_b 14.400616
_cell_length_c 16.557139
_cell_angle_alpha 90.000000
_cell_angle_beta 62.894245
_cell_angle_gamma 90.000000
_cell_volume 1419.489738
_symmetry_space_group_name_H-M "P 2/M"
_symmetry_group_IT_number 10
_symmetry_cell_setting 'monoclinic'
loop_
_space_group_symop_operation_xyz
x,y,z
-x,y,-z
-x,-y,-z
x,-y,z
loop_
_atom_site_type_symbol
_atom_site_label
_atom_site_fract_x
_atom_site_fract_y
_atom_site_fract_z
Si Si1 0.541676 0.268582 0.791713
Si Si2 0.696440 0.604029 0.900191
Si Si3 0.191583 0.106253 0.181064
Si Si4 0.954918 0.102213 0.388238
Si Si5 0.974318 0.242463 0.100312
Si Si6 0.214123 0.263771 0.416319
Si Si7 0.500000 0.199896 0.500000
O O1 0.587248 0.355445 0.839918
O O2 0.608194 0.171241 0.822336
O O3 0.687597 0.300296 0.686281
O O4 0.279345 0.256017 0.822034
O O5 0.785957 0.500000 0.867366
O O6 0.902424 0.664694 0.893726
O O7 0.500000 0.603351 0.000000
O O8 0.084885 0.151140 0.120225
O O9 0.005226 0.105289 0.284209
O O10 0.274829 0.000000 0.147460
O O11 0.702003 0.135876 0.436239
O O12 0.124240 0.160658 0.412563
O O13 0.977335 0.000000 0.419697
O O14 0.000000 0.229978 0.000000
O O15 0.421470 0.264277 0.440208
O O16 0.000000 0.316848 0.500000
#
# Coordination Sequence:
#
# PCOD8057133 Si02
#       7
#     4   4   4   4   4   4   2
#     4  10  20  37  57  79 113 147 181 226 272 319
#     4  10  21  38  61  88 113 136 168 217 279 341
#     4   9  20  35  50  71 107 151 194 228 260 308
#     4   9  17  29  43  65  96 134 179 229 274 311
#     4  11  21  34  55  83 111 142 179 224 274 323
#     4   9  19  32  49  73 101 139 181 218 262 315
#     4  10  17  26  44  70  97 130 176 228 273 318
#
# _framework density 18.31644
#
# number of rings (size 3 to 8) (size 9 to 14) (size 15 to 20)
#    0.000    2.308    1.538    1.154    0.000    6.462 
#    0.000    3.846    0.000    0.462    0.000    1.615 
#    0.000    0.000    0.000    0.000    0.000    0.000 
#
# Total GULP energy -322166.141278 kJ/mol
# GULP energy per Si atom -12391.005434 kJ/mol
# Density = 1.827475 g / cm^3
# Si number density = 18.316440 Si / 1000 Ang^3
#
#
#
# Elastic Constant Matrix: (Units=GPa)
#
#
# Indices 1 2 3 4 5 6 
#
# 1 112.1545 39.7379 27.4990 0.0000 1.8274 0.0000
# 2 39.7379 103.9665 31.0246 0.0000 5.7052 0.0000
# 3 27.4990 31.0246 84.0767 0.0000 3.5430 0.0000
# 4 0.0000 0.0000 0.0000 27.4685 0.0000 1.2127
# 5 1.8274 5.7052 3.5430 0.0000 32.5584 0.0000
# 6 0.0000 0.0000 0.0000 1.2127 0.0000 12.5800
#
#
#
# Elastic Compliance Matrix: (Units=1/GPa)
#
#
# Indices 1 2 3 4 5 6 
#
# 1 0.010675 -0.003426 -0.002238 0.000000 0.000245 0.000000
# 2 -0.003426 0.011978 -0.003234 0.000000 -0.001555 0.000000
# 3 -0.002238 -0.003234 0.013853 0.000000 -0.000815 0.000000
# 4 0.000000 0.000000 0.000000 0.036561 0.000000 -0.003524
# 5 0.000245 -0.001555 -0.000815 0.000000 0.031062 0.000000
# 6 0.000000 0.000000 0.000000 -0.003524 0.000000 0.079831
#
#
# Mechanical properties :
#
#
# Convention : Reuss Voigt Hill
#
# Bulk Modulus (GPa) = 53.44255 55.19118 54.31687
# Shear Modulus (GPa) = 24.03939 27.98379 26.01159
#
# Velocity S-wave (km/s) = 3.62670 3.91294 3.77254
# Velocity P-wave (km/s) = 6.83945 7.11423 6.97819
#
# Compressibility (1/GPa) = 0.01871168
#
# Stress axis : x y z
#
# Youngs Moduli (GPa) = 93.67927 83.48458 72.18409
#
# Poissons Ratio (x) = 0.28600 0.16152
# Poissons Ratio (y) = 0.32093 0.23345
# Poissons Ratio (z) = 0.20961 0.26999
#
# Static dielectric constant tensor:
#      x y z
#    x 3.350620 0.000000 -0.100560 
#    y 0.000000 3.295830 0.000000 
#    z -0.100560 0.000000 3.509290 
# 
# 
# High freq. dielectric constant tensor:
#      x y z
#    x 1.716370 0.000000 0.005220 
#    y 0.000000 1.676040 0.000000 
#    z 0.005220 0.000000 1.727220 
# 
# From -- ./inp_files/11224.got.cif
#   From: 2010.06.25/outbox.cif.g09.slc.cpg/sg10_6_cif.got.tgz:11224.got - 2010.06.27 22:07:45.
