data_PCOD8057186
_publ_section_title
;
Structure prediction by ZEFSAII (Michael W. Deem and Ramdas Pophale) SiO2 
 PCOD8057186
Probable space group: P 2/M
;
_chemical_formula_sum "Si O2"
_cell_formula_units_Z 28
_cell_length_a 18.380992
_cell_length_b 8.412294
_cell_length_c 20.388325
_cell_angle_alpha 90.000000
_cell_angle_beta 26.591728
_cell_angle_gamma 90.000000
_cell_volume 1411.185523
_symmetry_space_group_name_H-M "P 2/M"
_symmetry_group_IT_number 10
_symmetry_cell_setting 'monoclinic'
loop_
_space_group_symop_operation_xyz
x,y,z
-x,y,-z
-x,-y,-z
x,-y,z
loop_
_atom_site_type_symbol
_atom_site_label
_atom_site_fract_x
_atom_site_fract_y
_atom_site_fract_z
Si Si1 0.754583 0.684343 0.175058
Si Si2 0.661221 0.310780 0.834829
Si Si3 0.688410 0.311557 0.663919
Si Si4 0.928729 0.815047 0.146406
Si Si5 0.033604 0.688698 0.330705
Si Si6 0.385033 0.184627 0.834848
Si Si7 0.067273 0.313626 0.156365
O O1 0.714901 0.500000 0.214694
O O2 0.764201 0.763664 0.240310
O O3 0.616913 0.765084 0.240549
O O4 0.925595 0.711327 0.001033
O O5 0.664421 0.500000 0.834483
O O6 0.662311 0.252378 0.759103
O O7 0.818253 0.241112 0.745789
O O8 0.500000 0.244161 0.000000
O O9 0.665569 0.500000 0.675666
O O10 0.561372 0.223730 0.720009
O O11 0.866031 0.255287 0.498199
O O12 0.928566 0.772715 0.223724
O O13 0.963163 0.000000 0.107625
O O14 0.045410 0.500000 0.320718
O O15 0.047181 0.754343 0.245831
O O16 0.344651 0.000000 0.873753
O O17 0.249813 0.280112 0.984822
O O18 0.033835 0.500000 0.181042
#
# Coordination Sequence:
#
# PCOD8057186 Si02
#       7
#     4   4   4   4   4   4   4
#     4  10  17  28  47  72 100 132 171 214 260 304
#     4   9  16  28  51  82 109 132 165 212 260 303
#     4  10  19  33  53  76 104 137 173 212 257 308
#     4  10  17  27  44  71 105 136 167 208 260 309
#     4   9  18  31  51  79 106 134 171 215 258 303
#     4  11  21  33  49  73 104 137 174 215 261 308
#     4  10  18  31  51  75 102 134 175 218 259 304
#
# _framework density 19.841474000000002
#
# number of rings (size 3 to 8) (size 9 to 14) (size 15 to 20)
#    0.000    2.143    0.000    8.143    0.000    4.000 
#    0.000    1.429    0.000    7.286    0.000    6.000 
#    0.000    0.000    0.000    0.000    0.000    0.000 
#
# Total GULP energy -347139.380327 kJ/mol
# GULP energy per Si atom -12397.835012 kJ/mol
# Density = 1.979631 g / cm^3
# Si number density = 19.841474 Si / 1000 Ang^3
#
#
#
# Elastic Constant Matrix: (Units=GPa)
#
#
# Indices 1 2 3 4 5 6 
#
# 1 205.8283 30.2584 67.0299 0.0000 -21.6495 0.0000
# 2 30.2584 56.5251 9.9036 0.0000 -2.9532 0.0000
# 3 67.0299 9.9036 93.1280 0.0000 -10.5055 0.0000
# 4 0.0000 0.0000 0.0000 3.2467 0.0000 -3.0672
# 5 -21.6495 -2.9532 -10.5055 0.0000 11.6666 0.0000
# 6 0.0000 0.0000 0.0000 -3.0672 0.0000 7.3289
#
#
#
# Elastic Compliance Matrix: (Units=1/GPa)
#
#
# Indices 1 2 3 4 5 6 
#
# 1 0.007639 -0.002862 -0.004092 0.000000 0.009766 0.000000
# 2 -0.002862 0.019205 -0.000037 0.000000 -0.000483 0.000000
# 3 -0.004092 -0.000037 0.014280 0.000000 0.005256 0.000000
# 4 0.000000 0.000000 0.000000 0.509405 0.000000 0.213187
# 5 0.009766 -0.000483 0.005256 0.000000 0.108448 0.000000
# 6 0.000000 0.000000 0.000000 0.213187 0.000000 0.225666
#
#
# Mechanical properties :
#
#
# Convention : Reuss Voigt Hill
#
# Bulk Modulus (GPa) = 36.84376 63.31835 50.08106
# Shear Modulus (GPa) = 5.50860 21.00108 13.25484
#
# Velocity S-wave (km/s) = 1.66803 3.25690 2.58745
# Velocity P-wave (km/s) = 4.72431 6.79151 5.84995
#
# Compressibility (1/GPa) = 0.02714164
#
# Stress axis : x y z
#
# Youngs Moduli (GPa) = 130.90598 52.07101 70.02737
#
# Poissons Ratio (x) = 0.14903 0.28657
# Poissons Ratio (y) = 0.37466 0.00257
# Poissons Ratio (z) = 0.53570 0.00191
#
# Static dielectric constant tensor:
#      x y z
#    x 4.412850 0.000000 0.000040 
#    y 0.000000 3.238030 0.000000 
#    z 0.000040 0.000000 3.256350 
# 
# 
# High freq. dielectric constant tensor:
#      x y z
#    x 1.806110 0.000000 -0.003800 
#    y 0.000000 1.748710 0.000000 
#    z -0.003800 0.000000 1.726370 
# 
# From -- ./inp_files/85598.got.cif
#   From: 2010.06.25/outbox.cif.g09.slc.cpg/sg10_43_cif.got.tgz:85598.got - 2010.06.27 22:07:45.
