data_PCOD8057725
_publ_section_title
;
Structure prediction by ZEFSAII (Michael W. Deem and Ramdas Pophale) SiO2 
 PCOD8057725
Probable space group: P 2/M
;
_chemical_formula_sum "Si O2"
_cell_formula_units_Z 32
_cell_length_a 14.699189
_cell_length_b 13.238534
_cell_length_c 21.605056
_cell_angle_alpha 90.000000
_cell_angle_beta 157.146561
_cell_angle_gamma 90.000000
_cell_volume 1632.827047
_symmetry_space_group_name_H-M "P 2/M"
_symmetry_group_IT_number 10
_symmetry_cell_setting 'monoclinic'
loop_
_space_group_symop_operation_xyz
x,y,z
-x,y,-z
-x,-y,-z
x,-y,z
loop_
_atom_site_type_symbol
_atom_site_label
_atom_site_fract_x
_atom_site_fract_y
_atom_site_fract_z
Si Si1 0.431895 0.614519 0.164597
Si Si2 0.484269 0.885209 0.848965
Si Si3 0.666241 0.715226 0.553967
Si Si4 0.332735 0.114537 0.299151
Si Si5 0.243475 0.681311 0.523529
Si Si6 0.923857 0.225093 0.106095
Si Si7 0.826017 0.706649 0.335396
Si Si8 0.405910 0.888922 0.656077
O O1 0.342052 0.500000 0.105759
O O2 0.552023 0.634089 0.306468
O O3 0.623343 0.630898 0.230561
O O4 0.209795 0.686639 0.015179
O O5 0.291737 0.812730 0.760265
O O6 0.482858 0.867959 0.774133
O O7 0.435401 0.000000 0.838676
O O8 0.745904 0.850209 0.030337
O O9 0.500000 0.657206 0.500000
O O10 0.543310 0.823334 0.463506
O O11 0.697302 0.651399 0.510025
O O12 0.922631 0.728089 0.742822
O O13 0.366196 0.116549 0.245682
O O14 0.083095 0.164517 0.157223
O O15 0.340587 0.000000 0.329399
O O16 0.226515 0.802958 0.521819
O O17 0.978665 0.649578 0.377677
O O18 0.000000 0.734792 0.500000
O O19 0.286638 0.000000 0.575867
#
# Coordination Sequence:
#
# PCOD8057725 Si02
#       8
#     4   4   4   4   4   4   4   4
#     4  10  21  38  59  82 107 133 174 228 278 326
#     4  10  18  28  45  76 114 146 176 211 264 323
#     4   9  20  36  57  78 108 146 178 217 260 311
#     4   9  18  31  53  81 109 145 188 220 253 305
#     4  10  18  36  57  80 108 138 183 221 263 320
#     4  10  19  35  52  78 109 144 176 224 274 309
#     4   9  17  31  52  82 106 138 176 221 273 311
#     4   9  16  28  47  77 111 141 174 215 257 307
#
# _framework density 19.597912000000001
#
# number of rings (size 3 to 8) (size 9 to 14) (size 15 to 20)
#    0.000    2.500    3.750    0.375    0.000    6.250 
#    2.250    5.000    0.000   18.750    0.000    0.000 
#    0.000    0.000    0.000    0.000    0.000    0.000 
#
# Total GULP energy -396536.869931 kJ/mol
# GULP energy per Si atom -12391.777185 kJ/mol
# Density = 1.955331 g / cm^3
# Si number density = 19.597912 Si / 1000 Ang^3
#
#
#
# Elastic Constant Matrix: (Units=GPa)
#
#
# Indices 1 2 3 4 5 6 
#
# 1 107.0927 14.5430 35.0090 0.0000 1.7187 0.0000
# 2 14.5430 67.6284 15.2339 0.0000 0.6486 0.0000
# 3 35.0090 15.2339 90.2882 0.0000 9.0407 0.0000
# 4 0.0000 0.0000 0.0000 12.0574 0.0000 2.1166
# 5 1.7187 0.6486 9.0407 0.0000 21.0584 0.0000
# 6 0.0000 0.0000 0.0000 2.1166 0.0000 12.7747
#
#
#
# Elastic Compliance Matrix: (Units=1/GPa)
#
#
# Indices 1 2 3 4 5 6 
#
# 1 0.010842 -0.001427 -0.004053 0.000000 0.000899 0.000000
# 2 -0.001427 0.015568 -0.002128 0.000000 0.000551 0.000000
# 3 -0.004053 -0.002128 0.013549 0.000000 -0.005420 0.000000
# 4 0.000000 0.000000 0.000000 0.085421 0.000000 -0.014153
# 5 0.000899 0.000551 -0.005420 0.000000 0.049724 0.000000
# 6 0.000000 0.000000 0.000000 -0.014153 0.000000 0.080625
#
#
# Mechanical properties :
#
#
# Convention : Reuss Voigt Hill
#
# Bulk Modulus (GPa) = 40.41811 43.84234 42.13022
# Shear Modulus (GPa) = 17.90870 22.52631 20.21751
#
# Velocity S-wave (km/s) = 3.02620 3.39399 3.21536
# Velocity P-wave (km/s) = 5.73402 6.14641 5.94380
#
# Compressibility (1/GPa) = 0.02474138
#
# Stress axis : x y z
#
# Youngs Moduli (GPa) = 92.23315 64.23531 73.80534
#
# Poissons Ratio (x) = 0.09167 0.29915
# Poissons Ratio (y) = 0.13163 0.15709
# Poissons Ratio (z) = 0.37384 0.13672
#
# Static dielectric constant tensor:
#      x y z
#    x 3.871560 0.000000 0.204590 
#    y 0.000000 3.418350 0.000000 
#    z 0.204590 0.000000 3.398370 
# 
# 
# High freq. dielectric constant tensor:
#      x y z
#    x 1.756690 0.000000 0.016800 
#    y 0.000000 1.742300 0.000000 
#    z 0.016800 0.000000 1.743770 
# 
# From -- ./inp_files/85414.got.cif
#   From: 2010.06.25/outbox.cif.g09.slc.cpg/sg10_43_cif.got.tgz:85414.got - 2010.06.27 22:07:45.
