data_PCOD8057277
_publ_section_title
;
Structure prediction by ZEFSAII (Michael W. Deem and Ramdas Pophale) SiO2 
 PCOD8057277
Probable space group: P 2/M
;
_chemical_formula_sum "Si O2"
_cell_formula_units_Z 26
_cell_length_a 14.301083
_cell_length_b 15.431988
_cell_length_c 8.753606
_cell_angle_alpha 90.000000
_cell_angle_beta 130.933860
_cell_angle_gamma 90.000000
_cell_volume 1459.462553
_symmetry_space_group_name_H-M "P 2/M"
_symmetry_group_IT_number 10
_symmetry_cell_setting 'monoclinic'
loop_
_space_group_symop_operation_xyz
x,y,z
-x,y,-z
-x,-y,-z
x,-y,z
loop_
_atom_site_type_symbol
_atom_site_label
_atom_site_fract_x
_atom_site_fract_y
_atom_site_fract_z
Si Si1 0.314702 0.737323 0.564294
Si Si2 0.314663 0.904884 0.906087
Si Si3 0.855812 0.753619 0.350767
Si Si4 0.726530 0.403276 0.062435
Si Si5 0.572606 0.905039 0.309171
Si Si6 0.500000 0.340960 0.000000
Si Si7 0.642245 0.400244 0.636023
O O1 0.185860 0.750078 0.516447
O O2 0.358311 0.826660 0.525880
O O3 0.295161 0.659577 0.425242
O O4 0.420960 0.719618 0.803860
O O5 0.211585 0.830753 0.814220
O O6 0.370700 0.904051 0.798185
O O7 0.255691 0.000000 0.874913
O O8 0.425229 0.887830 0.145192
O O9 0.825128 0.662596 0.237555
O O10 0.000000 0.771886 0.500000
O O11 0.778750 0.500000 0.142569
O O12 0.592152 0.399587 0.999002
O O13 0.712490 0.383314 0.868614
O O14 0.597703 0.000000 0.411758
O O15 0.500000 0.373178 0.500000
O O16 0.653721 0.500000 0.595071
#
# Coordination Sequence:
#
# PCOD8057277 Si02
#       7
#     4   4   4   4   4   2   4
#     4  10  18  30  50  73 101 134 161 200 248 289
#     4   8  14  26  46  72 101 127 156 200 248 293
#     4  10  21  34  49  72  99 132 176 210 236 277
#     4  10  20  33  50  72 101 129 158 201 250 298
#     4   8  13  24  45  74 102 127 155 192 249 305
#     4  10  17  28  49  78  98 122 155 198 255 300
#     4  10  20  33  50  76 102 127 159 197 250 312
#
# _framework density 17.814776999999999
#
# number of rings (size 3 to 8) (size 9 to 14) (size 15 to 20)
#    0.000    2.615    1.538    3.923    0.000    3.077 
#    0.000    0.769    0.000    3.231    0.000    0.000 
#    0.000    6.154    0.000    0.000    0.000    0.000 
#
# Total GULP energy -322265.344715 kJ/mol
# GULP energy per Si atom -12394.820951 kJ/mol
# Density = 1.777423 g / cm^3
# Si number density = 17.814777 Si / 1000 Ang^3
#
#
#
# Elastic Constant Matrix: (Units=GPa)
#
#
# Indices 1 2 3 4 5 6 
#
# 1 71.6956 50.8111 35.2699 0.0000 11.3063 0.0000
# 2 50.8111 144.6343 43.2354 0.0000 5.4695 0.0000
# 3 35.2699 43.2354 41.0463 0.0000 6.7649 0.0000
# 4 0.0000 0.0000 0.0000 8.7431 0.0000 2.9465
# 5 11.3063 5.4695 6.7649 0.0000 25.4287 0.0000
# 6 0.0000 0.0000 0.0000 2.9465 0.0000 10.8798
#
#
#
# Elastic Compliance Matrix: (Units=1/GPa)
#
#
# Indices 1 2 3 4 5 6 
#
# 1 0.026207 -0.003716 -0.017587 0.000000 -0.006174 0.000000
# 2 -0.003716 0.010630 -0.008262 0.000000 0.001564 0.000000
# 3 -0.017587 -0.008262 0.048732 0.000000 -0.003368 0.000000
# 4 0.000000 0.000000 0.000000 0.125863 0.000000 -0.034087
# 5 -0.006174 0.001564 -0.003368 0.000000 0.042630 0.000000
# 6 0.000000 0.000000 0.000000 -0.034087 0.000000 0.101145
#
#
# Mechanical properties :
#
#
# Convention : Reuss Voigt Hill
#
# Bulk Modulus (GPa) = 37.82203 57.33434 47.57818
# Shear Modulus (GPa) = 11.81614 17.54764 14.68189
#
# Velocity S-wave (km/s) = 2.57821 3.14188 2.87390
# Velocity P-wave (km/s) = 5.48996 6.73909 6.14634
#
# Compressibility (1/GPa) = 0.02643962
#
# Stress axis : x y z
#
# Youngs Moduli (GPa) = 38.15815 94.07425 20.52039
#
# Poissons Ratio (x) = 0.34957 0.36089
# Poissons Ratio (y) = 0.14179 0.16953
# Poissons Ratio (z) = 0.67109 0.77720
#
# Static dielectric constant tensor:
#      x y z
#    x 3.005400 0.000000 -0.043340 
#    y 0.000000 3.816940 0.000000 
#    z -0.043340 0.000000 2.901960 
# 
# 
# High freq. dielectric constant tensor:
#      x y z
#    x 1.651900 0.000000 -0.004160 
#    y 0.000000 1.715000 0.000000 
#    z -0.004160 0.000000 1.645770 
# 
# From -- ./inp_files/25129.got.cif
#   From: 2010.06.25/outbox.cif.g09.slc.cpg/sg10_13_cif.got.tgz:25129.got - 2010.06.27 22:07:45.
