data_PCOD8057820
_publ_section_title
;
Structure prediction by ZEFSAII (Michael W. Deem and Ramdas Pophale) SiO2 
 PCOD8057820
Probable space group: P 2/M
;
_chemical_formula_sum "Si O2"
_cell_formula_units_Z 28
_cell_length_a 22.329034
_cell_length_b 8.695760
_cell_length_c 13.855683
_cell_angle_alpha 90.000000
_cell_angle_beta 141.524512
_cell_angle_gamma 90.000000
_cell_volume 1673.868372
_symmetry_space_group_name_H-M "P 2/M"
_symmetry_group_IT_number 10
_symmetry_cell_setting 'monoclinic'
loop_
_space_group_symop_operation_xyz
x,y,z
-x,y,-z
-x,-y,-z
x,-y,z
loop_
_atom_site_type_symbol
_atom_site_label
_atom_site_fract_x
_atom_site_fract_y
_atom_site_fract_z
Si Si1 0.473587 0.181776 0.862072
Si Si2 0.379046 0.674211 0.470436
Si Si3 0.102388 0.180122 0.029028
Si Si4 0.425355 0.323165 0.184779
Si Si5 0.902635 0.319526 0.770180
Si Si6 0.283037 0.821508 0.520492
Si Si7 0.275139 0.322440 0.146134
O O1 0.555030 0.228840 0.887869
O O2 0.367388 0.242556 0.697443
O O3 0.470903 0.000000 0.862296
O O4 0.500000 0.251194 0.000000
O O5 0.350331 0.500000 0.465259
O O6 0.491509 0.703519 0.630934
O O7 0.317188 0.794782 0.454062
O O8 0.355981 0.702753 0.329893
O O9 0.125449 0.273357 0.155842
O O10 0.181454 0.219352 0.047648
O O11 0.102316 0.000000 0.052141
O O12 0.998402 0.230513 0.857534
O O13 0.419838 0.500000 0.147321
O O14 0.324962 0.271297 0.108100
O O15 0.921263 0.500000 0.788053
O O16 0.816420 0.271110 0.588919
O O17 0.262754 0.000000 0.512502
O O18 0.243146 0.500000 0.101390
#
# Coordination Sequence:
#
# PCOD8057820 Si02
#       7
#     4   4   4   4   4   4   4
#     4   9  19  35  52  71  97 126 155 194 244 289
#     4   9  16  27  43  63  92 128 160 189 226 274
#     4  11  21  31  45  66  94 127 165 201 230 268
#     4   9  18  30  46  69  94 124 161 196 231 277
#     4  11  20  32  47  65  92 127 163 197 238 279
#     4  10  18  29  47  70  95 123 159 199 235 278
#     4  10  18  29  44  65  96 131 161 191 231 277
#
# _framework density 16.727719
#
# number of rings (size 3 to 8) (size 9 to 14) (size 15 to 20)
#    0.000    2.143    1.429    4.286    0.000    3.143 
#    0.000    0.000    0.000    4.286    0.000    1.000 
#    0.000    8.000    0.000    0.000    0.000    0.000 
#
# Total GULP energy -347129.307068 kJ/mol
# GULP energy per Si atom -12397.475252 kJ/mol
# Density = 1.668965 g / cm^3
# Si number density = 16.727719 Si / 1000 Ang^3
#
#
#
# Elastic Constant Matrix: (Units=GPa)
#
#
# Indices 1 2 3 4 5 6 
#
# 1 98.9950 21.3654 52.2437 0.0000 9.5610 0.0000
# 2 21.3654 52.9301 20.1796 0.0000 3.6497 0.0000
# 3 52.2437 20.1796 74.8099 0.0000 2.7045 0.0000
# 4 0.0000 0.0000 0.0000 18.1507 0.0000 3.7526
# 5 9.5610 3.6497 2.7045 0.0000 22.2822 0.0000
# 6 0.0000 0.0000 0.0000 3.7526 0.0000 23.2158
#
#
#
# Elastic Compliance Matrix: (Units=1/GPa)
#
#
# Indices 1 2 3 4 5 6 
#
# 1 0.016942 -0.002253 -0.011023 0.000000 -0.005563 0.000000
# 2 -0.002253 0.021530 -0.004160 0.000000 -0.002055 0.000000
# 3 -0.011023 -0.004160 0.022089 0.000000 0.002730 0.000000
# 4 0.000000 0.000000 0.000000 0.056999 0.000000 -0.009213
# 5 -0.005563 -0.002055 0.002730 0.000000 0.047271 0.000000
# 6 0.000000 0.000000 0.000000 -0.009213 0.000000 0.044563
#
#
# Mechanical properties :
#
#
# Convention : Reuss Voigt Hill
#
# Bulk Modulus (GPa) = 38.92680 46.03471 42.48076
# Shear Modulus (GPa) = 19.77624 21.59282 20.68453
#
# Velocity S-wave (km/s) = 3.44211 3.59672 3.52027
# Velocity P-wave (km/s) = 6.25450 6.69540 6.47870
#
# Compressibility (1/GPa) = 0.02568924
#
# Stress axis : x y z
#
# Youngs Moduli (GPa) = 59.02428 46.44705 45.27238
#
# Poissons Ratio (x) = 0.10463 0.49903
# Poissons Ratio (y) = 0.13297 0.18834
# Poissons Ratio (z) = 0.65062 0.19322
#
# Static dielectric constant tensor:
#      x y z
#    x 3.088460 0.000000 0.230760 
#    y 0.000000 3.088010 0.000000 
#    z 0.230760 0.000000 3.155640 
# 
# 
# High freq. dielectric constant tensor:
#      x y z
#    x 1.628510 0.000000 0.027080 
#    y 0.000000 1.644780 0.000000 
#    z 0.027080 0.000000 1.613280 
# 
# From -- ./inp_files/54954.got.cif
#   From: 2010.06.25/outbox.cif.g09.slc.cpg/sg10_28_cif.got.tgz:54954.got - 2010.06.27 22:07:45.
