data_PCOD8057367
_publ_section_title
;
Structure prediction by ZEFSAII (Michael W. Deem and Ramdas Pophale) SiO2 
 PCOD8057367
Probable space group: P 2/M
;
_chemical_formula_sum "Si O2"
_cell_formula_units_Z 28
_cell_length_a 18.460103
_cell_length_b 8.767208
_cell_length_c 22.218005
_cell_angle_alpha 90.000000
_cell_angle_beta 154.511596
_cell_angle_gamma 90.000000
_cell_volume 1547.392596
_symmetry_space_group_name_H-M "P 2/M"
_symmetry_group_IT_number 10
_symmetry_cell_setting 'monoclinic'
loop_
_space_group_symop_operation_xyz
x,y,z
-x,y,-z
-x,-y,-z
x,-y,z
loop_
_atom_site_type_symbol
_atom_site_label
_atom_site_fract_x
_atom_site_fract_y
_atom_site_fract_z
Si Si1 0.099482 0.675434 0.407571
Si Si2 0.442466 0.179398 0.639374
Si Si3 0.388093 0.681923 0.471667
Si Si4 0.761473 0.681077 0.204086
Si Si5 0.484239 0.319091 0.082561
Si Si6 0.978639 0.325434 0.787840
Si Si7 0.336067 0.682479 0.095082
O O1 0.151234 0.500000 0.458430
O O2 0.956678 0.735625 0.347379
O O3 0.015003 0.693558 0.279005
O O4 0.266690 0.775406 0.539231
O O5 0.463589 0.251343 0.589438
O O6 0.596490 0.241854 0.793966
O O7 0.454065 0.000000 0.642602
O O8 0.500000 0.738785 0.500000
O O9 0.388116 0.500000 0.478110
O O10 0.197016 0.744908 0.318883
O O11 0.762762 0.500000 0.198953
O O12 0.670870 0.730667 0.198784
O O13 0.654715 0.747741 0.067832
O O14 0.469378 0.500000 0.071152
O O15 0.450372 0.259741 0.124569
O O16 0.981147 0.500000 0.808552
O O17 0.146061 0.252705 0.942605
O O18 0.340416 0.500000 0.103704
#
# Coordination Sequence:
#
# PCOD8057367 Si02
#       7
#     4   4   4   4   4   4   4
#     4   9  15  29  51  73  96 127 168 213 252 295
#     4  11  23  35  48  70 102 137 168 201 240 289
#     4   9  18  36  61  84 102 122 154 197 244 297
#     4   8  12  21  42  74 102 121 156 212 264 297
#     4   8  13  21  41  74 103 125 154 206 264 298
#     4   8  14  26  50  79  99 121 159 201 240 286
#     4  10  17  30  50  73 101 133 166 203 246 294
#
# _framework density 18.094954999999999
#
# number of rings (size 3 to 8) (size 9 to 14) (size 15 to 20)
#    0.000    3.000    1.429    3.000    0.000    0.286 
#    0.000    4.286    0.000    9.429    0.000    2.000 
#    0.000    0.000    0.000    0.000    0.000    0.000 
#
# Total GULP energy -346929.978602 kJ/mol
# GULP energy per Si atom -12390.356379 kJ/mol
# Density = 1.805377 g / cm^3
# Si number density = 18.094955 Si / 1000 Ang^3
#
#
#
# Elastic Constant Matrix: (Units=GPa)
#
#
# Indices 1 2 3 4 5 6 
#
# 1 129.9200 21.9844 61.3772 0.0000 17.4807 0.0000
# 2 21.9844 30.3204 20.7751 0.0000 -0.3013 0.0000
# 3 61.3772 20.7751 108.7699 0.0000 0.6253 0.0000
# 4 0.0000 0.0000 0.0000 -2.9686 0.0000 0.3881
# 5 17.4807 -0.3013 0.6253 0.0000 25.8575 0.0000
# 6 0.0000 0.0000 0.0000 0.3881 0.0000 6.0610
#
#
#
# Elastic Compliance Matrix: (Units=1/GPa)
#
#
# Indices 1 2 3 4 5 6 
#
# 1 0.012544 -0.005018 -0.006071 0.000000 -0.008392 0.000000
# 2 -0.005018 0.039965 -0.004824 0.000000 0.003975 0.000000
# 3 -0.006071 -0.004824 0.013520 0.000000 0.003721 0.000000
# 4 0.000000 0.000000 0.000000 -0.334063 0.000000 0.021393
# 5 -0.008392 0.003975 0.003721 0.000000 0.044303 0.000000
# 6 0.000000 0.000000 0.000000 0.021393 0.000000 0.163620
#
#
# Mechanical properties :
#
#
# Convention : Reuss Voigt Hill
#
# Bulk Modulus (GPa) = 29.23979 53.03153 41.13566
# Shear Modulus (GPa) = -296.14856 16.78154 -139.68351
#
# Velocity S-wave (km/s) = -12.80699 3.04865 -8.79558
# Velocity P-wave (km/s) = 14.23017 6.46246 8.96477
#
# Compressibility (1/GPa) = 0.03419997
#
# Stress axis : x y z
#
# Youngs Moduli (GPa) = 79.72208 25.02200 73.96563
#
# Poissons Ratio (x) = 0.12557 0.44908
# Poissons Ratio (y) = 0.40007 0.35684
# Poissons Ratio (z) = 0.48403 0.12072
#
# Static dielectric constant tensor:
#      x y z
#    x 3.529480 0.000000 0.298510 
#    y 0.000000 2.783860 0.000000 
#    z 0.298510 0.000000 3.445760 
# 
# 
# High freq. dielectric constant tensor:
#      x y z
#    x 1.695700 0.000000 0.018320 
#    y 0.000000 1.641950 0.000000 
#    z 0.018320 0.000000 1.695680 
# 
# From -- ./inp_files/85616.got.cif
#   From: 2010.06.25/outbox.cif.g09.slc.cpg/sg10_43_cif.got.tgz:85616.got - 2010.06.27 22:07:45.
