data_PCOD8057516
_publ_section_title
;
Structure prediction by ZEFSAII (Michael W. Deem and Ramdas Pophale) SiO2 
 PCOD8057516
Probable space group: P 2/M
;
_chemical_formula_sum "Si O2"
_cell_formula_units_Z 32
_cell_length_a 30.403748
_cell_length_b 9.170512
_cell_length_c 16.097309
_cell_angle_alpha 90.000000
_cell_angle_beta 29.865506
_cell_angle_gamma 90.000000
_cell_volume 2234.979068
_symmetry_space_group_name_H-M "P 2/M"
_symmetry_group_IT_number 10
_symmetry_cell_setting 'monoclinic'
loop_
_space_group_symop_operation_xyz
x,y,z
-x,y,-z
-x,-y,-z
x,-y,z
loop_
_atom_site_type_symbol
_atom_site_label
_atom_site_fract_x
_atom_site_fract_y
_atom_site_fract_z
Si Si1 0.026659 0.330491 0.769838
Si Si2 0.022603 0.327679 0.591087
Si Si3 0.497644 0.830427 0.600155
Si Si4 0.310958 0.827653 0.707864
Si Si5 0.307218 0.828106 0.908434
Si Si6 0.903273 0.164739 0.196992
Si Si7 0.835517 0.669448 0.158292
Si Si8 0.140264 0.672278 0.248099
O O1 0.052042 0.500000 0.734221
O O2 0.037895 0.266160 0.658495
O O3 0.094157 0.242470 0.717676
O O4 0.926117 0.304496 0.961084
O O5 0.013506 0.500000 0.610234
O O6 0.104503 0.284123 0.398110
O O7 0.930389 0.268975 0.703991
O O8 0.500000 0.796682 0.500000
O O9 0.591069 0.772524 0.483828
O O10 0.402789 0.769134 0.787453
O O11 0.496313 0.000000 0.619364
O O12 0.297407 0.791347 0.827103
O O13 0.241653 0.736702 0.769574
O O14 0.298501 0.000000 0.712600
O O15 0.298548 0.000000 0.936478
O O16 0.233388 0.748530 0.082787
O O17 0.837249 0.251767 0.244826
O O18 0.868677 0.000000 0.264314
O O19 0.000000 0.167946 0.000000
O O20 0.817230 0.500000 0.203415
O O21 0.152953 0.500000 0.219533
#
# Coordination Sequence:
#
# PCOD8057516 Si02
#       8
#     4   4   4   4   4   4   4   4
#     4   9  16  27  41  55  74 103 135 162 191 225
#     4   8  15  27  41  55  75 105 136 163 191 226
#     4   7  12  24  39  53  72 101 132 157 186 228
#     4   9  16  26  40  56  76 104 134 160 188 227
#     4   9  16  26  40  57  77 102 132 164 196 226
#     4   9  17  28  40  55  76 101 128 158 191 228
#     4  10  18  26  39  59  80 101 127 160 194 227
#     4   9  16  27  41  56  76 104 136 164 191 225
#
# _framework density 14.317807
#
# number of rings (size 3 to 8) (size 9 to 14) (size 15 to 20)
#    0.000    3.250    0.000    3.750    0.000    3.500 
#    0.000    3.125    0.000    2.250    0.000    0.000 
#    0.000    1.000    0.000   11.500    0.000    3.500 
#
# Total GULP energy -396454.376755 kJ/mol
# GULP energy per Si atom -12389.199274 kJ/mol
# Density = 1.428522 g / cm^3
# Si number density = 14.317807 Si / 1000 Ang^3
#
#
#
# Elastic Constant Matrix: (Units=GPa)
#
#
# Indices 1 2 3 4 5 6 
#
# 1 91.0485 45.8239 40.6863 0.0000 6.3693 0.0000
# 2 45.8239 57.5569 34.1686 0.0000 -3.4582 0.0000
# 3 40.6863 34.1686 83.8162 0.0000 -3.9916 0.0000
# 4 0.0000 0.0000 0.0000 16.9749 0.0000 0.0245
# 5 6.3693 -3.4582 -3.9916 0.0000 22.7858 0.0000
# 6 0.0000 0.0000 0.0000 0.0245 0.0000 20.1029
#
#
#
# Elastic Compliance Matrix: (Units=1/GPa)
#
#
# Indices 1 2 3 4 5 6 
#
# 1 0.020978 -0.014432 -0.004723 0.000000 -0.008882 0.000000
# 2 -0.014432 0.032928 -0.006038 0.000000 0.007974 0.000000
# 3 -0.004723 -0.006038 0.016845 0.000000 0.003355 0.000000
# 4 0.000000 0.000000 0.000000 0.058910 0.000000 -0.000072
# 5 -0.008882 0.007974 0.003355 0.000000 0.048168 0.000000
# 6 0.000000 0.000000 0.000000 -0.000072 0.000000 0.049744
#
#
# Mechanical properties :
#
#
# Convention : Reuss Voigt Hill
#
# Bulk Modulus (GPa) = 49.10396 52.64214 50.87305
# Shear Modulus (GPa) = 17.55943 19.42224 18.49084
#
# Velocity S-wave (km/s) = 3.50581 3.68708 3.59758
# Velocity P-wave (km/s) = 7.12445 7.41436 7.27085
#
# Compressibility (1/GPa) = 0.02036495
#
# Stress axis : x y z
#
# Youngs Moduli (GPa) = 47.66789 30.36971 59.36541
#
# Poissons Ratio (x) = 0.43829 0.28039
# Poissons Ratio (y) = 0.68793 0.35845
# Poissons Ratio (z) = 0.22514 0.18337
#
# Static dielectric constant tensor:
#      x y z
#    x 2.908400 0.000000 -0.062400 
#    y 0.000000 2.645230 0.000000 
#    z -0.062400 0.000000 2.814120 
# 
# 
# High freq. dielectric constant tensor:
#      x y z
#    x 1.535690 0.000000 -0.008680 
#    y 0.000000 1.532260 0.000000 
#    z -0.008680 0.000000 1.522520 
# 
# From -- ./inp_files/66176.got.cif
#   From: 2010.06.25/outbox.cif.g09.slc.cpg/sg10_34_cif.got.tgz:66176.got - 2010.06.27 22:07:45.
