data_PCOD8057753
_publ_section_title
;
Structure prediction by ZEFSAII (Michael W. Deem and Ramdas Pophale) SiO2 
 PCOD8057753
Probable space group: P 2/M
;
_chemical_formula_sum "Si O2"
_cell_formula_units_Z 32
_cell_length_a 19.970884
_cell_length_b 9.363767
_cell_length_c 27.847863
_cell_angle_alpha 90.000000
_cell_angle_beta 158.989335
_cell_angle_gamma 90.000000
_cell_volume 1867.151071
_symmetry_space_group_name_H-M "P 2/M"
_symmetry_group_IT_number 10
_symmetry_cell_setting 'monoclinic'
loop_
_space_group_symop_operation_xyz
x,y,z
-x,y,-z
-x,-y,-z
x,-y,z
loop_
_atom_site_type_symbol
_atom_site_label
_atom_site_fract_x
_atom_site_fract_y
_atom_site_fract_z
Si Si1 0.059915 0.167314 0.093875
Si Si2 0.957492 0.164183 0.627467
Si Si3 0.185613 0.660772 0.382076
Si Si4 0.726744 0.165311 0.939487
Si Si5 0.434245 0.164369 0.666239
Si Si6 0.419756 0.335735 0.326487
Si Si7 0.704132 0.666831 0.122722
Si Si8 0.179704 0.338908 0.907471
O O1 0.245975 0.252555 0.232925
O O2 0.100776 0.000000 0.125781
O O3 0.000000 0.207991 0.000000
O O4 0.897386 0.218703 0.020682
O O5 0.867882 0.215754 0.617055
O O6 0.789650 0.185995 0.476375
O O7 0.143956 0.254958 0.741183
O O8 0.016750 0.000000 0.671356
O O9 0.147167 0.500000 0.377802
O O10 0.406808 0.675685 0.519341
O O11 0.047955 0.679458 0.244043
O O12 0.532331 0.199000 0.782489
O O13 0.749880 0.000000 0.966022
O O14 0.723145 0.242460 0.987958
O O15 0.519699 0.268146 0.683565
O O16 0.478455 0.000000 0.680510
O O17 0.364395 0.500000 0.280545
O O18 0.721433 0.500000 0.144795
O O19 0.744465 0.704820 0.094305
O O20 0.500000 0.724252 0.000000
O O21 0.237655 0.500000 0.958148
#
# Coordination Sequence:
#
# PCOD8057753 Si02
#       8
#     4   4   4   4   4   4   4   4
#     4  10  19  33  48  63  92 131 165 200 246 292
#     4   9  16  26  47  76  99 120 156 202 235 269
#     4   8  16  31  47  65  94 129 157 192 245 294
#     4  10  20  33  49  67  93 131 166 195 238 292
#     4   9  17  31  47  66  96 132 162 193 241 289
#     4  10  18  28  47  72  93 117 161 213 249 280
#     4   9  18  34  55  76 101 131 155 183 234 291
#     4   9  18  33  51  71  96 123 157 196 234 281
#
# _framework density 17.138411000000001
#
# number of rings (size 3 to 8) (size 9 to 14) (size 15 to 20)
#    0.000    2.750    1.250    1.500    0.000    4.500 
#    0.000    0.625    0.000    4.500    0.000    5.250 
#    0.000    0.000    0.000    0.000    0.000    0.000 
#
# Total GULP energy -396563.670309 kJ/mol
# GULP energy per Si atom -12392.614697 kJ/mol
# Density = 1.709940 g / cm^3
# Si number density = 17.138411 Si / 1000 Ang^3
#
#
#
# Elastic Constant Matrix: (Units=GPa)
#
#
# Indices 1 2 3 4 5 6 
#
# 1 48.5613 27.5813 46.3729 0.0000 -3.5660 0.0000
# 2 27.5813 64.1514 58.5975 0.0000 0.6489 0.0000
# 3 46.3729 58.5975 152.1531 0.0000 5.7269 0.0000
# 4 0.0000 0.0000 0.0000 29.8231 0.0000 -0.4387
# 5 -3.5660 0.6489 5.7269 0.0000 23.5405 0.0000
# 6 0.0000 0.0000 0.0000 -0.4387 0.0000 21.1221
#
#
#
# Elastic Compliance Matrix: (Units=1/GPa)
#
#
# Indices 1 2 3 4 5 6 
#
# 1 0.032151 -0.007261 -0.007260 0.000000 0.006837 0.000000
# 2 -0.007261 0.025748 -0.007705 0.000000 0.000065 0.000000
# 3 -0.007260 -0.007705 0.011895 0.000000 -0.003781 0.000000
# 4 0.000000 0.000000 0.000000 0.033541 0.000000 0.000697
# 5 0.006837 0.000065 -0.003781 0.000000 0.044434 0.000000
# 6 0.000000 0.000000 0.000000 0.000697 0.000000 0.047358
#
#
# Mechanical properties :
#
#
# Convention : Reuss Voigt Hill
#
# Bulk Modulus (GPa) = 39.46150 58.88548 49.17349
# Shear Modulus (GPa) = 20.15909 23.71806 21.93857
#
# Velocity S-wave (km/s) = 3.43337 3.72413 3.58171
# Velocity P-wave (km/s) = 6.22837 7.27500 6.77193
#
# Compressibility (1/GPa) = 0.02534115
#
# Stress axis : x y z
#
# Youngs Moduli (GPa) = 31.10282 38.83868 84.06963
#
# Poissons Ratio (x) = 0.28200 0.61035
# Poissons Ratio (y) = 0.22583 0.64779
# Poissons Ratio (z) = 0.22581 0.29927
#
# Static dielectric constant tensor:
#      x y z
#    x 2.714790 0.000000 0.047050 
#    y 0.000000 3.211710 0.000000 
#    z 0.047050 0.000000 3.668320 
# 
# 
# High freq. dielectric constant tensor:
#      x y z
#    x 1.600510 0.000000 0.000460 
#    y 0.000000 1.665660 0.000000 
#    z 0.000460 0.000000 1.680960 
# 
# From -- ./inp_files/52694.got.cif
#   From: 2010.06.25/outbox.cif.g09.slc.cpg/sg10_27_cif.got.tgz:52694.got - 2010.06.27 22:07:45.
