data_PCOD8057547
_publ_section_title
;
Structure prediction by ZEFSAII (Michael W. Deem and Ramdas Pophale) SiO2 
 PCOD8057547
Probable space group: P 2/M
;
_chemical_formula_sum "Si O2"
_cell_formula_units_Z 32
_cell_length_a 34.436452
_cell_length_b 9.105185
_cell_length_c 16.544706
_cell_angle_alpha 90.000000
_cell_angle_beta 23.680967
_cell_angle_gamma 90.000000
_cell_volume 2083.565029
_symmetry_space_group_name_H-M "P 2/M"
_symmetry_group_IT_number 10
_symmetry_cell_setting 'monoclinic'
loop_
_space_group_symop_operation_xyz
x,y,z
-x,y,-z
-x,-y,-z
x,-y,z
loop_
_atom_site_type_symbol
_atom_site_label
_atom_site_fract_x
_atom_site_fract_y
_atom_site_fract_z
Si Si1 0.666582 0.674235 0.805233
Si Si2 0.803991 0.172052 0.666423
Si Si3 0.078752 0.335632 0.237529
Si Si4 0.923762 0.825445 0.080655
Si Si5 0.279675 0.826766 0.462151
Si Si6 0.518473 0.161633 0.870125
Si Si7 0.141063 0.665934 0.287993
Si Si8 0.980188 0.171532 0.798276
O O1 0.673094 0.500000 0.790235
O O2 0.724418 0.736037 0.770804
O O3 0.711919 0.739984 0.637515
O O4 0.554289 0.721610 0.030974
O O5 0.798655 0.223462 0.770206
O O6 0.908008 0.210572 0.430015
O O7 0.781054 0.000000 0.704818
O O8 0.109588 0.500000 0.155316
O O9 0.145518 0.280820 0.185543
O O10 0.090684 0.236347 0.135352
O O11 0.968918 0.331858 0.474812
O O12 0.816818 0.773795 0.309070
O O13 0.931055 0.000000 0.064930
O O14 0.949887 0.761560 0.942656
O O15 0.000000 0.761492 0.000000
O O16 0.368946 0.790468 0.352856
O O17 0.277123 0.000000 0.445889
O O18 0.501196 0.000000 0.864228
O O19 0.500000 0.151845 0.000000
O O20 0.181999 0.500000 0.217915
O O21 0.962801 0.000000 0.829350
#
# Coordination Sequence:
#
# PCOD8057547 Si02
#       8
#     4   4   4   4   4   4   4   4
#     4  11  20  28  41  60  82 107 134 167 207 249
#     4  10  18  27  40  59  84 111 137 167 202 239
#     4   8  14  25  40  55  77 108 136 166 203 240
#     4   9  16  27  43  61  82 109 141 174 204 232
#     4   9  17  30  46  60  78 107 140 172 205 239
#     4   8  15  28  44  60  77 100 132 168 205 245
#     4   8  14  25  39  56  78 106 137 165 199 241
#     4   9  17  27  41  60  80 107 143 176 201 232
#
# _framework density 15.358292
#
# number of rings (size 3 to 8) (size 9 to 14) (size 15 to 20)
#    0.000    3.000    0.000    3.750    0.000    5.250 
#    0.000    3.125    0.000    1.500    0.000    0.000 
#    0.000    1.000    0.000   11.500    0.000    3.375 
#
# Total GULP energy -396580.102998 kJ/mol
# GULP energy per Si atom -12393.128219 kJ/mol
# Density = 1.532334 g / cm^3
# Si number density = 15.358292 Si / 1000 Ang^3
#
#
#
# Elastic Constant Matrix: (Units=GPa)
#
#
# Indices 1 2 3 4 5 6 
#
# 1 132.3093 53.0123 51.1565 0.0000 0.3363 0.0000
# 2 53.0123 64.3955 26.4787 0.0000 -8.1751 0.0000
# 3 51.1565 26.4787 70.4688 0.0000 -8.7450 0.0000
# 4 0.0000 0.0000 0.0000 9.3186 0.0000 -1.1441
# 5 0.3363 -8.1751 -8.7450 0.0000 17.8944 0.0000
# 6 0.0000 0.0000 0.0000 -1.1441 0.0000 27.2420
#
#
#
# Elastic Compliance Matrix: (Units=1/GPa)
#
#
# Indices 1 2 3 4 5 6 
#
# 1 0.014613 -0.009848 -0.007985 0.000000 -0.008676 0.000000
# 2 -0.009848 0.025496 -0.001025 0.000000 0.011332 0.000000
# 3 -0.007985 -0.001025 0.021645 0.000000 0.010260 0.000000
# 4 0.000000 0.000000 0.000000 0.107869 0.000000 0.004530
# 5 -0.008676 0.011332 0.010260 0.000000 0.066238 0.000000
# 6 0.000000 0.000000 0.000000 0.004530 0.000000 0.036898
#
#
# Mechanical properties :
#
#
# Convention : Reuss Voigt Hill
#
# Bulk Modulus (GPa) = 41.59750 58.71872 50.15811
# Shear Modulus (GPa) = 15.69919 19.99273 17.84596
#
# Velocity S-wave (km/s) = 3.20065 3.61190 3.41247
# Velocity P-wave (km/s) = 6.38767 7.46391 6.94667
#
# Compressibility (1/GPa) = 0.02403991
#
# Stress axis : x y z
#
# Youngs Moduli (GPa) = 68.43156 39.22125 46.19950
#
# Poissons Ratio (x) = 0.38626 0.36888
# Poissons Ratio (y) = 0.67393 0.04734
# Poissons Ratio (z) = 0.54639 0.04019
#
# Static dielectric constant tensor:
#      x y z
#    x 3.222970 0.000000 -0.068710 
#    y 0.000000 2.864270 0.000000 
#    z -0.068710 0.000000 2.893700 
# 
# 
# High freq. dielectric constant tensor:
#      x y z
#    x 1.590060 0.000000 -0.009400 
#    y 0.000000 1.577420 0.000000 
#    z -0.009400 0.000000 1.543630 
# 
# From -- ./inp_files/72546.got.cif
#   From: 2010.06.25/outbox.cif.g09.slc.cpg/sg10_37_cif.got.tgz:72546.got - 2010.06.27 22:07:45.
