data_PCOD8057929
_publ_section_title
;
Structure prediction by ZEFSAII (Michael W. Deem and Ramdas Pophale) SiO2 
 PCOD8057929
Probable space group: P 2/M
;
_chemical_formula_sum "Si O2"
_cell_formula_units_Z 30
_cell_length_a 15.334812
_cell_length_b 22.177601
_cell_length_c 15.313327
_cell_angle_alpha 90.000000
_cell_angle_beta 19.974612
_cell_angle_gamma 90.000000
_cell_volume 1779.037817
_symmetry_space_group_name_H-M "P 2/M"
_symmetry_group_IT_number 10
_symmetry_cell_setting 'monoclinic'
loop_
_space_group_symop_operation_xyz
x,y,z
-x,y,-z
-x,-y,-z
x,-y,z
loop_
_atom_site_type_symbol
_atom_site_label
_atom_site_fract_x
_atom_site_fract_y
_atom_site_fract_z
Si Si1 0.301300 0.153376 0.372092
Si Si2 0.950096 0.933917 0.272234
Si Si3 0.000000 0.120734 0.500000
Si Si4 0.601206 0.229531 0.567605
Si Si5 0.348986 0.935117 0.046002
Si Si6 0.070194 0.166306 0.032232
Si Si7 0.948473 0.432584 0.946660
Si Si8 0.448263 0.362842 0.446472
O O1 0.279092 0.107221 0.475522
O O2 0.364948 0.216561 0.359551
O O3 0.063297 0.160106 0.527761
O O4 0.521091 0.126454 0.106169
O O5 0.115907 0.944507 0.201100
O O6 0.092747 0.897532 0.061227
O O7 0.858038 0.000000 0.324308
O O8 0.758123 0.077912 0.754181
O O9 0.574668 0.300440 0.582467
O O10 0.851766 0.208643 0.278977
O O11 0.343336 0.198703 0.775659
O O12 0.499116 0.000000 0.905192
O O13 0.000000 0.150711 0.000000
O O14 0.928811 0.500000 0.925841
O O15 0.184858 0.398673 0.678574
O O16 0.680895 0.398766 0.182565
O O17 0.000000 0.436511 0.000000
O O18 0.500000 0.351172 0.500000
#
# Coordination Sequence:
#
# PCOD8057929 Si02
#       8
#     4   4   2   4   4   4   4   4
#     4  10  20  34  50  67  96 125 159 200 258 309
#     4   9  19  33  48  67  91 121 158 205 262 310
#     4  10  21  32  48  74  90 120 157 198 256 320
#     4  11  22  36  52  72 101 134 170 210 250 291
#     4  10  18  32  50  69  93 117 153 200 256 320
#     4  11  21  35  52  70  93 127 171 217 254 292
#     4   9  17  29  46  71 102 133 166 204 241 273
#     4  10  18  29  47  71  98 135 174 203 232 278
#
# _framework density 16.863047000000002
#
# number of rings (size 3 to 8) (size 9 to 14) (size 15 to 20)
#    0.000    2.000    1.333    3.400    0.000    5.067 
#    0.000    0.000    0.000    2.400    0.000    0.000 
#    0.000    0.000    0.000    3.600    0.000    0.000 
#
# Total GULP energy -371687.630985 kJ/mol
# GULP energy per Si atom -12389.587700 kJ/mol
# Density = 1.682467 g / cm^3
# Si number density = 16.863047 Si / 1000 Ang^3
#
#
#
# Elastic Constant Matrix: (Units=GPa)
#
#
# Indices 1 2 3 4 5 6 
#
# 1 71.3474 41.4074 15.5352 0.0000 6.7767 0.0000
# 2 41.4074 130.8238 40.1538 0.0000 2.1079 0.0000
# 3 15.5352 40.1538 91.1779 0.0000 -2.5004 0.0000
# 4 0.0000 0.0000 0.0000 13.9519 0.0000 6.6380
# 5 6.7767 2.1079 -2.5004 0.0000 19.0050 0.0000
# 6 0.0000 0.0000 0.0000 6.6380 0.0000 12.0502
#
#
#
# Elastic Compliance Matrix: (Units=1/GPa)
#
#
# Indices 1 2 3 4 5 6 
#
# 1 0.017830 -0.005280 -0.000874 0.000000 -0.005887 0.000000
# 2 -0.005280 0.010445 -0.003694 0.000000 0.000238 0.000000
# 3 -0.000874 -0.003694 0.012809 0.000000 0.002407 0.000000
# 4 0.000000 0.000000 0.000000 0.097131 0.000000 -0.053506
# 5 -0.005887 0.000238 0.002407 0.000000 0.055007 0.000000
# 6 0.000000 0.000000 0.000000 -0.053506 0.000000 0.112460
#
#
# Mechanical properties :
#
#
# Convention : Reuss Voigt Hill
#
# Bulk Modulus (GPa) = 46.75482 54.17135 50.46308
# Shear Modulus (GPa) = 15.03722 22.08492 18.56107
#
# Velocity S-wave (km/s) = 2.98942 3.62285 3.32127
# Velocity P-wave (km/s) = 6.30094 7.04941 6.68566
#
# Compressibility (1/GPa) = 0.02138817
#
# Stress axis : x y z
#
# Youngs Moduli (GPa) = 56.08561 95.73956 78.06934
#
# Poissons Ratio (x) = 0.50553 0.06823
# Poissons Ratio (y) = 0.29615 0.28836
# Poissons Ratio (z) = 0.04902 0.35363
#
# Static dielectric constant tensor:
#      x y z
#    x 3.196260 0.000000 -0.083740 
#    y 0.000000 3.265740 0.000000 
#    z -0.083740 0.000000 3.344100 
# 
# 
# High freq. dielectric constant tensor:
#      x y z
#    x 1.627890 0.000000 -0.009290 
#    y 0.000000 1.626240 0.000000 
#    z -0.009290 0.000000 1.664390 
# 
# From -- ./inp_files/59559.got.cif
#   From: 2010.06.25/outbox.cif.g09.slc.cpg/sg10_30_cif.got.tgz:59559.got - 2010.06.27 22:07:45.
