data_PCOD8057463
_publ_section_title
;
Structure prediction by ZEFSAII (Michael W. Deem and Ramdas Pophale) SiO2 
 PCOD8057463
Probable space group: P 2/M
;
_chemical_formula_sum "Si O2"
_cell_formula_units_Z 28
_cell_length_a 9.069117
_cell_length_b 15.900178
_cell_length_c 21.586647
_cell_angle_alpha 90.000000
_cell_angle_beta 149.677916
_cell_angle_gamma 90.000000
_cell_volume 1571.532851
_symmetry_space_group_name_H-M "P 2/M"
_symmetry_group_IT_number 10
_symmetry_cell_setting 'monoclinic'
loop_
_space_group_symop_operation_xyz
x,y,z
-x,y,-z
-x,-y,-z
x,-y,z
loop_
_atom_site_type_symbol
_atom_site_label
_atom_site_fract_x
_atom_site_fract_y
_atom_site_fract_z
Si Si1 0.816200 0.905597 0.247389
Si Si2 0.223849 0.748648 0.856668
Si Si3 0.728366 0.683410 0.251581
Si Si4 0.323560 0.174391 0.139909
Si Si5 0.688892 0.593001 0.355414
Si Si6 0.634349 0.244081 0.714169
Si Si7 0.731540 0.201477 0.532358
O O1 0.782128 0.839607 0.178814
O O2 0.542512 0.898001 0.195138
O O3 0.121770 0.887156 0.394223
O O4 0.827270 0.000000 0.224695
O O5 0.230507 0.672835 0.807648
O O6 0.943269 0.735882 0.796441
O O7 0.500000 0.741160 0.000000
O O8 0.429500 0.736389 0.151048
O O9 0.710910 0.600449 0.287813
O O10 0.005118 0.733288 0.379063
O O11 0.330375 0.179075 0.216763
O O12 0.000000 0.153154 0.000000
O O13 0.559878 0.500000 0.322448
O O14 0.483752 0.665184 0.307999
O O15 0.000000 0.602614 0.500000
O O16 0.423623 0.195738 0.590084
O O17 0.500000 0.232236 0.500000
#
# Coordination Sequence:
#
# PCOD8057463 Si02
#       7
#     4   4   4   4   4   4   4
#     4  10  22  36  51  76 113 141 170 228 278 315
#     4  10  20  36  59  80  99 142 192 220 255 310
#     4   9  18  32  54  77 109 137 175 219 255 316
#     4   9  19  34  53  75 101 143 186 215 258 313
#     4  10  20  32  53  85 116 139 165 214 274 320
#     4  11  18  33  60  78 105 139 182 222 257 319
#     4  10  17  33  53  80 103 139 178 214 271 317
#
# _framework density 17.816998999999999
#
# number of rings (size 3 to 8) (size 9 to 14) (size 15 to 20)
#    0.000    2.429    4.286    1.714    0.000    0.857 
#    0.000    2.857    0.000   18.857    0.000    0.000 
#    0.000    0.000    0.000    0.000    0.000    0.000 
#
# Total GULP energy -346955.588938 kJ/mol
# GULP energy per Si atom -12391.271033 kJ/mol
# Density = 1.777645 g / cm^3
# Si number density = 17.816999 Si / 1000 Ang^3
#
#
#
# Elastic Constant Matrix: (Units=GPa)
#
#
# Indices 1 2 3 4 5 6 
#
# 1 109.2112 27.7285 42.3746 0.0000 -2.9897 0.0000
# 2 27.7285 71.2587 26.9548 0.0000 -5.6193 0.0000
# 3 42.3746 26.9548 122.9912 0.0000 -5.1055 0.0000
# 4 0.0000 0.0000 0.0000 5.7978 0.0000 1.2918
# 5 -2.9897 -5.6193 -5.1055 0.0000 34.1251 0.0000
# 6 0.0000 0.0000 0.0000 1.2918 0.0000 12.6042
#
#
#
# Elastic Compliance Matrix: (Units=1/GPa)
#
#
# Indices 1 2 3 4 5 6 
#
# 1 0.011185 -0.003157 -0.003162 0.000000 -0.000013 0.000000
# 2 -0.003157 0.016334 -0.002407 0.000000 0.002053 0.000000
# 3 -0.003162 -0.002407 0.009780 0.000000 0.000790 0.000000
# 4 0.000000 0.000000 0.000000 0.176509 0.000000 -0.018090
# 5 -0.000013 0.002053 0.000790 0.000000 0.029759 0.000000
# 6 0.000000 0.000000 0.000000 -0.018090 0.000000 0.081192
#
#
# Mechanical properties :
#
#
# Convention : Reuss Voigt Hill
#
# Bulk Modulus (GPa) = 50.38521 55.28632 52.83576
# Shear Modulus (GPa) = 14.33372 24.26564 19.29968
#
# Velocity S-wave (km/s) = 2.83944 3.69445 3.29480
# Velocity P-wave (km/s) = 6.25225 7.02111 6.64781
#
# Compressibility (1/GPa) = 0.01984709
#
# Stress axis : x y z
#
# Youngs Moduli (GPa) = 89.40749 61.22107 102.24528
#
# Poissons Ratio (x) = 0.19329 0.32331
# Poissons Ratio (y) = 0.28227 0.24609
# Poissons Ratio (z) = 0.28272 0.14735
#
# Static dielectric constant tensor:
#      x y z
#    x 3.570100 0.000000 -0.018670 
#    y 0.000000 2.983040 0.000000 
#    z -0.018670 0.000000 3.470750 
# 
# 
# High freq. dielectric constant tensor:
#      x y z
#    x 1.702860 0.000000 0.001430 
#    y 0.000000 1.642570 0.000000 
#    z 0.001430 0.000000 1.699790 
# 
# From -- ./inp_files/83021.got.cif
#   From: 2010.06.25/outbox.cif.g09.slc.cpg/sg10_42_cif.got.tgz:83021.got - 2010.06.27 22:07:45.
