data_PCOD8057316
_publ_section_title
;
Structure prediction by ZEFSAII (Michael W. Deem and Ramdas Pophale) SiO2 
 PCOD8057316
Probable space group: P 2/M
;
_chemical_formula_sum "Si O2"
_cell_formula_units_Z 24
_cell_length_a 13.253657
_cell_length_b 10.589383
_cell_length_c 10.160173
_cell_angle_alpha 90.000000
_cell_angle_beta 113.667357
_cell_angle_gamma 90.000000
_cell_volume 1306.024996
_symmetry_space_group_name_H-M "P 2/M"
_symmetry_group_IT_number 10
_symmetry_cell_setting 'monoclinic'
loop_
_space_group_symop_operation_xyz
x,y,z
-x,y,-z
-x,-y,-z
x,-y,z
loop_
_atom_site_type_symbol
_atom_site_label
_atom_site_fract_x
_atom_site_fract_y
_atom_site_fract_z
Si Si1 0.523552 0.856021 0.166566
Si Si2 0.692848 0.726854 0.919893
Si Si3 0.812077 0.500000 0.893999
Si Si4 0.939537 0.267003 0.338504
Si Si5 0.996456 0.500000 0.211218
Si Si6 0.693554 0.647045 0.212256
Si Si7 0.081482 0.142279 0.936678
O O1 0.413809 0.805216 0.183446
O O2 0.617475 0.751336 0.247280
O O3 0.553787 0.000000 0.230888
O O4 0.500000 0.863461 0.000000
O O5 0.731399 0.619845 0.837853
O O6 0.668243 0.656652 0.044405
O O7 0.792339 0.823327 0.981701
O O8 0.897244 0.500000 0.822151
O O9 0.880391 0.500000 0.069119
O O10 0.817165 0.311817 0.310624
O O11 0.948375 0.159856 0.231822
O O12 0.000000 0.216075 0.500000
O O13 0.005781 0.382420 0.311661
O O14 0.671729 0.500000 0.244462
O O15 0.069328 0.000000 0.969466
O O16 0.000000 0.216124 0.000000
#
# Coordination Sequence:
#
# PCOD8057316 Si02
#       7
#     4   4   2   4   2   4   4
#     4   9  19  30  45  68 102 140 174 215 266 319
#     4  10  17  29  48  73 103 134 173 211 269 312
#     4  11  18  28  52  80 103 136 171 220 259 327
#     4  11  21  34  53  77 106 143 174 213 266 322
#     4  11  19  32  49  75 110 135 172 209 270 318
#     4  10  18  30  47  71 102 139 176 215 262 314
#     4  10  20  34  52  76 108 141 176 220 263 312
#
# _framework density 18.376369
#
# number of rings (size 3 to 8) (size 9 to 14) (size 15 to 20)
#    0.000    1.833    5.000    1.750    1.167    5.333 
#    0.000    0.000    0.000    0.000    0.000    5.833 
#    0.000    8.000    0.000    0.000    0.000    0.000 
#
# Total GULP energy -297351.046458 kJ/mol
# GULP energy per Si atom -12389.626936 kJ/mol
# Density = 1.833454 g / cm^3
# Si number density = 18.376369 Si / 1000 Ang^3
#
#
#
# Elastic Constant Matrix: (Units=GPa)
#
#
# Indices 1 2 3 4 5 6 
#
# 1 122.7020 61.6261 34.7611 0.0000 8.9498 0.0000
# 2 61.6261 120.6140 21.3510 0.0000 10.1902 0.0000
# 3 34.7611 21.3510 49.7756 0.0000 1.6760 0.0000
# 4 0.0000 0.0000 0.0000 13.5880 0.0000 -0.5663
# 5 8.9498 10.1902 1.6760 0.0000 13.5466 0.0000
# 6 0.0000 0.0000 0.0000 -0.5663 0.0000 32.1387
#
#
#
# Elastic Compliance Matrix: (Units=1/GPa)
#
#
# Indices 1 2 3 4 5 6 
#
# 1 0.012870 -0.005066 -0.006685 0.000000 -0.003865 0.000000
# 2 -0.005066 0.011535 -0.001236 0.000000 -0.005178 0.000000
# 3 -0.006685 -0.001236 0.025214 0.000000 0.002227 0.000000
# 4 0.000000 0.000000 0.000000 0.073648 0.000000 0.001298
# 5 -0.003865 -0.005178 0.002227 0.000000 0.079992 0.000000
# 6 0.000000 0.000000 0.000000 0.001298 0.000000 0.031138
#
#
# Mechanical properties :
#
#
# Convention : Reuss Voigt Hill
#
# Bulk Modulus (GPa) = 42.29046 58.72980 50.51013
# Shear Modulus (GPa) = 18.63920 23.54489 21.09205
#
# Velocity S-wave (km/s) = 3.18827 3.58335 3.39157
# Velocity P-wave (km/s) = 6.05119 7.01066 6.54852
#
# Compressibility (1/GPa) = 0.02364599
#
# Stress axis : x y z
#
# Youngs Moduli (GPa) = 77.70198 86.68945 39.66121
#
# Poissons Ratio (x) = 0.43915 0.26512
# Poissons Ratio (y) = 0.39362 0.04902
# Poissons Ratio (z) = 0.51940 0.10715
#
# Static dielectric constant tensor:
#      x y z
#    x 3.686760 0.000000 0.108220 
#    y 0.000000 3.574450 0.000000 
#    z 0.108220 0.000000 2.846540 
# 
# 
# High freq. dielectric constant tensor:
#      x y z
#    x 1.725610 0.000000 0.013030 
#    y 0.000000 1.726260 0.000000 
#    z 0.013030 0.000000 1.636900 
# 
# From -- ./inp_files/46245.got.cif
#   From: 2010.06.25/outbox.cif.g09.slc.cpg/sg10_24_cif.got.tgz:46245.got - 2010.06.27 22:07:45.
