data_PCOD8057414
_publ_section_title
;
Structure prediction by ZEFSAII (Michael W. Deem and Ramdas Pophale) SiO2 
 PCOD8057414
Probable space group: P 2/M
;
_chemical_formula_sum "Si O2"
_cell_formula_units_Z 32
_cell_length_a 18.372231
_cell_length_b 15.966838
_cell_length_c 12.781065
_cell_angle_alpha 90.000000
_cell_angle_beta 27.559292
_cell_angle_gamma 90.000000
_cell_volume 1734.665371
_symmetry_space_group_name_H-M "P 2/M"
_symmetry_group_IT_number 10
_symmetry_cell_setting 'monoclinic'
loop_
_space_group_symop_operation_xyz
x,y,z
-x,y,-z
-x,-y,-z
x,-y,z
loop_
_atom_site_type_symbol
_atom_site_label
_atom_site_fract_x
_atom_site_fract_y
_atom_site_fract_z
Si Si1 0.403451 0.756759 0.727917
Si Si2 0.044983 0.328832 0.555016
Si Si3 0.174897 0.094468 0.059957
Si Si4 0.725590 0.905408 0.836445
Si Si5 0.733210 0.591404 0.005776
Si Si6 0.134619 0.172945 0.544642
Si Si7 0.544498 0.795241 0.764013
Si Si8 0.611328 0.365639 0.942993
O O1 0.500000 0.747712 0.500000
O O2 0.314737 0.668339 0.858837
O O3 0.523604 0.772211 0.669423
O O4 0.285965 0.835824 0.865807
O O5 0.033730 0.257620 0.657764
O O6 0.221489 0.362838 0.327769
O O7 0.000000 0.289373 0.500000
O O8 0.918560 0.400663 0.743131
O O9 0.170939 0.106582 0.190728
O O10 0.993418 0.104998 0.252924
O O11 0.231679 0.000000 0.958180
O O12 0.790303 0.847330 0.663026
O O13 0.727919 0.000000 0.792979
O O14 0.546544 0.880801 0.092252
O O15 0.707908 0.500000 0.091972
O O16 0.630499 0.588972 0.029777
O O17 0.270856 0.187818 0.455542
O O18 0.469781 0.724423 0.933388
O O19 0.500000 0.413252 0.000000
#
# Coordination Sequence:
#
# PCOD8057414 Si02
#       8
#     4   4   4   4   4   4   4   4
#     4  10  22  42  63  77  97 137 183 237 290 324
#     4  10  18  29  52  76 111 149 179 203 248 314
#     4  10  21  35  55  83 112 146 186 219 260 322
#     4  10  19  30  47  78 118 153 181 211 253 313
#     4  10  22  37  56  83 108 137 184 226 267 329
#     4  12  18  29  51  80 114 151 175 214 257 314
#     4  10  20  32  51  79 109 142 189 222 265 316
#     4  10  17  31  52  79 116 151 176 207 257 317
#
# _framework density 18.447361999999998
#
# number of rings (size 3 to 8) (size 9 to 14) (size 15 to 20)
#    0.000    1.750    3.750    1.875    0.000    5.500 
#    0.000    0.625    0.000    0.750    0.000    0.875 
#    0.000    0.000    0.000    0.000    0.000    0.000 
#
# Total GULP energy -396613.694337 kJ/mol
# GULP energy per Si atom -12394.177948 kJ/mol
# Density = 1.840537 g / cm^3
# Si number density = 18.447362 Si / 1000 Ang^3
#
#
#
# Elastic Constant Matrix: (Units=GPa)
#
#
# Indices 1 2 3 4 5 6 
#
# 1 77.8559 32.0356 57.1428 0.0000 -23.1728 0.0000
# 2 32.0356 114.8389 45.2721 0.0000 -6.0838 0.0000
# 3 57.1428 45.2721 93.4929 0.0000 -7.1004 0.0000
# 4 0.0000 0.0000 0.0000 9.3851 0.0000 1.9266
# 5 -23.1728 -6.0838 -7.1004 0.0000 35.0503 0.0000
# 6 0.0000 0.0000 0.0000 1.9266 0.0000 4.8308
#
#
#
# Elastic Compliance Matrix: (Units=1/GPa)
#
#
# Indices 1 2 3 4 5 6 
#
# 1 0.030712 -0.000968 -0.017035 0.000000 0.016685 0.000000
# 2 -0.000968 0.010816 -0.004623 0.000000 0.000301 0.000000
# 3 -0.017035 -0.004623 0.022781 0.000000 -0.007450 0.000000
# 4 0.000000 0.000000 0.000000 0.116054 0.000000 -0.046285
# 5 0.016685 0.000301 -0.007450 0.000000 0.038105 0.000000
# 6 0.000000 0.000000 0.000000 -0.046285 0.000000 0.225464
#
#
# Mechanical properties :
#
#
# Convention : Reuss Voigt Hill
#
# Bulk Modulus (GPa) = 52.47550 61.67652 57.07601
# Shear Modulus (GPa) = 10.09009 19.96906 15.02958
#
# Velocity S-wave (km/s) = 2.34127 3.29369 2.85744
# Velocity P-wave (km/s) = 5.98469 6.92610 6.47254
#
# Compressibility (1/GPa) = 0.01905651
#
# Stress axis : x y z
#
# Youngs Moduli (GPa) = 32.56090 92.45251 43.89675
#
# Poissons Ratio (x) = 0.08948 0.74779
# Poissons Ratio (y) = 0.03151 0.20294
# Poissons Ratio (z) = 0.55468 0.42743
#
# Static dielectric constant tensor:
#      x y z
#    x 3.343630 0.000000 -0.322880 
#    y 0.000000 3.359420 0.000000 
#    z -0.322880 0.000000 3.117580 
# 
# 
# High freq. dielectric constant tensor:
#      x y z
#    x 1.696900 0.000000 -0.032370 
#    y 0.000000 1.715110 0.000000 
#    z -0.032370 0.000000 1.688080 
# 
# From -- ./inp_files/53976.got.cif
#   From: 2010.06.25/outbox.cif.g09.slc.cpg/sg10_27_cif.got.tgz:53976.got - 2010.06.27 22:07:45.
