data_PCOD8057993
_publ_section_title
;
Structure prediction by ZEFSAII (Michael W. Deem and Ramdas Pophale) SiO2 
 PCOD8057993
Probable space group: P 2/M
;
_chemical_formula_sum "Si O2"
_cell_formula_units_Z 28
_cell_length_a 12.861110
_cell_length_b 8.781568
_cell_length_c 19.288444
_cell_angle_alpha 90.000000
_cell_angle_beta 48.241844
_cell_angle_gamma 90.000000
_cell_volume 1625.042629
_symmetry_space_group_name_H-M "P 2/M"
_symmetry_group_IT_number 10
_symmetry_cell_setting 'monoclinic'
loop_
_space_group_symop_operation_xyz
x,y,z
-x,y,-z
-x,-y,-z
x,-y,z
loop_
_atom_site_type_symbol
_atom_site_label
_atom_site_fract_x
_atom_site_fract_y
_atom_site_fract_z
Si Si1 0.092286 0.180590 0.894988
Si Si2 0.524488 0.819451 0.097163
Si Si3 0.276899 0.819839 0.112702
Si Si4 0.472413 0.820828 0.410885
Si Si5 0.599606 0.819622 0.213384
Si Si6 0.297001 0.322490 0.597296
Si Si7 0.006917 0.677036 0.790185
O O1 0.248154 0.246804 0.835460
O O2 0.024340 0.239804 0.855133
O O3 0.093233 0.000000 0.890754
O O4 0.000000 0.238891 0.000000
O O5 0.377182 0.764763 0.130852
O O6 0.545985 0.749477 0.164387
O O7 0.522508 0.000000 0.100866
O O8 0.652393 0.768924 0.991261
O O9 0.130421 0.736436 0.187359
O O10 0.253276 0.000000 0.125028
O O11 0.490320 0.775607 0.322250
O O12 0.612804 0.773580 0.388335
O O13 0.338872 0.731913 0.501183
O O14 0.449939 0.000000 0.430067
O O15 0.613001 0.000000 0.200601
O O16 0.331644 0.500000 0.591185
O O17 0.135315 0.286999 0.681865
O O18 0.994083 0.500000 0.811168
#
# Coordination Sequence:
#
# PCOD8057993 Si02
#       7
#     4   4   4   4   4   4   4
#     4  10  19  31  49  72  99 131 161 192 237 292
#     4   8  15  30  51  76  99 124 160 202 245 285
#     4   9  17  31  54  75  95 127 168 204 234 283
#     4  10  18  29  49  73  95 122 158 205 246 286
#     4   9  16  27  46  74 102 122 151 199 248 289
#     4  10  20  33  47  65  95 132 163 197 239 291
#     4  11  22  33  47  69 101 134 162 199 243 286
#
# _framework density 17.230316999999999
#
# number of rings (size 3 to 8) (size 9 to 14) (size 15 to 20)
#    0.000    2.429    1.429    3.857    0.000    4.286 
#    0.000    1.429    0.000    4.286    0.000    6.000 
#    0.000    0.000    0.000    0.000    0.000    0.000 
#
# Total GULP energy -347137.931498 kJ/mol
# GULP energy per Si atom -12397.783268 kJ/mol
# Density = 1.719110 g / cm^3
# Si number density = 17.230317 Si / 1000 Ang^3
#
#
#
# Elastic Constant Matrix: (Units=GPa)
#
#
# Indices 1 2 3 4 5 6 
#
# 1 90.2914 8.8739 55.3357 0.0000 -4.7354 0.0000
# 2 8.8739 20.9923 29.1035 0.0000 0.0385 0.0000
# 3 55.3357 29.1035 125.9431 0.0000 -6.8495 0.0000
# 4 0.0000 0.0000 0.0000 20.4557 0.0000 -7.5501
# 5 -4.7354 0.0385 -6.8495 0.0000 26.5270 0.0000
# 6 0.0000 0.0000 0.0000 -7.5501 0.0000 7.2454
#
#
#
# Elastic Compliance Matrix: (Units=1/GPa)
#
#
# Indices 1 2 3 4 5 6 
#
# 1 0.015422 0.004144 -0.007692 0.000000 0.000761 0.000000
# 2 0.004144 0.071703 -0.018617 0.000000 -0.004171 0.000000
# 3 -0.007692 -0.018617 0.015770 0.000000 0.002726 0.000000
# 4 0.000000 0.000000 0.000000 0.079441 0.000000 0.082782
# 5 0.000761 -0.004171 0.002726 0.000000 0.038543 0.000000
# 6 0.000000 0.000000 0.000000 0.082782 0.000000 0.224283
#
#
# Mechanical properties :
#
#
# Convention : Reuss Voigt Hill
#
# Bulk Modulus (GPa) = 17.07523 47.09479 32.08501
# Shear Modulus (GPa) = 9.82292 20.43985 15.13138
#
# Velocity S-wave (km/s) = 2.39026 3.44797 2.96663
# Velocity P-wave (km/s) = 4.18919 6.57595 5.51328
#
# Compressibility (1/GPa) = 0.05856437
#
# Stress axis : x y z
#
# Youngs Moduli (GPa) = 64.84183 13.94644 63.41092
#
# Poissons Ratio (x) = -0.05779 0.48777
# Poissons Ratio (y) = -0.26869 1.18052
# Poissons Ratio (z) = 0.49878 0.25964
#
# Static dielectric constant tensor:
#      x y z
#    x 3.310550 0.000000 0.072340 
#    y 0.000000 2.958500 0.000000 
#    z 0.072340 0.000000 3.491750 
# 
# 
# High freq. dielectric constant tensor:
#      x y z
#    x 1.647620 0.000000 0.000050 
#    y 0.000000 1.641950 0.000000 
#    z 0.000050 0.000000 1.671490 
# 
# From -- ./inp_files/83313.got.cif
#   From: 2010.06.25/outbox.cif.g09.slc.cpg/sg10_42_cif.got.tgz:83313.got - 2010.06.27 22:07:45.
