data_PCOD8057249
_publ_section_title
;
Structure prediction by ZEFSAII (Michael W. Deem and Ramdas Pophale) SiO2 
 PCOD8057249
Probable space group: P 2/M
;
_chemical_formula_sum "Si O2"
_cell_formula_units_Z 32
_cell_length_a 29.842709
_cell_length_b 9.174602
_cell_length_c 23.806493
_cell_angle_alpha 90.000000
_cell_angle_beta 15.844283
_cell_angle_gamma 90.000000
_cell_volume 1779.596262
_symmetry_space_group_name_H-M "P 2/M"
_symmetry_group_IT_number 10
_symmetry_cell_setting 'monoclinic'
loop_
_space_group_symop_operation_xyz
x,y,z
-x,y,-z
-x,-y,-z
x,-y,z
loop_
_atom_site_type_symbol
_atom_site_label
_atom_site_fract_x
_atom_site_fract_y
_atom_site_fract_z
Si Si1 0.789739 0.167338 0.998639
Si Si2 0.366601 0.830379 0.027720
Si Si3 0.091353 0.167993 0.267780
Si Si4 0.921796 0.831736 0.151720
Si Si5 0.008746 0.669952 0.820001
Si Si6 0.138425 0.664624 0.380214
Si Si7 0.439391 0.834508 0.381178
Si Si8 0.625750 0.330087 0.650404
O O1 0.593789 0.192500 0.235570
O O2 0.833784 0.000000 0.958713
O O3 0.862168 0.213577 0.851082
O O4 0.862796 0.268766 0.958392
O O5 0.247704 0.801247 0.118463
O O6 0.294700 0.756219 0.170551
O O7 0.392335 0.000000 0.008909
O O8 0.541587 0.756621 0.803048
O O9 0.934941 0.263441 0.475017
O O10 0.039869 0.000000 0.334518
O O11 0.998696 0.743426 0.110280
O O12 0.725730 0.809287 0.384091
O O13 0.968155 0.000000 0.104970
O O14 0.000000 0.771374 0.000000
O O15 0.982607 0.500000 0.860569
O O16 0.180569 0.703752 0.581748
O O17 0.193563 0.500000 0.327139
O O18 0.000000 0.668930 0.500000
O O19 0.449156 0.723547 0.317975
O O20 0.446530 0.000000 0.348157
O O21 0.586696 0.500000 0.703895
#
# Coordination Sequence:
#
# PCOD8057249 Si02
#       8
#     4   4   4   4   4   4   4   4
#     4  10  19  33  52  75 103 136 171 212 254 300
#     4  10  17  28  47  70  97 129 169 215 260 303
#     4   9  17  29  45  68  97 130 167 207 257 305
#     4   9  18  35  60  84 105 134 171 209 249 296
#     4  10  22  36  51  76 107 139 170 206 253 305
#     4   9  17  27  40  65  98 131 167 208 256 306
#     4   9  17  32  53  78 104 131 169 211 252 298
#     4  10  19  31  48  72 101 131 169 213 258 305
#
# _framework density 17.981607
#
# number of rings (size 3 to 8) (size 9 to 14) (size 15 to 20)
#    0.000    2.500    1.250    1.500    0.000    4.750 
#    0.000    0.625    0.000    4.500    0.000    5.250 
#    0.000    0.000    0.000    0.000    0.000    0.000 
#
# Total GULP energy -396851.434915 kJ/mol
# GULP energy per Si atom -12401.607341 kJ/mol
# Density = 1.794068 g / cm^3
# Si number density = 17.981607 Si / 1000 Ang^3
#
#
#
# Elastic Constant Matrix: (Units=GPa)
#
#
# Indices 1 2 3 4 5 6 
#
# 1 77.0745 37.2893 45.7939 0.0000 1.9879 0.0000
# 2 37.2893 90.6358 49.0341 0.0000 5.3205 0.0000
# 3 45.7939 49.0341 101.2629 0.0000 14.8911 0.0000
# 4 0.0000 0.0000 0.0000 26.6627 0.0000 3.0520
# 5 1.9879 5.3205 14.8911 0.0000 25.6133 0.0000
# 6 0.0000 0.0000 0.0000 3.0520 0.0000 17.6891
#
#
#
# Elastic Compliance Matrix: (Units=1/GPa)
#
#
# Indices 1 2 3 4 5 6 
#
# 1 0.019175 -0.004233 -0.007143 0.000000 0.003544 0.000000
# 2 -0.004233 0.015918 -0.005857 0.000000 0.000427 0.000000
# 3 -0.007143 -0.005857 0.017147 0.000000 -0.008198 0.000000
# 4 0.000000 0.000000 0.000000 0.038261 0.000000 -0.006601
# 5 0.003544 0.000427 -0.008198 0.000000 0.043445 0.000000
# 6 0.000000 0.000000 0.000000 -0.006601 0.000000 0.057671
#
#
# Mechanical properties :
#
#
# Convention : Reuss Voigt Hill
#
# Bulk Modulus (GPa) = 56.25723 59.24531 57.75127
# Shear Modulus (GPa) = 21.55118 23.11674 22.33396
#
# Velocity S-wave (km/s) = 3.46571 3.58938 3.52809
# Velocity P-wave (km/s) = 6.88250 7.08502 6.98449
#
# Compressibility (1/GPa) = 0.01777549
#
# Stress axis : x y z
#
# Youngs Moduli (GPa) = 52.15164 62.82255 58.31927
#
# Poissons Ratio (x) = 0.26590 0.41658
# Poissons Ratio (y) = 0.22073 0.34155
# Poissons Ratio (z) = 0.37252 0.36792
#
# Static dielectric constant tensor:
#      x y z
#    x 2.953460 0.000000 0.095870 
#    y 0.000000 3.367830 0.000000 
#    z 0.095870 0.000000 3.437930 
# 
# 
# High freq. dielectric constant tensor:
#      x y z
#    x 1.658090 0.000000 0.009400 
#    y 0.000000 1.701260 0.000000 
#    z 0.009400 0.000000 1.698200 
# 
# From -- ./inp_files/86807.got.cif
#   From: 2010.06.25/outbox.cif.g09.slc.cpg/sg10_44_cif.got.tgz:86807.got - 2010.06.27 22:07:45.
