data_PCOD8057498
_publ_section_title
;
Structure prediction by ZEFSAII (Michael W. Deem and Ramdas Pophale) SiO2 
 PCOD8057498
Probable space group: P 2/M
;
_chemical_formula_sum "Si O2"
_cell_formula_units_Z 32
_cell_length_a 13.280790
_cell_length_b 13.963629
_cell_length_c 12.950485
_cell_angle_alpha 90.000000
_cell_angle_beta 61.235887
_cell_angle_gamma 90.000000
_cell_volume 2105.299073
_symmetry_space_group_name_H-M "P 2/M"
_symmetry_group_IT_number 10
_symmetry_cell_setting 'monoclinic'
loop_
_space_group_symop_operation_xyz
x,y,z
-x,y,-z
-x,-y,-z
x,-y,z
loop_
_atom_site_type_symbol
_atom_site_label
_atom_site_fract_x
_atom_site_fract_y
_atom_site_fract_z
Si Si1 0.752470 0.611549 0.703451
Si Si2 0.900138 0.756332 0.730339
Si Si3 0.500630 0.612851 0.884019
Si Si4 0.951070 0.291299 0.919927
Si Si5 0.273007 0.611186 0.890365
Si Si6 0.852566 0.283946 0.462013
Si Si7 0.168783 0.609512 0.730361
Si Si8 0.134657 0.105007 0.421904
O O1 0.770952 0.500000 0.715835
O O2 0.809826 0.668734 0.770501
O O3 0.617901 0.638956 0.766921
O O4 0.811063 0.640022 0.566929
O O5 0.934283 0.781989 0.831906
O O6 0.844698 0.848853 0.701883
O O7 0.009485 0.718116 0.611530
O O8 0.485712 0.500000 0.899635
O O9 0.394055 0.654387 0.870165
O O10 0.500000 0.656982 0.000000
O O11 0.042375 0.372331 0.840598
O O12 0.828495 0.336835 0.999989
O O13 0.000000 0.239534 0.000000
O O14 0.261832 0.500000 0.922216
O O15 0.264083 0.627738 0.771419
O O16 0.801422 0.317148 0.377145
O O17 0.813163 0.176231 0.515722
O O18 0.172367 0.500000 0.688633
O O19 0.000000 0.091130 0.500000
O O20 0.194467 0.000000 0.399758
#
# Coordination Sequence:
#
# PCOD8057498 Si02
#       8
#     4   4   4   4   4   4   4   4
#     4  10  18  26  37  54  79 107 131 160 197 234
#     4   9  17  26  39  60  81 102 128 160 196 234
#     4   9  17  27  37  50  72 104 141 174 195 217
#     4   9  16  25  38  56  79 107 137 165 192 224
#     4   9  16  26  38  53  76 110 146 169 188 218
#     4   9  17  27  39  59  82 102 128 159 195 237
#     4   9  16  25  38  57  83 111 135 161 191 227
#     4   8  14  26  42  58  78 102 126 155 194 240
#
# _framework density 15.199741
#
# number of rings (size 3 to 8) (size 9 to 14) (size 15 to 20)
#    0.000    3.000    0.000    2.625    0.000    6.000 
#    0.000    0.625    0.000    3.375    0.000    2.625 
#    0.000   40.000    0.000    0.000    0.000    0.000 
#
# Total GULP energy -396464.706617 kJ/mol
# GULP energy per Si atom -12389.522082 kJ/mol
# Density = 1.516515 g / cm^3
# Si number density = 15.199741 Si / 1000 Ang^3
#
#
#
# Elastic Constant Matrix: (Units=GPa)
#
#
# Indices 1 2 3 4 5 6 
#
# 1 87.7874 31.4846 40.3610 0.0000 12.6283 0.0000
# 2 31.4846 77.9583 34.3152 0.0000 12.3693 0.0000
# 3 40.3610 34.3152 84.3021 0.0000 20.2527 0.0000
# 4 0.0000 0.0000 0.0000 9.8669 0.0000 4.6529
# 5 12.6283 12.3693 20.2527 0.0000 23.4607 0.0000
# 6 0.0000 0.0000 0.0000 4.6529 0.0000 8.3961
#
#
#
# Elastic Compliance Matrix: (Units=1/GPa)
#
#
# Indices 1 2 3 4 5 6 
#
# 1 0.015453 -0.003529 -0.005565 0.000000 -0.001654 0.000000
# 2 -0.003529 0.016660 -0.004338 0.000000 -0.003140 0.000000
# 3 -0.005565 -0.004338 0.018954 0.000000 -0.011080 0.000000
# 4 0.000000 0.000000 0.000000 0.137204 0.000000 -0.076035
# 5 -0.001654 -0.003140 -0.011080 0.000000 0.054735 0.000000
# 6 0.000000 0.000000 0.000000 -0.076035 0.000000 0.161240
#
#
# Mechanical properties :
#
#
# Convention : Reuss Voigt Hill
#
# Bulk Modulus (GPa) = 41.31527 51.37440 46.34484
# Shear Modulus (GPa) = 11.38493 17.93721 14.66107
#
# Velocity S-wave (km/s) = 2.73979 3.43898 3.10911
# Velocity P-wave (km/s) = 6.10321 7.04569 6.59132
#
# Compressibility (1/GPa) = 0.02420412
#
# Stress axis : x y z
#
# Youngs Moduli (GPa) = 64.71174 60.02349 52.76028
#
# Poissons Ratio (x) = 0.21184 0.29359
# Poissons Ratio (y) = 0.22838 0.22885
# Poissons Ratio (z) = 0.36010 0.26036
#
# Static dielectric constant tensor:
#      x y z
#    x 3.008860 0.000000 0.177870 
#    y 0.000000 2.736550 0.000000 
#    z 0.177870 0.000000 2.993410 
# 
# 
# High freq. dielectric constant tensor:
#      x y z
#    x 1.569580 0.000000 0.013990 
#    y 0.000000 1.533710 0.000000 
#    z 0.013990 0.000000 1.585820 
# 
# From -- ./inp_files/47381.got.cif
#   From: 2010.06.25/outbox.cif.g09.slc.cpg/sg10_24_cif.got.tgz:47381.got - 2010.06.27 22:07:45.
