data_PCOD8058584
_publ_section_title
;
Structure prediction by ZEFSAII (Michael W. Deem and Ramdas Pophale) SiO2 
 PCOD8058584
Probable space group: P 2/M
;
_chemical_formula_sum "Si O2"
_cell_formula_units_Z 32
_cell_length_a 21.729022
_cell_length_b 8.829375
_cell_length_c 28.234310
_cell_angle_alpha 90.000000
_cell_angle_beta 161.130602
_cell_angle_gamma 90.000000
_cell_volume 1751.876693
_symmetry_space_group_name_H-M "P 2/M"
_symmetry_group_IT_number 10
_symmetry_cell_setting 'monoclinic'
loop_
_space_group_symop_operation_xyz
x,y,z
-x,y,-z
-x,-y,-z
x,-y,z
loop_
_atom_site_type_symbol
_atom_site_label
_atom_site_fract_x
_atom_site_fract_y
_atom_site_fract_z
Si Si1 0.533291 0.320568 0.577193
Si Si2 0.715178 0.322798 0.170698
Si Si3 0.832538 0.174173 0.660057
Si Si4 0.204093 0.177523 0.670020
Si Si5 0.160740 0.824171 0.829325
Si Si6 0.437845 0.677020 0.104636
Si Si7 0.890687 0.675657 0.066529
Si Si8 0.937662 0.678516 0.904678
O O1 0.500000 0.258319 0.500000
O O2 0.535725 0.500000 0.579265
O O3 0.364687 0.263996 0.488500
O O4 0.732928 0.253875 0.741179
O O5 0.756889 0.500000 0.197710
O O6 0.763903 0.267024 0.258330
O O7 0.850884 0.233997 0.232899
O O8 0.500000 0.282795 0.000000
O O9 0.953132 0.203140 0.700355
O O10 0.950459 0.228485 0.791249
O O11 0.784245 0.000000 0.632189
O O12 0.364616 0.231135 0.749398
O O13 0.000000 0.219974 0.500000
O O14 0.222991 0.000000 0.693428
O O15 0.219510 0.000000 0.874650
O O16 0.318132 0.727291 0.971725
O O17 0.482527 0.500000 0.131993
O O18 0.319705 0.713384 0.066662
O O19 0.940152 0.500000 0.111646
O O20 0.904674 0.715729 0.020955
O O21 0.917171 0.500000 0.895961
O O22 0.000000 0.752674 0.000000
#
# Coordination Sequence:
#
# PCOD8058584 Si02
#       8
#     4   4   4   4   4   4   4   4
#     4  10  18  31  52  76 102 136 176 219 266 314
#     4  11  22  36  58  87 112 139 180 229 278 322
#     4  10  20  32  50  79 110 140 177 222 270 318
#     4  11  24  40  58  81 112 152 189 222 271 333
#     4  10  20  34  54  80 111 145 180 222 274 331
#     4  10  19  32  54  81 108 140 180 229 276 321
#     4   9  17  32  53  77 106 138 176 220 268 320
#     4   9  17  31  52  77 104 136 176 218 261 317
#
# _framework density 18.266124999999999
#
# number of rings (size 3 to 8) (size 9 to 14) (size 15 to 20)
#    0.000    2.000    2.500    1.875    0.000    3.750 
#    0.000    1.250    0.000    3.000    0.000    0.000 
#    0.000    0.000    0.000    0.000    0.000    0.000 
#
# Total GULP energy -396821.745821 kJ/mol
# GULP energy per Si atom -12400.679557 kJ/mol
# Density = 1.822455 g / cm^3
# Si number density = 18.266125 Si / 1000 Ang^3
#
#
#
# Elastic Constant Matrix: (Units=GPa)
#
#
# Indices 1 2 3 4 5 6 
#
# 1 132.4746 28.2013 63.4215 0.0000 6.1160 0.0000
# 2 28.2013 38.8886 28.9021 0.0000 3.6211 0.0000
# 3 63.4215 28.9021 113.2120 0.0000 8.3062 0.0000
# 4 0.0000 0.0000 0.0000 22.2285 0.0000 6.7037
# 5 6.1160 3.6211 8.3062 0.0000 29.6030 0.0000
# 6 0.0000 0.0000 0.0000 6.7037 0.0000 23.8769
#
#
#
# Elastic Compliance Matrix: (Units=1/GPa)
#
#
# Indices 1 2 3 4 5 6 
#
# 1 0.010829 -0.004112 -0.004992 0.000000 -0.000334 0.000000
# 2 -0.004112 0.033375 -0.006106 0.000000 -0.001520 0.000000
# 3 -0.004992 -0.006106 0.013332 0.000000 -0.001963 0.000000
# 4 0.000000 0.000000 0.000000 0.049149 0.000000 -0.013799
# 5 -0.000334 -0.001520 -0.001963 0.000000 0.034586 0.000000
# 6 0.000000 0.000000 0.000000 -0.013799 0.000000 0.045756
#
#
# Mechanical properties :
#
#
# Convention : Reuss Voigt Hill
#
# Bulk Modulus (GPa) = 36.87625 58.40277 47.63951
# Shear Modulus (GPa) = 22.07633 26.07836 24.07734
#
# Velocity S-wave (km/s) = 3.48026 3.78258 3.63456
# Velocity P-wave (km/s) = 6.03173 7.14982 6.61444
#
# Compressibility (1/GPa) = 0.02711773
#
# Stress axis : x y z
#
# Youngs Moduli (GPa) = 92.34060 29.96211 75.00480
#
# Poissons Ratio (x) = 0.12320 0.37446
# Poissons Ratio (y) = 0.37969 0.45794
# Poissons Ratio (z) = 0.46101 0.18293
#
# Static dielectric constant tensor:
#      x y z
#    x 3.592600 0.000000 0.200780 
#    y 0.000000 3.285040 0.000000 
#    z 0.200780 0.000000 3.339270 
# 
# 
# High freq. dielectric constant tensor:
#      x y z
#    x 1.715450 0.000000 0.020980 
#    y 0.000000 1.701990 0.000000 
#    z 0.020980 0.000000 1.684940 
# 
# From -- ./inp_files/93792.got.cif
#   From: 2010.06.25/outbox.cif.g09.slc.cpg/sg10_47_cif.got.tgz:93792.got - 2010.06.27 22:07:45.
