data_PCOD8058553
_publ_section_title
;
Structure prediction by ZEFSAII (Michael W. Deem and Ramdas Pophale) SiO2 
 PCOD8058553
Probable space group: P 2/M
;
_chemical_formula_sum "Si O2"
_cell_formula_units_Z 30
_cell_length_a 20.083743
_cell_length_b 18.241653
_cell_length_c 9.327965
_cell_angle_alpha 90.000000
_cell_angle_beta 153.069768
_cell_angle_gamma 90.000000
_cell_volume 1547.758015
_symmetry_space_group_name_H-M "P 2/M"
_symmetry_group_IT_number 10
_symmetry_cell_setting 'monoclinic'
loop_
_space_group_symop_operation_xyz
x,y,z
-x,y,-z
-x,-y,-z
x,-y,z
loop_
_atom_site_type_symbol
_atom_site_label
_atom_site_fract_x
_atom_site_fract_y
_atom_site_fract_z
Si Si1 0.048760 0.709131 0.737680
Si Si2 0.935775 0.917015 0.601499
Si Si3 0.763519 0.315692 0.649305
Si Si4 0.806096 0.139838 0.060870
Si Si5 0.563620 0.718306 0.899669
Si Si6 0.163450 0.219745 0.448301
Si Si7 0.500000 0.196567 0.500000
Si Si8 0.347155 0.580263 0.785371
O O1 0.129823 0.779011 0.825863
O O2 0.000000 0.663703 0.500000
O O3 0.911658 0.731124 0.572520
O O4 0.163744 0.664081 0.057961
O O5 0.836184 0.893769 0.274872
O O6 0.890712 0.864426 0.647528
O O7 0.109302 0.909454 0.895265
O O8 0.901811 0.000000 0.582018
O O9 0.600702 0.284009 0.355425
O O10 0.861481 0.250801 0.761662
O O11 0.766428 0.385715 0.549227
O O12 0.631016 0.143584 0.694776
O O13 0.566798 0.749255 0.746221
O O14 0.661317 0.772226 0.186086
O O15 0.633191 0.635697 0.042320
O O16 0.289930 0.500000 0.727243
O O17 0.500000 0.569953 0.000000
#
# Coordination Sequence:
#
# PCOD8058553 Si02
#       8
#     4   4   4   4   4   4   2   4
#     4  11  18  32  51  82 108 136 180 229 271 315
#     4  10  19  35  55  75 104 148 188 222 274 330
#     4  10  20  32  56  85 107 141 181 231 270 322
#     4  10  18  31  51  77 104 141 177 225 269 330
#     4  10  19  31  55  84 110 139 183 234 274 315
#     4  10  19  34  53  79 107 140 184 230 275 318
#     4  12  18  30  52  86 112 132 178 242 282 308
#     4   8  16  33  53  78 112 148 182 216 268 330
#
# _framework density 19.382874000000001
#
# number of rings (size 3 to 8) (size 9 to 14) (size 15 to 20)
#    0.000    2.000    5.333    2.400    0.000    0.000 
#    0.000    1.667    0.000   15.600    0.000    0.000 
#    0.000    5.333    0.000    0.000    0.000    0.000 
#
# Total GULP energy -371707.094489 kJ/mol
# GULP energy per Si atom -12390.236483 kJ/mol
# Density = 1.933876 g / cm^3
# Si number density = 19.382874 Si / 1000 Ang^3
#
#
#
# Elastic Constant Matrix: (Units=GPa)
#
#
# Indices 1 2 3 4 5 6 
#
# 1 66.2185 28.8020 38.1199 0.0000 -9.0266 0.0000
# 2 28.8020 111.1078 29.3614 0.0000 -4.4622 0.0000
# 3 38.1199 29.3614 107.9233 0.0000 -4.6401 0.0000
# 4 0.0000 0.0000 0.0000 13.3907 0.0000 -3.5679
# 5 -9.0266 -4.4622 -4.6401 0.0000 36.5068 0.0000
# 6 0.0000 0.0000 0.0000 -3.5679 0.0000 20.9108
#
#
#
# Elastic Compliance Matrix: (Units=1/GPa)
#
#
# Indices 1 2 3 4 5 6 
#
# 1 0.020757 -0.003589 -0.006187 0.000000 0.003907 0.000000
# 2 -0.003589 0.010345 -0.001539 0.000000 0.000181 0.000000
# 3 -0.006187 -0.001539 0.011861 0.000000 -0.000210 0.000000
# 4 0.000000 0.000000 0.000000 0.078236 0.000000 0.013349
# 5 0.003907 0.000181 -0.000210 0.000000 0.028354 0.000000
# 6 0.000000 0.000000 0.000000 0.013349 0.000000 0.050100
#
#
# Mechanical properties :
#
#
# Convention : Reuss Voigt Hill
#
# Bulk Modulus (GPa) = 49.18249 53.09069 51.13659
# Shear Modulus (GPa) = 21.82845 26.75941 24.29393
#
# Velocity S-wave (km/s) = 3.35949 3.71963 3.54414
# Velocity P-wave (km/s) = 6.36219 6.77477 6.57172
#
# Compressibility (1/GPa) = 0.02033244
#
# Stress axis : x y z
#
# Youngs Moduli (GPa) = 48.17677 96.66951 84.31066
#
# Poissons Ratio (x) = 0.34692 0.52165
# Poissons Ratio (y) = 0.17289 0.12975
# Poissons Ratio (z) = 0.29808 0.14877
#
# Static dielectric constant tensor:
#      x y z
#    x 3.596010 0.000000 0.027040 
#    y 0.000000 3.498010 0.000000 
#    z 0.027040 0.000000 3.875050 
# 
# 
# High freq. dielectric constant tensor:
#      x y z
#    x 1.744680 0.000000 0.004170 
#    y 0.000000 1.706930 0.000000 
#    z 0.004170 0.000000 1.762430 
# 
# From -- ./inp_files/33107.got.cif
#   From: 2010.06.25/outbox.cif.g09.slc.cpg/sg10_17_cif.got.tgz:33107.got - 2010.06.27 22:07:45.
