data_PCOD8058837
_publ_section_title
;
Structure prediction by ZEFSAII (Michael W. Deem and Ramdas Pophale) SiO2 
 PCOD8058837
Probable space group: P 2/M
;
_chemical_formula_sum "Si O2"
_cell_formula_units_Z 32
_cell_length_a 19.923786
_cell_length_b 8.993437
_cell_length_c 25.005545
_cell_angle_alpha 90.000000
_cell_angle_beta 156.471979
_cell_angle_gamma 90.000000
_cell_volume 1788.634986
_symmetry_space_group_name_H-M "P 2/M"
_symmetry_group_IT_number 10
_symmetry_cell_setting 'monoclinic'
loop_
_space_group_symop_operation_xyz
x,y,z
-x,y,-z
-x,-y,-z
x,-y,z
loop_
_atom_site_type_symbol
_atom_site_label
_atom_site_fract_x
_atom_site_fract_y
_atom_site_fract_z
Si Si1 0.484888 0.170380 0.317827
Si Si2 0.321765 0.675332 0.852205
Si Si3 0.815489 0.324376 0.851141
Si Si4 0.992927 0.324718 0.671717
Si Si5 0.196090 0.674925 0.646568
Si Si6 0.201992 0.175677 0.381756
Si Si7 0.693835 0.674924 0.646320
Si Si8 0.271104 0.173187 0.596349
O O1 0.316359 0.264816 0.201724
O O2 0.624761 0.223002 0.462803
O O3 0.555758 0.196203 0.309948
O O4 0.438776 0.000000 0.294379
O O5 0.338349 0.500000 0.858417
O O6 0.184801 0.714831 0.797290
O O7 0.266374 0.737266 0.753970
O O8 0.500000 0.746107 0.000000
O O9 0.811831 0.500000 0.852134
O O10 0.763938 0.270507 0.754413
O O11 0.000000 0.261960 0.000000
O O12 0.962714 0.500000 0.654310
O O13 0.952451 0.247202 0.698536
O O14 0.878008 0.263665 0.540236
O O15 0.227004 0.500000 0.661640
O O16 0.297391 0.762998 0.674764
O O17 0.000000 0.713780 0.500000
O O18 0.198984 0.239068 0.319855
O O19 0.177933 0.000000 0.363775
O O20 0.500000 0.721741 0.500000
O O21 0.717744 0.500000 0.655177
O O22 0.221633 0.000000 0.561025
#
# Coordination Sequence:
#
# PCOD8058837 Si02
#       8
#     4   4   4   4   4   4   4   4
#     4   9  19  34  51  74 105 138 172 209 254 314
#     4   9  18  33  53  77 106 137 171 214 264 314
#     4  10  21  36  54  78 107 135 170 217 263 307
#     4  10  18  32  54  78 106 139 174 215 262 308
#     4  10  18  32  53  80 104 131 178 223 257 304
#     4  10  20  33  52  80 109 136 172 218 262 306
#     4  10  19  33  54  80 104 134 176 218 257 304
#     4  10  20  33  51  79 109 137 173 217 264 307
#
# _framework density 17.890737999999999
#
# number of rings (size 3 to 8) (size 9 to 14) (size 15 to 20)
#    0.000    2.250    2.500    1.875    0.000    3.750 
#    0.000    1.250    0.000    9.375    0.000    0.000 
#    0.000    0.000    0.000    0.000    0.000    0.000 
#
# Total GULP energy -396847.527053 kJ/mol
# GULP energy per Si atom -12401.485220 kJ/mol
# Density = 1.785002 g / cm^3
# Si number density = 17.890738 Si / 1000 Ang^3
#
#
#
# Elastic Constant Matrix: (Units=GPa)
#
#
# Indices 1 2 3 4 5 6 
#
# 1 144.5096 48.5308 66.7975 0.0000 7.6326 0.0000
# 2 48.5308 53.3933 32.4104 0.0000 7.6291 0.0000
# 3 66.7975 32.4104 119.9410 0.0000 6.0300 0.0000
# 4 0.0000 0.0000 0.0000 11.7367 0.0000 0.9380
# 5 7.6326 7.6291 6.0300 0.0000 25.5392 0.0000
# 6 0.0000 0.0000 0.0000 0.9380 0.0000 26.9972
#
#
#
# Elastic Compliance Matrix: (Units=1/GPa)
#
#
# Indices 1 2 3 4 5 6 
#
# 1 0.011562 -0.007884 -0.004304 0.000000 -0.000084 0.000000
# 2 -0.007884 0.028520 -0.003042 0.000000 -0.005445 0.000000
# 3 -0.004304 -0.003042 0.011584 0.000000 -0.000540 0.000000
# 4 0.000000 0.000000 0.000000 0.085440 0.000000 -0.002969
# 5 -0.000084 -0.005445 -0.000540 0.000000 0.040935 0.000000
# 6 0.000000 0.000000 0.000000 -0.002969 0.000000 0.037144
#
#
# Mechanical properties :
#
#
# Convention : Reuss Voigt Hill
#
# Bulk Modulus (GPa) = 47.16031 68.14680 57.65356
# Shear Modulus (GPa) = 19.78533 24.19497 21.99015
#
# Velocity S-wave (km/s) = 3.32911 3.68145 3.50971
# Velocity P-wave (km/s) = 6.41831 7.49960 6.97993
#
# Compressibility (1/GPa) = 0.02120427
#
# Stress axis : x y z
#
# Youngs Moduli (GPa) = 86.49258 35.06370 86.32795
#
# Poissons Ratio (x) = 0.27644 0.37158
# Poissons Ratio (y) = 0.68191 0.26261
# Poissons Ratio (z) = 0.37229 0.10666
#
# Static dielectric constant tensor:
#      x y z
#    x 3.453800 0.000000 0.016890 
#    y 0.000000 3.139590 0.000000 
#    z 0.016890 0.000000 3.271240 
# 
# 
# High freq. dielectric constant tensor:
#      x y z
#    x 1.705850 0.000000 0.007670 
#    y 0.000000 1.681920 0.000000 
#    z 0.007670 0.000000 1.665020 
# 
# From -- ./inp_files/93820.got.cif
#   From: 2010.06.25/outbox.cif.g09.slc.cpg/sg10_47_cif.got.tgz:93820.got - 2010.06.27 22:07:45.
