data_PCOD8058329
_publ_section_title
;
Structure prediction by ZEFSAII (Michael W. Deem and Ramdas Pophale) SiO2 
 PCOD8058329
Probable space group: P 2/M
;
_chemical_formula_sum "Si O2"
_cell_formula_units_Z 24
_cell_length_a 22.546280
_cell_length_b 11.871555
_cell_length_c 15.646830
_cell_angle_alpha 90.000000
_cell_angle_beta 19.426878
_cell_angle_gamma 90.000000
_cell_volume 1392.950795
_symmetry_space_group_name_H-M "P 2/M"
_symmetry_group_IT_number 10
_symmetry_cell_setting 'monoclinic'
loop_
_space_group_symop_operation_xyz
x,y,z
-x,y,-z
-x,-y,-z
x,-y,z
loop_
_atom_site_type_symbol
_atom_site_label
_atom_site_fract_x
_atom_site_fract_y
_atom_site_fract_z
Si Si1 0.289227 0.500000 0.590260
Si Si2 0.950156 0.500000 0.930090
Si Si3 0.960067 0.128022 0.415644
Si Si4 0.373665 0.262025 0.421265
Si Si5 0.965635 0.737966 0.238665
Si Si6 0.289074 0.871996 0.087314
Si Si7 0.829960 0.125930 0.170432
O O1 0.404791 0.390292 0.409428
O O2 0.108525 0.500000 0.782553
O O3 0.234489 0.500000 0.764952
O O4 0.964454 0.609736 0.850811
O O5 0.930001 0.216314 0.381210
O O6 0.808275 0.152067 0.691325
O O7 0.153790 0.146542 0.193171
O O8 0.942816 0.000000 0.404716
O O9 0.216722 0.253177 0.565853
O O10 0.330644 0.189076 0.563889
O O11 0.551554 0.216297 0.136119
O O12 0.121367 0.811012 0.983104
O O13 0.362743 0.000000 0.985665
O O14 0.767197 0.000000 0.233347
O O15 0.000000 0.125755 0.000000
#
# Coordination Sequence:
#
# PCOD8058329 Si02
#       7
#     2   2   4   4   4   4   4
#     4   9  16  30  50  73 102 138 169 196 241 296
#     4   9  16  30  50  73 102 138 169 196 241 296
#     4   9  19  36  54  71  97 133 167 203 253 305
#     4  10  18  30  51  76 101 130 167 206 243 290
#     4  10  18  30  51  76 101 130 167 206 243 290
#     4   9  19  36  54  71  97 133 167 203 253 305
#     4   9  16  25  42  72 103 125 152 197 248 292
#
# _framework density 17.229610999999998
#
# number of rings (size 3 to 8) (size 9 to 14) (size 15 to 20)
#    0.000    2.667    1.667    2.000    0.000    2.667 
#    0.000    4.167    0.000    9.000    0.000    0.000 
#    0.000    0.000    0.000    0.000    0.000    0.000 
#
# Total GULP energy -297580.425575 kJ/mol
# GULP energy per Si atom -12399.184399 kJ/mol
# Density = 1.719040 g / cm^3
# Si number density = 17.229611 Si / 1000 Ang^3
#
#
#
# Elastic Constant Matrix: (Units=GPa)
#
#
# Indices 1 2 3 4 5 6 
#
# 1 47.8817 53.9410 51.7816 0.0000 12.3790 0.0000
# 2 53.9410 167.8442 63.5155 0.0000 17.3000 0.0000
# 3 51.7816 63.5155 65.8333 0.0000 19.9574 0.0000
# 4 0.0000 0.0000 0.0000 25.7977 0.0000 5.0932
# 5 12.3790 17.3000 19.9574 0.0000 13.2602 0.0000
# 6 0.0000 0.0000 0.0000 5.0932 0.0000 22.4269
#
#
#
# Elastic Compliance Matrix: (Units=1/GPa)
#
#
# Indices 1 2 3 4 5 6 
#
# 1 0.180651 -0.005252 -0.161799 0.000000 0.081723 0.000000
# 2 -0.005252 0.009584 -0.005170 0.000000 0.000181 0.000000
# 3 -0.161799 -0.005170 0.183188 0.000000 -0.117917 0.000000
# 4 0.000000 0.000000 0.000000 0.040583 0.000000 -0.009216
# 5 0.081723 0.000181 -0.117917 0.000000 0.176358 0.000000
# 6 0.000000 0.000000 0.000000 -0.009216 0.000000 0.046682
#
#
# Mechanical properties :
#
#
# Convention : Reuss Voigt Hill
#
# Bulk Modulus (GPa) = 34.50602 68.89283 51.69943
# Shear Modulus (GPa) = 5.04466 19.78503 12.41484
#
# Velocity S-wave (km/s) = 1.71297 3.39236 2.68722
# Velocity P-wave (km/s) = 4.89724 7.44420 6.30076
#
# Compressibility (1/GPa) = 0.02898045
#
# Stress axis : x y z
#
# Youngs Moduli (GPa) = 5.53554 104.34545 5.45886
#
# Poissons Ratio (x) = 0.54804 0.88324
# Poissons Ratio (y) = 0.02907 0.02822
# Poissons Ratio (z) = 0.89565 0.53945
#
# Static dielectric constant tensor:
#      x y z
#    x 2.897130 0.000000 0.174660 
#    y 0.000000 3.422230 0.000000 
#    z 0.174660 0.000000 3.012600 
# 
# 
# High freq. dielectric constant tensor:
#      x y z
#    x 1.638440 0.000000 0.020020 
#    y 0.000000 1.673590 0.000000 
#    z 0.020020 0.000000 1.651620 
# 
# From -- ./inp_files/24086.got.cif
#   From: 2010.06.25/outbox.cif.g09.slc.cpg/sg10_13_cif.got.tgz:24086.got - 2010.06.27 22:07:45.
