data_PCOD8058850
_publ_section_title
;
Structure prediction by ZEFSAII (Michael W. Deem and Ramdas Pophale) SiO2 
 PCOD8058850
Probable space group: P 2/M
;
_chemical_formula_sum "Si O2"
_cell_formula_units_Z 20
_cell_length_a 11.555171
_cell_length_b 8.417649
_cell_length_c 13.666582
_cell_angle_alpha 90.000000
_cell_angle_beta 53.584547
_cell_angle_gamma 90.000000
_cell_volume 1069.742623
_symmetry_space_group_name_H-M "P 2/M"
_symmetry_group_IT_number 10
_symmetry_cell_setting 'monoclinic'
loop_
_space_group_symop_operation_xyz
x,y,z
-x,y,-z
-x,-y,-z
x,-y,z
loop_
_atom_site_type_symbol
_atom_site_label
_atom_site_fract_x
_atom_site_fract_y
_atom_site_fract_z
Si Si1 0.417442 0.685392 0.904354
Si Si2 0.988856 0.686331 0.619694
Si Si3 0.431116 0.311286 0.680634
Si Si4 0.300553 0.817037 0.151663
Si Si5 0.283142 0.688577 0.562920
O O1 0.381566 0.500000 0.929323
O O2 0.389996 0.752931 0.808675
O O3 0.584404 0.710720 0.847931
O O4 0.311739 0.778693 0.030437
O O5 0.967105 0.500000 0.649697
O O6 0.857510 0.780676 0.731548
O O7 0.000000 0.724402 0.500000
O O8 0.131523 0.754809 0.600802
O O9 0.441691 0.500000 0.678881
O O10 0.587422 0.244572 0.569600
O O11 0.310935 0.258150 0.661620
O O12 0.338129 0.000000 0.150512
O O13 0.281614 0.500000 0.555896
#
# Coordination Sequence:
#
# PCOD8058850 Si02
#       5
#     4   4   4   4   4
#     4  10  18  32  54  75  95 124 166 207 242 285
#     4  10  19  32  52  76 100 128 162 200 241 286
#     4   8  14  26  48  76 100 123 153 198 249 287
#     4  11  22  34  48  70 101 132 162 199 246 293
#     4   8  14  26  46  75 105 124 150 197 247 289
#
# _framework density 18.696086000000001
#
# number of rings (size 3 to 8) (size 9 to 14) (size 15 to 20)
#    0.000    2.600    0.000    6.000    0.000    3.600 
#    0.000    1.000    0.000    8.400    0.000    8.400 
#    0.000    0.000    0.000    0.000    0.000    0.000 
#
# Total GULP energy -247940.113315 kJ/mol
# GULP energy per Si atom -12397.005666 kJ/mol
# Density = 1.865353 g / cm^3
# Si number density = 18.696086 Si / 1000 Ang^3
#
#
#
# Elastic Constant Matrix: (Units=GPa)
#
#
# Indices 1 2 3 4 5 6 
#
# 1 107.2730 11.6668 63.9706 0.0000 10.7266 0.0000
# 2 11.6668 34.0928 21.1278 0.0000 1.3307 0.0000
# 3 63.9706 21.1278 123.5178 0.0000 13.6846 0.0000
# 4 0.0000 0.0000 0.0000 2.7332 0.0000 -4.1049
# 5 10.7266 1.3307 13.6846 0.0000 38.2424 0.0000
# 6 0.0000 0.0000 0.0000 -4.1049 0.0000 3.6043
#
#
#
# Elastic Compliance Matrix: (Units=1/GPa)
#
#
# Indices 1 2 3 4 5 6 
#
# 1 0.013558 -0.000367 -0.006809 0.000000 -0.001354 0.000000
# 2 -0.000367 0.032850 -0.005533 0.000000 0.000940 0.000000
# 3 -0.006809 -0.005533 0.012845 0.000000 -0.002494 0.000000
# 4 0.000000 0.000000 0.000000 -0.514998 0.000000 -0.586525
# 5 -0.001354 0.000940 -0.002494 0.000000 0.027388 0.000000
# 6 0.000000 0.000000 0.000000 -0.586525 0.000000 -0.390539
#
#
# Mechanical properties :
#
#
# Convention : Reuss Voigt Hill
#
# Bulk Modulus (GPa) = 29.55569 50.93489 40.24529
# Shear Modulus (GPa) = -6.39222 20.12388 6.86583
#
# Velocity S-wave (km/s) = -1.85106 3.28437 1.91841
# Velocity P-wave (km/s) = 3.35771 6.45643 5.14586
#
# Compressibility (1/GPa) = 0.03383444
#
# Stress axis : x y z
#
# Youngs Moduli (GPa) = 73.75936 30.44182 77.85106
#
# Poissons Ratio (x) = 0.01118 0.53007
# Poissons Ratio (y) = 0.02708 0.43074
# Poissons Ratio (z) = 0.50221 0.16843
#
# Static dielectric constant tensor:
#      x y z
#    x 3.645950 0.000000 0.209360 
#    y 0.000000 2.992290 0.000000 
#    z 0.209360 0.000000 3.596190 
# 
# 
# High freq. dielectric constant tensor:
#      x y z
#    x 1.721770 0.000000 0.013120 
#    y 0.000000 1.687910 0.000000 
#    z 0.013120 0.000000 1.728390 
# 
# From -- ./inp_files/44244.got.cif
#   From: 2010.06.25/outbox.cif.g09.slc.cpg/sg10_23_cif.got.tgz:44244.got - 2010.06.27 22:07:45.
