data_PCOD8058088
_publ_section_title
;
Structure prediction by ZEFSAII (Michael W. Deem and Ramdas Pophale) SiO2 
 PCOD8058088
Probable space group: P 2/M
;
_chemical_formula_sum "Si O2"
_cell_formula_units_Z 32
_cell_length_a 17.440727
_cell_length_b 9.146395
_cell_length_c 23.757813
_cell_angle_alpha 90.000000
_cell_angle_beta 149.050035
_cell_angle_gamma 90.000000
_cell_volume 1949.074841
_symmetry_space_group_name_H-M "P 2/M"
_symmetry_group_IT_number 10
_symmetry_cell_setting 'monoclinic'
loop_
_space_group_symop_operation_xyz
x,y,z
-x,y,-z
-x,-y,-z
x,-y,z
loop_
_atom_site_type_symbol
_atom_site_label
_atom_site_fract_x
_atom_site_fract_y
_atom_site_fract_z
Si Si1 0.120675 0.665096 0.625042
Si Si2 0.925168 0.672001 0.011892
Si Si3 0.177000 0.672990 0.255368
Si Si4 0.623171 0.830495 0.806877
Si Si5 0.447929 0.669803 0.351632
Si Si6 0.784497 0.670036 0.595283
Si Si7 0.679557 0.167251 0.326675
Si Si8 0.907688 0.171915 0.567023
O O1 0.153690 0.500000 0.665206
O O2 0.272606 0.735667 0.696711
O O3 0.000000 0.671083 0.500000
O O4 0.060128 0.756642 0.639865
O O5 0.894050 0.500000 0.994341
O O6 0.032697 0.724905 0.129778
O O7 0.770784 0.754988 0.923255
O O8 0.000000 0.716150 0.000000
O O9 0.187163 0.500000 0.263054
O O10 0.326368 0.731122 0.319117
O O11 0.166931 0.730255 0.312871
O O12 0.565905 0.759662 0.713803
O O13 0.495389 0.808491 0.773299
O O14 0.654663 0.000000 0.815428
O O15 0.418590 0.500000 0.318825
O O16 0.608486 0.695570 0.479552
O O17 0.824239 0.500000 0.611701
O O18 0.875874 0.763422 0.608118
O O19 0.769669 0.213110 0.439610
O O20 0.717647 0.000000 0.336114
O O21 0.931789 0.000000 0.587217
#
# Coordination Sequence:
#
# PCOD8058088 Si02
#       8
#     4   4   4   4   4   4   4   4
#     4   9  17  28  45  70  96 123 160 199 232 278
#     4  10  19  34  53  70  92 126 168 209 250 293
#     4   9  18  33  50  70  95 126 166 210 251 287
#     4  11  21  32  48  72 100 129 164 202 244 289
#     4  10  18  31  50  70  95 128 166 202 245 292
#     4  10  19  30  49  73  97 127 166 207 241 286
#     4   9  18  31  45  65  97 132 159 190 239 292
#     4  10  18  30  46  66  99 135 160 187 237 296
#
# _framework density 16.418046
#
# number of rings (size 3 to 8) (size 9 to 14) (size 15 to 20)
#    0.000    2.250    2.500    1.500    0.000    4.750 
#    0.000    1.250    0.000    1.500    0.000    0.875 
#    0.000    7.000    0.000    0.000    0.000    0.000 
#
# Total GULP energy -396830.293682 kJ/mol
# GULP energy per Si atom -12400.946678 kJ/mol
# Density = 1.638068 g / cm^3
# Si number density = 16.418046 Si / 1000 Ang^3
#
#
#
# Elastic Constant Matrix: (Units=GPa)
#
#
# Indices 1 2 3 4 5 6 
#
# 1 115.3975 59.5481 54.3654 0.0000 10.6396 0.0000
# 2 59.5481 76.3735 39.7515 0.0000 4.8890 0.0000
# 3 54.3654 39.7515 87.4670 0.0000 -0.3130 0.0000
# 4 0.0000 0.0000 0.0000 15.6550 0.0000 8.6593
# 5 10.6396 4.8890 -0.3130 0.0000 18.0129 0.0000
# 6 0.0000 0.0000 0.0000 8.6593 0.0000 22.0909
#
#
#
# Elastic Compliance Matrix: (Units=1/GPa)
#
#
# Indices 1 2 3 4 5 6 
#
# 1 0.017451 -0.009757 -0.006440 0.000000 -0.007771 0.000000
# 2 -0.009757 0.023029 -0.004404 0.000000 -0.000564 0.000000
# 3 -0.006440 -0.004404 0.017456 0.000000 0.005303 0.000000
# 4 0.000000 0.000000 0.000000 0.081562 0.000000 -0.031971
# 5 -0.007771 -0.000564 0.005303 0.000000 0.060351 0.000000
# 6 0.000000 0.000000 0.000000 -0.031971 0.000000 0.057800
#
#
# Mechanical properties :
#
#
# Convention : Reuss Voigt Hill
#
# Bulk Modulus (GPa) = 59.75661 65.17420 62.46540
# Shear Modulus (GPa) = 16.42416 19.52330 17.97373
#
# Velocity S-wave (km/s) = 3.16630 3.45213 3.31230
# Velocity P-wave (km/s) = 7.05997 7.46140 7.26346
#
# Compressibility (1/GPa) = 0.01673455
#
# Stress axis : x y z
#
# Youngs Moduli (GPa) = 57.30249 43.42301 57.28604
#
# Poissons Ratio (x) = 0.42368 0.36894
# Poissons Ratio (y) = 0.55910 0.25227
# Poissons Ratio (z) = 0.36905 0.19122
#
# Static dielectric constant tensor:
#      x y z
#    x 3.184710 0.000000 0.058450 
#    y 0.000000 3.030650 0.000000 
#    z 0.058450 0.000000 2.987940 
# 
# 
# High freq. dielectric constant tensor:
#      x y z
#    x 1.635120 0.000000 0.011950 
#    y 0.000000 1.625570 0.000000 
#    z 0.011950 0.000000 1.600070 
# 
# From -- ./inp_files/52765.got.cif
#   From: 2010.06.25/outbox.cif.g09.slc.cpg/sg10_27_cif.got.tgz:52765.got - 2010.06.27 22:07:45.
