data_PCOD8058936
_publ_section_title
;
Structure prediction by ZEFSAII (Michael W. Deem and Ramdas Pophale) SiO2 
 PCOD8058936
Probable space group: P 2/M
;
_chemical_formula_sum "Si O2"
_cell_formula_units_Z 20
_cell_length_a 10.215675
_cell_length_b 7.664874
_cell_length_c 16.481344
_cell_angle_alpha 90.000000
_cell_angle_beta 127.042588
_cell_angle_gamma 90.000000
_cell_volume 1030.077461
_symmetry_space_group_name_H-M "P 2/M"
_symmetry_group_IT_number 10
_symmetry_cell_setting 'monoclinic'
loop_
_space_group_symop_operation_xyz
x,y,z
-x,y,-z
-x,-y,-z
x,-y,z
loop_
_atom_site_type_symbol
_atom_site_label
_atom_site_fract_x
_atom_site_fract_y
_atom_site_fract_z
Si Si1 0.495949 0.698049 0.739171
Si Si2 0.031096 0.192781 0.291058
Si Si3 0.130902 0.302808 0.611637
Si Si4 0.381017 0.200613 0.381011
Si Si5 0.727140 0.000000 0.879729
Si Si6 0.046052 0.000000 0.886221
O O1 0.504479 0.500000 0.778345
O O2 0.312351 0.781270 0.675519
O O3 0.546405 0.686749 0.664371
O O4 0.618921 0.825072 0.833032
O O5 0.926823 0.302082 0.316308
O O6 0.945166 0.171041 0.169888
O O7 0.207511 0.282185 0.343593
O O8 0.057510 0.000000 0.339950
O O9 0.153068 0.500000 0.590214
O O10 0.000000 0.212898 0.500000
O O11 0.500000 0.214515 0.500000
O O12 0.358160 0.000000 0.342530
O O13 0.872968 0.000000 0.868763
O O14 0.800303 0.000000 0.997376
#
# Coordination Sequence:
#
# PCOD8058936 Si02
#       6
#     4   4   4   4   2   2
#     4  11  22  37  58  87 113 152 199 228 287 347
#     4   9  18  35  53  85 108 145 197 224 282 346
#     4  10  22  37  53  82 125 159 185 228 282 341
#     4  10  18  32  55  84 117 148 188 236 281 339
#     4  11  20  43  64  81 121 145 183 265 292 331
#     4   9  20  39  64  85 109 149 191 237 312 341
#
# _framework density 19.416015000000002
#
# number of rings (size 3 to 8) (size 9 to 14) (size 15 to 20)
#    0.600    1.400    3.000    1.200    1.400    1.600 
#    0.000    5.000    0.000    2.400    0.000    0.000 
#    0.000    0.000    0.000    0.000    0.000    0.000 
#
# Total GULP energy -247842.690793 kJ/mol
# GULP energy per Si atom -12392.134540 kJ/mol
# Density = 1.937182 g / cm^3
# Si number density = 19.416015 Si / 1000 Ang^3
#
#
#
# Elastic Constant Matrix: (Units=GPa)
#
#
# Indices 1 2 3 4 5 6 
#
# 1 136.9628 16.2792 63.0782 0.0000 13.5261 0.0000
# 2 16.2792 57.5189 37.0895 0.0000 7.4069 0.0000
# 3 63.0782 37.0895 153.4116 0.0000 7.2491 0.0000
# 4 0.0000 0.0000 0.0000 4.4405 0.0000 -10.4457
# 5 13.5261 7.4069 7.2491 0.0000 32.9850 0.0000
# 6 0.0000 0.0000 0.0000 -10.4457 0.0000 23.8777
#
#
#
# Elastic Compliance Matrix: (Units=1/GPa)
#
#
# Indices 1 2 3 4 5 6 
#
# 1 0.009293 0.000156 -0.003716 0.000000 -0.003029 0.000000
# 2 0.000156 0.021023 -0.004972 0.000000 -0.003692 0.000000
# 3 -0.003716 -0.004972 0.009219 0.000000 0.000614 0.000000
# 4 0.000000 0.000000 0.000000 -7.742706 0.000000 -3.387194
# 5 -0.003029 -0.003692 0.000614 0.000000 0.032253 0.000000
# 6 0.000000 0.000000 0.000000 -3.387194 0.000000 -1.439912
#
#
# Mechanical properties :
#
#
# Convention : Reuss Voigt Hill
#
# Bulk Modulus (GPa) = 44.50097 64.53190 54.51644
# Shear Modulus (GPa) = -0.55028 27.69041 13.57006
#
# Velocity S-wave (km/s) = -0.53295 3.78055 2.64656
# Velocity P-wave (km/s) = 4.75298 7.23639 6.12193
#
# Compressibility (1/GPa) = 0.02247142
#
# Stress axis : x y z
#
# Youngs Moduli (GPa) = 107.60686 47.56667 108.46889
#
# Poissons Ratio (x) = -0.00741 0.40302
# Poissons Ratio (y) = -0.01676 0.53933
# Poissons Ratio (z) = 0.39982 0.23651
#
# Static dielectric constant tensor:
#      x y z
#    x 3.537880 0.000000 0.119740 
#    y 0.000000 3.241700 0.000000 
#    z 0.119740 0.000000 3.471460 
# 
# 
# High freq. dielectric constant tensor:
#      x y z
#    x 1.763450 0.000000 0.006940 
#    y 0.000000 1.729110 0.000000 
#    z 0.006940 0.000000 1.743360 
# 
# From -- ./inp_files/31440.got.cif
#   From: 2010.06.25/outbox.cif.g09.slc.cpg/sg10_16_cif.got.tgz:31440.got - 2010.06.27 22:07:45.
