data_PCOD8058236
_publ_section_title
;
Structure prediction by ZEFSAII (Michael W. Deem and Ramdas Pophale) SiO2 
 PCOD8058236
Probable space group: P 2/M
;
_chemical_formula_sum "Si O2"
_cell_formula_units_Z 32
_cell_length_a 24.607670
_cell_length_b 9.128002
_cell_length_c 20.016679
_cell_angle_alpha 90.000000
_cell_angle_beta 156.707548
_cell_angle_gamma 90.000000
_cell_volume 1777.877465
_symmetry_space_group_name_H-M "P 2/M"
_symmetry_group_IT_number 10
_symmetry_cell_setting 'monoclinic'
loop_
_space_group_symop_operation_xyz
x,y,z
-x,y,-z
-x,-y,-z
x,-y,z
loop_
_atom_site_type_symbol
_atom_site_label
_atom_site_fract_x
_atom_site_fract_y
_atom_site_fract_z
Si Si1 0.580817 0.168872 0.228153
Si Si2 0.093347 0.668991 0.749029
Si Si3 0.544202 0.169539 0.338141
Si Si4 0.268629 0.829018 0.835540
Si Si5 0.780048 0.668475 0.356493
Si Si6 0.379679 0.335511 0.454208
Si Si7 0.303610 0.333757 0.227021
Si Si8 0.762522 0.172801 0.973150
O O1 0.597882 0.207860 0.325326
O O2 0.678431 0.278369 0.299324
O O3 0.621121 0.000000 0.259595
O O4 0.426053 0.198509 0.031076
O O5 0.138319 0.500000 0.803894
O O6 0.173352 0.743914 0.779148
O O7 0.124405 0.748817 0.853743
O O8 0.932850 0.685939 0.555638
O O9 0.645116 0.243116 0.506557
O O10 0.550189 0.000000 0.360405
O O11 0.386212 0.221182 0.166537
O O12 0.240324 0.770021 0.730220
O O13 0.231434 0.000000 0.797111
O O14 0.747065 0.500000 0.301041
O O15 0.334461 0.500000 0.419377
O O16 0.290944 0.278946 0.290003
O O17 0.538317 0.327502 0.614552
O O18 0.248667 0.500000 0.158244
O O19 0.218130 0.227864 0.081383
O O20 0.785778 0.000000 0.002436
#
# Coordination Sequence:
#
# PCOD8058236 Si02
#       8
#     4   4   4   4   4   4   4   4
#     4  10  21  38  56  78 107 139 174 216 263 311
#     4  11  23  38  55  77 108 140 173 218 264 309
#     4   9  17  30  47  71 103 133 169 215 256 302
#     4  11  22  39  61  82 104 134 174 216 263 318
#     4  11  25  40  54  79 108 136 176 218 261 315
#     4   8  14  24  40  65  98 135 172 206 249 306
#     4   8  14  25  40  64 100 136 169 208 254 302
#     4  10  18  30  49  74 102 134 176 216 255 310
#
# _framework density 17.998989000000002
#
# number of rings (size 3 to 8) (size 9 to 14) (size 15 to 20)
#    0.000    2.250    1.250    3.000    0.000    7.500 
#    0.000    2.500    0.000    0.000    0.000    0.875 
#    0.000    7.000    0.000    0.000    0.000    0.000 
#
# Total GULP energy -396749.012709 kJ/mol
# GULP energy per Si atom -12398.406647 kJ/mol
# Density = 1.795802 g / cm^3
# Si number density = 17.998989 Si / 1000 Ang^3
#
#
#
# Elastic Constant Matrix: (Units=GPa)
#
#
# Indices 1 2 3 4 5 6 
#
# 1 9.0163 99.4792 161.3894 0.0000 -76.9507 0.0000
# 2 99.4792 78.3456 7.5108 0.0000 10.3151 0.0000
# 3 161.3894 7.5108 -41.0856 0.0000 34.1784 0.0000
# 4 0.0000 0.0000 0.0000 28.6197 0.0000 -8.4116
# 5 -76.9507 10.3151 34.1784 0.0000 5.7955 0.0000
# 6 0.0000 0.0000 0.0000 -8.4116 0.0000 35.0170
#
#
#
# Elastic Compliance Matrix: (Units=1/GPa)
#
#
# Indices 1 2 3 4 5 6 
#
# 1 0.002475 -0.003495 0.007043 0.000000 -0.002452 0.000000
# 2 -0.003495 0.018881 -0.013010 0.000000 -0.003286 0.000000
# 3 0.007043 -0.013010 0.016593 0.000000 0.018808 0.000000
# 4 0.000000 0.000000 0.000000 0.037595 0.000000 0.009031
# 5 -0.002452 -0.003286 0.018808 0.000000 0.034912 0.000000
# 6 0.000000 0.000000 0.000000 0.009031 0.000000 0.030727
#
#
# Mechanical properties :
#
#
# Convention : Reuss Voigt Hill
#
# Bulk Modulus (GPa) = 52.55899 64.78167 58.67033
# Shear Modulus (GPa) = 30.03921 -0.92042 14.55940
#
# Velocity S-wave (km/s) = 4.08970 -0.71588 2.84720
# Velocity P-wave (km/s) = 7.18090 5.94867 6.59363
#
# Compressibility (1/GPa) = 0.01902624
#
# Stress axis : x y z
#
# Youngs Moduli (GPa) = 404.05268 52.96252 60.26491
#
# Poissons Ratio (x) = 0.18509 -0.42443
# Poissons Ratio (y) = 1.41208 0.78402
# Poissons Ratio (z) = -2.84564 0.68902
#
# Static dielectric constant tensor:
#      x y z
#    x 3.449890 0.000000 -0.424880 
#    y 0.000000 3.456770 0.000000 
#    z -0.424880 0.000000 3.286500 
# 
# 
# High freq. dielectric constant tensor:
#      x y z
#    x 1.689750 0.000000 -0.034880 
#    y 0.000000 1.702870 0.000000 
#    z -0.034880 0.000000 1.677680 
# 
# From -- ./inp_files/86996.got.cif
#   From: 2010.06.25/outbox.cif.g09.slc.cpg/sg10_44_cif.got.tgz:86996.got - 2010.06.27 22:07:45.
