data_PCOD8058467
_publ_section_title
;
Structure prediction by ZEFSAII (Michael W. Deem and Ramdas Pophale) SiO2 
 PCOD8058467
Probable space group: P 2/M
;
_chemical_formula_sum "Si O2"
_cell_formula_units_Z 32
_cell_length_a 17.293797
_cell_length_b 18.305334
_cell_length_c 13.601058
_cell_angle_alpha 90.000000
_cell_angle_beta 24.804628
_cell_angle_gamma 90.000000
_cell_volume 1806.337811
_symmetry_space_group_name_H-M "P 2/M"
_symmetry_group_IT_number 10
_symmetry_cell_setting 'monoclinic'
loop_
_space_group_symop_operation_xyz
x,y,z
-x,y,-z
-x,-y,-z
x,-y,z
loop_
_atom_site_type_symbol
_atom_site_label
_atom_site_fract_x
_atom_site_fract_y
_atom_site_fract_z
Si Si1 0.560305 0.223485 0.319023
Si Si2 0.985705 0.580598 0.628175
Si Si3 0.400397 0.419401 0.213479
Si Si4 0.666946 0.285198 0.590034
Si Si5 0.923900 0.285195 0.819111
Si Si6 0.009641 0.142610 0.372682
Si Si7 0.623918 0.918584 0.128177
Si Si8 0.608054 0.142612 0.774265
O O1 0.500000 0.226667 0.500000
O O2 0.404004 0.264344 0.435921
O O3 0.577683 0.139129 0.266826
O O4 0.756032 0.264326 0.083875
O O5 0.890954 0.500000 0.741780
O O6 0.872874 0.638739 0.823556
O O7 0.000000 0.608324 0.500000
O O8 0.186146 0.575784 0.441538
O O9 0.476286 0.500000 0.156446
O O10 0.430655 0.361265 0.265780
O O11 0.500000 0.391670 0.000000
O O12 0.598893 0.225731 0.747385
O O13 0.889435 0.290515 0.331737
O O14 0.945200 0.225737 0.708500
O O15 0.817773 0.116467 0.546696
O O16 0.000000 0.137556 0.500000
O O17 0.167378 0.089814 0.150178
O O18 0.484926 0.910199 0.197491
O O19 0.600399 0.000000 0.198766
O O20 0.500000 0.137570 0.000000
#
# Coordination Sequence:
#
# PCOD8058467 Si02
#       8
#     4   4   4   4   4   4   4   4
#     4  10  22  39  59  78  92 123 177 223 264 306
#     4   9  17  28  45  75 111 145 173 199 243 298
#     4   9  17  28  45  75 111 145 173 199 243 298
#     4   9  19  33  52  75 103 135 170 216 255 296
#     4   9  19  33  52  75 103 135 170 216 255 296
#     4  10  18  31  49  74 105 140 173 198 238 298
#     4  10  22  37  52  75 105 132 161 205 258 310
#     4  10  18  31  49  74 105 140 173 198 238 298
#
# _framework density 17.715402000000001
#
# number of rings (size 3 to 8) (size 9 to 14) (size 15 to 20)
#    0.000    2.500    1.250    0.750    1.750    1.750 
#    0.000    0.000    0.000    1.500    0.000   10.500 
#    0.000    0.000    0.000    0.000    0.000    0.000 
#
# Total GULP energy -396730.721868 kJ/mol
# GULP energy per Si atom -12397.835058 kJ/mol
# Density = 1.767508 g / cm^3
# Si number density = 17.715402 Si / 1000 Ang^3
#
#
#
# Elastic Constant Matrix: (Units=GPa)
#
#
# Indices 1 2 3 4 5 6 
#
# 1 97.4807 55.8459 57.8784 0.0000 8.4587 0.0000
# 2 55.8459 121.2230 54.2450 0.0000 9.2412 0.0000
# 3 57.8784 54.2450 94.9739 0.0000 5.9340 0.0000
# 4 0.0000 0.0000 0.0000 15.3824 0.0000 0.0538
# 5 8.4587 9.2412 5.9340 0.0000 33.8907 0.0000
# 6 0.0000 0.0000 0.0000 0.0538 0.0000 15.4005
#
#
#
# Elastic Compliance Matrix: (Units=1/GPa)
#
#
# Indices 1 2 3 4 5 6 
#
# 1 0.017821 -0.004383 -0.008244 0.000000 -0.001809 0.000000
# 2 -0.004383 0.012286 -0.004252 0.000000 -0.001512 0.000000
# 3 -0.008244 -0.004252 0.017977 0.000000 0.000069 0.000000
# 4 0.000000 0.000000 0.000000 0.065010 0.000000 -0.000227
# 5 -0.001809 -0.001512 0.000069 0.000000 0.030358 0.000000
# 6 0.000000 0.000000 0.000000 -0.000227 0.000000 0.064934
#
#
# Mechanical properties :
#
#
# Convention : Reuss Voigt Hill
#
# Bulk Modulus (GPa) = 69.79807 72.17957 70.98882
# Shear Modulus (GPa) = 20.24937 22.64860 21.44899
#
# Velocity S-wave (km/s) = 3.38455 3.57945 3.48336
# Velocity P-wave (km/s) = 7.39992 7.61024 7.50581
#
# Compressibility (1/GPa) = 0.01432704
#
# Stress axis : x y z
#
# Youngs Moduli (GPa) = 56.11255 81.39097 55.62518
#
# Poissons Ratio (x) = 0.35674 0.45858
# Poissons Ratio (y) = 0.24594 0.23651
# Poissons Ratio (z) = 0.46260 0.34607
#
# Static dielectric constant tensor:
#      x y z
#    x 3.168100 0.000000 -0.343490 
#    y 0.000000 3.557170 0.000000 
#    z -0.343490 0.000000 3.226030 
# 
# 
# High freq. dielectric constant tensor:
#      x y z
#    x 1.669030 0.000000 -0.027320 
#    y 0.000000 1.687090 0.000000 
#    z -0.027320 0.000000 1.673630 
# 
# From -- ./inp_files/51935.got.cif
#   From: 2010.06.25/outbox.cif.g09.slc.cpg/sg10_26_cif.got.tgz:51935.got - 2010.06.27 22:07:45.
