data_PCOD8058760
_publ_section_title
;
Structure prediction by ZEFSAII (Michael W. Deem and Ramdas Pophale) SiO2 
 PCOD8058760
Probable space group: P 2/M
;
_chemical_formula_sum "Si O2"
_cell_formula_units_Z 28
_cell_length_a 8.691482
_cell_length_b 16.965481
_cell_length_c 21.249669
_cell_angle_alpha 90.000000
_cell_angle_beta 28.101842
_cell_angle_gamma 90.000000
_cell_volume 1475.945060
_symmetry_space_group_name_H-M "P 2/M"
_symmetry_group_IT_number 10
_symmetry_cell_setting 'monoclinic'
loop_
_space_group_symop_operation_xyz
x,y,z
-x,y,-z
-x,-y,-z
x,-y,z
loop_
_atom_site_type_symbol
_atom_site_label
_atom_site_fract_x
_atom_site_fract_y
_atom_site_fract_z
Si Si1 0.735788 0.590983 0.701955
Si Si2 0.644085 0.000000 0.379317
Si Si3 0.641454 0.832460 0.380525
Si Si4 0.573687 0.666908 0.547331
Si Si5 0.589628 0.170522 0.895379
Si Si6 0.405309 0.000000 0.105906
Si Si7 0.733035 0.320797 0.042716
Si Si8 0.202235 0.409940 0.788362
O O1 0.826622 0.500000 0.679984
O O2 0.557039 0.622381 0.829046
O O3 0.508786 0.602812 0.723491
O O4 0.061470 0.639593 0.570251
O O5 0.500000 0.000000 0.500000
O O6 0.559620 0.916545 0.374051
O O7 0.024667 0.000000 0.252539
O O8 0.500000 0.843096 0.500000
O O9 0.469094 0.756699 0.410947
O O10 0.024834 0.816497 0.248774
O O11 0.500000 0.661070 0.500000
O O12 0.311365 0.613394 0.678767
O O13 0.405765 0.234708 0.920418
O O14 0.471155 0.084228 0.910788
O O15 0.500000 0.180277 0.000000
O O16 0.500000 0.000000 0.000000
O O17 0.000000 0.311998 0.000000
O O18 0.894195 0.357958 0.921995
O O19 0.086235 0.500000 0.830820
#
# Coordination Sequence:
#
# PCOD8058760 Si02
#       8
#     4   2   4   4   4   2   4   4
#     4  10  21  37  54  71  96 132 171 207 245 295
#     4   8  14  26  44  67  93 125 159 191 227 278
#     4   9  17  29  47  71  99 126 157 195 238 286
#     4  11  21  33  51  78 105 128 158 206 256 294
#     4  10  18  32  51  73 101 131 163 200 244 292
#     4   8  16  28  47  71  96 129 164 195 232 288
#     4  10  20  34  53  75  98 128 168 211 250 289
#     4  10  21  37  54  71  95 132 173 206 242 295
#
# _framework density 18.970897000000001
#
# number of rings (size 3 to 8) (size 9 to 14) (size 15 to 20)
#    0.000    2.286    0.000    3.857    0.000    4.000 
#    0.000    0.357    0.000    3.429    0.000    4.000 
#    0.000    0.000    0.000    4.000    0.000    0.000 
#
# Total GULP energy -346907.508936 kJ/mol
# GULP energy per Si atom -12389.553891 kJ/mol
# Density = 1.892772 g / cm^3
# Si number density = 18.970897 Si / 1000 Ang^3
#
#
#
# Elastic Constant Matrix: (Units=GPa)
#
#
# Indices 1 2 3 4 5 6 
#
# 1 19.6318 35.1672 20.4844 0.0000 7.3168 0.0000
# 2 35.1672 187.9280 54.4626 0.0000 -15.9894 0.0000
# 3 20.4844 54.4626 137.8790 0.0000 3.6772 0.0000
# 4 0.0000 0.0000 0.0000 32.8001 0.0000 -5.3920
# 5 7.3168 -15.9894 3.6772 0.0000 22.0378 0.0000
# 6 0.0000 0.0000 0.0000 -5.3920 0.0000 22.2341
#
#
#
# Elastic Compliance Matrix: (Units=1/GPa)
#
#
# Indices 1 2 3 4 5 6 
#
# 1 0.131701 -0.028022 -0.006820 0.000000 -0.062920 0.000000
# 2 -0.028022 0.012518 -0.001277 0.000000 0.018599 0.000000
# 3 -0.006820 -0.001277 0.008774 0.000000 -0.000127 0.000000
# 4 0.000000 0.000000 0.000000 0.031754 0.000000 0.007701
# 5 -0.062920 0.018599 -0.000127 0.000000 0.079782 0.000000
# 6 0.000000 0.000000 0.000000 0.007701 0.000000 0.046843
#
#
# Mechanical properties :
#
#
# Convention : Reuss Voigt Hill
#
# Bulk Modulus (GPa) = 12.38326 62.85191 37.61758
# Shear Modulus (GPa) = 12.17941 31.10272 21.64106
#
# Velocity S-wave (km/s) = 2.53653 4.05346 3.38116
# Velocity P-wave (km/s) = 3.88849 7.42361 5.92581
#
# Compressibility (1/GPa) = 0.08075420
#
# Stress axis : x y z
#
# Youngs Moduli (GPa) = 7.59293 79.88703 113.97533
#
# Poissons Ratio (x) = 2.23863 0.77727
# Poissons Ratio (y) = 0.21277 0.14558
# Poissons Ratio (z) = 0.05178 0.10204
#
# Static dielectric constant tensor:
#      x y z
#    x 2.928640 0.000000 0.054730 
#    y 0.000000 4.413810 0.000000 
#    z 0.054730 0.000000 3.729750 
# 
# 
# High freq. dielectric constant tensor:
#      x y z
#    x 1.670270 0.000000 0.004470 
#    y 0.000000 1.767220 0.000000 
#    z 0.004470 0.000000 1.767190 
# 
# From -- ./inp_files/83002.got.cif
#   From: 2010.06.25/outbox.cif.g09.slc.cpg/sg10_42_cif.got.tgz:83002.got - 2010.06.27 22:07:45.
