data_PCOD8058462
_publ_section_title
;
Structure prediction by ZEFSAII (Michael W. Deem and Ramdas Pophale) SiO2 
 PCOD8058462
Probable space group: P 2/M
;
_chemical_formula_sum "Si O2"
_cell_formula_units_Z 28
_cell_length_a 12.557519
_cell_length_b 9.016994
_cell_length_c 15.146505
_cell_angle_alpha 90.000000
_cell_angle_beta 105.970839
_cell_angle_gamma 90.000000
_cell_volume 1648.857084
_symmetry_space_group_name_H-M "P 2/M"
_symmetry_group_IT_number 10
_symmetry_cell_setting 'monoclinic'
loop_
_space_group_symop_operation_xyz
x,y,z
-x,y,-z
-x,-y,-z
x,-y,z
loop_
_atom_site_type_symbol
_atom_site_label
_atom_site_fract_x
_atom_site_fract_y
_atom_site_fract_z
Si Si1 0.410008 0.675459 0.102650
Si Si2 0.739431 0.825412 0.588540
Si Si3 0.394816 0.824520 0.276713
Si Si4 0.807124 0.324123 0.286942
Si Si5 0.351124 0.325098 0.899968
Si Si6 0.642356 0.173927 0.382245
Si Si7 0.018085 0.824341 0.402939
O O1 0.405635 0.500000 0.116306
O O2 0.357083 0.754131 0.175545
O O3 0.535544 0.735426 0.118095
O O4 0.339996 0.724940 0.999707
O O5 0.685852 0.759820 0.665658
O O6 0.659734 0.785650 0.488699
O O7 0.862872 0.762718 0.601302
O O8 0.748126 0.000000 0.599877
O O9 0.519687 0.776131 0.327951
O O10 0.385296 0.000000 0.268223
O O11 0.816399 0.500000 0.295411
O O12 0.754008 0.272389 0.181198
O O13 0.730868 0.266978 0.348207
O O14 0.927959 0.252792 0.320025
O O15 0.363075 0.500000 0.901180
O O16 0.663712 0.000000 0.369768
O O17 0.000000 0.776577 0.500000
O O18 0.006998 0.000000 0.390152
#
# Coordination Sequence:
#
# PCOD8058462 Si02
#       7
#     4   4   4   4   4   4   4
#     4   9  16  31  51  69  95 130 162 190 239 302
#     4   9  18  33  50  68  97 135 167 194 233 291
#     4  10  19  30  49  76 101 126 160 203 242 281
#     4  11  20  31  50  75 101 124 158 206 248 277
#     4   8  16  30  49  70  95 130 161 190 240 299
#     4  10  18  31  49  71  99 133 164 189 234 297
#     4  10  19  34  53  70  93 131 172 199 233 287
#
# _framework density 16.981459999999998
#
# number of rings (size 3 to 8) (size 9 to 14) (size 15 to 20)
#    0.000    2.429    2.857    1.714    0.000    2.000 
#    0.000    4.286    0.000    2.571    0.000    6.000 
#    0.000    0.000    0.000    0.000    0.000    0.000 
#
# Total GULP energy -347121.140726 kJ/mol
# GULP energy per Si atom -12397.183597 kJ/mol
# Density = 1.694281 g / cm^3
# Si number density = 16.981460 Si / 1000 Ang^3
#
#
#
# Elastic Constant Matrix: (Units=GPa)
#
#
# Indices 1 2 3 4 5 6 
#
# 1 82.0708 15.6469 49.7717 0.0000 -6.1489 0.0000
# 2 15.6469 21.8642 21.2482 0.0000 0.9129 0.0000
# 3 49.7717 21.2482 133.8150 0.0000 -5.5607 0.0000
# 4 0.0000 0.0000 0.0000 27.3921 0.0000 1.6750
# 5 -6.1489 0.9129 -5.5607 0.0000 29.0164 0.0000
# 6 0.0000 0.0000 0.0000 1.6750 0.0000 9.0335
#
#
#
# Elastic Compliance Matrix: (Units=1/GPa)
#
#
# Indices 1 2 3 4 5 6 
#
# 1 0.016807 -0.007315 -0.004972 0.000000 0.002839 0.000000
# 2 -0.007315 0.057596 -0.006617 0.000000 -0.004630 0.000000
# 3 -0.004972 -0.006617 0.010421 0.000000 0.001152 0.000000
# 4 0.000000 0.000000 0.000000 0.036926 0.000000 -0.006847
# 5 0.002839 -0.004630 0.001152 0.000000 0.035431 0.000000
# 6 0.000000 0.000000 0.000000 -0.006847 0.000000 0.111969
#
#
# Mechanical properties :
#
#
# Convention : Reuss Voigt Hill
#
# Bulk Modulus (GPa) = 21.26927 45.67593 33.47260
# Shear Modulus (GPa) = 15.49769 23.16060 19.32914
#
# Velocity S-wave (km/s) = 3.02424 3.69707 3.37746
# Velocity P-wave (km/s) = 4.97463 6.72164 5.91301
#
# Compressibility (1/GPa) = 0.04701619
#
# Stress axis : x y z
#
# Youngs Moduli (GPa) = 59.49909 17.36241 95.96146
#
# Poissons Ratio (x) = 0.12700 0.47710
# Poissons Ratio (y) = 0.43521 0.63501
# Poissons Ratio (z) = 0.29582 0.11489
#
# Static dielectric constant tensor:
#      x y z
#    x 3.239540 0.000000 0.042840 
#    y 0.000000 2.868630 0.000000 
#    z 0.042840 0.000000 3.502570 
# 
# 
# High freq. dielectric constant tensor:
#      x y z
#    x 1.636910 0.000000 0.001890 
#    y 0.000000 1.625700 0.000000 
#    z 0.001890 0.000000 1.663670 
# 
# From -- ./inp_files/49110.got.cif
#   From: 2010.06.25/outbox.cif.g09.slc.cpg/sg10_25_cif.got.tgz:49110.got - 2010.06.27 22:07:45.
