data_PCOD8058098
_publ_section_title
;
Structure prediction by ZEFSAII (Michael W. Deem and Ramdas Pophale) SiO2 
 PCOD8058098
Probable space group: P 2/M
;
_chemical_formula_sum "Si O2"
_cell_formula_units_Z 32
_cell_length_a 33.617816
_cell_length_b 13.245624
_cell_length_c 5.281034
_cell_angle_alpha 90.000000
_cell_angle_beta 66.875879
_cell_angle_gamma 90.000000
_cell_volume 2162.650832
_symmetry_space_group_name_H-M "P 2/M"
_symmetry_group_IT_number 10
_symmetry_cell_setting 'monoclinic'
loop_
_space_group_symop_operation_xyz
x,y,z
-x,y,-z
-x,-y,-z
x,-y,z
loop_
_atom_site_type_symbol
_atom_site_label
_atom_site_fract_x
_atom_site_fract_y
_atom_site_fract_z
Si Si1 0.108365 0.118587 0.979071
Si Si2 0.548953 0.120323 0.377618
Si Si3 0.949255 0.299357 0.876863
Si Si4 0.743187 0.879418 0.892033
Si Si5 0.597030 0.879660 0.757427
Si Si6 0.043705 0.616613 0.640737
Si Si7 0.159938 0.881130 0.350138
Si Si8 0.694893 0.879743 0.512768
O O1 0.135061 0.152465 0.665315
O O2 0.096896 0.000000 0.007746
O O3 0.063533 0.181187 0.091165
O O4 0.135066 0.152463 0.159319
O O5 0.500000 0.161197 0.500000
O O6 0.572985 0.161752 0.567552
O O7 0.549408 0.000000 0.376480
O O8 0.572985 0.161753 0.067529
O O9 0.929317 0.354837 0.678108
O O10 0.000893 0.313310 0.747769
O O11 0.929317 0.354839 0.175305
O O12 0.718949 0.838608 0.202500
O O13 0.743499 0.000000 0.891254
O O14 0.791847 0.834917 0.770386
O O15 0.718950 0.838608 0.702751
O O16 0.645969 0.838628 0.635080
O O17 0.596612 0.000000 0.758472
O O18 0.029900 0.500000 0.675246
O O19 0.164443 0.000000 0.338881
O O20 0.695140 0.000000 0.512150
#
# Coordination Sequence:
#
# PCOD8058098 Si02
#       8
#     4   4   4   4   4   4   4   4
#     4  10  19  30  42  59  83 108 132 156 180 213
#     4   9  15  21  27  33  43  62  85 105 134 187
#     4  10  18  30  47  66  84 107 132 156 189 224
#     4   9  15  23  34  46  58  77 105 132 162 199
#     4   9  15  21  27  36  49  62  79 111 152 187
#     4  10  19  33  50  68  86 104 129 163 196 226
#     4   9  17  28  40  52  71  99 126 150 174 204
#     4   9  15  21  30  43  56  68  89 126 166 199
#
# _framework density 14.796654999999999
#
# number of rings (size 3 to 8) (size 9 to 14) (size 15 to 20)
#    0.000    2.625    0.000    4.500    0.000    7.500 
#    0.000    2.500    0.000    0.000    0.000    0.000 
#    0.000    0.000    0.000    0.000    0.000    0.000 
#
# Total GULP energy -396576.332135 kJ/mol
# GULP energy per Si atom -12393.010379 kJ/mol
# Density = 1.476298 g / cm^3
# Si number density = 14.796655 Si / 1000 Ang^3
#
#
#
# Elastic Constant Matrix: (Units=GPa)
#
#
# Indices 1 2 3 4 5 6 
#
# 1 91.8837 34.8972 64.6602 0.0000 1.3816 0.0000
# 2 34.8972 32.7996 29.7848 0.0000 -2.8988 0.0000
# 3 64.6602 29.7848 140.8099 0.0000 26.3047 0.0000
# 4 0.0000 0.0000 0.0000 6.4090 0.0000 2.4971
# 5 1.3816 -2.8988 26.3047 0.0000 28.9567 0.0000
# 6 0.0000 0.0000 0.0000 2.4971 0.0000 1.9993
#
#
#
# Elastic Compliance Matrix: (Units=1/GPa)
#
#
# Indices 1 2 3 4 5 6 
#
# 1 0.022483 -0.016684 -0.007567 0.000000 0.004131 0.000000
# 2 -0.016684 0.054898 -0.006174 0.000000 0.011900 0.000000
# 3 -0.007567 -0.006174 0.014369 0.000000 -0.013310 0.000000
# 4 0.000000 0.000000 0.000000 0.303939 0.000000 -0.379619
# 5 0.004131 0.011900 -0.013310 0.000000 0.047619 0.000000
# 6 0.000000 0.000000 0.000000 -0.379619 0.000000 0.974326
#
#
# Mechanical properties :
#
#
# Convention : Reuss Voigt Hill
#
# Bulk Modulus (GPa) = 32.36295 58.24197 45.30246
# Shear Modulus (GPa) = 3.35845 16.54972 9.95408
#
# Velocity S-wave (km/s) = 1.50820 3.34799 2.59651
# Velocity P-wave (km/s) = 4.99521 7.37512 6.29859
#
# Compressibility (1/GPa) = 0.03089954
#
# Stress axis : x y z
#
# Youngs Moduli (GPa) = 44.47887 18.21572 69.59594
#
# Poissons Ratio (x) = 0.30392 0.52660
# Poissons Ratio (y) = 0.74210 0.42967
# Poissons Ratio (z) = 0.33655 0.11246
#
# Static dielectric constant tensor:
#      x y z
#    x 3.096480 0.000000 0.475610 
#    y 0.000000 2.192740 0.000000 
#    z 0.475610 0.000000 3.936150 
# 
# 
# High freq. dielectric constant tensor:
#      x y z
#    x 1.564270 0.000000 0.017420 
#    y 0.000000 1.471900 0.000000 
#    z 0.017420 0.000000 1.595030 
# 
# From -- ./inp_files/13703.got.cif
#   From: 2010.06.25/outbox.cif.g09.slc.cpg/sg10_7_cif.got.tgz:13703.got - 2010.06.27 22:07:45.
