data_PCOD8058305
_publ_section_title
;
Structure prediction by ZEFSAII (Michael W. Deem and Ramdas Pophale) SiO2 
 PCOD8058305
Probable space group: P 2/M
;
_chemical_formula_sum "Si O2"
_cell_formula_units_Z 32
_cell_length_a 14.688301
_cell_length_b 9.327023
_cell_length_c 25.265667
_cell_angle_alpha 90.000000
_cell_angle_beta 151.045542
_cell_angle_gamma 90.000000
_cell_volume 1675.688397
_symmetry_space_group_name_H-M "P 2/M"
_symmetry_group_IT_number 10
_symmetry_cell_setting 'monoclinic'
loop_
_space_group_symop_operation_xyz
x,y,z
-x,y,-z
-x,-y,-z
x,-y,z
loop_
_atom_site_type_symbol
_atom_site_label
_atom_site_fract_x
_atom_site_fract_y
_atom_site_fract_z
Si Si1 0.081616 0.165548 0.892069
Si Si2 0.374945 0.838973 0.480494
Si Si3 0.850936 0.663671 0.967867
Si Si4 0.288579 0.829207 0.892788
Si Si5 0.004245 0.829042 0.339844
Si Si6 0.132253 0.169296 0.518948
Si Si7 0.319088 0.157379 0.278743
Si Si8 0.481301 0.337190 0.274908
O O1 0.180509 0.229631 0.889809
O O2 0.856422 0.186144 0.771219
O O3 0.138499 0.000000 0.927389
O O4 0.147714 0.245162 0.978222
O O5 0.500000 0.755314 0.500000
O O6 0.175529 0.764969 0.391453
O O7 0.485244 0.841665 0.591318
O O8 0.336641 0.000000 0.439433
O O9 0.906426 0.500000 0.009080
O O10 0.633994 0.673010 0.838298
O O11 0.000000 0.723665 0.000000
O O12 0.186543 0.777211 0.786348
O O13 0.289013 0.000000 0.894301
O O14 0.500000 0.767403 0.000000
O O15 0.026930 0.775108 0.411904
O O16 0.018161 0.000000 0.347203
O O17 0.332489 0.242118 0.630591
O O18 0.000000 0.213704 0.500000
O O19 0.168234 0.000000 0.534957
O O20 0.330176 0.280860 0.240876
O O21 0.292480 0.000000 0.238511
O O22 0.537672 0.500000 0.316993
#
# Coordination Sequence:
#
# PCOD8058305 Si02
#       8
#     4   4   4   4   4   4   4   4
#     4  10  20  32  53  84 109 138 186 238 277 317
#     4   9  15  24  44  73 102 133 170 213 263 320
#     4  10  21  37  54  75 109 153 189 219 275 347
#     4   9  18  32  50  77 114 147 178 220 272 326
#     4   9  16  29  49  74 105 143 177 208 260 324
#     4  10  21  37  58  84 112 144 183 227 274 322
#     4  10  18  30  50  78 109 136 175 228 278 321
#     4  11  22  36  55  77 106 146 186 222 271 330
#
# _framework density 19.096630000000001
#
# number of rings (size 3 to 8) (size 9 to 14) (size 15 to 20)
#    0.000    2.250    2.500    1.125    0.000    5.500 
#    0.000    2.500    0.000    1.500    0.000    0.000 
#    0.000    0.000    0.000    0.000    0.000    0.000 
#
# Total GULP energy -396587.552694 kJ/mol
# GULP energy per Si atom -12393.361022 kJ/mol
# Density = 1.905317 g / cm^3
# Si number density = 19.096630 Si / 1000 Ang^3
#
#
#
# Elastic Constant Matrix: (Units=GPa)
#
#
# Indices 1 2 3 4 5 6 
#
# 1 123.9955 24.6481 57.7690 0.0000 5.3411 0.0000
# 2 24.6481 35.0514 22.4555 0.0000 0.0247 0.0000
# 3 57.7690 22.4555 133.5762 0.0000 6.8942 0.0000
# 4 0.0000 0.0000 0.0000 17.8789 0.0000 2.7892
# 5 5.3411 0.0247 6.8942 0.0000 29.9822 0.0000
# 6 0.0000 0.0000 0.0000 2.7892 0.0000 3.8297
#
#
#
# Elastic Compliance Matrix: (Units=1/GPa)
#
#
# Indices 1 2 3 4 5 6 
#
# 1 0.010918 -0.005253 -0.003783 0.000000 -0.001071 0.000000
# 2 -0.005253 0.034545 -0.003625 0.000000 0.001741 0.000000
# 3 -0.003783 -0.003625 0.009814 0.000000 -0.001580 0.000000
# 4 0.000000 0.000000 0.000000 0.063102 0.000000 -0.045957
# 5 -0.001071 0.001741 -0.001580 0.000000 0.033906 0.000000
# 6 0.000000 0.000000 0.000000 -0.045957 0.000000 0.294590
#
#
# Mechanical properties :
#
#
# Convention : Reuss Voigt Hill
#
# Bulk Modulus (GPa) = 33.38589 55.81870 44.60229
# Shear Modulus (GPa) = 10.36955 22.85484 16.61219
#
# Velocity S-wave (km/s) = 2.33277 3.46323 2.95261
# Velocity P-wave (km/s) = 4.97758 6.72942 5.91867
#
# Compressibility (1/GPa) = 0.02995278
#
# Stress axis : x y z
#
# Youngs Moduli (GPa) = 91.59392 28.94803 101.89930
#
# Poissons Ratio (x) = 0.15206 0.38553
# Poissons Ratio (y) = 0.48112 0.36943
# Poissons Ratio (z) = 0.34654 0.10495
#
# Static dielectric constant tensor:
#      x y z
#    x 3.600470 0.000000 0.042980 
#    y 0.000000 3.037560 0.000000 
#    z 0.042980 0.000000 3.645490 
# 
# 
# High freq. dielectric constant tensor:
#      x y z
#    x 1.742240 0.000000 0.000870 
#    y 0.000000 1.684440 0.000000 
#    z 0.000870 0.000000 1.754850 
# 
# From -- ./inp_files/66619.got.cif
#   From: 2010.06.25/outbox.cif.g09.slc.cpg/sg10_34_cif.got.tgz:66619.got - 2010.06.27 22:07:45.
