data_PCOD8058688
_publ_section_title
;
Structure prediction by ZEFSAII (Michael W. Deem and Ramdas Pophale) SiO2 
 PCOD8058688
Probable space group: P 2/M
;
_chemical_formula_sum "Si O2"
_cell_formula_units_Z 32
_cell_length_a 29.991963
_cell_length_b 8.987036
_cell_length_c 20.843614
_cell_angle_alpha 90.000000
_cell_angle_beta 161.460776
_cell_angle_gamma 90.000000
_cell_volume 1786.316481
_symmetry_space_group_name_H-M "P 2/M"
_symmetry_group_IT_number 10
_symmetry_cell_setting 'monoclinic'
loop_
_space_group_symop_operation_xyz
x,y,z
-x,y,-z
-x,-y,-z
x,-y,z
loop_
_atom_site_type_symbol
_atom_site_label
_atom_site_fract_x
_atom_site_fract_y
_atom_site_fract_z
Si Si1 0.152869 0.170752 0.532091
Si Si2 0.571024 0.324943 0.281311
Si Si3 0.577972 0.324208 0.790636
Si Si4 0.843789 0.175849 0.610400
Si Si5 0.592197 0.675600 0.066723
Si Si6 0.582743 0.325731 0.552604
Si Si7 0.871475 0.325304 0.002894
Si Si8 0.163114 0.826166 0.910016
O O1 0.178762 0.223196 0.494270
O O2 0.250006 0.263606 0.712684
O O3 0.991298 0.199089 0.330400
O O4 0.194624 0.000000 0.596668
O O5 0.600948 0.500000 0.317884
O O6 0.492880 0.279373 0.239398
O O7 0.718706 0.240246 0.482340
O O8 0.475715 0.269319 0.092198
O O9 0.604747 0.500000 0.823129
O O10 0.477535 0.263649 0.596630
O O11 0.726188 0.239527 0.989373
O O12 0.989256 0.246249 0.833582
O O13 0.854117 0.000000 0.632302
O O14 0.600404 0.500000 0.080339
O O15 0.500000 0.738269 0.000000
O O16 0.500000 0.252843 0.500000
O O17 0.553806 0.500000 0.514220
O O18 0.748431 0.292214 0.783723
O O19 0.899145 0.500000 0.048901
O O20 0.820741 0.260905 0.001459
O O21 0.189113 0.000000 0.958588
#
# Coordination Sequence:
#
# PCOD8058688 Si02
#       8
#     4   4   4   4   4   4   4   4
#     4   9  19  33  51  76 103 135 172 212 255 307
#     4  10  21  36  54  78 106 138 175 214 263 314
#     4  10  20  36  56  77 105 140 176 215 258 311
#     4  10  20  34  52  77 109 139 174 215 260 312
#     4  10  19  32  52  79 105 129 170 221 259 301
#     4   9  16  30  53  81 104 129 175 220 254 302
#     4  10  18  31  55  80 105 136 174 219 264 302
#     4  10  20  34  51  78 111 138 173 214 260 313
#
# _framework density 17.913958999999998
#
# number of rings (size 3 to 8) (size 9 to 14) (size 15 to 20)
#    0.000    2.250    2.500    1.875    0.000    3.750 
#    0.000    3.125    0.000    7.500    0.000    0.000 
#    0.000    0.000    0.000    0.000    0.000    0.000 
#
# Total GULP energy -396835.518053 kJ/mol
# GULP energy per Si atom -12401.109939 kJ/mol
# Density = 1.787319 g / cm^3
# Si number density = 17.913959 Si / 1000 Ang^3
#
#
#
# Elastic Constant Matrix: (Units=GPa)
#
#
# Indices 1 2 3 4 5 6 
#
# 1 116.3257 36.4757 72.6913 0.0000 7.6468 0.0000
# 2 36.4757 54.7843 44.1095 0.0000 10.7804 0.0000
# 3 72.6913 44.1095 131.3209 0.0000 12.0129 0.0000
# 4 0.0000 0.0000 0.0000 19.9948 0.0000 8.2776
# 5 7.6468 10.7804 12.0129 0.0000 29.8806 0.0000
# 6 0.0000 0.0000 0.0000 8.2776 0.0000 17.4525
#
#
#
# Elastic Compliance Matrix: (Units=1/GPa)
#
#
# Indices 1 2 3 4 5 6 
#
# 1 0.013810 -0.004254 -0.006263 0.000000 0.000519 0.000000
# 2 -0.004254 0.027361 -0.006262 0.000000 -0.006265 0.000000
# 3 -0.006263 -0.006262 0.013322 0.000000 -0.001494 0.000000
# 4 0.000000 0.000000 0.000000 0.062232 0.000000 -0.029517
# 5 0.000519 -0.006265 -0.001494 0.000000 0.036195 0.000000
# 6 0.000000 0.000000 0.000000 -0.029517 0.000000 0.071298
#
#
# Mechanical properties :
#
#
# Convention : Reuss Voigt Hill
#
# Bulk Modulus (GPa) = 47.76964 67.66487 57.71725
# Shear Modulus (GPa) = 18.88540 23.40920 21.14730
#
# Velocity S-wave (km/s) = 3.25041 3.61883 3.43956
# Velocity P-wave (km/s) = 6.38834 7.43743 6.93276
#
# Compressibility (1/GPa) = 0.02093380
#
# Stress axis : x y z
#
# Youngs Moduli (GPa) = 72.41070 36.54865 75.06527
#
# Poissons Ratio (x) = 0.15549 0.47012
# Poissons Ratio (y) = 0.30806 0.47007
# Poissons Ratio (z) = 0.45350 0.22887
#
# Static dielectric constant tensor:
#      x y z
#    x 3.165520 0.000000 0.017950 
#    y 0.000000 3.147730 0.000000 
#    z 0.017950 0.000000 3.438030 
# 
# 
# High freq. dielectric constant tensor:
#      x y z
#    x 1.666060 0.000000 0.008600 
#    y 0.000000 1.683020 0.000000 
#    z 0.008600 0.000000 1.705920 
# 
# From -- ./inp_files/55318.got.cif
#   From: 2010.06.25/outbox.cif.g09.slc.cpg/sg10_28_cif.got.tgz:55318.got - 2010.06.27 22:07:45.
