data_PCOD8058699
_publ_section_title
;
Structure prediction by ZEFSAII (Michael W. Deem and Ramdas Pophale) SiO2 
 PCOD8058699
Probable space group: P 2/M
;
_chemical_formula_sum "Si O2"
_cell_formula_units_Z 32
_cell_length_a 16.202314
_cell_length_b 8.880420
_cell_length_c 24.609623
_cell_angle_alpha 90.000000
_cell_angle_beta 26.781848
_cell_angle_gamma 90.000000
_cell_volume 1595.517696
_symmetry_space_group_name_H-M "P 2/M"
_symmetry_group_IT_number 10
_symmetry_cell_setting 'monoclinic'
loop_
_space_group_symop_operation_xyz
x,y,z
-x,y,-z
-x,-y,-z
x,-y,z
loop_
_atom_site_type_symbol
_atom_site_label
_atom_site_fract_x
_atom_site_fract_y
_atom_site_fract_z
Si Si1 0.261885 0.821394 0.995745
Si Si2 0.747126 0.326618 0.426394
Si Si3 0.448605 0.178760 0.777272
Si Si4 0.559427 0.178522 0.906568
Si Si5 0.877722 0.674159 0.231401
Si Si6 0.601802 0.821446 0.314675
Si Si7 0.030308 0.172034 0.330265
Si Si8 0.152085 0.827467 0.448537
O O1 0.075888 0.745409 0.124369
O O2 0.240787 0.000000 0.013118
O O3 0.305162 0.773022 0.908056
O O4 0.424781 0.760140 0.938811
O O5 0.713412 0.500000 0.461334
O O6 0.753590 0.303840 0.357852
O O7 0.584046 0.229340 0.547036
O O8 0.942878 0.273346 0.334573
O O9 0.388234 0.237511 0.753448
O O10 0.648100 0.247695 0.675604
O O11 0.468540 0.000000 0.762780
O O12 0.767447 0.231934 0.773211
O O13 0.548291 0.000000 0.912620
O O14 0.500000 0.243106 0.000000
O O15 0.901451 0.500000 0.203273
O O16 0.779208 0.754981 0.239411
O O17 0.610389 0.000000 0.312584
O O18 0.900210 0.185338 0.458232
O O19 0.041840 0.000000 0.302461
O O20 0.000000 0.745521 0.500000
O O21 0.165181 0.000000 0.421289
#
# Coordination Sequence:
#
# PCOD8058699 Si02
#       8
#     4   4   4   4   4   4   4   4
#     4  10  20  37  60  85 116 153 193 237 286 338
#     4  11  23  39  58  83 118 153 188 237 293 347
#     4   9  18  33  54  85 118 145 182 235 286 335
#     4   9  17  29  50  84 118 147 189 241 281 320
#     4  11  25  42  58  81 114 152 194 239 292 349
#     4  11  22  39  63  89 114 144 189 241 292 346
#     4  10  18  31  55  85 115 150 191 233 281 340
#     4   9  15  26  49  82 115 145 180 226 280 332
#
# _framework density 20.056187999999999
#
# number of rings (size 3 to 8) (size 9 to 14) (size 15 to 20)
#    0.000    2.000    1.250    3.000    0.000    8.000 
#    0.000    4.375    0.000    2.625    0.000    0.000 
#    0.000    0.000    0.000    0.000    0.000    0.000 
#
# Total GULP energy -396794.441277 kJ/mol
# GULP energy per Si atom -12399.826290 kJ/mol
# Density = 2.001054 g / cm^3
# Si number density = 20.056188 Si / 1000 Ang^3
#
#
#
# Elastic Constant Matrix: (Units=GPa)
#
#
# Indices 1 2 3 4 5 6 
#
# 1 121.9625 32.8620 24.7435 0.0000 -7.4795 0.0000
# 2 32.8620 49.2576 21.5682 0.0000 0.4480 0.0000
# 3 24.7435 21.5682 86.2695 0.0000 -3.7067 0.0000
# 4 0.0000 0.0000 0.0000 11.8245 0.0000 3.4880
# 5 -7.4795 0.4480 -3.7067 0.0000 36.1064 0.0000
# 6 0.0000 0.0000 0.0000 3.4880 0.0000 3.6878
#
#
#
# Elastic Compliance Matrix: (Units=1/GPa)
#
#
# Indices 1 2 3 4 5 6 
#
# 1 0.010290 -0.006323 -0.001281 0.000000 0.002079 0.000000
# 2 -0.006323 0.026710 -0.004957 0.000000 -0.002150 0.000000
# 3 -0.001281 -0.004957 0.013248 0.000000 0.001156 0.000000
# 4 0.000000 0.000000 0.000000 0.117295 0.000000 -0.110939
# 5 0.002079 -0.002150 0.001156 0.000000 0.028272 0.000000
# 6 0.000000 0.000000 0.000000 -0.110939 0.000000 0.376089
#
#
# Mechanical properties :
#
#
# Convention : Reuss Voigt Hill
#
# Bulk Modulus (GPa) = 39.79900 46.20411 43.00156
# Shear Modulus (GPa) = 8.25898 22.21147 15.23523
#
# Velocity S-wave (km/s) = 2.03147 3.33147 2.75912
# Velocity P-wave (km/s) = 5.03878 6.15513 5.62472
#
# Compressibility (1/GPa) = 0.02512626
#
# Stress axis : x y z
#
# Youngs Moduli (GPa) = 97.17827 37.43960 75.48348
#
# Poissons Ratio (x) = 0.23673 0.09672
# Poissons Ratio (y) = 0.61446 0.37413
# Poissons Ratio (z) = 0.12452 0.18557
#
# Static dielectric constant tensor:
#      x y z
#    x 3.919430 0.000000 -0.046900 
#    y 0.000000 3.211170 0.000000 
#    z -0.046900 0.000000 3.670720 
# 
# 
# High freq. dielectric constant tensor:
#      x y z
#    x 1.799210 0.000000 -0.003660 
#    y 0.000000 1.731540 0.000000 
#    z -0.003660 0.000000 1.790940 
# 
# From -- ./inp_files/89536.got.cif
#   From: 2010.06.25/outbox.cif.g09.slc.cpg/sg10_45_cif.got.tgz:89536.got - 2010.06.27 22:07:45.
