data_PCOD8058627
_publ_section_title
;
Structure prediction by ZEFSAII (Michael W. Deem and Ramdas Pophale) SiO2 
 PCOD8058627
Probable space group: P 2/M
;
_chemical_formula_sum "Si O2"
_cell_formula_units_Z 32
_cell_length_a 14.290621
_cell_length_b 8.872639
_cell_length_c 20.035849
_cell_angle_alpha 90.000000
_cell_angle_beta 40.720029
_cell_angle_gamma 90.000000
_cell_volume 1657.300425
_symmetry_space_group_name_H-M "P 2/M"
_symmetry_group_IT_number 10
_symmetry_cell_setting 'monoclinic'
loop_
_space_group_symop_operation_xyz
x,y,z
-x,y,-z
-x,-y,-z
x,-y,z
loop_
_atom_site_type_symbol
_atom_site_label
_atom_site_fract_x
_atom_site_fract_y
_atom_site_fract_z
Si Si1 0.349495 0.327281 0.245388
Si Si2 0.595290 0.319854 0.303894
Si Si3 0.854825 0.176779 0.543949
Si Si4 0.656320 0.322168 0.900869
Si Si5 0.276067 0.321066 0.509184
Si Si6 0.814553 0.320506 0.296260
Si Si7 0.133423 0.680415 0.099892
Si Si8 0.337256 0.674055 0.877477
O O1 0.310896 0.500000 0.284669
O O2 0.277623 0.217630 0.337183
O O3 0.295893 0.284234 0.200448
O O4 0.520006 0.303464 0.155995
O O5 0.593473 0.500000 0.303553
O O6 0.435364 0.261267 0.406075
O O7 0.702360 0.258019 0.302564
O O8 0.646636 0.251983 0.204695
O O9 0.837937 0.256377 0.481718
O O10 0.000000 0.236091 0.500000
O O11 0.859583 0.000000 0.529402
O O12 0.645223 0.500000 0.917302
O O13 0.775583 0.255854 0.886546
O O14 0.500000 0.250227 0.000000
O O15 0.269225 0.500000 0.509700
O O16 0.232394 0.261199 0.605815
O O17 0.814528 0.500000 0.295568
O O18 0.971930 0.257526 0.192708
O O19 0.135257 0.500000 0.099858
O O20 0.205226 0.741562 0.992150
O O21 0.305447 0.500000 0.882503
#
# Coordination Sequence:
#
# PCOD8058627 Si02
#       8
#     4   4   4   4   4   4   4   4
#     4  10  18  31  53  78 100 131 175 214 249 300
#     4   9  16  28  46  71 102 137 173 212 259 301
#     4  11  25  40  52  73 106 137 163 205 266 313
#     4   9  15  24  42  70 104 135 164 207 255 295
#     4  10  19  34  56  78 101 133 176 216 250 302
#     4   9  18  28  43  72 108 140 168 210 264 306
#     4   9  16  25  37  67 110 141 167 203 256 309
#     4   9  15  25  44  71 103 136 169 206 250 301
#
# _framework density 19.308508
#
# number of rings (size 3 to 8) (size 9 to 14) (size 15 to 20)
#    0.000    2.500    2.500    0.750    1.750    3.000 
#    0.000    2.500    0.000    1.875    0.000    0.875 
#    0.000    1.000    0.000    0.000    0.000    0.000 
#
# Total GULP energy -396716.837197 kJ/mol
# GULP energy per Si atom -12397.401162 kJ/mol
# Density = 1.926456 g / cm^3
# Si number density = 19.308508 Si / 1000 Ang^3
#
#
#
# Elastic Constant Matrix: (Units=GPa)
#
#
# Indices 1 2 3 4 5 6 
#
# 1 162.3570 15.9561 82.1254 0.0000 12.0620 0.0000
# 2 15.9561 10.6511 12.5867 0.0000 0.2509 0.0000
# 3 82.1254 12.5867 151.5048 0.0000 13.8594 0.0000
# 4 0.0000 0.0000 0.0000 4.9473 0.0000 -1.2348
# 5 12.0620 0.2509 13.8594 0.0000 32.9848 0.0000
# 6 0.0000 0.0000 0.0000 -1.2348 0.0000 7.1326
#
#
#
# Elastic Compliance Matrix: (Units=1/GPa)
#
#
# Indices 1 2 3 4 5 6 
#
# 1 0.009239 -0.008933 -0.004122 0.000000 -0.001579 0.000000
# 2 -0.008933 0.113023 -0.004958 0.000000 0.004490 0.000000
# 3 -0.004122 -0.004958 0.009469 0.000000 -0.002434 0.000000
# 4 0.000000 0.000000 0.000000 0.211258 0.000000 0.036574
# 5 -0.001579 0.004490 -0.002434 0.000000 0.031883 0.000000
# 6 0.000000 0.000000 0.000000 0.036574 0.000000 0.146532
#
#
# Mechanical properties :
#
#
# Convention : Reuss Voigt Hill
#
# Bulk Modulus (GPa) = 10.44874 60.64992 35.54933
# Shear Modulus (GPa) = 8.48417 23.26926 15.87672
#
# Velocity S-wave (km/s) = 2.09846 3.47526 2.87063
# Velocity P-wave (km/s) = 3.36075 6.89800 5.42573
#
# Compressibility (1/GPa) = 0.09570528
#
# Stress axis : x y z
#
# Youngs Moduli (GPa) = 108.23156 8.84777 105.60483
#
# Poissons Ratio (x) = 0.07904 0.43528
# Poissons Ratio (y) = 0.96687 0.52359
# Poissons Ratio (z) = 0.44611 0.04387
#
# Static dielectric constant tensor:
#      x y z
#    x 3.800500 0.000000 0.066180 
#    y 0.000000 2.722560 0.000000 
#    z 0.066180 0.000000 3.731240 
# 
# 
# High freq. dielectric constant tensor:
#      x y z
#    x 1.764240 0.000000 0.007990 
#    y 0.000000 1.664490 0.000000 
#    z 0.007990 0.000000 1.763940 
# 
# From -- ./inp_files/84735.got.cif
#   From: 2010.06.25/outbox.cif.g09.slc.cpg/sg10_43_cif.got.tgz:84735.got - 2010.06.27 22:07:45.
