data_PCOD8058397
_publ_section_title
;
Structure prediction by ZEFSAII (Michael W. Deem and Ramdas Pophale) SiO2 
 PCOD8058397
Probable space group: P 2/M
;
_chemical_formula_sum "Si O2"
_cell_formula_units_Z 28
_cell_length_a 11.942548
_cell_length_b 8.857879
_cell_length_c 15.919671
_cell_angle_alpha 90.000000
_cell_angle_beta 123.425436
_cell_angle_gamma 90.000000
_cell_volume 1405.532773
_symmetry_space_group_name_H-M "P 2/M"
_symmetry_group_IT_number 10
_symmetry_cell_setting 'monoclinic'
loop_
_space_group_symop_operation_xyz
x,y,z
-x,y,-z
-x,-y,-z
x,-y,z
loop_
_atom_site_type_symbol
_atom_site_label
_atom_site_fract_x
_atom_site_fract_y
_atom_site_fract_z
Si Si1 0.673874 0.677900 0.738659
Si Si2 0.408590 0.322196 0.712718
Si Si3 0.405304 0.178475 0.885295
Si Si4 0.847480 0.321857 0.146705
Si Si5 0.137544 0.680047 0.515986
Si Si6 0.860859 0.320789 0.671453
Si Si7 0.145361 0.679504 0.038174
O O1 0.697656 0.500000 0.747545
O O2 0.516391 0.716730 0.683478
O O3 0.739347 0.743327 0.679745
O O4 0.749699 0.745745 0.851392
O O5 0.406073 0.500000 0.729152
O O6 0.456814 0.242273 0.817878
O O7 0.263799 0.262261 0.622663
O O8 0.254244 0.237450 0.834083
O O9 0.406576 0.000000 0.882603
O O10 0.500000 0.238735 0.000000
O O11 0.830852 0.500000 0.153500
O O12 0.997889 0.269927 0.230781
O O13 0.812904 0.269851 0.037896
O O14 0.135670 0.500000 0.513510
O O15 0.152582 0.745485 0.427985
O O16 0.000000 0.742073 0.500000
O O17 0.853400 0.500000 0.664145
O O18 0.139685 0.500000 0.039499
O O19 0.000000 0.746711 0.000000
#
# Coordination Sequence:
#
# PCOD8058397 Si02
#       7
#     4   4   4   4   4   4   4
#     4   9  16  26  43  74 109 135 167 211 258 307
#     4  10  20  34  54  78 103 134 175 219 256 301
#     4  11  24  39  53  72 103 138 171 211 262 314
#     4  10  18  30  54  80 103 136 175 213 253 303
#     4   9  17  29  46  72 107 140 172 212 258 303
#     4   9  16  27  47  78 111 138 165 208 264 307
#     4   9  14  23  41  71 106 132 159 202 254 301
#
# _framework density 19.921271000000001
#
# number of rings (size 3 to 8) (size 9 to 14) (size 15 to 20)
#    0.000    2.429    1.429    2.143    0.000    5.143 
#    0.000    2.857    0.000    5.143    0.000    1.000 
#    0.000    0.000    0.000    0.000    0.000    0.000 
#
# Total GULP energy -347111.080769 kJ/mol
# GULP energy per Si atom -12396.824313 kJ/mol
# Density = 1.987593 g / cm^3
# Si number density = 19.921271 Si / 1000 Ang^3
#
#
#
# Elastic Constant Matrix: (Units=GPa)
#
#
# Indices 1 2 3 4 5 6 
#
# 1 156.9132 20.1381 68.4044 0.0000 -5.8957 0.0000
# 2 20.1381 20.3210 17.3731 0.0000 0.0228 0.0000
# 3 68.4044 17.3731 139.1375 0.0000 -9.8950 0.0000
# 4 0.0000 0.0000 0.0000 9.3541 0.0000 -0.0316
# 5 -5.8957 0.0228 -9.8950 0.0000 38.9611 0.0000
# 6 0.0000 0.0000 0.0000 -0.0316 0.0000 2.5111
#
#
#
# Elastic Compliance Matrix: (Units=1/GPa)
#
#
# Indices 1 2 3 4 5 6 
#
# 1 0.008637 -0.005547 -0.003524 0.000000 0.000415 0.000000
# 2 -0.005547 0.058779 -0.004761 0.000000 -0.002083 0.000000
# 3 -0.003524 -0.004761 0.009651 0.000000 0.001920 0.000000
# 4 0.000000 0.000000 0.000000 0.106909 0.000000 0.001344
# 5 0.000415 -0.002083 0.001920 0.000000 0.026218 0.000000
# 6 0.000000 0.000000 0.000000 0.001344 0.000000 0.398247
#
#
# Mechanical properties :
#
#
# Convention : Reuss Voigt Hill
#
# Bulk Modulus (GPa) = 20.24124 58.68921 39.46522
# Shear Modulus (GPa) = 7.66200 24.19566 15.92883
#
# Velocity S-wave (km/s) = 1.96329 3.48884 2.83077
# Velocity P-wave (km/s) = 3.91433 6.76416 5.52611
#
# Compressibility (1/GPa) = 0.04940410
#
# Stress axis : x y z
#
# Youngs Moduli (GPa) = 115.78607 17.01287 103.62030
#
# Poissons Ratio (x) = 0.09436 0.36515
# Poissons Ratio (y) = 0.64222 0.49329
# Poissons Ratio (z) = 0.40802 0.08099
#
# Static dielectric constant tensor:
#      x y z
#    x 3.864230 0.000000 -0.092270 
#    y 0.000000 2.839310 0.000000 
#    z -0.092270 0.000000 3.813280 
# 
# 
# High freq. dielectric constant tensor:
#      x y z
#    x 1.796680 0.000000 -0.004880 
#    y 0.000000 1.693460 0.000000 
#    z -0.004880 0.000000 1.781980 
# 
# From -- ./inp_files/63905.got.cif
#   From: 2010.06.25/outbox.cif.g09.slc.cpg/sg10_32_cif.got.tgz:63905.got - 2010.06.27 22:07:45.
