data_PCOD8058398
_publ_section_title
;
Structure prediction by ZEFSAII (Michael W. Deem and Ramdas Pophale) SiO2 
 PCOD8058398
Probable space group: P 2/M
;
_chemical_formula_sum "Si O2"
_cell_formula_units_Z 28
_cell_length_a 13.180762
_cell_length_b 9.362847
_cell_length_c 14.367236
_cell_angle_alpha 90.000000
_cell_angle_beta 123.088218
_cell_angle_gamma 90.000000
_cell_volume 1485.518600
_symmetry_space_group_name_H-M "P 2/M"
_symmetry_group_IT_number 10
_symmetry_cell_setting 'monoclinic'
loop_
_space_group_symop_operation_xyz
x,y,z
-x,y,-z
-x,-y,-z
x,-y,z
loop_
_atom_site_type_symbol
_atom_site_label
_atom_site_fract_x
_atom_site_fract_y
_atom_site_fract_z
Si Si1 0.805848 0.668635 0.555523
Si Si2 0.702517 0.668905 0.311098
Si Si3 0.927887 0.334108 0.310313
Si Si4 0.066728 0.339235 0.898886
Si Si5 0.257754 0.165490 0.100169
Si Si6 0.495235 0.834539 0.104265
Si Si7 0.781738 0.663382 0.747488
O O1 0.825392 0.500000 0.576800
O O2 0.713643 0.706300 0.426475
O O3 0.754242 0.722909 0.629193
O O4 0.939867 0.734176 0.601564
O O5 0.689339 0.500000 0.288244
O O6 0.822105 0.732969 0.320677
O O7 0.585436 0.744661 0.212618
O O8 0.933767 0.500000 0.337906
O O9 0.892844 0.307031 0.186018
O O10 0.105400 0.500000 0.946535
O O11 0.923953 0.321508 0.838881
O O12 0.132967 0.228950 0.999061
O O13 0.361660 0.193101 0.076558
O O14 0.291507 0.241677 0.214778
O O15 0.238575 0.000000 0.111011
O O16 0.532369 0.000000 0.129236
O O17 0.500000 0.781104 0.000000
O O18 0.738555 0.500000 0.736349
#
# Coordination Sequence:
#
# PCOD8058398 Si02
#       7
#     4   4   4   4   4   4   4
#     4   8  15  29  50  78 108 132 156 193 245 298
#     4  10  18  30  54  82 101 125 166 209 242 279
#     4   8  14  26  48  79 109 131 155 194 244 296
#     4   9  17  30  50  76 104 133 161 193 243 300
#     4  11  22  34  50  71  95 129 171 210 247 286
#     4  10  23  41  54  67  96 135 167 200 249 300
#     4   9  18  33  52  74 103 135 161 192 242 300
#
# _framework density 18.848638000000001
#
# number of rings (size 3 to 8) (size 9 to 14) (size 15 to 20)
#    0.000    2.714    0.000    3.857    0.000    5.429 
#    0.000    1.429    0.000    7.714    0.000    0.000 
#    0.000    0.000    0.000    0.000    0.000    0.000 
#
# Total GULP energy -347109.193102 kJ/mol
# GULP energy per Si atom -12396.756897 kJ/mol
# Density = 1.880574 g / cm^3
# Si number density = 18.848638 Si / 1000 Ang^3
#
#
#
# Elastic Constant Matrix: (Units=GPa)
#
#
# Indices 1 2 3 4 5 6 
#
# 1 66.6276 32.7931 38.9340 0.0000 -26.9657 0.0000
# 2 32.7931 60.0823 45.8696 0.0000 -8.6928 0.0000
# 3 38.9340 45.8696 110.8760 0.0000 -12.3958 0.0000
# 4 0.0000 0.0000 0.0000 -0.7270 0.0000 -8.9646
# 5 -26.9657 -8.6928 -12.3958 0.0000 26.1130 0.0000
# 6 0.0000 0.0000 0.0000 -8.9646 0.0000 20.5186
#
#
#
# Elastic Compliance Matrix: (Units=1/GPa)
#
#
# Indices 1 2 3 4 5 6 
#
# 1 0.035925 -0.011882 -0.004218 0.000000 0.031140 0.000000
# 2 -0.011882 0.028566 -0.008400 0.000000 -0.006749 0.000000
# 3 -0.004218 -0.008400 0.013914 0.000000 -0.000547 0.000000
# 4 0.000000 0.000000 0.000000 -0.215351 0.000000 -0.094087
# 5 0.031140 -0.006749 -0.000547 0.000000 0.067946 0.000000
# 6 0.000000 0.000000 0.000000 -0.094087 0.000000 0.007630
#
#
# Mechanical properties :
#
#
# Convention : Reuss Voigt Hill
#
# Bulk Modulus (GPa) = 34.00796 52.53105 43.26951
# Shear Modulus (GPa) = -1946.48104 17.18021 -964.65041
#
# Velocity S-wave (km/s) = -32.17037 3.02235 -22.64727
# Velocity P-wave (km/s) = 36.90295 6.33324 25.70718
#
# Compressibility (1/GPa) = 0.02940488
#
# Stress axis : x y z
#
# Youngs Moduli (GPa) = 27.83568 35.00718 71.87029
#
# Poissons Ratio (x) = 0.41597 0.30314
# Poissons Ratio (y) = 0.33076 0.60368
# Poissons Ratio (z) = 0.11741 0.29405
#
# Static dielectric constant tensor:
#      x y z
#    x 3.586040 0.000000 -0.315630 
#    y 0.000000 3.097450 0.000000 
#    z -0.315630 0.000000 3.509000 
# 
# 
# High freq. dielectric constant tensor:
#      x y z
#    x 1.731370 0.000000 -0.021700 
#    y 0.000000 1.688160 0.000000 
#    z -0.021700 0.000000 1.734210 
# 
# From -- ./inp_files/50057.got.cif
#   From: 2010.06.25/outbox.cif.g09.slc.cpg/sg10_26_cif.got.tgz:50057.got - 2010.06.27 22:07:45.
