data_PCOD8058999
_publ_section_title
;
Structure prediction by ZEFSAII (Michael W. Deem and Ramdas Pophale) SiO2 
 PCOD8058999
Probable space group: P 2/M
;
_chemical_formula_sum "Si O2"
_cell_formula_units_Z 32
_cell_length_a 23.993717
_cell_length_b 9.366793
_cell_length_c 9.874894
_cell_angle_alpha 90.000000
_cell_angle_beta 52.557872
_cell_angle_gamma 90.000000
_cell_volume 1762.072598
_symmetry_space_group_name_H-M "P 2/M"
_symmetry_group_IT_number 10
_symmetry_cell_setting 'monoclinic'
loop_
_space_group_symop_operation_xyz
x,y,z
-x,y,-z
-x,-y,-z
x,-y,z
loop_
_atom_site_type_symbol
_atom_site_label
_atom_site_fract_x
_atom_site_fract_y
_atom_site_fract_z
Si Si1 0.433970 0.159568 0.000721
Si Si2 0.306067 0.331442 0.268336
Si Si3 0.566261 0.167882 0.310597
Si Si4 0.793240 0.667020 0.814240
Si Si5 0.705567 0.331520 0.195964
Si Si6 0.937045 0.329786 0.187298
Si Si7 0.782769 0.330523 0.347581
Si Si8 0.939054 0.670506 0.493040
O O1 0.449629 0.209796 0.822790
O O2 0.402801 0.000000 0.040281
O O3 0.500000 0.164186 0.000000
O O4 0.381948 0.262746 0.156723
O O5 0.315950 0.500000 0.259034
O O6 0.268193 0.274137 0.190085
O O7 0.259280 0.275710 0.460711
O O8 0.500000 0.215703 0.500000
O O9 0.634729 0.249875 0.262855
O O10 0.579934 0.000000 0.307062
O O11 0.800397 0.500000 0.777222
O O12 0.867793 0.734875 0.663405
O O13 0.769821 0.703003 0.999995
O O14 0.688120 0.500000 0.223623
O O15 0.737839 0.273038 0.287757
O O16 0.937151 0.500000 0.186529
O O17 0.862805 0.272254 0.237136
O O18 0.947846 0.274663 0.325557
O O19 0.000000 0.270458 0.000000
O O20 0.786295 0.500000 0.336385
O O21 0.939148 0.500000 0.493627
O O22 0.000000 0.730493 0.500000
#
# Coordination Sequence:
#
# PCOD8058999 Si02
#       8
#     4   4   4   4   4   4   4   4
#     4  10  22  38  55  76 100 127 162 204 246 293
#     4  10  18  33  53  72  99 133 165 203 250 293
#     4  10  22  39  55  73 101 132 160 199 250 297
#     4   9  16  28  45  65  95 130 165 205 245 286
#     4  10  20  33  51  75 100 131 168 205 246 293
#     4   9  16  25  37  58  94 135 167 198 242 293
#     4   9  18  30  45  69 101 133 166 206 249 290
#     4   9  16  24  37  60  92 133 171 199 238 293
#
# _framework density 18.160433000000001
#
# number of rings (size 3 to 8) (size 9 to 14) (size 15 to 20)
#    0.000    2.500    2.500    0.000    3.500    0.500 
#    0.000    0.000    0.000    0.000    0.000    0.000 
#    0.000    6.000    0.000    0.000    0.000    0.000 
#
# Total GULP energy -396613.542960 kJ/mol
# GULP energy per Si atom -12394.173217 kJ/mol
# Density = 1.811910 g / cm^3
# Si number density = 18.160433 Si / 1000 Ang^3
#
#
#
# Elastic Constant Matrix: (Units=GPa)
#
#
# Indices 1 2 3 4 5 6 
#
# 1 128.6278 26.4749 58.6826 0.0000 1.5514 0.0000
# 2 26.4749 21.0002 31.8590 0.0000 -4.8763 0.0000
# 3 58.6826 31.8590 123.2676 0.0000 -14.3219 0.0000
# 4 0.0000 0.0000 0.0000 5.3758 0.0000 8.2124
# 5 1.5514 -4.8763 -14.3219 0.0000 32.6003 0.0000
# 6 0.0000 0.0000 0.0000 8.2124 0.0000 3.2577
#
#
#
# Elastic Compliance Matrix: (Units=1/GPa)
#
#
# Indices 1 2 3 4 5 6 
#
# 1 0.011389 -0.010408 -0.003136 0.000000 -0.003476 0.000000
# 2 -0.010408 0.088119 -0.017104 0.000000 0.006162 0.000000
# 3 -0.003136 -0.017104 0.014485 0.000000 0.003954 0.000000
# 4 0.000000 0.000000 0.000000 -0.065244 0.000000 0.164476
# 5 -0.003476 0.006162 0.003954 0.000000 0.033499 0.000000
# 6 0.000000 0.000000 0.000000 0.164476 0.000000 -0.107666
#
#
# Mechanical properties :
#
#
# Convention : Reuss Voigt Hill
#
# Bulk Modulus (GPa) = 18.97615 56.32540 37.65077
# Shear Modulus (GPa) = 93.55447 18.63871 56.09659
#
# Velocity S-wave (km/s) = 7.18522 3.20712 5.56386
# Velocity P-wave (km/s) = 8.90552 6.69305 7.87735
#
# Compressibility (1/GPa) = 0.05269774
#
# Stress axis : x y z
#
# Youngs Moduli (GPa) = 87.80238 11.34825 69.03583
#
# Poissons Ratio (x) = 0.11812 0.21648
# Poissons Ratio (y) = 0.91389 1.18078
# Poissons Ratio (z) = 0.27533 0.19410
#
# Static dielectric constant tensor:
#      x y z
#    x 3.522740 0.000000 0.065310 
#    y 0.000000 2.801090 0.000000 
#    z 0.065310 0.000000 3.596130 
# 
# 
# High freq. dielectric constant tensor:
#      x y z
#    x 1.717290 0.000000 0.002850 
#    y 0.000000 1.635050 0.000000 
#    z 0.002850 0.000000 1.720840 
# 
# From -- ./inp_files/34632.got.cif
#   From: 2010.06.25/outbox.cif.g09.slc.cpg/sg10_18_cif.got.tgz:34632.got - 2010.06.27 22:07:45.
