data_PCOD8058489
_publ_section_title
;
Structure prediction by ZEFSAII (Michael W. Deem and Ramdas Pophale) SiO2 
 PCOD8058489
Probable space group: P 2/M
;
_chemical_formula_sum "Si O2"
_cell_formula_units_Z 32
_cell_length_a 20.382773
_cell_length_b 8.917196
_cell_length_c 13.800185
_cell_angle_alpha 90.000000
_cell_angle_beta 45.607150
_cell_angle_gamma 90.000000
_cell_volume 1792.318475
_symmetry_space_group_name_H-M "P 2/M"
_symmetry_group_IT_number 10
_symmetry_cell_setting 'monoclinic'
loop_
_space_group_symop_operation_xyz
x,y,z
-x,y,-z
-x,-y,-z
x,-y,z
loop_
_atom_site_type_symbol
_atom_site_label
_atom_site_fract_x
_atom_site_fract_y
_atom_site_fract_z
Si Si1 0.687341 0.830918 0.988084
Si Si2 0.394210 0.322456 0.112765
Si Si3 0.381843 0.334461 0.651789
Si Si4 0.343742 0.821283 0.360835
Si Si5 0.893037 0.827152 0.092818
Si Si6 0.793687 0.331068 0.030304
Si Si7 0.748819 0.679740 0.375655
Si Si8 0.514222 0.833800 0.305123
O O1 0.658322 0.729516 0.928224
O O2 0.775947 0.755147 0.947239
O O3 0.711411 0.000000 0.929132
O O4 0.606712 0.835630 0.148873
O O5 0.388022 0.500000 0.129273
O O6 0.341807 0.246041 0.255979
O O7 0.500000 0.268089 0.000000
O O8 0.416084 0.500000 0.593312
O O9 0.339969 0.262795 0.596131
O O10 0.470091 0.252703 0.609181
O O11 0.299610 0.336145 0.813119
O O12 0.258914 0.753079 0.509866
O O13 0.435971 0.761451 0.318543
O O14 0.337468 0.000000 0.361005
O O15 0.841859 0.737717 0.230912
O O16 0.861372 0.000000 0.126990
O O17 0.870862 0.757402 0.010785
O O18 0.000000 0.809686 0.000000
O O19 0.828102 0.500000 0.973200
O O20 0.751944 0.500000 0.376794
O O21 0.483602 0.000000 0.366226
#
# Coordination Sequence:
#
# PCOD8058489 Si02
#       8
#     4   4   4   4   4   4   4   4
#     4  10  18  31  50  71 100 136 175 221 265 304
#     4  11  22  34  50  72  98 134 180 229 270 306
#     4   8  16  29  45  64  92 129 166 205 246 294
#     4  11  22  35  49  68  97 134 176 220 263 307
#     4  10  20  35  57  84 110 136 167 204 251 309
#     4   9  17  30  49  76 106 135 168 207 255 306
#     4  10  21  36  51  72 101 134 169 209 257 308
#     4   9  18  29  44  66  92 128 171 213 253 296
#
# _framework density 17.85397
#
# number of rings (size 3 to 8) (size 9 to 14) (size 15 to 20)
#    0.000    2.250    1.250    3.000    0.000    7.000 
#    0.000    2.500    0.000    0.000    0.000    0.875 
#    0.000    7.000    0.000    0.000    0.000    0.000 
#
# Total GULP energy -396758.703143 kJ/mol
# GULP energy per Si atom -12398.709473 kJ/mol
# Density = 1.781333 g / cm^3
# Si number density = 17.853970 Si / 1000 Ang^3
#
#
#
# Elastic Constant Matrix: (Units=GPa)
#
#
# Indices 1 2 3 4 5 6 
#
# 1 95.8731 44.7326 34.5582 0.0000 10.9551 0.0000
# 2 44.7326 103.2160 30.1130 0.0000 9.1982 0.0000
# 3 34.5582 30.1130 50.3829 0.0000 14.1155 0.0000
# 4 0.0000 0.0000 0.0000 18.7863 0.0000 6.6950
# 5 10.9551 9.1982 14.1155 0.0000 26.2163 0.0000
# 6 0.0000 0.0000 0.0000 6.6950 0.0000 32.9887
#
#
#
# Elastic Compliance Matrix: (Units=1/GPa)
#
#
# Indices 1 2 3 4 5 6 
#
# 1 0.015310 -0.004319 -0.007716 0.000000 -0.000728 0.000000
# 2 -0.004319 0.012957 -0.004726 0.000000 -0.000196 0.000000
# 3 -0.007716 -0.004726 0.031322 0.000000 -0.011982 0.000000
# 4 0.000000 0.000000 0.000000 0.057380 0.000000 -0.011645
# 5 -0.000728 -0.000196 -0.011982 0.000000 0.044969 0.000000
# 6 0.000000 0.000000 0.000000 -0.011645 0.000000 0.032677
#
#
# Mechanical properties :
#
#
# Convention : Reuss Voigt Hill
#
# Bulk Modulus (GPa) = 38.36424 52.03105 45.19764
# Shear Modulus (GPa) = 21.11249 24.93616 23.02432
#
# Velocity S-wave (km/s) = 3.44249 3.74126 3.59498
# Velocity P-wave (km/s) = 6.11027 6.91871 6.52702
#
# Compressibility (1/GPa) = 0.02606594
#
# Stress axis : x y z
#
# Youngs Moduli (GPa) = 65.31596 77.17983 31.92617
#
# Poissons Ratio (x) = 0.33336 0.24634
# Poissons Ratio (y) = 0.28212 0.15090
# Poissons Ratio (z) = 0.50397 0.36478
#
# Static dielectric constant tensor:
#      x y z
#    x 3.304620 0.000000 0.183480 
#    y 0.000000 3.508890 0.000000 
#    z 0.183480 0.000000 2.991320 
# 
# 
# High freq. dielectric constant tensor:
#      x y z
#    x 1.680530 0.000000 0.018950 
#    y 0.000000 1.704470 0.000000 
#    z 0.018950 0.000000 1.656730 
# 
# From -- ./inp_files/69988.got.cif
#   From: 2010.06.25/outbox.cif.g09.slc.cpg/sg10_35_cif.got.tgz:69988.got - 2010.06.27 22:07:45.
