data_PCOD8058602
_publ_section_title
;
Structure prediction by ZEFSAII (Michael W. Deem and Ramdas Pophale) SiO2 
 PCOD8058602
Probable space group: P 2/M
;
_chemical_formula_sum "Si O2"
_cell_formula_units_Z 32
_cell_length_a 20.218678
_cell_length_b 9.137225
_cell_length_c 25.032375
_cell_angle_alpha 90.000000
_cell_angle_beta 23.169504
_cell_angle_gamma 90.000000
_cell_volume 1819.539943
_symmetry_space_group_name_H-M "P 2/M"
_symmetry_group_IT_number 10
_symmetry_cell_setting 'monoclinic'
loop_
_space_group_symop_operation_xyz
x,y,z
-x,y,-z
-x,-y,-z
x,-y,z
loop_
_atom_site_type_symbol
_atom_site_label
_atom_site_fract_x
_atom_site_fract_y
_atom_site_fract_z
Si Si1 0.455818 0.672948 0.117412
Si Si2 0.740193 0.826626 0.181965
Si Si3 0.040207 0.826533 0.887373
Si Si4 0.756821 0.672849 0.820716
Si Si5 0.957797 0.826685 0.832628
Si Si6 0.428700 0.830764 0.869991
Si Si7 0.913085 0.325993 0.367240
Si Si8 0.575777 0.829097 0.645280
O O1 0.458554 0.500000 0.123451
O O2 0.294806 0.722546 0.201001
O O3 0.447526 0.746141 0.181584
O O4 0.622868 0.731950 0.963388
O O5 0.792422 0.778706 0.203597
O O6 0.552300 0.775413 0.306310
O O7 0.746049 0.000000 0.172164
O O8 0.875918 0.761578 0.039262
O O9 0.047209 0.772745 0.821109
O O10 0.023182 0.000000 0.899650
O O11 0.745212 0.500000 0.831646
O O12 0.942065 0.727484 0.699068
O O13 0.053805 0.741898 0.715074
O O14 0.977041 0.000000 0.809524
O O15 0.763195 0.779247 0.979658
O O16 0.485605 0.795830 0.768012
O O17 0.446168 0.000000 0.870164
O O18 0.908364 0.500000 0.365591
O O19 0.740502 0.268185 0.519277
O O20 0.622412 0.000000 0.604769
#
# Coordination Sequence:
#
# PCOD8058602 Si02
#       8
#     4   4   4   4   4   4   4   4
#     4   9  16  31  54  75  96 127 166 212 253 289
#     4   8  13  25  48  76 102 128 164 207 248 288
#     4   8  13  24  48  79 102 124 162 211 251 288
#     4   8  16  31  51  73  97 127 168 212 249 284
#     4  10  18  31  52  79 105 129 162 208 257 299
#     4  10  19  31  50  79 108 129 159 205 256 304
#     4  11  22  36  52  73 101 136 173 208 245 298
#     4  10  20  35  52  74 106 139 165 202 253 302
#
# _framework density 17.586863000000001
#
# number of rings (size 3 to 8) (size 9 to 14) (size 15 to 20)
#    0.000    2.750    2.500    1.875    0.000    0.500 
#    0.000    3.750    0.000    8.250    0.000    1.750 
#    0.000    0.000    0.000    0.000    0.000    0.000 
#
# Total GULP energy -396580.546965 kJ/mol
# GULP energy per Si atom -12393.142093 kJ/mol
# Density = 1.754683 g / cm^3
# Si number density = 17.586863 Si / 1000 Ang^3
#
#
#
# Elastic Constant Matrix: (Units=GPa)
#
#
# Indices 1 2 3 4 5 6 
#
# 1 138.0644 32.9096 34.2711 0.0000 -22.9432 0.0000
# 2 32.9096 31.6070 20.4899 0.0000 -2.0061 0.0000
# 3 34.2711 20.4899 65.4971 0.0000 -15.2833 0.0000
# 4 0.0000 0.0000 0.0000 18.2283 0.0000 -7.6062
# 5 -22.9432 -2.0061 -15.2833 0.0000 27.8249 0.0000
# 6 0.0000 0.0000 0.0000 -7.6062 0.0000 3.3975
#
#
#
# Elastic Compliance Matrix: (Units=1/GPa)
#
#
# Indices 1 2 3 4 5 6 
#
# 1 0.011368 -0.010919 -0.000606 0.000000 0.008253 0.000000
# 2 -0.010919 0.050683 -0.013065 0.000000 -0.012526 0.000000
# 3 -0.000606 -0.013065 0.022178 0.000000 0.010740 0.000000
# 4 0.000000 0.000000 0.000000 0.833382 0.000000 1.865734
# 5 0.008253 -0.012526 0.010740 0.000000 0.047740 0.000000
# 6 0.000000 0.000000 0.000000 1.865734 0.000000 4.471247
#
#
# Mechanical properties :
#
#
# Convention : Reuss Voigt Hill
#
# Bulk Modulus (GPa) = 28.53242 45.61219 37.07231
# Shear Modulus (GPa) = 0.90951 19.72332 10.31642
#
# Velocity S-wave (km/s) = 0.71991 3.35248 2.42461
# Velocity P-wave (km/s) = 4.11703 6.40134 5.38178
#
# Compressibility (1/GPa) = 0.03504785
#
# Stress axis : x y z
#
# Youngs Moduli (GPa) = 87.96785 19.73066 45.08907
#
# Poissons Ratio (x) = 0.21545 0.02734
# Poissons Ratio (y) = 0.96056 0.58907
# Poissons Ratio (z) = 0.05334 0.25777
#
# Static dielectric constant tensor:
#      x y z
#    x 3.705090 0.000000 -0.272710 
#    y 0.000000 2.859170 0.000000 
#    z -0.272710 0.000000 3.143230 
# 
# 
# High freq. dielectric constant tensor:
#      x y z
#    x 1.699630 0.000000 -0.013260 
#    y 0.000000 1.636760 0.000000 
#    z -0.013260 0.000000 1.655520 
# 
# From -- ./inp_files/93574.got.cif
#   From: 2010.06.25/outbox.cif.g09.slc.cpg/sg10_47_cif.got.tgz:93574.got - 2010.06.27 22:07:45.
