data_PCOD8058633
_publ_section_title
;
Structure prediction by ZEFSAII (Michael W. Deem and Ramdas Pophale) SiO2 
 PCOD8058633
Probable space group: P 2/M
;
_chemical_formula_sum "Si O2"
_cell_formula_units_Z 28
_cell_length_a 10.270692
_cell_length_b 7.749525
_cell_length_c 27.824138
_cell_angle_alpha 90.000000
_cell_angle_beta 138.412301
_cell_angle_gamma 90.000000
_cell_volume 1469.979513
_symmetry_space_group_name_H-M "P 2/M"
_symmetry_group_IT_number 10
_symmetry_cell_setting 'monoclinic'
loop_
_space_group_symop_operation_xyz
x,y,z
-x,y,-z
-x,-y,-z
x,-y,z
loop_
_atom_site_type_symbol
_atom_site_label
_atom_site_fract_x
_atom_site_fract_y
_atom_site_fract_z
Si Si1 0.004628 0.000000 0.079360
Si Si2 0.101185 0.799479 0.667457
Si Si3 0.597205 0.304477 0.666396
Si Si4 0.180134 0.796736 0.582298
Si Si5 0.515120 0.308007 0.182267
Si Si6 0.671198 0.295202 0.582027
Si Si7 0.782548 0.701705 0.814938
Si Si8 0.681990 0.000000 0.918255
O O1 0.038495 0.175558 0.119199
O O2 0.150415 0.000000 0.075079
O O3 0.781090 0.000000 0.998377
O O4 0.135788 0.729778 0.623432
O O5 0.251688 0.703849 0.744576
O O6 0.879313 0.763472 0.620075
O O7 0.149098 0.000000 0.683723
O O8 0.665486 0.500000 0.681304
O O9 0.367487 0.298144 0.612969
O O10 0.644588 0.214316 0.628292
O O11 0.718249 0.226758 0.744760
O O12 0.000000 0.739275 0.500000
O O13 0.216819 0.000000 0.590694
O O14 0.465038 0.500000 0.149440
O O15 0.403570 0.270371 0.201532
O O16 0.450081 0.171555 0.123761
O O17 0.500000 0.221302 0.500000
O O18 0.655858 0.500000 0.579464
O O19 0.847981 0.500000 0.833093
#
# Coordination Sequence:
#
# PCOD8058633 Si02
#       8
#     2   4   4   4   4   4   4   2
#     4   9  18  30  52  77 114 149 169 215 271 323
#     4  11  21  34  53  76 107 143 186 232 274 329
#     4  10  20  34  52  75 103 139 183 230 272 324
#     4  10  21  33  50  76 103 136 179 228 280 328
#     4  10  18  31  53  78 109 144 179 225 270 318
#     4  10  22  38  53  73 106 145 186 235 284 326
#     4   9  18  31  51  80 108 141 184 223 268 324
#     4   9  18  32  48  81 114 143 179 209 265 337
#
# _framework density 19.047885999999998
#
# number of rings (size 3 to 8) (size 9 to 14) (size 15 to 20)
#    0.000    2.143    2.143    1.286    1.000    2.286 
#    0.000    2.857    0.000    0.000    0.000    2.000 
#    0.000    4.571    0.000    0.000    0.000    0.000 
#
# Total GULP energy -347150.740768 kJ/mol
# GULP energy per Si atom -12398.240742 kJ/mol
# Density = 1.900453 g / cm^3
# Si number density = 19.047886 Si / 1000 Ang^3
#
#
#
# Elastic Constant Matrix: (Units=GPa)
#
#
# Indices 1 2 3 4 5 6 
#
# 1 75.2849 13.9774 28.5695 0.0000 0.7837 0.0000
# 2 13.9774 76.7468 53.7696 0.0000 -5.3252 0.0000
# 3 28.5695 53.7696 149.5278 0.0000 -7.9575 0.0000
# 4 0.0000 0.0000 0.0000 24.5022 0.0000 5.0826
# 5 0.7837 -5.3252 -7.9575 0.0000 21.6778 0.0000
# 6 0.0000 0.0000 0.0000 5.0826 0.0000 15.5202
#
#
#
# Elastic Compliance Matrix: (Units=1/GPa)
#
#
# Indices 1 2 3 4 5 6 
#
# 1 0.014430 -0.001003 -0.002486 0.000000 -0.001681 0.000000
# 2 -0.001003 0.017575 -0.006014 0.000000 0.002146 0.000000
# 3 -0.002486 -0.006014 0.009436 0.000000 0.002076 0.000000
# 4 0.000000 0.000000 0.000000 0.043787 0.000000 -0.014340
# 5 -0.001681 0.002146 0.002076 0.000000 0.047480 0.000000
# 6 0.000000 0.000000 0.000000 -0.014340 0.000000 0.069128
#
#
# Mechanical properties :
#
#
# Convention : Reuss Voigt Hill
#
# Bulk Modulus (GPa) = 44.57348 54.91029 49.74188
# Shear Modulus (GPa) = 21.89908 26.02291 23.96099
#
# Velocity S-wave (km/s) = 3.39438 3.70020 3.55059
# Velocity P-wave (km/s) = 6.23009 6.86625 6.55589
#
# Compressibility (1/GPa) = 0.02243486
#
# Stress axis : x y z
#
# Youngs Moduli (GPa) = 69.30048 56.89920 105.97965
#
# Poissons Ratio (x) = 0.05707 0.26344
# Poissons Ratio (y) = 0.06951 0.63736
# Poissons Ratio (z) = 0.17227 0.34219
#
# Static dielectric constant tensor:
#      x y z
#    x 3.329320 0.000000 -0.221620 
#    y 0.000000 3.449900 0.000000 
#    z -0.221620 0.000000 3.652110 
# 
# 
# High freq. dielectric constant tensor:
#      x y z
#    x 1.704300 0.000000 -0.007400 
#    y 0.000000 1.742220 0.000000 
#    z -0.007400 0.000000 1.739510 
# 
# From -- ./inp_files/79342.got.cif
#   From: 2010.06.25/outbox.cif.g09.slc.cpg/sg10_40_cif.got.tgz:79342.got - 2010.06.27 22:07:45.
