data_PCOD8058485
_publ_section_title
;
Structure prediction by ZEFSAII (Michael W. Deem and Ramdas Pophale) SiO2 
 PCOD8058485
Probable space group: P 2/M
;
_chemical_formula_sum "Si O2"
_cell_formula_units_Z 28
_cell_length_a 19.830601
_cell_length_b 9.111123
_cell_length_c 14.650115
_cell_angle_alpha 90.000000
_cell_angle_beta 147.478016
_cell_angle_gamma 90.000000
_cell_volume 1423.071756
_symmetry_space_group_name_H-M "P 2/M"
_symmetry_group_IT_number 10
_symmetry_cell_setting 'monoclinic'
loop_
_space_group_symop_operation_xyz
x,y,z
-x,y,-z
-x,-y,-z
x,-y,z
loop_
_atom_site_type_symbol
_atom_site_label
_atom_site_fract_x
_atom_site_fract_y
_atom_site_fract_z
Si Si1 0.734068 0.672750 0.121665
Si Si2 0.498969 0.832663 0.103137
Si Si3 0.677340 0.831997 0.463645
Si Si4 0.883561 0.832648 0.434027
Si Si5 0.530355 0.825060 0.635720
Si Si6 0.204958 0.826820 0.985278
Si Si7 0.933354 0.826787 0.693367
O O1 0.747653 0.500000 0.132057
O O2 0.774633 0.731851 0.267276
O O3 0.591523 0.725067 0.943795
O O4 0.814184 0.746115 0.132713
O O5 0.632412 0.818506 0.306593
O O6 0.449467 0.000000 0.054014
O O7 0.500000 0.780521 0.000000
O O8 0.577010 0.758449 0.419083
O O9 0.819242 0.762517 0.626809
O O10 0.684988 0.000000 0.503583
O O11 0.918867 0.768719 0.573343
O O12 0.000000 0.819687 0.500000
O O13 0.834379 0.000000 0.383609
O O14 0.500000 0.767766 0.500000
O O15 0.670854 0.768529 0.821129
O O16 0.531281 0.000000 0.641903
O O17 0.213771 0.000000 0.976298
O O18 0.074473 0.789822 0.891303
O O19 0.914229 0.000000 0.669238
#
# Coordination Sequence:
#
# PCOD8058485 Si02
#       7
#     4   4   4   4   4   4   4
#     4  12  23  32  47  74 110 142 178 220 268 314
#     4  10  19  33  54  74  98 139 186 222 260 310
#     4   9  16  28  48  76 105 130 169 221 262 308
#     4  10  18  31  50  70  98 140 189 223 250 301
#     4   9  17  30  52  80 107 134 166 215 278 327
#     4  10  18  34  55  74 100 136 180 217 259 317
#     4   9  17  29  49  75 100 134 178 221 255 298
#
# _framework density 19.675747000000001
#
# number of rings (size 3 to 8) (size 9 to 14) (size 15 to 20)
#    0.000    2.143    2.857    2.143    0.000    2.857 
#    0.000    0.714    0.000    5.571    0.000    0.000 
#    0.000    1.143    0.000    0.000    0.000    0.000 
#
# Total GULP energy -346902.452507 kJ/mol
# GULP energy per Si atom -12389.373304 kJ/mol
# Density = 1.963096 g / cm^3
# Si number density = 19.675747 Si / 1000 Ang^3
#
#
#
# Elastic Constant Matrix: (Units=GPa)
#
#
# Indices 1 2 3 4 5 6 
#
# 1 119.4939 9.0614 75.0956 0.0000 21.4491 0.0000
# 2 9.0614 38.9898 16.5748 0.0000 6.1011 0.0000
# 3 75.0956 16.5748 124.3608 0.0000 25.6960 0.0000
# 4 0.0000 0.0000 0.0000 3.4727 0.0000 0.4082
# 5 21.4491 6.1011 25.6960 0.0000 39.2173 0.0000
# 6 0.0000 0.0000 0.0000 0.4082 0.0000 4.5453
#
#
#
# Elastic Compliance Matrix: (Units=1/GPa)
#
#
# Indices 1 2 3 4 5 6 
#
# 1 0.013688 0.000530 -0.007833 0.000000 -0.002437 0.000000
# 2 0.000530 0.027366 -0.003502 0.000000 -0.002253 0.000000
# 3 -0.007833 -0.003502 0.014157 0.000000 -0.004447 0.000000
# 4 0.000000 0.000000 0.000000 0.291031 0.000000 -0.026136
# 5 -0.002437 -0.002253 -0.004447 0.000000 0.030096 0.000000
# 6 0.000000 0.000000 0.000000 -0.026136 0.000000 0.222355
#
#
# Mechanical properties :
#
#
# Convention : Reuss Voigt Hill
#
# Bulk Modulus (GPa) = 29.76101 53.81204 41.78652
# Shear Modulus (GPa) = 7.91763 21.58792 14.75277
#
# Velocity S-wave (km/s) = 2.00818 3.31597 2.74121
# Velocity P-wave (km/s) = 4.53162 6.48611 5.59488
#
# Compressibility (1/GPa) = 0.03360101
#
# Stress axis : x y z
#
# Youngs Moduli (GPa) = 73.05448 36.54209 70.63847
#
# Poissons Ratio (x) = -0.01936 0.55331
# Poissons Ratio (y) = -0.03871 0.24736
# Poissons Ratio (z) = 0.57223 0.12796
#
# Static dielectric constant tensor:
#      x y z
#    x 3.732530 0.000000 0.301950 
#    y 0.000000 2.898480 0.000000 
#    z 0.301950 0.000000 3.769730 
# 
# 
# High freq. dielectric constant tensor:
#      x y z
#    x 1.761510 0.000000 0.027470 
#    y 0.000000 1.688170 0.000000 
#    z 0.027470 0.000000 1.769140 
# 
# From -- ./inp_files/49367.got.cif
#   From: 2010.06.25/outbox.cif.g09.slc.cpg/sg10_25_cif.got.tgz:49367.got - 2010.06.27 22:07:45.
