data_PCOD8058263
_publ_section_title
;
Structure prediction by ZEFSAII (Michael W. Deem and Ramdas Pophale) SiO2 
 PCOD8058263
Probable space group: P 2/M
;
_chemical_formula_sum "Si O2"
_cell_formula_units_Z 30
_cell_length_a 25.793827
_cell_length_b 12.608561
_cell_length_c 5.269009
_cell_angle_alpha 90.000000
_cell_angle_beta 78.145675
_cell_angle_gamma 90.000000
_cell_volume 1677.057213
_symmetry_space_group_name_H-M "P 2/M"
_symmetry_group_IT_number 10
_symmetry_cell_setting 'monoclinic'
loop_
_space_group_symop_operation_xyz
x,y,z
-x,y,-z
-x,-y,-z
x,-y,z
loop_
_atom_site_type_symbol
_atom_site_label
_atom_site_fract_x
_atom_site_fract_y
_atom_site_fract_z
Si Si1 0.113515 0.808151 0.623681
Si Si2 0.965585 0.000000 0.284363
Si Si3 0.448964 0.619880 0.801402
Si Si4 0.173690 0.127199 0.061275
Si Si5 0.563516 0.295441 0.686040
Si Si6 0.294715 0.874701 0.957962
Si Si7 0.033773 0.376842 0.715939
Si Si8 0.644613 0.874915 0.602709
O O1 0.068093 0.894426 0.685444
O O2 0.144242 0.821296 0.329060
O O3 0.087459 0.691777 0.661499
O O4 0.152580 0.824183 0.820793
O O5 0.000000 0.000000 0.500000
O O6 0.000000 0.000000 0.000000
O O7 0.470278 0.500000 0.780298
O O8 0.414481 0.643616 0.585750
O O9 0.499566 0.699411 0.750459
O O10 0.414442 0.643846 0.086226
O O11 0.166540 0.000000 0.070749
O O12 0.234377 0.163875 0.019661
O O13 0.585890 0.176075 0.663162
O O14 0.324080 0.833456 0.676083
O O15 0.295738 0.000000 0.954423
O O16 0.323647 0.834012 0.182645
O O17 0.050655 0.500000 0.698788
O O18 0.000000 0.348507 0.500000
O O19 0.000000 0.348772 0.000000
O O20 0.636287 0.000000 0.610945
#
# Coordination Sequence:
#
# PCOD8058263 Si02
#       8
#     4   2   4   4   4   4   4   4
#     4  12  21  34  53  79 107 138 172 208 256 307
#     4  12  22  32  46  72 114 146 160 192 256 314
#     4  10  19  33  50  75 102 133 171 213 254 296
#     4  11  20  35  52  79 106 132 168 212 250 315
#     4  10  18  30  50  73 101 132 168 208 246 301
#     4   9  19  33  52  70 101 136 170 210 256 291
#     4  10  21  38  56  75 100 134 178 216 240 285
#     4  10  19  33  49  75 102 136 170 208 250 307
#
# _framework density 17.888476000000001
#
# number of rings (size 3 to 8) (size 9 to 14) (size 15 to 20)
#    0.000    1.600    1.333    6.000    0.000    2.133 
#    0.000    2.667    0.000    0.000    0.000   24.267 
#    0.000    0.000    0.000    0.000    0.000    0.000 
#
# Total GULP energy -371861.907206 kJ/mol
# GULP energy per Si atom -12395.396907 kJ/mol
# Density = 1.784776 g / cm^3
# Si number density = 17.888476 Si / 1000 Ang^3
#
#
#
# Elastic Constant Matrix: (Units=GPa)
#
#
# Indices 1 2 3 4 5 6 
#
# 1 80.2325 46.0809 32.9404 0.0000 -0.3527 0.0000
# 2 46.0809 76.5002 29.0926 0.0000 -2.6524 0.0000
# 3 32.9404 29.0926 151.3046 0.0000 20.6880 0.0000
# 4 0.0000 0.0000 0.0000 18.3426 0.0000 0.8168
# 5 -0.3527 -2.6524 20.6880 0.0000 23.2992 0.0000
# 6 0.0000 0.0000 0.0000 0.8168 0.0000 6.4981
#
#
#
# Elastic Compliance Matrix: (Units=1/GPa)
#
#
# Indices 1 2 3 4 5 6 
#
# 1 0.019718 -0.010947 -0.002343 0.000000 0.001132 0.000000
# 2 -0.010947 0.020621 -0.002140 0.000000 0.004082 0.000000
# 3 -0.002343 -0.002140 0.008615 0.000000 -0.007928 0.000000
# 4 0.000000 0.000000 0.000000 0.054825 0.000000 -0.006892
# 5 0.001132 0.004082 -0.007928 0.000000 0.050442 0.000000
# 6 0.000000 0.000000 0.000000 -0.006892 0.000000 0.154758
#
#
# Mechanical properties :
#
#
# Convention : Reuss Voigt Hill
#
# Bulk Modulus (GPa) = 55.26536 58.25166 56.75851
# Shear Modulus (GPa) = 14.45633 22.95620 18.70627
#
# Velocity S-wave (km/s) = 2.84586 3.58620 3.23726
# Velocity P-wave (km/s) = 6.46220 7.05565 6.76544
#
# Compressibility (1/GPa) = 0.01809452
#
# Stress axis : x y z
#
# Youngs Moduli (GPa) = 50.71492 48.49330 116.08058
#
# Poissons Ratio (x) = 0.53087 0.27194
# Poissons Ratio (y) = 0.55519 0.24839
# Poissons Ratio (z) = 0.11881 0.10377
#
# Static dielectric constant tensor:
#      x y z
#    x 3.232150 0.000000 0.257250 
#    y 0.000000 3.122600 0.000000 
#    z 0.257250 0.000000 4.334100 
# 
# 
# High freq. dielectric constant tensor:
#      x y z
#    x 1.670190 0.000000 0.013620 
#    y 0.000000 1.664470 0.000000 
#    z 0.013620 0.000000 1.730030 
# 
# From -- ./inp_files/13158.got.cif
#   From: 2010.06.25/outbox.cif.g09.slc.cpg/sg10_7_cif.got.tgz:13158.got - 2010.06.27 22:07:45.
