data_PCOD8058799
_publ_section_title
;
Structure prediction by ZEFSAII (Michael W. Deem and Ramdas Pophale) SiO2 
 PCOD8058799
Probable space group: P 2/M
;
_chemical_formula_sum "Si O2"
_cell_formula_units_Z 32
_cell_length_a 19.477486
_cell_length_b 9.381938
_cell_length_c 14.293153
_cell_angle_alpha 90.000000
_cell_angle_beta 132.854850
_cell_angle_gamma 90.000000
_cell_volume 1914.715859
_symmetry_space_group_name_H-M "P 2/M"
_symmetry_group_IT_number 10
_symmetry_cell_setting 'monoclinic'
loop_
_space_group_symop_operation_xyz
x,y,z
-x,y,-z
-x,-y,-z
x,-y,z
loop_
_atom_site_type_symbol
_atom_site_label
_atom_site_fract_x
_atom_site_fract_y
_atom_site_fract_z
Si Si1 0.333552 0.337656 0.520791
Si Si2 0.141855 0.832307 0.864236
Si Si3 0.940618 0.834708 0.730638
Si Si4 0.530137 0.664617 0.631375
Si Si5 0.287858 0.833301 0.144804
Si Si6 0.212925 0.161874 0.271456
Si Si7 0.816058 0.331999 0.472138
Si Si8 0.107440 0.831939 0.623322
O O1 0.310572 0.500000 0.474920
O O2 0.444918 0.311369 0.625582
O O3 0.291160 0.251487 0.396034
O O4 0.285877 0.298591 0.576221
O O5 0.132112 0.774395 0.749796
O O6 0.049416 0.792923 0.838693
O O7 0.152347 0.000000 0.869503
O O8 0.233497 0.772227 0.002909
O O9 0.891367 0.807108 0.785310
O O10 0.895544 0.733315 0.611632
O O11 0.929210 0.000000 0.687606
O O12 0.500000 0.718200 0.500000
O O13 0.560311 0.500000 0.653621
O O14 0.615201 0.753120 0.751926
O O15 0.217159 0.804211 0.165627
O O16 0.310724 0.000000 0.156271
O O17 0.240802 0.000000 0.317449
O O18 0.833198 0.500000 0.475341
O O19 0.821801 0.253602 0.378037
O O20 0.000000 0.794393 0.500000
O O21 0.125333 0.000000 0.628829
#
# Coordination Sequence:
#
# PCOD8058799 Si02
#       8
#     4   4   4   4   4   4   4   4
#     4   9  18  32  49  70  97 127 158 195 243 290
#     4   9  18  32  49  69  98 133 165 197 238 287
#     4   9  16  30  48  67  96 135 168 188 225 292
#     4  10  19  33  53  72  93 129 168 197 235 294
#     4  10  20  32  47  73 103 128 159 205 248 277
#     4   9  17  27  45  72  99 127 161 197 233 278
#     4  10  19  30  48  75 101 121 153 207 252 278
#     4  10  18  32  53  72  94 131 169 197 234 291
#
# _framework density 16.712662999999999
#
# number of rings (size 3 to 8) (size 9 to 14) (size 15 to 20)
#    0.000    2.500    2.500    0.375    0.000    2.000 
#    0.000    3.750    0.000    0.750    0.000    9.625 
#    0.000    0.000    0.000    0.000    0.000    0.000 
#
# Total GULP energy -396639.471294 kJ/mol
# GULP energy per Si atom -12394.983478 kJ/mol
# Density = 1.667462 g / cm^3
# Si number density = 16.712663 Si / 1000 Ang^3
#
#
#
# Elastic Constant Matrix: (Units=GPa)
#
#
# Indices 1 2 3 4 5 6 
#
# 1 110.6457 41.4304 69.6386 0.0000 1.0757 0.0000
# 2 41.4304 48.1188 40.2198 0.0000 -0.8873 0.0000
# 3 69.6386 40.2198 127.0202 0.0000 -0.5007 0.0000
# 4 0.0000 0.0000 0.0000 -12.7292 0.0000 5.4526
# 5 1.0757 -0.8873 -0.5007 0.0000 19.8996 0.0000
# 6 0.0000 0.0000 0.0000 5.4526 0.0000 25.4721
#
#
#
# Elastic Compliance Matrix: (Units=1/GPa)
#
#
# Indices 1 2 3 4 5 6 
#
# 1 0.016208 -0.008907 -0.006071 0.000000 -0.001426 0.000000
# 2 -0.008907 0.033177 -0.005615 0.000000 0.001819 0.000000
# 3 -0.006071 -0.005615 0.012981 0.000000 0.000404 0.000000
# 4 0.000000 0.000000 0.000000 -0.071961 0.000000 0.015404
# 5 -0.001426 0.001819 0.000404 0.000000 0.050421 0.000000
# 6 0.000000 0.000000 0.000000 0.015404 0.000000 0.035961
#
#
# Mechanical properties :
#
#
# Convention : Reuss Voigt Hill
#
# Bulk Modulus (GPa) = 47.21426 65.37361 56.29394
# Shear Modulus (GPa) = 39.98926 15.49488 27.74207
#
# Velocity S-wave (km/s) = 4.89688 3.04819 4.07866
# Velocity P-wave (km/s) = 7.76431 7.18260 7.47911
#
# Compressibility (1/GPa) = 0.02118004
#
# Stress axis : x y z
#
# Youngs Moduli (GPa) = 61.69790 30.14098 77.03580
#
# Poissons Ratio (x) = 0.26846 0.46772
# Poissons Ratio (y) = 0.54952 0.43256
# Poissons Ratio (z) = 0.37459 0.16924
#
# Static dielectric constant tensor:
#      x y z
#    x 3.487930 0.000000 -0.075470 
#    y 0.000000 3.044280 0.000000 
#    z -0.075470 0.000000 3.045840 
# 
# 
# High freq. dielectric constant tensor:
#      x y z
#    x 1.654180 0.000000 0.000220 
#    y 0.000000 1.631210 0.000000 
#    z 0.000220 0.000000 1.614070 
# 
# From -- ./inp_files/65998.got.cif
#   From: 2010.06.25/outbox.cif.g09.slc.cpg/sg10_33_cif.got.tgz:65998.got - 2010.06.27 22:07:45.
