data_PCOD8058678
_publ_section_title
;
Structure prediction by ZEFSAII (Michael W. Deem and Ramdas Pophale) SiO2 
 PCOD8058678
Probable space group: P 2/M
;
_chemical_formula_sum "Si O2"
_cell_formula_units_Z 28
_cell_length_a 9.589839
_cell_length_b 10.886702
_cell_length_c 21.870366
_cell_angle_alpha 90.000000
_cell_angle_beta 44.016592
_cell_angle_gamma 90.000000
_cell_volume 1586.591676
_symmetry_space_group_name_H-M "P 2/M"
_symmetry_group_IT_number 10
_symmetry_cell_setting 'monoclinic'
loop_
_space_group_symop_operation_xyz
x,y,z
-x,y,-z
-x,-y,-z
x,-y,z
loop_
_atom_site_type_symbol
_atom_site_label
_atom_site_fract_x
_atom_site_fract_y
_atom_site_fract_z
Si Si1 0.355289 0.645191 0.097101
Si Si2 0.034531 0.000000 0.591127
Si Si3 0.062200 0.741128 0.634401
Si Si4 0.899736 0.646566 0.246608
Si Si5 0.533976 0.746568 0.294661
Si Si6 0.375774 0.643764 0.226952
Si Si7 0.187990 0.360244 0.476445
Si Si8 0.668339 0.000000 0.614121
O O1 0.370436 0.500000 0.089643
O O2 0.425626 0.688321 0.142247
O O3 0.126031 0.684397 0.157306
O O4 0.500000 0.704956 0.000000
O O5 0.030864 0.886609 0.639206
O O6 0.228282 0.000000 0.485307
O O7 0.833868 0.000000 0.614502
O O8 0.154978 0.701722 0.669797
O O9 0.218707 0.705041 0.531844
O O10 0.857905 0.666753 0.685792
O O11 0.868999 0.500000 0.256601
O O12 0.760586 0.713724 0.241153
O O13 0.512879 0.725317 0.228600
O O14 0.388744 0.650139 0.374028
O O15 0.475745 0.883180 0.333148
O O16 0.422040 0.500000 0.221617
O O17 0.134103 0.500000 0.505624
O O18 0.000000 0.295998 0.500000
#
# Coordination Sequence:
#
# PCOD8058678 Si02
#       8
#     4   2   4   4   4   4   4   2
#     4   8  16  34  59  84 111 140 168 211 274 340
#     4  11  20  37  55  73 100 145 206 248 252 302
#     4  11  20  34  52  75 103 148 192 226 270 304
#     4  10  22  37  54  82 117 140 173 227 279 333
#     4  12  22  35  51  78 109 149 182 227 277 311
#     4  10  18  31  54  82 109 138 183 226 266 329
#     4  11  19  29  49  73 101 140 189 226 265 318
#     4  11  22  37  53  73 106 146 194 242 262 305
#
# _framework density 17.647894000000001
#
# number of rings (size 3 to 8) (size 9 to 14) (size 15 to 20)
#    0.000    1.571    4.286    3.429    0.000    1.143 
#    0.000    2.857    0.000    3.429    0.000   19.000 
#    0.000    0.000    0.000    0.000    0.000    0.000 
#
# Total GULP energy -347202.159230 kJ/mol
# GULP energy per Si atom -12400.077115 kJ/mol
# Density = 1.760773 g / cm^3
# Si number density = 17.647894 Si / 1000 Ang^3
#
#
#
# Elastic Constant Matrix: (Units=GPa)
#
#
# Indices 1 2 3 4 5 6 
#
# 1 116.6618 27.2976 49.6523 0.0000 5.5803 0.0000
# 2 27.2976 83.0333 22.1621 0.0000 1.6110 0.0000
# 3 49.6523 22.1621 103.9200 0.0000 9.8615 0.0000
# 4 0.0000 0.0000 0.0000 11.3319 0.0000 -0.8660
# 5 5.5803 1.6110 9.8615 0.0000 19.6267 0.0000
# 6 0.0000 0.0000 0.0000 -0.8660 0.0000 24.1245
#
#
#
# Elastic Compliance Matrix: (Units=1/GPa)
#
#
# Indices 1 2 3 4 5 6 
#
# 1 0.011195 -0.002392 -0.004784 0.000000 -0.000583 0.000000
# 2 -0.002392 0.013284 -0.001734 0.000000 0.000461 0.000000
# 3 -0.004784 -0.001734 0.012743 0.000000 -0.004900 0.000000
# 4 0.000000 0.000000 0.000000 0.088489 0.000000 0.003177
# 5 -0.000583 0.000461 -0.004900 0.000000 0.053541 0.000000
# 6 0.000000 0.000000 0.000000 0.003177 0.000000 0.041566
#
#
# Mechanical properties :
#
#
# Convention : Reuss Voigt Hill
#
# Bulk Modulus (GPa) = 51.53827 55.75990 53.64908
# Shear Modulus (GPa) = 20.39941 24.65014 22.52478
#
# Velocity S-wave (km/s) = 3.40356 3.74140 3.57647
# Velocity P-wave (km/s) = 6.68675 7.09426 6.89352
#
# Compressibility (1/GPa) = 0.01940306
#
# Stress axis : x y z
#
# Youngs Moduli (GPa) = 89.32233 75.28054 78.47418
#
# Poissons Ratio (x) = 0.18011 0.37538
# Poissons Ratio (y) = 0.21370 0.13604
# Poissons Ratio (z) = 0.42728 0.13050
#
# Static dielectric constant tensor:
#      x y z
#    x 3.273150 0.000000 0.208870 
#    y 0.000000 3.171640 0.000000 
#    z 0.208870 0.000000 3.390050 
# 
# 
# High freq. dielectric constant tensor:
#      x y z
#    x 1.675450 0.000000 0.014090 
#    y 0.000000 1.670540 0.000000 
#    z 0.014090 0.000000 1.659320 
# 
# From -- ./inp_files/60779.got.cif
#   From: 2010.06.25/outbox.cif.g09.slc.cpg/sg10_31_cif.got.tgz:60779.got - 2010.06.27 22:07:45.
