data_PCOD8059467
_publ_section_title
;
Structure prediction by ZEFSAII (Michael W. Deem and Ramdas Pophale) SiO2 
 PCOD8059467
Probable space group: P 2/M
;
_chemical_formula_sum "Si O2"
_cell_formula_units_Z 32
_cell_length_a 24.779136
_cell_length_b 9.945863
_cell_length_c 14.965328
_cell_angle_alpha 90.000000
_cell_angle_beta 28.313424
_cell_angle_gamma 90.000000
_cell_volume 1749.294567
_symmetry_space_group_name_H-M "P 2/M"
_symmetry_group_IT_number 10
_symmetry_cell_setting 'monoclinic'
loop_
_space_group_symop_operation_xyz
x,y,z
-x,y,-z
-x,-y,-z
x,-y,z
loop_
_atom_site_type_symbol
_atom_site_label
_atom_site_fract_x
_atom_site_fract_y
_atom_site_fract_z
Si Si1 0.468398 0.839310 0.327253
Si Si2 0.823962 0.842875 0.487504
Si Si3 0.022524 0.159994 0.066848
Si Si4 0.119091 0.650597 0.440728
Si Si5 0.567285 0.157056 0.817118
Si Si6 0.854531 0.349688 0.799080
Si Si7 0.272612 0.156195 0.736004
Si Si8 0.319735 0.844123 0.866036
O O1 0.478488 0.784246 0.210895
O O2 0.352604 0.782498 0.541542
O O3 0.574149 0.787765 0.232144
O O4 0.464944 0.000000 0.334226
O O5 0.825994 0.761601 0.576268
O O6 0.701522 0.814916 0.622723
O O7 0.922336 0.787733 0.278093
O O8 0.840324 0.000000 0.485634
O O9 0.019559 0.000000 0.072740
O O10 0.145064 0.218792 0.920320
O O11 0.000000 0.214229 0.000000
O O12 0.145249 0.500000 0.438229
O O13 0.174005 0.670476 0.263465
O O14 0.985612 0.673486 0.628197
O O15 0.541028 0.000000 0.856726
O O16 0.500000 0.223002 0.000000
O O17 0.817711 0.500000 0.882154
O O18 0.791467 0.237847 0.947306
O O19 0.338510 0.178682 0.733224
O O20 0.255716 0.000000 0.741051
O O21 0.296796 0.000000 0.920858
#
# Coordination Sequence:
#
# PCOD8059467 Si02
#       8
#     4   4   4   4   4   4   4   4
#     4   9  17  29  45  67 100 139 169 198 246 301
#     4  10  19  30  50  77 100 124 164 212 250 284
#     4   9  16  26  43  69 101 132 161 200 252 299
#     4   9  19  35  52  69  96 133 166 199 244 302
#     4   9  18  30  44  67 102 136 165 200 246 298
#     4   9  19  35  51  69  97 134 168 195 240 306
#     4   9  16  27  43  67 100 130 162 203 247 297
#     4  10  19  29  49  77 101 125 163 212 253 284
#
# _framework density 18.293087
#
# number of rings (size 3 to 8) (size 9 to 14) (size 15 to 20)
#    0.000    2.750    0.000    2.625    1.750    6.500 
#    0.000    1.250    0.000    3.000    0.000    1.750 
#    0.000    0.000    0.000    0.000    0.000    0.000 
#
# Total GULP energy -396652.692616 kJ/mol
# GULP energy per Si atom -12395.396644 kJ/mol
# Density = 1.825145 g / cm^3
# Si number density = 18.293087 Si / 1000 Ang^3
#
#
#
# Elastic Constant Matrix: (Units=GPa)
#
#
# Indices 1 2 3 4 5 6 
#
# 1 112.6419 19.2847 27.4357 0.0000 2.3332 0.0000
# 2 19.2847 30.0292 12.4822 0.0000 2.4381 0.0000
# 3 27.4357 12.4822 88.8834 0.0000 9.2468 0.0000
# 4 0.0000 0.0000 0.0000 10.1734 0.0000 -0.7485
# 5 2.3332 2.4381 9.2468 0.0000 24.8767 0.0000
# 6 0.0000 0.0000 0.0000 -0.7485 0.0000 10.1865
#
#
#
# Elastic Compliance Matrix: (Units=1/GPa)
#
#
# Indices 1 2 3 4 5 6 
#
# 1 0.010450 -0.005723 -0.002474 0.000000 0.000500 0.000000
# 2 -0.005723 0.038568 -0.003445 0.000000 -0.001962 0.000000
# 3 -0.002474 -0.003445 0.012939 0.000000 -0.004240 0.000000
# 4 0.000000 0.000000 0.000000 0.098830 0.000000 0.007262
# 5 0.000500 -0.001962 -0.004240 0.000000 0.041920 0.000000
# 6 0.000000 0.000000 0.000000 0.007262 0.000000 0.098703
#
#
# Mechanical properties :
#
#
# Convention : Reuss Voigt Hill
#
# Bulk Modulus (GPa) = 25.85859 38.88440 32.37150
# Shear Modulus (GPa) = 14.81110 20.53745 17.67428
#
# Velocity S-wave (km/s) = 2.84853 3.35429 3.11170
# Velocity P-wave (km/s) = 4.99853 6.02529 5.53577
#
# Compressibility (1/GPa) = 0.03867186
#
# Stress axis : x y z
#
# Youngs Moduli (GPa) = 95.69661 25.92837 77.28425
#
# Poissons Ratio (x) = 0.14839 0.19119
# Poissons Ratio (y) = 0.54768 0.26628
# Poissons Ratio (z) = 0.23674 0.08934
#
# Static dielectric constant tensor:
#      x y z
#    x 3.577030 0.000000 0.086800 
#    y 0.000000 2.822200 0.000000 
#    z 0.086800 0.000000 3.507570 
# 
# 
# High freq. dielectric constant tensor:
#      x y z
#    x 1.721030 0.000000 0.002360 
#    y 0.000000 1.640110 0.000000 
#    z 0.002360 0.000000 1.717260 
# 
# From -- ./inp_files/56974.got.cif
#   From: 2010.06.25/outbox.cif.g09.slc.cpg/sg10_29_cif.got.tgz:56974.got - 2010.06.27 22:07:45.
