data_PCOD8059743
_publ_section_title
;
Structure prediction by ZEFSAII (Michael W. Deem and Ramdas Pophale) SiO2 
 PCOD8059743
Probable space group: P 2/M
;
_chemical_formula_sum "Si O2"
_cell_formula_units_Z 30
_cell_length_a 5.173399
_cell_length_b 36.320237
_cell_length_c 8.770787
_cell_angle_alpha 90.000000
_cell_angle_beta 72.846075
_cell_angle_gamma 90.000000
_cell_volume 1574.711896
_symmetry_space_group_name_H-M "P 2/M"
_symmetry_group_IT_number 10
_symmetry_cell_setting 'monoclinic'
loop_
_space_group_symop_operation_xyz
x,y,z
-x,y,-z
-x,-y,-z
x,-y,z
loop_
_atom_site_type_symbol
_atom_site_label
_atom_site_fract_x
_atom_site_fract_y
_atom_site_fract_z
Si Si1 0.804190 0.500000 0.891623
Si Si2 0.905943 0.810214 0.688094
Si Si3 0.405386 0.234190 0.689211
Si Si4 0.195404 0.118560 0.109185
Si Si5 0.195737 0.961141 0.108519
Si Si6 0.406880 0.619663 0.686226
Si Si7 0.695506 0.307085 0.108984
Si Si8 0.092866 0.572870 0.314278
O O1 0.859639 0.535351 0.780711
O O2 0.500000 0.500000 0.000000
O O3 0.000000 0.500000 0.000000
O O4 0.625312 0.788233 0.748509
O O5 0.873014 0.851269 0.754021
O O6 0.000000 0.813977 0.500000
O O7 0.126109 0.788222 0.748509
O O8 0.500000 0.239845 0.500000
O O9 0.366196 0.273827 0.767708
O O10 0.150080 0.078294 0.199836
O O11 0.500000 0.123393 0.000000
O O12 0.000000 0.123391 0.000000
O O13 0.144310 0.000000 0.211363
O O14 0.500000 0.961538 0.000000
O O15 0.000000 0.961537 0.000000
O O16 0.500000 0.630223 0.500000
O O17 0.355969 0.656271 0.787978
O O18 0.633197 0.596228 0.733461
O O19 0.133339 0.596225 0.733459
O O20 0.500000 0.305298 0.000000
O O21 0.000000 0.305282 0.000000
O O22 0.000000 0.562793 0.500000
#
# Coordination Sequence:
#
# PCOD8059743 Si02
#       8
#     2   4   4   4   4   4   4   4
#     4  12  25  38  59  90 122 152 182 228 283 320
#     4  10  21  36  54  75 102 137 173 214 262 312
#     4  10  22  40  57  74 103 143 180 211 255 319
#     4  10  19  30  49  75 100 130 168 213 260 306
#     4   8  14  25  41  64  94 126 162 203 248 301
#     4  10  22  41  63  84 111 150 188 222 264 319
#     4  12  25  38  58  87 114 140 174 224 275 313
#     4  10  22  41  63  85 113 152 193 225 259 316
#
# _framework density 19.051103000000001
#
# number of rings (size 3 to 8) (size 9 to 14) (size 15 to 20)
#    0.000    1.867    0.000    3.800    0.000    6.400 
#    0.000    8.000    0.000    0.400    0.000    0.000 
#    0.000   13.867    0.000    0.000    0.000    2.133 
#
# Total GULP energy -371888.418759 kJ/mol
# GULP energy per Si atom -12396.280625 kJ/mol
# Density = 1.900774 g / cm^3
# Si number density = 19.051103 Si / 1000 Ang^3
#
#
#
# Elastic Constant Matrix: (Units=GPa)
#
#
# Indices 1 2 3 4 5 6 
#
# 1 179.0940 72.0118 35.9072 0.0000 -0.4963 0.0000
# 2 72.0118 203.3339 67.2708 0.0000 0.0330 0.0000
# 3 35.9072 67.2708 43.7833 0.0000 -0.0129 0.0000
# 4 0.0000 0.0000 0.0000 42.7650 0.0000 0.0746
# 5 -0.4963 0.0330 -0.0129 0.0000 6.5237 0.0000
# 6 0.0000 0.0000 0.0000 0.0746 0.0000 25.3928
#
#
#
# Elastic Compliance Matrix: (Units=1/GPa)
#
#
# Indices 1 2 3 4 5 6 
#
# 1 0.006813 -0.001148 -0.003824 0.000000 0.000517 0.000000
# 2 -0.001148 0.010196 -0.014724 0.000000 -0.000168 0.000000
# 3 -0.003824 -0.014724 0.048598 0.000000 -0.000120 0.000000
# 4 0.000000 0.000000 0.000000 0.023384 0.000000 -0.000069
# 5 0.000517 -0.000168 -0.000120 0.000000 0.153328 0.000000
# 6 0.000000 0.000000 0.000000 -0.000069 0.000000 0.039381
#
#
# Mechanical properties :
#
#
# Convention : Reuss Voigt Hill
#
# Bulk Modulus (GPa) = 38.14454 86.28788 62.21621
# Shear Modulus (GPa) = 15.15930 31.67106 23.41518
#
# Velocity S-wave (km/s) = 2.82391 4.08171 3.50962
# Velocity P-wave (km/s) = 5.54060 8.22223 7.01082
#
# Compressibility (1/GPa) = 0.02621607
#
# Stress axis : x y z
#
# Youngs Moduli (GPa) = 146.77128 98.07844 20.57691
#
# Poissons Ratio (x) = 0.11260 0.07868
# Poissons Ratio (y) = 0.16850 0.30297
# Poissons Ratio (z) = 0.56119 1.44411
#
# Static dielectric constant tensor:
#      x y z
#    x 4.067510 0.000000 -0.003760 
#    y 0.000000 3.946240 0.000000 
#    z -0.003760 0.000000 3.230900 
# 
# 
# High freq. dielectric constant tensor:
#      x y z
#    x 1.769920 0.000000 -0.000250 
#    y 0.000000 1.767330 0.000000 
#    z -0.000250 0.000000 1.710430 
# 
# From -- ./inp_files/15895.got.cif
#   From: 2010.06.25/outbox.cif.g09.slc.cpg/sg10_8_cif.got.tgz:15895.got - 2010.06.27 22:07:45.
