data_PCOD8059196
_publ_section_title
;
Structure prediction by ZEFSAII (Michael W. Deem and Ramdas Pophale) SiO2 
 PCOD8059196
Probable space group: P 2/M
;
_chemical_formula_sum "Si O2"
_cell_formula_units_Z 32
_cell_length_a 12.004990
_cell_length_b 8.506405
_cell_length_c 15.454024
_cell_angle_alpha 90.000000
_cell_angle_beta 89.926627
_cell_angle_gamma 90.000000
_cell_volume 1578.152927
_symmetry_space_group_name_H-M "P 2/M"
_symmetry_group_IT_number 10
_symmetry_cell_setting 'monoclinic'
loop_
_space_group_symop_operation_xyz
x,y,z
-x,y,-z
-x,-y,-z
x,-y,z
loop_
_atom_site_type_symbol
_atom_site_label
_atom_site_fract_x
_atom_site_fract_y
_atom_site_fract_z
Si Si1 0.491541 0.816993 0.400862
Si Si2 0.273041 0.683440 0.845463
Si Si3 0.733401 0.684263 0.664656
Si Si4 0.125058 0.313165 0.498393
Si Si5 0.489358 0.319581 0.102060
Si Si6 0.123552 0.685112 0.997930
Si Si7 0.739755 0.181343 0.847497
Si Si8 0.720630 0.316330 0.347245
O O1 0.500000 0.762385 0.500000
O O2 0.395469 0.718295 0.354603
O O3 0.607425 0.780804 0.354458
O O4 0.462221 0.000000 0.393016
O O5 0.281887 0.500000 0.866845
O O6 0.397973 0.750402 0.856026
O O7 0.228920 0.714446 0.748413
O O8 0.189390 0.760311 0.915712
O O9 0.749736 0.500000 0.678273
O O10 0.809866 0.748215 0.586132
O O11 0.774381 0.772034 0.750507
O O12 0.120937 0.500000 0.498436
O O13 0.189812 0.253322 0.583657
O O14 0.000000 0.243397 0.500000
O O15 0.466484 0.500000 0.129493
O O16 0.390319 0.214121 0.138436
O O17 0.500000 0.303932 0.000000
O O18 0.114376 0.500000 0.985128
O O19 0.187142 0.718335 0.086484
O O20 0.000000 0.759894 0.000000
O O21 0.765338 0.000000 0.863274
O O22 0.694074 0.500000 0.361989
#
# Coordination Sequence:
#
# PCOD8059196 Si02
#       8
#     4   4   4   4   4   4   4   4
#     4  11  22  36  57  86 122 155 189 237 294 352
#     4   9  18  33  57  88 115 143 184 242 295 339
#     4  11  22  38  62  88 117 155 199 242 291 349
#     4   9  19  35  57  86 115 145 192 249 292 333
#     4  10  18  34  60  85 116 151 193 240 288 349
#     4  10  21  40  64  88 114 153 203 247 292 346
#     4  12  25  39  58  87 124 158 195 242 299 358
#     4  10  19  34  58  85 114 150 192 236 287 347
#
# _framework density 20.276869999999999
#
# number of rings (size 3 to 8) (size 9 to 14) (size 15 to 20)
#    0.000    1.750    2.500    2.625    0.000    3.000 
#    0.000    4.375    0.000    4.875    0.000    0.000 
#    0.000    0.000    0.000    0.000    0.000    0.000 
#
# Total GULP energy -396888.220911 kJ/mol
# GULP energy per Si atom -12402.756903 kJ/mol
# Density = 2.023072 g / cm^3
# Si number density = 20.276870 Si / 1000 Ang^3
#
#
#
# Elastic Constant Matrix: (Units=GPa)
#
#
# Indices 1 2 3 4 5 6 
#
# 1 150.0280 3.5388 63.2438 0.0000 -2.5448 0.0000
# 2 3.5388 27.1303 4.8966 0.0000 -4.8394 0.0000
# 3 63.2438 4.8966 145.6572 0.0000 -0.9207 0.0000
# 4 0.0000 0.0000 0.0000 15.6536 0.0000 0.3418
# 5 -2.5448 -4.8394 -0.9207 0.0000 13.4439 0.0000
# 6 0.0000 0.0000 0.0000 0.3418 0.0000 3.2552
#
#
#
# Elastic Compliance Matrix: (Units=1/GPa)
#
#
# Indices 1 2 3 4 5 6 
#
# 1 0.008183 -0.000209 -0.003538 0.000000 0.001231 0.000000
# 2 -0.000209 0.039617 -0.001152 0.000000 0.014143 0.000000
# 3 -0.003538 -0.001152 0.008437 0.000000 -0.000506 0.000000
# 4 0.000000 0.000000 0.000000 0.064030 0.000000 -0.006722
# 5 0.001231 0.014143 -0.000506 0.000000 0.079673 0.000000
# 6 0.000000 0.000000 0.000000 -0.006722 0.000000 0.307903
#
#
# Mechanical properties :
#
#
# Convention : Reuss Voigt Hill
#
# Bulk Modulus (GPa) = 21.53350 51.79710 36.66530
# Shear Modulus (GPa) = 9.37875 23.21296 16.29586
#
# Velocity S-wave (km/s) = 2.15299 3.38716 2.83798
# Velocity P-wave (km/s) = 4.10162 6.39512 5.37219
#
# Compressibility (1/GPa) = 0.04643927
#
# Stress axis : x y z
#
# Youngs Moduli (GPa) = 122.20892 25.24165 118.52318
#
# Poissons Ratio (x) = 0.00528 0.41935
# Poissons Ratio (y) = 0.02556 0.13649
# Poissons Ratio (z) = 0.43239 0.02907
#
# Static dielectric constant tensor:
#      x y z
#    x 3.314550 0.000000 0.309050 
#    y 0.000000 3.257200 0.000000 
#    z 0.309050 0.000000 3.582950 
# 
# 
# High freq. dielectric constant tensor:
#      x y z
#    x 1.789240 0.000000 -0.000140 
#    y 0.000000 1.753430 0.000000 
#    z -0.000140 0.000000 1.809740 
# 
# From -- ./inp_files/63786.got.cif
#   From: 2010.06.25/outbox.cif.g09.slc.cpg/sg10_32_cif.got.tgz:63786.got - 2010.06.27 22:07:45.
