data_PCOD8059793
_publ_section_title
;
Structure prediction by ZEFSAII (Michael W. Deem and Ramdas Pophale) SiO2 
 PCOD8059793
Probable space group: P 2/M
;
_chemical_formula_sum "Si O2"
_cell_formula_units_Z 32
_cell_length_a 23.679817
_cell_length_b 9.084169
_cell_length_c 17.334431
_cell_angle_alpha 90.000000
_cell_angle_beta 28.053231
_cell_angle_gamma 90.000000
_cell_volume 1753.639915
_symmetry_space_group_name_H-M "P 2/M"
_symmetry_group_IT_number 10
_symmetry_cell_setting 'monoclinic'
loop_
_space_group_symop_operation_xyz
x,y,z
-x,y,-z
-x,-y,-z
x,-y,z
loop_
_atom_site_type_symbol
_atom_site_label
_atom_site_fract_x
_atom_site_fract_y
_atom_site_fract_z
Si Si1 0.876045 0.673860 0.786230
Si Si2 0.409267 0.167904 0.449026
Si Si3 0.359390 0.662091 0.653673
Si Si4 0.327681 0.166926 0.380930
Si Si5 0.467965 0.671662 0.951503
Si Si6 0.888798 0.169779 0.464610
Si Si7 0.657673 0.673857 0.158036
Si Si8 0.778220 0.826976 0.761878
O O1 0.880849 0.500000 0.768783
O O2 0.871123 0.752994 0.709234
O O3 0.995467 0.727889 0.685511
O O4 0.761883 0.722963 0.974469
O O5 0.334121 0.231546 0.612063
O O6 0.323431 0.183791 0.478303
O O7 0.534336 0.249554 0.281531
O O8 0.440663 0.000000 0.429622
O O9 0.500000 0.654461 0.500000
O O10 0.309676 0.500000 0.692492
O O11 0.301497 0.719565 0.803959
O O12 0.421874 0.282523 0.234388
O O13 0.196527 0.202878 0.505343
O O14 0.364833 0.000000 0.312270
O O15 0.440763 0.500000 0.972834
O O16 0.500000 0.711799 0.000000
O O17 0.352479 0.761698 0.063998
O O18 0.817918 0.213072 0.627747
O O19 0.929215 0.000000 0.418830
O O20 0.634020 0.500000 0.183786
O O21 0.775935 0.000000 0.779448
#
# Coordination Sequence:
#
# PCOD8059793 Si02
#       8
#     4   4   4   4   4   4   4   4
#     4  11  23  37  55  78 104 131 172 227 267 299
#     4  10  19  30  51  83 109 130 166 211 252 298
#     4   8  15  30  51  73 103 139 166 195 249 314
#     4  10  21  37  54  74 105 144 177 209 255 315
#     4  11  22  34  52  79 107 133 169 218 263 300
#     4  10  22  39  55  71  98 140 183 215 253 311
#     4   9  19  35  52  74 106 140 167 199 255 317
#     4  11  22  37  57  76 101 139 179 213 258 318
#
# _framework density 18.247761000000001
#
# number of rings (size 3 to 8) (size 9 to 14) (size 15 to 20)
#    0.000    2.000    1.250    3.375    0.000    9.750 
#    0.000    0.000    0.000    0.750    0.000    5.250 
#    0.000    0.000    0.000    0.000    0.000    0.000 
#
# Total GULP energy -396860.283349 kJ/mol
# GULP energy per Si atom -12401.883855 kJ/mol
# Density = 1.820623 g / cm^3
# Si number density = 18.247761 Si / 1000 Ang^3
#
#
#
# Elastic Constant Matrix: (Units=GPa)
#
#
# Indices 1 2 3 4 5 6 
#
# 1 126.1323 51.5125 45.8896 0.0000 3.8146 0.0000
# 2 51.5125 73.2736 34.6292 0.0000 0.8362 0.0000
# 3 45.8896 34.6292 50.2957 0.0000 -2.7099 0.0000
# 4 0.0000 0.0000 0.0000 27.2578 0.0000 2.1707
# 5 3.8146 0.8362 -2.7099 0.0000 27.4568 0.0000
# 6 0.0000 0.0000 0.0000 2.1707 0.0000 20.5235
#
#
#
# Elastic Compliance Matrix: (Units=1/GPa)
#
#
# Indices 1 2 3 4 5 6 
#
# 1 0.013290 -0.005216 -0.008672 0.000000 -0.002543 0.000000
# 2 -0.005216 0.022387 -0.010710 0.000000 -0.001014 0.000000
# 3 -0.008672 -0.010710 0.035439 0.000000 0.005029 0.000000
# 4 0.000000 0.000000 0.000000 0.036998 0.000000 -0.003913
# 5 -0.002543 -0.001014 0.005029 0.000000 0.037301 0.000000
# 6 0.000000 0.000000 0.000000 -0.003913 0.000000 0.049139
#
#
# Mechanical properties :
#
#
# Convention : Reuss Voigt Hill
#
# Bulk Modulus (GPa) = 45.61606 57.08490 51.35048
# Shear Modulus (GPa) = 19.91580 22.89231 21.40406
#
# Velocity S-wave (km/s) = 3.30723 3.54577 3.42858
# Velocity P-wave (km/s) = 6.29573 6.93646 6.62385
#
# Compressibility (1/GPa) = 0.02192210
#
# Stress axis : x y z
#
# Youngs Moduli (GPa) = 75.24293 44.66825 28.21743
#
# Poissons Ratio (x) = 0.23299 0.24470
# Poissons Ratio (y) = 0.39246 0.30220
# Poissons Ratio (z) = 0.65249 0.47838
#
# Static dielectric constant tensor:
#      x y z
#    x 3.575010 0.000000 0.229650 
#    y 0.000000 3.386970 0.000000 
#    z 0.229650 0.000000 3.279840 
# 
# 
# High freq. dielectric constant tensor:
#      x y z
#    x 1.710640 0.000000 0.012270 
#    y 0.000000 1.712210 0.000000 
#    z 0.012270 0.000000 1.681170 
# 
# From -- ./inp_files/79936.got.cif
#   From: 2010.06.25/outbox.cif.g09.slc.cpg/sg10_40_cif.got.tgz:79936.got - 2010.06.27 22:07:45.
