data_PCOD8059134
_publ_section_title
;
Structure prediction by ZEFSAII (Michael W. Deem and Ramdas Pophale) SiO2 
 PCOD8059134
Probable space group: P 2/M
;
_chemical_formula_sum "Si O2"
_cell_formula_units_Z 30
_cell_length_a 17.422299
_cell_length_b 13.822131
_cell_length_c 17.031278
_cell_angle_alpha 90.000000
_cell_angle_beta 21.689297
_cell_angle_gamma 90.000000
_cell_volume 1515.752035
_symmetry_space_group_name_H-M "P 2/M"
_symmetry_group_IT_number 10
_symmetry_cell_setting 'monoclinic'
loop_
_space_group_symop_operation_xyz
x,y,z
-x,y,-z
-x,-y,-z
x,-y,z
loop_
_atom_site_type_symbol
_atom_site_label
_atom_site_fract_x
_atom_site_fract_y
_atom_site_fract_z
Si Si1 0.438693 0.286204 0.223867
Si Si2 0.794643 0.894956 0.536015
Si Si3 0.180487 0.386649 0.603648
Si Si4 0.453557 0.727479 0.455575
Si Si5 0.799894 0.254222 0.000784
Si Si6 0.500000 0.736242 0.000000
Si Si7 0.171381 0.894498 0.270185
Si Si8 0.843679 0.889903 0.313526
O O1 0.341889 0.183370 0.289391
O O2 0.277046 0.346064 0.430464
O O3 0.650205 0.260825 0.067829
O O4 0.462774 0.332489 0.112966
O O5 0.735256 0.888651 0.501184
O O6 0.041702 0.876967 0.312422
O O7 0.732754 0.000000 0.629001
O O8 0.154258 0.500000 0.619374
O O9 0.332419 0.361329 0.530773
O O10 0.957780 0.342332 0.835998
O O11 0.500000 0.697877 0.500000
O O12 0.309646 0.824498 0.593713
O O13 0.670450 0.737947 0.204068
O O14 0.926719 0.154783 0.893320
O O15 0.315126 0.803909 0.146726
O O16 0.000000 0.897493 0.500000
O O17 0.285325 0.000000 0.157627
O O18 0.860855 0.000000 0.263904
#
# Coordination Sequence:
#
# PCOD8059134 Si02
#       8
#     4   4   4   4   4   2   4   4
#     4  11  22  38  58  89 119 155 200 249 299 350
#     4  10  18  34  54  79 119 160 200 243 278 329
#     4  10  23  44  66  86 113 148 193 248 307 367
#     4  10  22  40  63  94 128 151 187 242 294 352
#     4  10  20  39  63  85 116 158 203 235 295 349
#     4  12  23  30  59  84 116 160 200 242 300 350
#     4  10  20  32  47  75 118 158 199 243 284 332
#     4  10  20  35  56  86 124 168 208 238 273 332
#
# _framework density 19.792155999999999
#
# number of rings (size 3 to 8) (size 9 to 14) (size 15 to 20)
#    0.000    1.733    5.333    1.000    0.000    6.400 
#    0.000    1.667    0.000    0.800    0.000    0.000 
#    0.000    0.000    0.000    0.000    0.000    0.000 
#
# Total GULP energy -371664.957318 kJ/mol
# GULP energy per Si atom -12388.831911 kJ/mol
# Density = 1.974711 g / cm^3
# Si number density = 19.792156 Si / 1000 Ang^3
#
#
#
# Elastic Constant Matrix: (Units=GPa)
#
#
# Indices 1 2 3 4 5 6 
#
# 1 123.7173 21.8117 39.3649 0.0000 16.3049 0.0000
# 2 21.8117 108.4495 42.4419 0.0000 -2.7520 0.0000
# 3 39.3649 42.4419 103.6286 0.0000 0.9872 0.0000
# 4 0.0000 0.0000 0.0000 37.4850 0.0000 1.2854
# 5 16.3049 -2.7520 0.9872 0.0000 25.0396 0.0000
# 6 0.0000 0.0000 0.0000 1.2854 0.0000 13.2253
#
#
#
# Elastic Compliance Matrix: (Units=1/GPa)
#
#
# Indices 1 2 3 4 5 6 
#
# 1 0.010207 -0.000867 -0.003459 0.000000 -0.006605 0.000000
# 2 -0.000867 0.011103 -0.004237 0.000000 0.001952 0.000000
# 3 -0.003459 -0.004237 0.012687 0.000000 0.001287 0.000000
# 4 0.000000 0.000000 0.000000 0.026767 0.000000 -0.002601
# 5 -0.006605 0.001952 0.001287 0.000000 0.044402 0.000000
# 6 0.000000 0.000000 0.000000 -0.002601 0.000000 0.075866
#
#
# Mechanical properties :
#
#
# Convention : Reuss Voigt Hill
#
# Bulk Modulus (GPa) = 59.27246 60.33694 59.80470
# Shear Modulus (GPa) = 24.53634 30.62843 27.58238
#
# Velocity S-wave (km/s) = 3.52476 3.93810 3.73715
# Velocity P-wave (km/s) = 6.82478 7.15749 6.99311
#
# Compressibility (1/GPa) = 0.01687124
#
# Stress axis : x y z
#
# Youngs Moduli (GPa) = 97.97210 90.06820 78.82191
#
# Poissons Ratio (x) = 0.07806 0.27268
# Poissons Ratio (y) = 0.08491 0.33394
# Poissons Ratio (z) = 0.33893 0.38158
#
# Static dielectric constant tensor:
#      x y z
#    x 3.793380 0.000000 -0.120000 
#    y 0.000000 3.391560 0.000000 
#    z -0.120000 0.000000 3.718960 
# 
# 
# High freq. dielectric constant tensor:
#      x y z
#    x 1.777750 0.000000 -0.004340 
#    y 0.000000 1.739800 0.000000 
#    z -0.004340 0.000000 1.775240 
# 
# From -- ./inp_files/79060.got.cif
#   From: 2010.06.25/outbox.cif.g09.slc.cpg/sg10_40_cif.got.tgz:79060.got - 2010.06.27 22:07:45.
