data_PCOD8059709
_publ_section_title
;
Structure prediction by ZEFSAII (Michael W. Deem and Ramdas Pophale) SiO2 
 PCOD8059709
Probable space group: P 2/M
;
_chemical_formula_sum "Si O2"
_cell_formula_units_Z 32
_cell_length_a 11.799774
_cell_length_b 9.272295
_cell_length_c 23.613083
_cell_angle_alpha 90.000000
_cell_angle_beta 44.639035
_cell_angle_gamma 90.000000
_cell_volume 1815.286794
_symmetry_space_group_name_H-M "P 2/M"
_symmetry_group_IT_number 10
_symmetry_cell_setting 'monoclinic'
loop_
_space_group_symop_operation_xyz
x,y,z
-x,y,-z
-x,-y,-z
x,-y,z
loop_
_atom_site_type_symbol
_atom_site_label
_atom_site_fract_x
_atom_site_fract_y
_atom_site_fract_z
Si Si1 0.163954 0.828901 0.683569
Si Si2 0.583950 0.333395 0.218324
Si Si3 0.805216 0.168801 0.828478
Si Si4 0.231668 0.831814 0.032221
Si Si5 0.476589 0.172033 0.149974
Si Si6 0.451908 0.667125 0.640207
Si Si7 0.052710 0.664456 0.917308
Si Si8 0.649691 0.841799 0.488557
O O1 0.288983 0.749498 0.680657
O O2 0.200207 0.793662 0.604311
O O3 0.985403 0.766243 0.759277
O O4 0.180120 0.000000 0.689331
O O5 0.579114 0.500000 0.201051
O O6 0.480452 0.240721 0.210823
O O7 0.511775 0.311404 0.306381
O O8 0.766938 0.275756 0.153226
O O9 0.724772 0.201790 0.918016
O O10 0.685391 0.229862 0.823046
O O11 0.822393 0.000000 0.812916
O O12 0.061608 0.757503 0.081517
O O13 0.206910 0.000000 0.030817
O O14 0.371706 0.772681 0.941379
O O15 0.478302 0.000000 0.154164
O O16 0.429539 0.500000 0.632595
O O17 0.610608 0.727925 0.551836
O O18 0.042466 0.500000 0.900182
O O19 0.000000 0.682783 0.000000
O O20 0.500000 0.851916 0.500000
O O21 0.681634 0.000000 0.504326
#
# Coordination Sequence:
#
# PCOD8059709 Si02
#       8
#     4   4   4   4   4   4   4   4
#     4   9  17  31  51  73  99 128 155 189 235 285
#     4  10  21  35  48  67  97 130 162 196 236 280
#     4   9  18  33  51  71  96 125 158 199 242 278
#     4  10  19  31  50  74  97 121 157 203 242 280
#     4  10  20  33  50  70  93 126 165 200 236 279
#     4  10  19  30  48  74 101 126 154 192 237 284
#     4  10  19  32  49  66  93 130 158 189 236 282
#     4   8  15  28  47  72  99 125 153 187 232 285
#
# _framework density 17.628069
#
# number of rings (size 3 to 8) (size 9 to 14) (size 15 to 20)
#    0.000    2.500    1.250    2.250    0.000    5.500 
#    0.000    1.250    0.000    2.250    0.000    5.250 
#    0.000    0.000    0.000    0.000    0.000    0.000 
#
# Total GULP energy -396723.073931 kJ/mol
# GULP energy per Si atom -12397.596060 kJ/mol
# Density = 1.758795 g / cm^3
# Si number density = 17.628069 Si / 1000 Ang^3
#
#
#
# Elastic Constant Matrix: (Units=GPa)
#
#
# Indices 1 2 3 4 5 6 
#
# 1 90.2341 35.6620 27.7703 0.0000 12.6197 0.0000
# 2 35.6620 52.1690 31.6274 0.0000 9.5680 0.0000
# 3 27.7703 31.6274 87.6707 0.0000 10.8940 0.0000
# 4 0.0000 0.0000 0.0000 23.5434 0.0000 -1.0051
# 5 12.6197 9.5680 10.8940 0.0000 18.4945 0.0000
# 6 0.0000 0.0000 0.0000 -1.0051 0.0000 -9.5754
#
#
#
# Elastic Compliance Matrix: (Units=1/GPa)
#
#
# Indices 1 2 3 4 5 6 
#
# 1 0.015780 -0.009178 -0.001014 0.000000 -0.005422 0.000000
# 2 -0.009178 0.031042 -0.007633 0.000000 -0.005301 0.000000
# 3 -0.001014 -0.007633 0.015002 0.000000 -0.004197 0.000000
# 4 0.000000 0.000000 0.000000 0.042285 0.000000 -0.004438
# 5 -0.005422 -0.005301 -0.004197 0.000000 0.062984 0.000000
# 6 0.000000 0.000000 0.000000 -0.004438 0.000000 -0.103968
#
#
# Mechanical properties :
#
#
# Convention : Reuss Voigt Hill
#
# Bulk Modulus (GPa) = 38.20330 46.68814 42.44572
# Shear Modulus (GPa) = 46.51210 15.49343 31.00277
#
# Velocity S-wave (km/s) = 5.14223 2.96785 4.19825
# Velocity P-wave (km/s) = 7.54822 6.18763 6.90154
#
# Compressibility (1/GPa) = 0.02617575
#
# Stress axis : x y z
#
# Youngs Moduli (GPa) = 63.37219 32.21462 66.65626
#
# Poissons Ratio (x) = 0.29566 0.06757
# Poissons Ratio (y) = 0.58162 0.50876
# Poissons Ratio (z) = 0.06424 0.24588
#
# Static dielectric constant tensor:
#      x y z
#    x 3.152350 0.000000 -0.083940 
#    y 0.000000 3.113800 0.000000 
#    z -0.083940 0.000000 3.622620 
# 
# 
# High freq. dielectric constant tensor:
#      x y z
#    x 1.656530 0.000000 0.005130 
#    y 0.000000 1.663300 0.000000 
#    z 0.005130 0.000000 1.688790 
# 
# From -- ./inp_files/83573.got.cif
#   From: 2010.06.25/outbox.cif.g09.slc.cpg/sg10_42_cif.got.tgz:83573.got - 2010.06.27 22:07:45.
