data_PCOD8059144
_publ_section_title
;
Structure prediction by ZEFSAII (Michael W. Deem and Ramdas Pophale) SiO2 
 PCOD8059144
Probable space group: P 2/M
;
_chemical_formula_sum "Si O2"
_cell_formula_units_Z 28
_cell_length_a 10.720254
_cell_length_b 11.366055
_cell_length_c 12.203355
_cell_angle_alpha 90.000000
_cell_angle_beta 100.435307
_cell_angle_gamma 90.000000
_cell_volume 1462.348197
_symmetry_space_group_name_H-M "P 2/M"
_symmetry_group_IT_number 10
_symmetry_cell_setting 'monoclinic'
loop_
_space_group_symop_operation_xyz
x,y,z
-x,y,-z
-x,-y,-z
x,-y,z
loop_
_atom_site_type_symbol
_atom_site_label
_atom_site_fract_x
_atom_site_fract_y
_atom_site_fract_z
Si Si1 0.146633 0.243584 0.537232
Si Si2 0.358726 0.864227 0.972635
Si Si3 0.675067 0.867626 0.280214
Si Si4 0.381421 0.500000 0.398171
Si Si5 0.846916 0.500000 0.476895
Si Si6 0.127868 0.139475 0.076199
Si Si7 0.459756 0.253001 0.367429
Si Si8 0.785209 0.865712 0.675686
O O1 0.192749 0.150420 0.634554
O O2 0.188105 0.375283 0.584990
O O3 0.200100 0.221430 0.424351
O O4 0.000000 0.226071 0.500000
O O5 0.300022 0.847328 0.843188
O O6 0.375488 0.000000 0.007738
O O7 0.500000 0.805220 0.000000
O O8 0.255161 0.806939 0.038883
O O9 0.581036 0.769084 0.311376
O O10 0.625541 0.000000 0.294497
O O11 0.500000 0.500000 0.500000
O O12 0.238172 0.500000 0.425273
O O13 0.399739 0.381157 0.329990
O O14 0.000000 0.500000 0.500000
O O15 0.128505 0.170488 0.205851
O O16 0.130466 0.000000 0.059136
O O17 0.000000 0.191805 0.000000
O O18 0.500000 0.240797 0.500000
O O19 0.361862 0.150900 0.315884
O O20 0.812732 0.000000 0.646025
#
# Coordination Sequence:
#
# PCOD8059144 Si02
#       8
#     4   4   4   2   2   4   4   4
#     4  11  23  36  54  82 112 148 186 222 280 334
#     4   9  18  34  52  72 105 149 191 220 256 319
#     4  11  22  34  53  83 120 150 176 224 283 341
#     4  10  18  34  56  76 105 144 193 239 256 313
#     4  10  20  40  58  76 109 148 193 233 263 330
#     4   9  19  34  52  75 105 147 190 224 259 318
#     4  11  20  33  52  80 110 142 185 219 277 325
#     4  11  21  33  53  81 116 144 173 221 279 338
#
# _framework density 19.147288
#
# number of rings (size 3 to 8) (size 9 to 14) (size 15 to 20)
#    0.000    1.714    2.857    2.571    2.000    4.000 
#    0.000    0.000    0.000    0.000    0.000   13.000 
#    0.000    0.000    0.000    0.000    0.000    0.000 
#
# Total GULP energy -346878.845664 kJ/mol
# GULP energy per Si atom -12388.530202 kJ/mol
# Density = 1.910371 g / cm^3
# Si number density = 19.147288 Si / 1000 Ang^3
#
#
#
# Elastic Constant Matrix: (Units=GPa)
#
#
# Indices 1 2 3 4 5 6 
#
# 1 99.5465 24.2676 26.9177 0.0000 6.1974 0.0000
# 2 24.2676 62.9732 27.3257 0.0000 -1.9544 0.0000
# 3 26.9177 27.3257 88.3971 0.0000 14.7553 0.0000
# 4 0.0000 0.0000 0.0000 -6.0491 0.0000 -6.7721
# 5 6.1974 -1.9544 14.7553 0.0000 28.0583 0.0000
# 6 0.0000 0.0000 0.0000 -6.7721 0.0000 17.5895
#
#
#
# Elastic Compliance Matrix: (Units=1/GPa)
#
#
# Indices 1 2 3 4 5 6 
#
# 1 0.011606 -0.003596 -0.002141 0.000000 -0.001688 0.000000
# 2 -0.003596 0.020029 -0.005988 0.000000 0.005338 0.000000
# 3 -0.002141 -0.005988 0.015135 0.000000 -0.007903 0.000000
# 4 0.000000 0.000000 0.000000 -0.115521 0.000000 -0.044477
# 5 -0.001688 0.005338 -0.007903 0.000000 0.040541 0.000000
# 6 0.000000 0.000000 0.000000 -0.044477 0.000000 0.039728
#
#
# Mechanical properties :
#
#
# Convention : Reuss Voigt Hill
#
# Bulk Modulus (GPa) = 42.87921 45.32655 44.10288
# Shear Modulus (GPa) = 116.98333 19.41345 68.19839
#
# Velocity S-wave (km/s) = 7.82491 3.18764 5.97454
# Velocity P-wave (km/s) = 10.20206 6.10508 8.40696
#
# Compressibility (1/GPa) = 0.02332133
#
# Stress axis : x y z
#
# Youngs Moduli (GPa) = 86.16096 49.92656 66.07387
#
# Poissons Ratio (x) = 0.17954 0.14145
# Poissons Ratio (y) = 0.30984 0.39562
# Poissons Ratio (z) = 0.18445 0.29894
#
# Static dielectric constant tensor:
#      x y z
#    x 1.223530 0.000000 1.105500 
#    y 0.000000 3.497700 0.000000 
#    z 1.105500 0.000000 3.029680 
# 
# 
# High freq. dielectric constant tensor:
#      x y z
#    x 1.762740 0.000000 0.002050 
#    y 0.000000 1.710890 0.000000 
#    z 0.002050 0.000000 1.720890 
# 
# From -- ./inp_files/46161.got.cif
#   From: 2010.06.25/outbox.cif.g09.slc.cpg/sg10_24_cif.got.tgz:46161.got - 2010.06.27 22:07:45.
