data_PCOD8059781
_publ_section_title
;
Structure prediction by ZEFSAII (Michael W. Deem and Ramdas Pophale) SiO2 
 PCOD8059781
Probable space group: P 2/M
;
_chemical_formula_sum "Si O2"
_cell_formula_units_Z 32
_cell_length_a 14.301649
_cell_length_b 9.060732
_cell_length_c 14.308132
_cell_angle_alpha 90.000000
_cell_angle_beta 86.684684
_cell_angle_gamma 90.000000
_cell_volume 1850.993489
_symmetry_space_group_name_H-M "P 2/M"
_symmetry_group_IT_number 10
_symmetry_cell_setting 'monoclinic'
loop_
_space_group_symop_operation_xyz
x,y,z
-x,y,-z
-x,-y,-z
x,-y,z
loop_
_atom_site_type_symbol
_atom_site_label
_atom_site_fract_x
_atom_site_fract_y
_atom_site_fract_z
Si Si1 0.773046 0.173801 0.856285
Si Si2 0.683806 0.173990 0.054181
Si Si3 0.605445 0.673990 0.517589
Si Si4 0.683510 0.825496 0.341605
Si Si5 0.442298 0.672250 0.803720
Si Si6 0.354312 0.329703 0.274897
Si Si7 0.164668 0.826979 0.807361
Si Si8 0.023736 0.175867 0.102253
O O1 0.732059 0.241895 0.764221
O O2 0.876960 0.239472 0.868167
O O3 0.778092 0.000000 0.843325
O O4 0.705350 0.216232 0.946405
O O5 0.591774 0.260522 0.095393
O O6 0.770523 0.231221 0.111915
O O7 0.666630 0.000000 0.068200
O O8 0.500000 0.723270 0.500000
O O9 0.617171 0.500000 0.502971
O O10 0.677150 0.757308 0.444909
O O11 0.629802 0.725582 0.620473
O O12 0.604931 0.755138 0.280278
O O13 0.787069 0.786824 0.294472
O O14 0.667038 0.000000 0.345493
O O15 0.417271 0.500000 0.797874
O O16 0.552970 0.698893 0.791319
O O17 0.326923 0.500000 0.276739
O O18 0.058862 0.764697 0.823674
O O19 0.157452 0.000000 0.821162
O O20 0.030410 0.000000 0.100080
O O21 0.000000 0.234255 0.000000
#
# Coordination Sequence:
#
# PCOD8059781 Si02
#       8
#     4   4   4   4   4   4   4   4
#     4  10  20  32  51  77 103 132 170 212 252 296
#     4   9  17  30  47  73 104 132 164 209 252 285
#     4  10  19  36  56  72  95 132 176 209 243 302
#     4  10  19  30  50  81 107 125 155 211 264 295
#     4  10  19  33  50  69  97 139 178 201 236 301
#     4  10  22  37  51  68  98 137 171 208 250 296
#     4   8  14  26  46  74 105 129 157 198 248 298
#     4   9  14  26  51  77 100 132 168 201 244 299
#
# _framework density 17.288012999999999
#
# number of rings (size 3 to 8) (size 9 to 14) (size 15 to 20)
#    0.000    2.500    2.500    1.500    0.000    2.750 
#    0.000    2.500    0.000    4.875    0.000    5.250 
#    0.000    0.000    0.000    0.000    0.000    0.000 
#
# Total GULP energy -396691.678443 kJ/mol
# GULP energy per Si atom -12396.614951 kJ/mol
# Density = 1.724866 g / cm^3
# Si number density = 17.288013 Si / 1000 Ang^3
#
#
#
# Elastic Constant Matrix: (Units=GPa)
#
#
# Indices 1 2 3 4 5 6 
#
# 1 107.9439 33.5208 68.7884 0.0000 0.5747 0.0000
# 2 33.5208 40.9895 38.1142 0.0000 -2.9035 0.0000
# 3 68.7884 38.1142 115.6522 0.0000 -0.3625 0.0000
# 4 0.0000 0.0000 0.0000 21.2051 0.0000 9.7184
# 5 0.5747 -2.9035 -0.3625 0.0000 26.1733 0.0000
# 6 0.0000 0.0000 0.0000 9.7184 0.0000 7.1561
#
#
#
# Elastic Compliance Matrix: (Units=1/GPa)
#
#
# Indices 1 2 3 4 5 6 
#
# 1 0.015935 -0.006194 -0.007440 0.000000 -0.001140 0.000000
# 2 -0.006194 0.037954 -0.008811 0.000000 0.004224 0.000000
# 3 -0.007440 -0.008811 0.015974 0.000000 -0.000593 0.000000
# 4 0.000000 0.000000 0.000000 0.124889 0.000000 -0.169606
# 5 -0.001140 0.004224 -0.000593 0.000000 0.038692 0.000000
# 6 0.000000 0.000000 0.000000 -0.169606 0.000000 0.370073
#
#
# Mechanical properties :
#
#
# Convention : Reuss Voigt Hill
#
# Bulk Modulus (GPa) = 40.04364 60.60361 50.32362
# Shear Modulus (GPa) = 7.61347 19.18440 13.39894
#
# Velocity S-wave (km/s) = 2.10082 3.33482 2.78698
# Velocity P-wave (km/s) = 5.39422 7.06820 6.28717
#
# Compressibility (1/GPa) = 0.02497275
#
# Stress axis : x y z
#
# Youngs Moduli (GPa) = 62.75518 26.34798 62.60275
#
# Poissons Ratio (x) = 0.16320 0.46578
# Poissons Ratio (y) = 0.38870 0.55157
# Poissons Ratio (z) = 0.46691 0.23214
#
# Static dielectric constant tensor:
#      x y z
#    x 3.324600 0.000000 -0.242170 
#    y 0.000000 2.966300 0.000000 
#    z -0.242170 0.000000 3.280420 
# 
# 
# High freq. dielectric constant tensor:
#      x y z
#    x 1.655950 0.000000 -0.016420 
#    y 0.000000 1.641990 0.000000 
#    z -0.016420 0.000000 1.662630 
# 
# From -- ./inp_files/65999.got.cif
#   From: 2010.06.25/outbox.cif.g09.slc.cpg/sg10_33_cif.got.tgz:65999.got - 2010.06.27 22:07:45.
