data_PCOD8059547
_publ_section_title
;
Structure prediction by ZEFSAII (Michael W. Deem and Ramdas Pophale) SiO2 
 PCOD8059547
Probable space group: P 2/M
;
_chemical_formula_sum "Si O2"
_cell_formula_units_Z 32
_cell_length_a 10.023381
_cell_length_b 10.191405
_cell_length_c 24.630985
_cell_angle_alpha 90.000000
_cell_angle_beta 48.831915
_cell_angle_gamma 90.000000
_cell_volume 1894.083540
_symmetry_space_group_name_H-M "P 2/M"
_symmetry_group_IT_number 10
_symmetry_cell_setting 'monoclinic'
loop_
_space_group_symop_operation_xyz
x,y,z
-x,y,-z
-x,-y,-z
x,-y,z
loop_
_atom_site_type_symbol
_atom_site_label
_atom_site_fract_x
_atom_site_fract_y
_atom_site_fract_z
Si Si1 0.365727 0.843551 0.369067
Si Si2 0.038000 0.152495 0.387823
Si Si3 0.255180 0.644476 0.024506
Si Si4 0.728549 0.150933 0.776243
Si Si5 0.374010 0.355847 0.115105
Si Si6 0.642820 0.843683 0.505921
Si Si7 0.404235 0.845586 0.789225
Si Si8 0.972851 0.848780 0.070864
O O1 0.176325 0.789676 0.395884
O O2 0.405916 0.797426 0.419758
O O3 0.526995 0.791358 0.287693
O O4 0.357118 0.000000 0.367686
O O5 0.109581 0.175718 0.308016
O O6 0.840573 0.214585 0.442556
O O7 0.018775 0.000000 0.405966
O O8 0.178740 0.500000 0.028584
O O9 0.416857 0.680457 0.940564
O O10 0.318167 0.637374 0.068566
O O11 0.114760 0.759670 0.061883
O O12 0.745642 0.247117 0.822776
O O13 0.546337 0.192085 0.796485
O O14 0.726771 0.000000 0.796487
O O15 0.344824 0.500000 0.149778
O O16 0.500000 0.787889 0.500000
O O17 0.643017 0.000000 0.501573
O O18 0.215009 0.790044 0.858467
O O19 0.389119 0.000000 0.789301
O O20 0.998296 0.000000 0.081679
O O21 0.000000 0.832835 0.000000
#
# Coordination Sequence:
#
# PCOD8059547 Si02
#       8
#     4   4   4   4   4   4   4   4
#     4   8  13  23  38  52  76 120 156 179 216 269
#     4   8  14  24  38  58  83 112 151 184 213 264
#     4   9  19  34  48  63  86 118 153 187 225 271
#     4   9  16  28  47  68  90 116 147 185 223 265
#     4   9  18  33  49  64  87 117 150 188 227 267
#     4   9  15  22  33  54  85 118 148 182 223 265
#     4   8  15  27  41  61  89 119 150 183 226 271
#     4  10  19  30  45  67  93 119 150 189 228 269
#
# _framework density 16.894714
#
# number of rings (size 3 to 8) (size 9 to 14) (size 15 to 20)
#    0.000    3.250    0.000    3.375    0.000    3.750 
#    2.250    1.875    0.000    0.000    0.000    0.000 
#    0.000    9.500    0.000    0.000    0.000    0.500 
#
# Total GULP energy -396422.396204 kJ/mol
# GULP energy per Si atom -12388.199881 kJ/mol
# Density = 1.685626 g / cm^3
# Si number density = 16.894714 Si / 1000 Ang^3
#
#
#
# Elastic Constant Matrix: (Units=GPa)
#
#
# Indices 1 2 3 4 5 6 
#
# 1 71.9576 19.5000 44.8456 0.0000 -6.1436 0.0000
# 2 19.5000 40.8330 31.9854 0.0000 0.8469 0.0000
# 3 44.8456 31.9854 104.5736 0.0000 -3.2767 0.0000
# 4 0.0000 0.0000 0.0000 0.4594 0.0000 9.1410
# 5 -6.1436 0.8469 -3.2767 0.0000 26.7466 0.0000
# 6 0.0000 0.0000 0.0000 9.1410 0.0000 -5.9437
#
#
#
# Elastic Compliance Matrix: (Units=1/GPa)
#
#
# Indices 1 2 3 4 5 6 
#
# 1 0.019734 -0.003901 -0.007151 0.000000 0.003780 0.000000
# 2 -0.003901 0.033111 -0.008548 0.000000 -0.002992 0.000000
# 3 -0.007151 -0.008548 0.015260 0.000000 0.000498 0.000000
# 4 0.000000 0.000000 0.000000 0.068882 0.000000 0.105936
# 5 0.003780 -0.002992 0.000498 0.000000 0.038412 0.000000
# 6 0.000000 0.000000 0.000000 0.105936 0.000000 -0.005324
#
#
# Mechanical properties :
#
#
# Convention : Reuss Voigt Hill
#
# Bulk Modulus (GPa) = 34.59757 45.55847 40.07802
# Shear Modulus (GPa) = 22.84052 12.32134 17.58093
#
# Velocity S-wave (km/s) = 3.68085 2.70349 3.22936
# Velocity P-wave (km/s) = 6.21190 6.06381 6.13830
#
# Compressibility (1/GPa) = 0.02890376
#
# Stress axis : x y z
#
# Youngs Moduli (GPa) = 50.67499 30.20140 65.53251
#
# Poissons Ratio (x) = 0.11781 0.46863
# Poissons Ratio (y) = 0.19767 0.56020
# Poissons Ratio (z) = 0.36238 0.25818
#
# Static dielectric constant tensor:
#      x y z
#    x 3.241580 0.000000 -0.249180 
#    y 0.000000 2.727230 0.000000 
#    z -0.249180 0.000000 3.627730 
# 
# 
# High freq. dielectric constant tensor:
#      x y z
#    x 1.639130 0.000000 -0.000980 
#    y 0.000000 1.591360 0.000000 
#    z -0.000980 0.000000 1.663290 
# 
# From -- ./inp_files/87996.got.cif
#   From: 2010.06.25/outbox.cif.g09.slc.cpg/sg10_44_cif.got.tgz:87996.got - 2010.06.27 22:07:45.
