data_PCOD8059122
_publ_section_title
;
Structure prediction by ZEFSAII (Michael W. Deem and Ramdas Pophale) SiO2 
 PCOD8059122
Probable space group: P 2/M
;
_chemical_formula_sum "Si O2"
_cell_formula_units_Z 24
_cell_length_a 8.884299
_cell_length_b 13.625633
_cell_length_c 12.932868
_cell_angle_alpha 90.000000
_cell_angle_beta 46.092258
_cell_angle_gamma 90.000000
_cell_volume 1127.932242
_symmetry_space_group_name_H-M "P 2/M"
_symmetry_group_IT_number 10
_symmetry_cell_setting 'monoclinic'
loop_
_space_group_symop_operation_xyz
x,y,z
-x,y,-z
-x,-y,-z
x,-y,z
loop_
_atom_site_type_symbol
_atom_site_label
_atom_site_fract_x
_atom_site_fract_y
_atom_site_fract_z
Si Si1 0.924422 0.115250 0.719433
Si Si2 0.918712 0.775402 0.928921
Si Si3 0.127945 0.611836 0.704274
Si Si4 0.654184 0.214910 0.510053
Si Si5 0.159647 0.606580 0.344688
Si Si6 0.450878 0.229190 0.210813
O O1 0.959557 0.143712 0.822113
O O2 0.715355 0.159050 0.767770
O O3 0.132608 0.156704 0.565951
O O4 0.910434 0.000000 0.712801
O O5 0.043564 0.673662 0.843644
O O6 0.669665 0.769575 0.049492
O O7 0.000000 0.814692 0.000000
O O8 0.206826 0.500000 0.695560
O O9 0.299929 0.674782 0.557518
O O10 0.926207 0.601336 0.729271
O O11 0.500000 0.162937 0.500000
O O12 0.525670 0.210273 0.677989
O O13 0.203641 0.500000 0.371918
O O14 0.378132 0.659540 0.235595
O O15 0.000000 0.662093 0.500000
#
# Coordination Sequence:
#
# PCOD8059122 Si02
#       6
#     4   4   4   4   4   4
#     4  11  25  45  67  92 120 157 209 261 312 375
#     4  11  25  43  62  90 129 167 203 253 315 371
#     4  10  21  39  61  90 130 170 210 251 297 358
#     4  11  23  41  65  95 130 164 201 252 313 368
#     4  10  18  33  60  94 124 158 207 258 303 352
#     4  12  21  39  67  93 122 162 210 259 304 361
#
# _framework density 21.277874000000001
#
# number of rings (size 3 to 8) (size 9 to 14) (size 15 to 20)
#    0.000    1.167    5.000    3.000    0.000    4.667 
#    0.000    5.000    0.000    0.000    0.000    0.000 
#    0.000    0.000    0.000    0.000    0.000    0.000 
#
# Total GULP energy -297375.171636 kJ/mol
# GULP energy per Si atom -12390.632151 kJ/mol
# Density = 2.122944 g / cm^3
# Si number density = 21.277874 Si / 1000 Ang^3
#
#
#
# Elastic Constant Matrix: (Units=GPa)
#
#
# Indices 1 2 3 4 5 6 
#
# 1 83.0700 15.2163 -6.3720 0.0000 11.3535 0.0000
# 2 15.2163 108.0829 19.6597 0.0000 -0.9712 0.0000
# 3 -6.3720 19.6597 65.7254 0.0000 6.6909 0.0000
# 4 0.0000 0.0000 0.0000 9.8175 0.0000 3.6801
# 5 11.3535 -0.9712 6.6909 0.0000 39.3993 0.0000
# 6 0.0000 0.0000 0.0000 3.6801 0.0000 12.4427
#
#
#
# Elastic Compliance Matrix: (Units=1/GPa)
#
#
# Indices 1 2 3 4 5 6 
#
# 1 0.013238 -0.002342 0.002420 0.000000 -0.004284 0.000000
# 2 -0.002342 0.010221 -0.003438 0.000000 0.001511 0.000000
# 3 0.002420 -0.003438 0.016849 0.000000 -0.003643 0.000000
# 4 0.000000 0.000000 0.000000 0.114559 0.000000 -0.033883
# 5 -0.004284 0.001511 -0.003643 0.000000 0.027272 0.000000
# 6 0.000000 0.000000 0.000000 -0.033883 0.000000 0.090390
#
#
# Mechanical properties :
#
#
# Convention : Reuss Voigt Hill
#
# Bulk Modulus (GPa) = 29.77342 34.87626 32.32484
# Shear Modulus (GPa) = 17.21494 27.55685 22.38589
#
# Velocity S-wave (km/s) = 2.84747 3.60265 3.24709
# Velocity P-wave (km/s) = 4.98336 5.80791 5.41136
#
# Compressibility (1/GPa) = 0.03358701
#
# Stress axis : x y z
#
# Youngs Moduli (GPa) = 75.53896 97.83878 59.35151
#
# Poissons Ratio (x) = 0.22918 -0.14364
# Poissons Ratio (y) = 0.17694 0.20406
# Poissons Ratio (z) = -0.18282 0.33639
#
# Static dielectric constant tensor:
#      x y z
#    x 3.872100 0.000000 -0.065840 
#    y 0.000000 3.894870 0.000000 
#    z -0.065840 0.000000 1.224100 
# 
# 
# High freq. dielectric constant tensor:
#      x y z
#    x 1.842130 0.000000 0.005000 
#    y 0.000000 1.811890 0.000000 
#    z 0.005000 0.000000 1.835790 
# 
# From -- ./inp_files/61685.got.cif
#   From: 2010.06.25/outbox.cif.g09.slc.cpg/sg10_31_cif.got.tgz:61685.got - 2010.06.27 22:07:45.
