data_PCOD8059845
_publ_section_title
;
Structure prediction by ZEFSAII (Michael W. Deem and Ramdas Pophale) SiO2 
 PCOD8059845
Probable space group: P 2/M
;
_chemical_formula_sum "Si O2"
_cell_formula_units_Z 32
_cell_length_a 22.225854
_cell_length_b 10.551311
_cell_length_c 22.638502
_cell_angle_alpha 90.000000
_cell_angle_beta 20.745110
_cell_angle_gamma 90.000000
_cell_volume 1880.506715
_symmetry_space_group_name_H-M "P 2/M"
_symmetry_group_IT_number 10
_symmetry_cell_setting 'monoclinic'
loop_
_space_group_symop_operation_xyz
x,y,z
-x,y,-z
-x,-y,-z
x,-y,z
loop_
_atom_site_type_symbol
_atom_site_label
_atom_site_fract_x
_atom_site_fract_y
_atom_site_fract_z
Si Si1 0.897992 0.650933 0.730140
Si Si2 0.762052 0.861484 0.279327
Si Si3 0.734217 0.349083 0.637980
Si Si4 0.686334 0.349409 0.813752
Si Si5 0.984636 0.637140 0.083738
Si Si6 0.371403 0.648667 0.928031
Si Si7 0.339925 0.357742 0.821856
Si Si8 0.425281 0.860246 0.662997
O O1 0.897113 0.500000 0.733597
O O2 0.820054 0.699068 0.739691
O O3 0.094876 0.699305 0.553158
O O4 0.778735 0.705810 0.892507
O O5 0.872738 0.753709 0.209183
O O6 0.588442 0.864739 0.473085
O O7 0.731451 0.830335 0.237746
O O8 0.850848 0.000000 0.202862
O O9 0.730745 0.500000 0.639101
O O10 0.743987 0.300643 0.696550
O O11 0.559691 0.294917 0.769238
O O12 0.679433 0.500000 0.820532
O O13 0.500000 0.294978 0.000000
O O14 0.899571 0.500000 0.176445
O O15 0.000000 0.649628 0.000000
O O16 0.158853 0.645161 0.958111
O O17 0.379039 0.500000 0.933160
O O18 0.322864 0.680577 0.905638
O O19 0.420319 0.500000 0.741514
O O20 0.451030 0.249730 0.687884
O O21 0.398336 0.000000 0.717211
#
# Coordination Sequence:
#
# PCOD8059845 Si02
#       8
#     4   4   4   4   4   4   4   4
#     4   9  15  23  36  53  76 108 149 192 227 269
#     4   9  18  32  51  73  93 114 147 193 241 287
#     4   9  15  23  36  53  74 109 152 188 230 275
#     4   9  13  19  33  52  76 105 141 189 235 270
#     4  10  19  31  46  67  95 122 151 192 238 281
#     4   9  17  29  39  52  82 118 152 190 226 272
#     4  10  20  33  47  66  93 124 157 191 233 285
#     4   9  18  33  51  71  93 117 149 191 238 287
#
# _framework density 17.016691000000002
#
# number of rings (size 3 to 8) (size 9 to 14) (size 15 to 20)
#    0.000    2.750    2.500    1.125    0.000    2.750 
#    2.250    1.250    0.000    0.000    0.000    0.000 
#    0.000    0.000    0.000    2.250    0.000    5.750 
#
# Total GULP energy -396421.046776 kJ/mol
# GULP energy per Si atom -12388.157712 kJ/mol
# Density = 1.697796 g / cm^3
# Si number density = 17.016691 Si / 1000 Ang^3
#
#
#
# Elastic Constant Matrix: (Units=GPa)
#
#
# Indices 1 2 3 4 5 6 
#
# 1 110.6409 24.5681 47.8620 0.0000 6.4798 0.0000
# 2 24.5681 68.8539 25.4286 0.0000 6.6176 0.0000
# 3 47.8620 25.4286 103.2510 0.0000 -1.2916 0.0000
# 4 0.0000 0.0000 0.0000 16.7892 0.0000 2.9133
# 5 6.4798 6.6176 -1.2916 0.0000 21.2971 0.0000
# 6 0.0000 0.0000 0.0000 2.9133 0.0000 1.4360
#
#
#
# Elastic Compliance Matrix: (Units=1/GPa)
#
#
# Indices 1 2 3 4 5 6 
#
# 1 0.011865 -0.002060 -0.005034 0.000000 -0.003275 0.000000
# 2 -0.002060 0.016933 -0.003276 0.000000 -0.004833 0.000000
# 3 -0.005034 -0.003276 0.012867 0.000000 0.003330 0.000000
# 4 0.000000 0.000000 0.000000 0.091921 0.000000 -0.186482
# 5 -0.003275 -0.004833 0.003330 0.000000 0.049655 0.000000
# 6 0.000000 0.000000 0.000000 -0.186482 0.000000 1.074686
#
#
# Mechanical properties :
#
#
# Convention : Reuss Voigt Hill
#
# Bulk Modulus (GPa) = 47.78737 53.16260 50.47499
# Shear Modulus (GPa) = 3.88911 20.23027 12.05969
#
# Velocity S-wave (km/s) = 1.51342 3.45171 2.66503
# Velocity P-wave (km/s) = 5.58547 6.86986 6.26069
#
# Compressibility (1/GPa) = 0.02092603
#
# Stress axis : x y z
#
# Youngs Moduli (GPa) = 84.28163 59.05687 77.71857
#
# Poissons Ratio (x) = 0.12165 0.39121
# Poissons Ratio (y) = 0.17360 0.25459
# Poissons Ratio (z) = 0.42425 0.19346
#
# Static dielectric constant tensor:
#      x y z
#    x 3.200870 0.000000 -0.085340 
#    y 0.000000 3.007030 0.000000 
#    z -0.085340 0.000000 3.275910 
# 
# 
# High freq. dielectric constant tensor:
#      x y z
#    x 1.648390 0.000000 -0.004050 
#    y 0.000000 1.596020 0.000000 
#    z -0.004050 0.000000 1.656610 
# 
# From -- ./inp_files/82356.got.cif
#   From: 2010.06.25/outbox.cif.g09.slc.cpg/sg10_42_cif.got.tgz:82356.got - 2010.06.27 22:07:45.
