data_PCOD8059062
_publ_section_title
;
Structure prediction by ZEFSAII (Michael W. Deem and Ramdas Pophale) SiO2 
 PCOD8059062
Probable space group: P 2/M
;
_chemical_formula_sum "Si O2"
_cell_formula_units_Z 28
_cell_length_a 11.319736
_cell_length_b 14.943475
_cell_length_c 14.820886
_cell_angle_alpha 90.000000
_cell_angle_beta 142.419711
_cell_angle_gamma 90.000000
_cell_volume 1528.977738
_symmetry_space_group_name_H-M "P 2/M"
_symmetry_group_IT_number 10
_symmetry_cell_setting 'monoclinic'
loop_
_space_group_symop_operation_xyz
x,y,z
-x,y,-z
-x,-y,-z
x,-y,z
loop_
_atom_site_type_symbol
_atom_site_label
_atom_site_fract_x
_atom_site_fract_y
_atom_site_fract_z
Si Si1 0.019624 0.766034 0.259116
Si Si2 0.619776 0.152422 0.997069
Si Si3 0.208359 0.599770 0.886363
Si Si4 0.593084 0.336068 0.172406
Si Si5 0.184075 0.760211 0.552209
Si Si6 0.518965 0.099674 0.747457
Si Si7 0.699639 0.897710 0.673611
O O1 0.949131 0.671687 0.171566
O O2 0.125063 0.737655 0.414935
O O3 0.155601 0.822939 0.276099
O O4 0.831621 0.826640 0.164273
O O5 0.487233 0.239921 0.904509
O O6 0.638401 0.101725 0.913299
O O7 0.500000 0.095178 0.000000
O O8 0.119592 0.500000 0.836051
O O9 0.261757 0.626140 0.815597
O O10 0.403927 0.600466 0.066240
O O11 0.709236 0.325970 0.337264
O O12 0.325149 0.844046 0.634604
O O13 0.000000 0.788385 0.500000
O O14 0.663916 0.130463 0.755856
O O15 0.448987 0.000000 0.682704
O O16 0.500000 0.890637 0.500000
O O17 0.781883 0.000000 0.715319
#
# Coordination Sequence:
#
# PCOD8059062 Si02
#       7
#     4   4   4   4   4   4   4
#     4  11  20  34  58  84 112 150 192 236 294 328
#     4  10  18  35  55  79 117 150 182 228 288 349
#     4  10  18  33  56  83 114 150 189 232 285 348
#     4   9  16  31  51  77 112 149 182 213 280 348
#     4  11  19  32  54  80 115 151 183 235 287 357
#     4  10  22  37  54  79 112 152 198 242 283 337
#     4  10  21  39  58  80 111 152 203 245 278 330
#
# _framework density 18.312888000000001
#
# number of rings (size 3 to 8) (size 9 to 14) (size 15 to 20)
#    0.000    1.857    5.714    1.714    0.000    1.714 
#    0.000    5.000    0.000    0.429    0.000   14.000 
#    0.000    0.000    0.000    0.000    0.000    0.000 
#
# Total GULP energy -346959.187780 kJ/mol
# GULP energy per Si atom -12391.399564 kJ/mol
# Density = 1.827121 g / cm^3
# Si number density = 18.312888 Si / 1000 Ang^3
#
#
#
# Elastic Constant Matrix: (Units=GPa)
#
#
# Indices 1 2 3 4 5 6 
#
# 1 114.6988 56.7749 48.6456 0.0000 -7.9322 0.0000
# 2 56.7749 100.4973 27.3044 0.0000 10.5070 0.0000
# 3 48.6456 27.3044 111.5868 0.0000 -8.8090 0.0000
# 4 0.0000 0.0000 0.0000 27.5615 0.0000 10.1138
# 5 -7.9322 10.5070 -8.8090 0.0000 29.0337 0.0000
# 6 0.0000 0.0000 0.0000 10.1138 0.0000 22.0921
#
#
#
# Elastic Compliance Matrix: (Units=1/GPa)
#
#
# Indices 1 2 3 4 5 6 
#
# 1 0.014671 -0.007772 -0.004053 0.000000 0.005591 0.000000
# 2 -0.007772 0.015460 -0.001029 0.000000 -0.008030 0.000000
# 3 -0.004053 -0.001029 0.011190 0.000000 0.002660 0.000000
# 4 0.000000 0.000000 0.000000 0.043608 0.000000 -0.019964
# 5 0.005591 -0.008030 0.002660 0.000000 0.039683 0.000000
# 6 0.000000 0.000000 0.000000 -0.019964 0.000000 0.054405
#
#
# Mechanical properties :
#
#
# Convention : Reuss Voigt Hill
#
# Bulk Modulus (GPa) = 64.04195 65.80364 64.92280
# Shear Modulus (GPa) = 23.81760 28.67465 26.24613
#
# Velocity S-wave (km/s) = 3.61029 3.96133 3.78988
# Velocity P-wave (km/s) = 7.24056 7.54545 7.39458
#
# Compressibility (1/GPa) = 0.01561476
#
# Stress axis : x y z
#
# Youngs Moduli (GPa) = 68.16272 64.68262 89.36435
#
# Poissons Ratio (x) = 0.50269 0.36216
# Poissons Ratio (y) = 0.52973 0.09195
# Poissons Ratio (z) = 0.27624 0.06655
#
# Static dielectric constant tensor:
#      x y z
#    x 3.410320 0.000000 -0.106940 
#    y 0.000000 3.282210 0.000000 
#    z -0.106940 0.000000 3.829770 
# 
# 
# High freq. dielectric constant tensor:
#      x y z
#    x 1.688660 0.000000 -0.000570 
#    y 0.000000 1.687030 0.000000 
#    z -0.000570 0.000000 1.717180 
# 
# From -- ./inp_files/29413.got.cif
#   From: 2010.06.25/outbox.cif.g09.slc.cpg/sg10_15_cif.got.tgz:29413.got - 2010.06.27 22:07:45.
