data_PCOD8059339
_publ_section_title
;
Structure prediction by ZEFSAII (Michael W. Deem and Ramdas Pophale) SiO2 
 PCOD8059339
Probable space group: P 2/M
;
_chemical_formula_sum "Si O2"
_cell_formula_units_Z 32
_cell_length_a 24.461520
_cell_length_b 9.207238
_cell_length_c 18.797525
_cell_angle_alpha 90.000000
_cell_angle_beta 29.579174
_cell_angle_gamma 90.000000
_cell_volume 2089.831738
_symmetry_space_group_name_H-M "P 2/M"
_symmetry_group_IT_number 10
_symmetry_cell_setting 'monoclinic'
loop_
_space_group_symop_operation_xyz
x,y,z
-x,y,-z
-x,-y,-z
x,-y,z
loop_
_atom_site_type_symbol
_atom_site_label
_atom_site_fract_x
_atom_site_fract_y
_atom_site_fract_z
Si Si1 0.039137 0.828652 0.344340
Si Si2 0.421702 0.328233 0.882789
Si Si3 0.377437 0.837814 0.606510
Si Si4 0.494421 0.170744 0.338638
Si Si5 0.812335 0.664402 0.921317
Si Si6 0.410539 0.170278 0.041817
Si Si7 0.310789 0.332900 0.804363
Si Si8 0.835061 0.828697 0.659404
O O1 0.082590 0.758757 0.222096
O O2 0.118573 0.771044 0.317842
O O3 0.913549 0.775995 0.505211
O O4 0.045258 0.000000 0.327766
O O5 0.440113 0.500000 0.863184
O O6 0.514620 0.256167 0.725914
O O7 0.440656 0.262794 0.938883
O O8 0.300211 0.285610 0.991236
O O9 0.500000 0.825472 0.500000
O O10 0.386757 0.801595 0.511261
O O11 0.294949 0.726406 0.741355
O O12 0.330390 0.000000 0.670237
O O13 0.599781 0.230700 0.260784
O O14 0.510494 0.000000 0.306091
O O15 0.838120 0.500000 0.871035
O O16 0.799052 0.680276 0.022169
O O17 0.409321 0.000000 0.023359
O O18 0.500000 0.207027 0.000000
O O19 0.291411 0.221331 0.207704
O O20 0.351316 0.500000 0.756746
O O21 0.845223 0.000000 0.650570
#
# Coordination Sequence:
#
# PCOD8059339 Si02
#       8
#     4   4   4   4   4   4   4   4
#     4   9  15  25  43  58  75 102 129 165 200 232
#     4  10  19  29  40  56  78 102 131 167 203 240
#     4   8  14  23  33  48  69  96 131 165 194 227
#     4   9  16  25  37  51  70  97 131 169 199 229
#     4   9  17  26  35  54  80 103 131 165 198 232
#     4  10  19  31  47  62  78 103 133 166 203 244
#     4   9  16  23  32  49  75 103 130 161 196 234
#     4   8  15  27  41  61  79  95 128 165 201 239
#
# _framework density 15.312238000000001
#
# number of rings (size 3 to 8) (size 9 to 14) (size 15 to 20)
#    0.000    3.000    1.250    3.375    0.000    5.500 
#    0.000    1.875    0.000    0.000    0.000    0.000 
#    0.000    0.000    0.000    1.125    0.000   23.625 
#
# Total GULP energy -396439.670680 kJ/mol
# GULP energy per Si atom -12388.739709 kJ/mol
# Density = 1.527739 g / cm^3
# Si number density = 15.312238 Si / 1000 Ang^3
#
#
#
# Elastic Constant Matrix: (Units=GPa)
#
#
# Indices 1 2 3 4 5 6 
#
# 1 47.3663 33.7796 52.7742 0.0000 13.4559 0.0000
# 2 33.7796 71.0420 53.9236 0.0000 21.5036 0.0000
# 3 52.7742 53.9236 115.2417 0.0000 29.6957 0.0000
# 4 0.0000 0.0000 0.0000 15.8510 0.0000 8.2792
# 5 13.4559 21.5036 29.6957 0.0000 26.8241 0.0000
# 6 0.0000 0.0000 0.0000 8.2792 0.0000 14.9293
#
#
#
# Elastic Compliance Matrix: (Units=1/GPa)
#
#
# Indices 1 2 3 4 5 6 
#
# 1 0.047071 -0.010057 -0.017969 0.000000 0.004342 0.000000
# 2 -0.010057 0.025518 -0.004706 0.000000 -0.010202 0.000000
# 3 -0.017969 -0.004706 0.022125 0.000000 -0.011707 0.000000
# 4 0.000000 0.000000 0.000000 0.088812 0.000000 -0.049252
# 5 0.004342 -0.010202 -0.011707 0.000000 0.056240 0.000000
# 6 0.000000 0.000000 0.000000 -0.049252 0.000000 0.094296
#
#
# Mechanical properties :
#
#
# Convention : Reuss Voigt Hill
#
# Bulk Modulus (GPa) = 34.18765 57.17830 45.68297
# Shear Modulus (GPa) = 12.21666 17.73238 14.97452
#
# Velocity S-wave (km/s) = 2.82766 3.40671 3.13060
# Velocity P-wave (km/s) = 5.74773 7.27302 6.55489
#
# Compressibility (1/GPa) = 0.02925033
#
# Stress axis : x y z
#
# Youngs Moduli (GPa) = 21.24433 39.18770 45.19773
#
# Poissons Ratio (x) = 0.39411 0.81216
# Poissons Ratio (y) = 0.21365 0.21270
# Poissons Ratio (z) = 0.38174 0.18442
#
# Static dielectric constant tensor:
#      x y z
#    x 2.651900 0.000000 0.488230 
#    y 0.000000 2.891950 0.000000 
#    z 0.488230 0.000000 3.384970 
# 
# 
# High freq. dielectric constant tensor:
#      x y z
#    x 1.523420 0.000000 0.045730 
#    y 0.000000 1.585710 0.000000 
#    z 0.045730 0.000000 1.586070 
# 
# From -- ./inp_files/79921.got.cif
#   From: 2010.06.25/outbox.cif.g09.slc.cpg/sg10_40_cif.got.tgz:79921.got - 2010.06.27 22:07:45.
