data_PCOD8059257
_publ_section_title
;
Structure prediction by ZEFSAII (Michael W. Deem and Ramdas Pophale) SiO2 
 PCOD8059257
Probable space group: P 2/M
;
_chemical_formula_sum "Si O2"
_cell_formula_units_Z 24
_cell_length_a 14.663641
_cell_length_b 11.235981
_cell_length_c 23.694445
_cell_angle_alpha 90.000000
_cell_angle_beta 161.757555
_cell_angle_gamma 90.000000
_cell_volume 1222.073190
_symmetry_space_group_name_H-M "P 2/M"
_symmetry_group_IT_number 10
_symmetry_cell_setting 'monoclinic'
loop_
_space_group_symop_operation_xyz
x,y,z
-x,y,-z
-x,-y,-z
x,-y,z
loop_
_atom_site_type_symbol
_atom_site_label
_atom_site_fract_x
_atom_site_fract_y
_atom_site_fract_z
Si Si1 0.248738 0.240316 0.307386
Si Si2 0.666386 0.500000 0.784104
Si Si3 0.667152 0.863006 0.945776
Si Si4 0.672780 0.749560 0.830487
Si Si5 0.638896 0.136726 0.444635
Si Si6 0.714208 0.500000 0.679641
Si Si7 0.707390 0.858915 0.170178
O O1 0.500000 0.216996 0.500000
O O2 0.403278 0.215979 0.338784
O O3 0.115705 0.375146 0.227947
O O4 0.980629 0.151587 0.161285
O O5 0.535366 0.619838 0.735064
O O6 0.597592 0.500000 0.676118
O O7 0.000000 0.500000 0.000000
O O8 0.632399 0.000000 0.906415
O O9 0.663772 0.772621 0.891763
O O10 0.413622 0.823358 0.839491
O O11 0.459940 0.849044 0.678311
O O12 0.000000 0.763782 0.000000
O O13 0.964392 0.188832 0.644568
O O14 0.622137 0.000000 0.453936
O O15 0.500000 0.500000 0.500000
O O16 0.707289 0.000000 0.164832
O O17 0.500000 0.802870 0.000000
#
# Coordination Sequence:
#
# PCOD8059257 Si02
#       7
#     4   2   4   4   4   2   4
#     4  11  21  34  57  85 112 149 194 240 288 343
#     4  10  18  36  58  79 116 158 195 238 291 347
#     4  11  22  36  56  85 120 152 187 239 292 344
#     4  11  21  35  57  85 115 150 192 239 289 339
#     4  11  21  34  56  84 116 151 186 232 290 343
#     4  10  20  36  56  84 115 148 197 248 292 340
#     4   9  20  38  56  78 115 158 194 229 280 350
#
# _framework density 19.638757999999999
#
# number of rings (size 3 to 8) (size 9 to 14) (size 15 to 20)
#    0.000    1.500    3.333    3.000    0.000    4.000 
#    0.000    2.500    0.000    5.000    0.000    8.167 
#    0.000    0.000    0.000    0.000    0.000    0.000 
#
# Total GULP energy -297394.817262 kJ/mol
# GULP energy per Si atom -12391.450719 kJ/mol
# Density = 1.959406 g / cm^3
# Si number density = 19.638758 Si / 1000 Ang^3
#
#
#
# Elastic Constant Matrix: (Units=GPa)
#
#
# Indices 1 2 3 4 5 6 
#
# 1 67.8755 34.4111 15.5627 0.0000 -8.0702 0.0000
# 2 34.4111 70.6044 19.7089 0.0000 -4.6433 0.0000
# 3 15.5627 19.7089 84.1552 0.0000 -2.3406 0.0000
# 4 0.0000 0.0000 0.0000 16.6829 0.0000 -10.0315
# 5 -8.0702 -4.6433 -2.3406 0.0000 38.0114 0.0000
# 6 0.0000 0.0000 0.0000 -10.0315 0.0000 19.1840
#
#
#
# Elastic Compliance Matrix: (Units=1/GPa)
#
#
# Indices 1 2 3 4 5 6 
#
# 1 0.020087 -0.009176 -0.001481 0.000000 0.003053 0.000000
# 2 -0.009176 0.019448 -0.002851 0.000000 0.000252 0.000000
# 3 -0.001481 -0.002851 0.012828 0.000000 0.000127 0.000000
# 4 0.000000 0.000000 0.000000 0.087434 0.000000 0.045720
# 5 0.003053 0.000252 0.000127 0.000000 0.026995 0.000000
# 6 0.000000 0.000000 0.000000 0.045720 0.000000 0.076035
#
#
# Mechanical properties :
#
#
# Convention : Reuss Voigt Hill
#
# Bulk Modulus (GPa) = 39.45092 40.22230 39.83661
# Shear Modulus (GPa) = 17.96684 24.97247 21.46966
#
# Velocity S-wave (km/s) = 3.02796 3.56981 3.30999
# Velocity P-wave (km/s) = 5.68829 6.12510 5.91073
#
# Compressibility (1/GPa) = 0.02534795
#
# Stress axis : x y z
#
# Youngs Moduli (GPa) = 49.78255 51.41918 77.95552
#
# Poissons Ratio (x) = 0.47182 0.11544
# Poissons Ratio (y) = 0.45681 0.22223
# Poissons Ratio (z) = 0.07372 0.14658
#
# Static dielectric constant tensor:
#      x y z
#    x 3.727530 0.000000 -0.343810 
#    y 0.000000 3.713550 0.000000 
#    z -0.343810 0.000000 3.782250 
# 
# 
# High freq. dielectric constant tensor:
#      x y z
#    x 1.757490 0.000000 -0.029620 
#    y 0.000000 1.754350 0.000000 
#    z -0.029620 0.000000 1.758120 
# 
# From -- ./inp_files/88141.got.cif
#   From: 2010.06.25/outbox.cif.g09.slc.cpg/sg10_45_cif.got.tgz:88141.got - 2010.06.27 22:07:45.
