data_PCOD8059148
_publ_section_title
;
Structure prediction by ZEFSAII (Michael W. Deem and Ramdas Pophale) SiO2 
 PCOD8059148
Probable space group: P 2/M
;
_chemical_formula_sum "Si O2"
_cell_formula_units_Z 30
_cell_length_a 12.226397
_cell_length_b 12.710251
_cell_length_c 14.116178
_cell_angle_alpha 90.000000
_cell_angle_beta 51.452608
_cell_angle_gamma 90.000000
_cell_volume 1715.647783
_symmetry_space_group_name_H-M "P 2/M"
_symmetry_group_IT_number 10
_symmetry_cell_setting 'monoclinic'
loop_
_space_group_symop_operation_xyz
x,y,z
-x,y,-z
-x,-y,-z
x,-y,z
loop_
_atom_site_type_symbol
_atom_site_label
_atom_site_fract_x
_atom_site_fract_y
_atom_site_fract_z
Si Si1 0.780857 0.621111 0.211852
Si Si2 0.361942 0.236182 0.025132
Si Si3 0.823481 0.383143 0.759204
Si Si4 0.227718 0.378964 0.418694
Si Si5 0.920036 0.122726 0.854410
Si Si6 0.545090 0.619974 0.198031
Si Si7 0.000000 0.762995 0.000000
Si Si8 0.097216 0.292488 0.669430
O O1 0.829508 0.500000 0.191327
O O2 0.624330 0.630831 0.256111
O O3 0.793458 0.674648 0.308258
O O4 0.873113 0.685027 0.087880
O O5 0.304448 0.315975 0.134169
O O6 0.244100 0.147434 0.072893
O O7 0.500000 0.185737 0.000000
O O8 0.394889 0.297751 0.910438
O O9 0.765413 0.500000 0.797472
O O10 0.860420 0.356902 0.629493
O O11 0.964668 0.371569 0.744007
O O12 0.209055 0.500000 0.463631
O O13 0.386603 0.352957 0.307369
O O14 0.177242 0.298450 0.526601
O O15 0.026665 0.177717 0.722179
O O16 0.944510 0.000000 0.830387
O O17 0.962827 0.161074 0.934515
O O18 0.561768 0.500000 0.150491
#
# Coordination Sequence:
#
# PCOD8059148 Si02
#       8
#     4   4   4   4   4   4   2   4
#     4  10  19  31  49  80 116 142 169 202 250 315
#     4  11  20  34  54  78 107 138 171 216 267 316
#     4  10  19  30  50  78 109 141 175 210 249 310
#     4  10  19  32  51  76 109 147 180 204 241 308
#     4  10  22  38  57  78  98 130 179 230 274 307
#     4  10  20  32  50  79 115 146 170 202 248 315
#     4  10  18  34  56  80 104 140 166 210 268 314
#     4  10  21  34  51  75 103 142 181 216 261 299
#
# _framework density 17.486107000000001
#
# number of rings (size 3 to 8) (size 9 to 14) (size 15 to 20)
#    0.000    1.867    2.667    2.400    0.000    2.400 
#    0.000    2.000    0.000    7.200    0.000    1.867 
#    0.000    0.000    0.000    0.000    0.000    0.000 
#
# Total GULP energy -371885.327979 kJ/mol
# GULP energy per Si atom -12396.177599 kJ/mol
# Density = 1.744631 g / cm^3
# Si number density = 17.486107 Si / 1000 Ang^3
#
#
#
# Elastic Constant Matrix: (Units=GPa)
#
#
# Indices 1 2 3 4 5 6 
#
# 1 64.7546 18.8561 -9.3826 0.0000 2.7855 0.0000
# 2 18.8561 91.6970 29.5057 0.0000 3.8259 0.0000
# 3 -9.3826 29.5057 54.0660 0.0000 9.5569 0.0000
# 4 0.0000 0.0000 0.0000 17.6089 0.0000 -0.7222
# 5 2.7855 3.8259 9.5569 0.0000 18.1630 0.0000
# 6 0.0000 0.0000 0.0000 -0.7222 0.0000 14.9549
#
#
#
# Elastic Compliance Matrix: (Units=1/GPa)
#
#
# Indices 1 2 3 4 5 6 
#
# 1 0.018494 -0.005967 0.007437 0.000000 -0.005492 0.000000
# 2 -0.005967 0.015174 -0.009827 0.000000 0.002890 0.000000
# 3 0.007437 -0.009827 0.027547 0.000000 -0.013565 0.000000
# 4 0.000000 0.000000 0.000000 0.056902 0.000000 0.002748
# 5 -0.005492 0.002890 -0.013565 0.000000 0.062428 0.000000
# 6 0.000000 0.000000 0.000000 0.002748 0.000000 0.067001
#
#
# Mechanical properties :
#
#
# Convention : Reuss Voigt Hill
#
# Bulk Modulus (GPa) = 22.47154 32.05290 27.26222
# Shear Modulus (GPa) = 17.91504 21.58126 19.74815
#
# Velocity S-wave (km/s) = 3.20430 3.51692 3.36424
# Velocity P-wave (km/s) = 5.15452 5.90440 5.54216
#
# Compressibility (1/GPa) = 0.04450074
#
# Stress axis : x y z
#
# Youngs Moduli (GPa) = 54.07096 65.90193 36.30111
#
# Poissons Ratio (x) = 0.39322 -0.26996
# Poissons Ratio (y) = 0.32263 0.35674
# Poissons Ratio (z) = -0.40211 0.64764
#
# Static dielectric constant tensor:
#      x y z
#    x 3.498710 0.000000 0.009500 
#    y 0.000000 2.946040 0.000000 
#    z 0.009500 0.000000 3.181510 
# 
# 
# High freq. dielectric constant tensor:
#      x y z
#    x 1.698590 0.000000 0.001440 
#    y 0.000000 1.636620 0.000000 
#    z 0.001440 0.000000 1.669790 
# 
# From -- ./inp_files/46591.got.cif
#   From: 2010.06.25/outbox.cif.g09.slc.cpg/sg10_24_cif.got.tgz:46591.got - 2010.06.27 22:07:45.
