data_PCOD8059421
_publ_section_title
;
Structure prediction by ZEFSAII (Michael W. Deem and Ramdas Pophale) SiO2 
 PCOD8059421
Probable space group: P 2/M
;
_chemical_formula_sum "Si O2"
_cell_formula_units_Z 24
_cell_length_a 7.439054
_cell_length_b 14.465173
_cell_length_c 9.062805
_cell_angle_alpha 90.000000
_cell_angle_beta 72.022210
_cell_angle_gamma 90.000000
_cell_volume 927.609031
_symmetry_space_group_name_H-M "P 2/M"
_symmetry_group_IT_number 10
_symmetry_cell_setting 'monoclinic'
loop_
_space_group_symop_operation_xyz
x,y,z
-x,y,-z
-x,-y,-z
x,-y,z
loop_
_atom_site_type_symbol
_atom_site_label
_atom_site_fract_x
_atom_site_fract_y
_atom_site_fract_z
Si Si1 0.949052 0.605651 0.823450
Si Si2 0.812385 0.103795 0.840884
Si Si3 0.798834 0.728497 0.629997
Si Si4 0.318405 0.281501 0.656108
Si Si5 0.751771 0.898175 0.185421
Si Si6 0.391100 0.604870 0.892558
O O1 0.017310 0.500000 0.774796
O O2 0.798468 0.636996 0.733891
O O3 0.837208 0.609925 0.010626
O O4 0.112367 0.681168 0.759268
O O5 0.748864 0.178829 0.735059
O O6 0.032209 0.108343 0.821035
O O7 0.758966 0.000000 0.798665
O O8 0.712912 0.124891 0.023043
O O9 0.649286 0.711486 0.529649
O O10 0.000000 0.745033 0.500000
O O11 0.357691 0.176163 0.689829
O O12 0.453187 0.343391 0.727623
O O13 0.672273 0.000000 0.240686
O O14 0.456570 0.500000 0.858020
O O15 0.500000 0.652465 0.000000
#
# Coordination Sequence:
#
# PCOD8059421 Si02
#       6
#     4   4   4   4   4   4
#     4  10  20  34  53  76 104 135 168 212 262 310
#     4   9  16  27  42  67 108 145 169 204 254 303
#     4  10  19  29  44  76 111 140 163 207 257 313
#     4  11  20  31  54  81 108 137 172 213 259 308
#     4   9  17  28  47  75 108 142 174 210 252 299
#     4  10  22  39  57  76  99 133 178 221 261 308
#
# _framework density 25.872971
#
# number of rings (size 3 to 8) (size 9 to 14) (size 15 to 20)
#    0.000    2.167    3.333    3.000    2.333    6.000 
#    0.000    0.833    0.000    3.500    0.000    0.000 
#    0.000    5.333    0.000    0.000    0.000    0.000 
#
# Total GULP energy -297444.195416 kJ/mol
# GULP energy per Si atom -12393.508142 kJ/mol
# Density = 2.581408 g / cm^3
# Si number density = 25.872971 Si / 1000 Ang^3
#
#
#
# Elastic Constant Matrix: (Units=GPa)
#
#
# Indices 1 2 3 4 5 6 
#
# 1 43.8279 17.3349 33.4287 0.0000 14.9296 0.0000
# 2 17.3349 167.7274 97.0748 0.0000 -0.6652 0.0000
# 3 33.4287 97.0748 187.3638 0.0000 12.4590 0.0000
# 4 0.0000 0.0000 0.0000 13.2418 0.0000 24.9871
# 5 14.9296 -0.6652 12.4590 0.0000 47.2082 0.0000
# 6 0.0000 0.0000 0.0000 24.9871 0.0000 7.4724
#
#
#
# Elastic Compliance Matrix: (Units=1/GPa)
#
#
# Indices 1 2 3 4 5 6 
#
# 1 0.029113 -0.000492 -0.004404 0.000000 -0.008052 0.000000
# 2 -0.000492 0.008604 -0.004467 0.000000 0.001456 0.000000
# 3 -0.004404 -0.004467 0.008498 0.000000 -0.000913 0.000000
# 4 0.000000 0.000000 0.000000 -0.014222 0.000000 0.047558
# 5 -0.008052 0.001456 -0.000913 0.000000 0.023991 0.000000
# 6 0.000000 0.000000 0.000000 0.047558 0.000000 -0.025203
#
#
# Mechanical properties :
#
#
# Convention : Reuss Voigt Hill
#
# Bulk Modulus (GPa) = 36.37779 77.17733 56.77756
# Shear Modulus (GPa) = 85.22467 30.32319 57.77393
#
# Velocity S-wave (km/s) = 5.74553 3.42717 4.73057
# Velocity P-wave (km/s) = 7.62270 6.74942 7.19931
#
# Compressibility (1/GPa) = 0.02748930
#
# Stress axis : x y z
#
# Youngs Moduli (GPa) = 34.34920 116.22654 117.67587
#
# Poissons Ratio (x) = 0.05718 0.51823
# Poissons Ratio (y) = 0.01690 0.52563
# Poissons Ratio (z) = 0.15127 0.51916
#
# Static dielectric constant tensor:
#      x y z
#    x 4.921290 0.000000 0.547170 
#    y 0.000000 4.891590 0.000000 
#    z 0.547170 0.000000 5.225880 
# 
# 
# High freq. dielectric constant tensor:
#      x y z
#    x 2.059150 0.000000 0.011980 
#    y 0.000000 2.027510 0.000000 
#    z 0.011980 0.000000 2.046110 
# 
# From -- ./inp_files/18848.got.cif
#   From: 2010.06.25/outbox.cif.g09.slc.cpg/sg10_10_cif.got.tgz:18848.got - 2010.06.27 22:07:45.
