data_PCOD8059917
_publ_section_title
;
Structure prediction by ZEFSAII (Michael W. Deem and Ramdas Pophale) SiO2 
 PCOD8059917
Probable space group: P 2/M
;
_chemical_formula_sum "Si O2"
_cell_formula_units_Z 32
_cell_length_a 21.358985
_cell_length_b 9.319771
_cell_length_c 23.853234
_cell_angle_alpha 90.000000
_cell_angle_beta 156.538491
_cell_angle_gamma 90.000000
_cell_volume 1890.432570
_symmetry_space_group_name_H-M "P 2/M"
_symmetry_group_IT_number 10
_symmetry_cell_setting 'monoclinic'
loop_
_space_group_symop_operation_xyz
x,y,z
-x,y,-z
-x,-y,-z
x,-y,z
loop_
_atom_site_type_symbol
_atom_site_label
_atom_site_fract_x
_atom_site_fract_y
_atom_site_fract_z
Si Si1 0.893395 0.165588 0.037036
Si Si2 0.520203 0.656245 0.082463
Si Si3 0.368038 0.832317 0.265457
Si Si4 0.857585 0.327903 0.345396
Si Si5 0.335195 0.668728 0.463866
Si Si6 0.816710 0.671390 0.186973
Si Si7 0.007662 0.667746 0.777737
Si Si8 0.764171 0.834576 0.722590
O O1 0.887927 0.255629 0.089460
O O2 0.051025 0.196874 0.131304
O O3 0.883148 0.000000 0.045326
O O4 0.747375 0.212964 0.879242
O O5 0.528898 0.500000 0.118726
O O6 0.689975 0.733162 0.232381
O O7 0.500000 0.635799 0.000000
O O8 0.359748 0.735132 0.971806
O O9 0.524855 0.739482 0.385757
O O10 0.284567 0.791738 0.255098
O O11 0.409675 0.000000 0.297400
O O12 0.853659 0.500000 0.344107
O O13 0.879909 0.274767 0.299405
O O14 0.000000 0.266406 0.500000
O O15 0.361738 0.500000 0.479840
O O16 0.334197 0.737699 0.401235
O O17 0.175302 0.706529 0.365498
O O18 0.802636 0.500000 0.176930
O O19 0.937072 0.722970 0.237912
O O20 0.037177 0.500000 0.809050
O O21 0.724263 0.000000 0.676475
#
# Coordination Sequence:
#
# PCOD8059917 Si02
#       8
#     4   4   4   4   4   4   4   4
#     4   9  18  32  49  67  86 109 142 186 226 259
#     4   7  10  17  30  49  72  99 132 167 202 239
#     4  10  19  31  48  68  87 109 141 183 229 269
#     4   8  12  18  31  54  82 107 133 170 212 248
#     4  10  20  31  43  63  92 121 147 176 212 260
#     4   8  13  23  38  53  76 112 145 171 204 249
#     4   9  18  32  46  61  86 121 154 179 210 257
#     4   9  17  31  50  68  85 109 143 181 223 269
#
# _framework density 16.927341999999999
#
# number of rings (size 3 to 8) (size 9 to 14) (size 15 to 20)
#    0.000    3.250    0.000    2.625    0.000    4.500 
#    0.000    1.250    0.000    8.250    0.000    0.000 
#    0.000    5.000    0.000    0.000    0.000    3.125 
#
# Total GULP energy -396541.357045 kJ/mol
# GULP energy per Si atom -12391.917408 kJ/mol
# Density = 1.688882 g / cm^3
# Si number density = 16.927342 Si / 1000 Ang^3
#
#
#
# Elastic Constant Matrix: (Units=GPa)
#
#
# Indices 1 2 3 4 5 6 
#
# 1 108.5248 26.5521 62.6377 0.0000 1.8520 0.0000
# 2 26.5521 32.2726 37.3820 0.0000 -0.5409 0.0000
# 3 62.6377 37.3820 149.3512 0.0000 -7.3331 0.0000
# 4 0.0000 0.0000 0.0000 17.2737 0.0000 -5.4539
# 5 1.8520 -0.5409 -7.3331 0.0000 16.1835 0.0000
# 6 0.0000 0.0000 0.0000 -5.4539 0.0000 8.5388
#
#
#
# Elastic Compliance Matrix: (Units=1/GPa)
#
#
# Indices 1 2 3 4 5 6 
#
# 1 0.013173 -0.006047 -0.004188 0.000000 -0.003607 0.000000
# 2 -0.006047 0.046616 -0.009226 0.000000 -0.001931 0.000000
# 3 -0.004188 -0.009226 0.011015 0.000000 0.005162 0.000000
# 4 0.000000 0.000000 0.000000 0.072515 0.000000 0.046317
# 5 -0.003607 -0.001931 0.005162 0.000000 0.064479 0.000000
# 6 0.000000 0.000000 0.000000 0.046317 0.000000 0.146697
#
#
# Mechanical properties :
#
#
# Convention : Reuss Voigt Hill
#
# Bulk Modulus (GPa) = 31.36724 60.36579 45.86651
# Shear Modulus (GPa) = 12.37486 19.30430 15.83958
#
# Velocity S-wave (km/s) = 2.70674 3.38068 3.06230
# Velocity P-wave (km/s) = 5.32347 7.13987 6.29750
#
# Compressibility (1/GPa) = 0.03188040
#
# Stress axis : x y z
#
# Youngs Moduli (GPa) = 75.91341 21.45180 90.78548
#
# Poissons Ratio (x) = 0.12972 0.38023
# Poissons Ratio (y) = 0.45905 0.83763
# Poissons Ratio (z) = 0.31795 0.19792
#
# Static dielectric constant tensor:
#      x y z
#    x 3.175980 0.000000 0.164070 
#    y 0.000000 2.761970 0.000000 
#    z 0.164070 0.000000 3.478350 
# 
# 
# High freq. dielectric constant tensor:
#      x y z
#    x 1.636200 0.000000 0.011070 
#    y 0.000000 1.605770 0.000000 
#    z 0.011070 0.000000 1.662270 
# 
# From -- ./inp_files/93873.got.cif
#   From: 2010.06.25/outbox.cif.g09.slc.cpg/sg10_47_cif.got.tgz:93873.got - 2010.06.27 22:07:45.
