data_PCOD8059787
_publ_section_title
;
Structure prediction by ZEFSAII (Michael W. Deem and Ramdas Pophale) SiO2 
 PCOD8059787
Probable space group: P 2/M
;
_chemical_formula_sum "Si O2"
_cell_formula_units_Z 28
_cell_length_a 14.399500
_cell_length_b 9.238334
_cell_length_c 11.323096
_cell_angle_alpha 90.000000
_cell_angle_beta 103.353907
_cell_angle_gamma 90.000000
_cell_volume 1465.555060
_symmetry_space_group_name_H-M "P 2/M"
_symmetry_group_IT_number 10
_symmetry_cell_setting 'monoclinic'
loop_
_space_group_symop_operation_xyz
x,y,z
-x,y,-z
-x,-y,-z
x,-y,z
loop_
_atom_site_type_symbol
_atom_site_label
_atom_site_fract_x
_atom_site_fract_y
_atom_site_fract_z
Si Si1 0.876101 0.828975 0.201038
Si Si2 0.625144 0.665408 0.745647
Si Si3 0.106010 0.331644 0.561278
Si Si4 0.937384 0.842395 0.866042
Si Si5 0.455515 0.163228 0.616251
Si Si6 0.288226 0.666789 0.475018
Si Si7 0.206314 0.333143 0.041918
O O1 0.849427 0.758249 0.317463
O O2 0.988526 0.793170 0.213694
O O3 0.856667 0.000000 0.196200
O O4 0.809591 0.759848 0.080103
O O5 0.593338 0.500000 0.719026
O O6 0.529570 0.760680 0.727558
O O7 0.691261 0.713416 0.653819
O O8 0.684470 0.684903 0.883949
O O9 0.102774 0.500000 0.595872
O O10 0.176676 0.303696 0.471114
O O11 0.000000 0.274922 0.500000
O O12 0.857793 0.721661 0.866403
O O13 0.890989 0.000000 0.821804
O O14 0.000000 0.862869 0.000000
O O15 0.500000 0.171687 0.500000
O O16 0.353925 0.243372 0.585452
O O17 0.439529 0.000000 0.654768
O O18 0.313830 0.500000 0.503439
O O19 0.180274 0.500000 0.009848
#
# Coordination Sequence:
#
# PCOD8059787 Si02
#       7
#     4   4   4   4   4   4   4
#     4  10  21  36  51  69 102 142 177 213 259 311
#     4   9  18  31  51  80 109 135 166 209 264 317
#     4  10  22  37  56  78 103 137 180 223 254 296
#     4   8  16  30  45  65  96 133 169 206 254 304
#     4   9  17  30  50  77 105 135 171 210 254 308
#     4   9  18  34  53  75 106 140 170 210 263 307
#     4  10  19  30  51  79 103 132 172 216 262 310
#
# _framework density 19.105388000000001
#
# number of rings (size 3 to 8) (size 9 to 14) (size 15 to 20)
#    0.000    2.714    0.000    2.143    2.000    6.857 
#    0.000    0.000    0.000    0.857    0.000    6.000 
#    0.000    0.000    0.000    0.000    0.000    0.000 
#
# Total GULP energy -347107.606388 kJ/mol
# GULP energy per Si atom -12396.700228 kJ/mol
# Density = 1.906190 g / cm^3
# Si number density = 19.105388 Si / 1000 Ang^3
#
#
#
# Elastic Constant Matrix: (Units=GPa)
#
#
# Indices 1 2 3 4 5 6 
#
# 1 74.7653 32.9858 25.5403 0.0000 18.1266 0.0000
# 2 32.9858 93.4415 37.4671 0.0000 16.1918 0.0000
# 3 25.5403 37.4671 70.0984 0.0000 12.5670 0.0000
# 4 0.0000 0.0000 0.0000 13.9451 0.0000 -0.1004
# 5 18.1266 16.1918 12.5670 0.0000 26.6239 0.0000
# 6 0.0000 0.0000 0.0000 -0.1004 0.0000 18.5375
#
#
#
# Elastic Compliance Matrix: (Units=1/GPa)
#
#
# Indices 1 2 3 4 5 6 
#
# 1 0.018152 -0.003662 -0.003103 0.000000 -0.008667 0.000000
# 2 -0.003662 0.015079 -0.006040 0.000000 -0.003827 0.000000
# 3 -0.003103 -0.006040 0.019213 0.000000 -0.003283 0.000000
# 4 0.000000 0.000000 0.000000 0.071712 0.000000 0.000388
# 5 -0.008667 -0.003827 -0.003283 0.000000 0.047338 0.000000
# 6 0.000000 0.000000 0.000000 0.000388 0.000000 0.053947
#
#
# Mechanical properties :
#
#
# Convention : Reuss Voigt Hill
#
# Bulk Modulus (GPa) = 37.26337 47.81018 42.53677
# Shear Modulus (GPa) = 19.23115 21.30879 20.26997
#
# Velocity S-wave (km/s) = 3.17611 3.34328 3.26077
# Velocity P-wave (km/s) = 5.74427 6.32314 6.04065
#
# Compressibility (1/GPa) = 0.02683601
#
# Stress axis : x y z
#
# Youngs Moduli (GPa) = 55.09057 66.31571 52.04863
#
# Poissons Ratio (x) = 0.24284 0.16149
# Poissons Ratio (y) = 0.20174 0.31435
# Poissons Ratio (z) = 0.17092 0.40052
#
# Static dielectric constant tensor:
#      x y z
#    x 3.472010 0.000000 0.055130 
#    y 0.000000 3.540690 0.000000 
#    z 0.055130 0.000000 3.211950 
# 
# 
# High freq. dielectric constant tensor:
#      x y z
#    x 1.721050 0.000000 0.015000 
#    y 0.000000 1.747290 0.000000 
#    z 0.015000 0.000000 1.718790 
# 
# From -- ./inp_files/49205.got.cif
#   From: 2010.06.25/outbox.cif.g09.slc.cpg/sg10_25_cif.got.tgz:49205.got - 2010.06.27 22:07:45.
