data_PCOD8059207
_publ_section_title
;
Structure prediction by ZEFSAII (Michael W. Deem and Ramdas Pophale) SiO2 
 PCOD8059207
Probable space group: P 2/M
;
_chemical_formula_sum "Si O2"
_cell_formula_units_Z 24
_cell_length_a 17.606994
_cell_length_b 7.710089
_cell_length_c 24.637818
_cell_angle_alpha 90.000000
_cell_angle_beta 21.564903
_cell_angle_gamma 90.000000
_cell_volume 1229.331800
_symmetry_space_group_name_H-M "P 2/M"
_symmetry_group_IT_number 10
_symmetry_cell_setting 'monoclinic'
loop_
_space_group_symop_operation_xyz
x,y,z
-x,y,-z
-x,-y,-z
x,-y,z
loop_
_atom_site_type_symbol
_atom_site_label
_atom_site_fract_x
_atom_site_fract_y
_atom_site_fract_z
Si Si1 0.013607 0.796782 0.930437
Si Si2 0.274891 0.300754 0.659861
Si Si3 0.870081 0.500000 0.669432
Si Si4 0.111501 0.706868 0.150882
Si Si5 0.312608 0.500000 0.324243
Si Si6 0.737832 0.197849 0.834230
Si Si7 0.382823 0.802420 0.875221
O O1 0.205418 0.719063 0.768822
O O2 0.051289 0.000000 0.908393
O O3 0.801632 0.748227 0.042015
O O4 0.000000 0.716663 0.000000
O O5 0.500000 0.211864 0.500000
O O6 0.294893 0.500000 0.630965
O O7 0.100368 0.220228 0.735716
O O8 0.717759 0.500000 0.719912
O O9 0.834283 0.324747 0.726204
O O10 0.104816 0.500000 0.495651
O O11 0.118162 0.500000 0.146538
O O12 0.131377 0.781627 0.197712
O O13 0.306508 0.778483 0.987604
O O14 0.430846 0.674722 0.262406
O O15 0.756205 0.000000 0.801279
O O16 0.500000 0.251675 0.000000
O O17 0.456265 0.000000 0.817006
#
# Coordination Sequence:
#
# PCOD8059207 Si02
#       7
#     4   4   2   4   2   4   4
#     4   9  19  36  56  82 114 150 196 243 285 340
#     4   9  19  35  54  84 117 153 193 236 294 349
#     4  11  25  42  60  84 121 152 187 243 285 349
#     4  10  18  34  61  86 117 152 192 242 290 350
#     4  11  24  42  61  84 112 158 198 226 295 346
#     4  11  23  39  62  91 118 150 191 239 297 345
#     4  10  20  37  61  87 115 150 197 242 283 342
#
# _framework density 19.522801999999999
#
# number of rings (size 3 to 8) (size 9 to 14) (size 15 to 20)
#    0.000    2.000    1.667    1.750    1.167    4.000 
#    3.000    1.667    0.000    0.000    0.000    0.000 
#    0.000    0.000    0.000    0.000    0.000    0.000 
#
# Total GULP energy -297613.089728 kJ/mol
# GULP energy per Si atom -12400.545405 kJ/mol
# Density = 1.947837 g / cm^3
# Si number density = 19.522802 Si / 1000 Ang^3
#
#
#
# Elastic Constant Matrix: (Units=GPa)
#
#
# Indices 1 2 3 4 5 6 
#
# 1 109.5509 33.7075 67.2741 0.0000 13.5032 0.0000
# 2 33.7075 79.8776 29.2243 0.0000 -0.5603 0.0000
# 3 67.2741 29.2243 85.9072 0.0000 -3.4071 0.0000
# 4 0.0000 0.0000 0.0000 13.7097 0.0000 1.8863
# 5 13.5032 -0.5603 -3.4071 0.0000 27.4236 0.0000
# 6 0.0000 0.0000 0.0000 1.8863 0.0000 27.8418
#
#
#
# Elastic Compliance Matrix: (Units=1/GPa)
#
#
# Indices 1 2 3 4 5 6 
#
# 1 0.021873 -0.003274 -0.016526 0.000000 -0.012890 0.000000
# 2 -0.003274 0.014792 -0.002404 0.000000 0.001616 0.000000
# 3 -0.016526 -0.002404 0.025848 0.000000 0.011300 0.000000
# 4 0.000000 0.000000 0.000000 0.073628 0.000000 -0.004988
# 5 -0.012890 0.001616 0.011300 0.000000 0.044249 0.000000
# 6 0.000000 0.000000 0.000000 -0.004988 0.000000 0.036255
#
#
# Mechanical properties :
#
#
# Convention : Reuss Voigt Hill
#
# Bulk Modulus (GPa) = 55.23542 59.52750 57.38146
# Shear Modulus (GPa) = 18.72044 23.47033 21.09538
#
# Velocity S-wave (km/s) = 3.09997 3.47104 3.29074
# Velocity P-wave (km/s) = 6.41617 6.82800 6.62529
#
# Compressibility (1/GPa) = 0.01810433
#
# Stress axis : x y z
#
# Youngs Moduli (GPa) = 45.71831 67.60586 38.68766
#
# Poissons Ratio (x) = 0.22136 0.63936
# Poissons Ratio (y) = 0.14969 0.09299
# Poissons Ratio (z) = 0.75555 0.16250
#
# Static dielectric constant tensor:
#      x y z
#    x 3.772260 0.000000 -0.125970 
#    y 0.000000 3.518690 0.000000 
#    z -0.125970 0.000000 3.573180 
# 
# 
# High freq. dielectric constant tensor:
#      x y z
#    x 1.763800 0.000000 -0.005920 
#    y 0.000000 1.764660 0.000000 
#    z -0.005920 0.000000 1.745870 
# 
# From -- ./inp_files/90025.got.cif
#   From: 2010.06.25/outbox.cif.g09.slc.cpg/sg10_46_cif.got.tgz:90025.got - 2010.06.27 22:07:45.
