data_PCOD8059008
_publ_section_title
;
Structure prediction by ZEFSAII (Michael W. Deem and Ramdas Pophale) SiO2 
 PCOD8059008
Probable space group: P 2/M
;
_chemical_formula_sum "Si O2"
_cell_formula_units_Z 32
_cell_length_a 21.420526
_cell_length_b 8.897652
_cell_length_c 27.370437
_cell_angle_alpha 90.000000
_cell_angle_beta 19.384855
_cell_angle_gamma 90.000000
_cell_volume 1731.450055
_symmetry_space_group_name_H-M "P 2/M"
_symmetry_group_IT_number 10
_symmetry_cell_setting 'monoclinic'
loop_
_space_group_symop_operation_xyz
x,y,z
-x,y,-z
-x,-y,-z
x,-y,z
loop_
_atom_site_type_symbol
_atom_site_label
_atom_site_fract_x
_atom_site_fract_y
_atom_site_fract_z
Si Si1 0.894437 0.821831 0.311224
Si Si2 0.491834 0.178536 0.451216
Si Si3 0.845438 0.676794 0.449850
Si Si4 0.261912 0.678041 0.003262
Si Si5 0.216667 0.677012 0.221049
Si Si6 0.423984 0.676719 0.779860
Si Si7 0.786476 0.178312 0.154393
Si Si8 0.535418 0.321579 0.051183
O O1 0.698030 0.763285 0.433965
O O2 0.912343 0.763228 0.352685
O O3 0.059809 0.755431 0.156143
O O4 0.906040 0.000000 0.302004
O O5 0.500000 0.245884 0.500000
O O6 0.669975 0.235601 0.287786
O O7 0.493730 0.000000 0.452140
O O8 0.851610 0.500000 0.433920
O O9 0.640338 0.729752 0.617801
O O10 0.995146 0.719350 0.382413
O O11 0.234822 0.500000 0.027123
O O12 0.349021 0.727058 0.887639
O O13 0.402586 0.740536 0.941624
O O14 0.242573 0.500000 0.201488
O O15 0.325780 0.736315 0.189285
O O16 0.317315 0.738940 0.097829
O O17 0.405771 0.500000 0.784907
O O18 0.304623 0.759459 0.827244
O O19 0.780758 0.000000 0.155532
O O20 0.000000 0.238046 0.000000
O O21 0.538649 0.500000 0.051869
#
# Coordination Sequence:
#
# PCOD8059008 Si02
#       8
#     4   4   4   4   4   4   4   4
#     4  11  21  33  55  81 103 132 174 220 261 302
#     4   9  19  35  53  77 104 127 163 217 260 296
#     4  10  18  33  54  76 104 140 174 211 259 311
#     4  10  20  35  52  75 108 143 173 212 261 309
#     4   8  13  23  46  75  98 130 174 215 254 300
#     4  10  22  36  53  77 110 143 172 209 262 315
#     4  10  21  37  58  78 101 138 177 210 254 307
#     4   8  13  24  45  73 101 131 172 215 254 298
#
# _framework density 18.481618999999998
#
# number of rings (size 3 to 8) (size 9 to 14) (size 15 to 20)
#    0.000    2.500    2.500    1.125    1.750    0.750 
#    0.000    0.625    0.000    7.125    0.000    0.000 
#    0.000    3.000    0.000    0.000    0.000    0.000 
#
# Total GULP energy -396621.509502 kJ/mol
# GULP energy per Si atom -12394.422172 kJ/mol
# Density = 1.843955 g / cm^3
# Si number density = 18.481619 Si / 1000 Ang^3
#
#
#
# Elastic Constant Matrix: (Units=GPa)
#
#
# Indices 1 2 3 4 5 6 
#
# 1 136.9973 17.6582 87.7401 0.0000 -12.0022 0.0000
# 2 17.6582 18.6104 24.3997 0.0000 -0.8346 0.0000
# 3 87.7401 24.3997 153.2631 0.0000 -17.3885 0.0000
# 4 0.0000 0.0000 0.0000 17.7147 0.0000 3.3519
# 5 -12.0022 -0.8346 -17.3885 0.0000 37.0781 0.0000
# 6 0.0000 0.0000 0.0000 3.3519 0.0000 1.5403
#
#
#
# Elastic Compliance Matrix: (Units=1/GPa)
#
#
# Indices 1 2 3 4 5 6 
#
# 1 0.011674 -0.003037 -0.006104 0.000000 0.000848 0.000000
# 2 -0.003037 0.069192 -0.009730 0.000000 -0.003988 0.000000
# 3 -0.006104 -0.009730 0.011955 0.000000 0.003412 0.000000
# 4 0.000000 0.000000 0.000000 0.095963 0.000000 -0.208825
# 5 0.000848 -0.003988 0.003412 0.000000 0.028755 0.000000
# 6 0.000000 0.000000 0.000000 -0.208825 0.000000 1.103641
#
#
# Mechanical properties :
#
#
# Convention : Reuss Voigt Hill
#
# Bulk Modulus (GPa) = 18.15487 63.16299 40.65893
# Shear Modulus (GPa) = 3.63034 23.20482 13.41758
#
# Velocity S-wave (km/s) = 1.40306 3.54724 2.69735
# Velocity P-wave (km/s) = 3.53119 7.14335 5.63457
#
# Compressibility (1/GPa) = 0.05508163
#
# Stress axis : x y z
#
# Youngs Moduli (GPa) = 85.65927 14.45254 83.64737
#
# Poissons Ratio (x) = 0.04389 0.51055
# Poissons Ratio (y) = 0.26011 0.81385
# Poissons Ratio (z) = 0.52283 0.14062
#
# Static dielectric constant tensor:
#      x y z
#    x 3.685530 0.000000 -0.198630 
#    y 0.000000 2.961440 0.000000 
#    z -0.198630 0.000000 3.630050 
# 
# 
# High freq. dielectric constant tensor:
#      x y z
#    x 1.724910 0.000000 -0.017020 
#    y 0.000000 1.669890 0.000000 
#    z -0.017020 0.000000 1.721120 
# 
# From -- ./inp_files/86960.got.cif
#   From: 2010.06.25/outbox.cif.g09.slc.cpg/sg10_44_cif.got.tgz:86960.got - 2010.06.27 22:07:45.
