data_PCOD8059085
_publ_section_title
;
Structure prediction by ZEFSAII (Michael W. Deem and Ramdas Pophale) SiO2 
 PCOD8059085
Probable space group: P 2/M
;
_chemical_formula_sum "Si O2"
_cell_formula_units_Z 32
_cell_length_a 14.178460
_cell_length_b 9.409102
_cell_length_c 20.476082
_cell_angle_alpha 90.000000
_cell_angle_beta 136.544505
_cell_angle_gamma 90.000000
_cell_volume 1878.799957
_symmetry_space_group_name_H-M "P 2/M"
_symmetry_group_IT_number 10
_symmetry_cell_setting 'monoclinic'
loop_
_space_group_symop_operation_xyz
x,y,z
-x,y,-z
-x,-y,-z
x,-y,z
loop_
_atom_site_type_symbol
_atom_site_label
_atom_site_fract_x
_atom_site_fract_y
_atom_site_fract_z
Si Si1 0.088481 0.667180 0.607284
Si Si2 0.098660 0.664415 0.223486
Si Si3 0.655032 0.165651 0.698828
Si Si4 0.356677 0.833451 0.161328
Si Si5 0.101454 0.337641 0.371809
Si Si6 0.656769 0.161692 0.457326
Si Si7 0.069176 0.834330 0.965972
Si Si8 0.343624 0.165712 0.695179
O O1 0.116563 0.500000 0.621620
O O2 0.234227 0.745321 0.681088
O O3 0.000000 0.713417 0.500000
O O4 0.010331 0.720103 0.632973
O O5 0.112968 0.500000 0.210421
O O6 0.246566 0.739814 0.296444
O O7 0.042435 0.679347 0.269072
O O8 0.992049 0.740489 0.122195
O O9 0.675341 0.225847 0.782581
O O10 0.498874 0.188999 0.597798
O O11 0.697176 0.000000 0.714318
O O12 0.503260 0.779923 0.207012
O O13 0.374670 0.000000 0.181662
O O14 0.231392 0.797136 0.050197
O O15 0.134055 0.500000 0.405299
O O16 0.244762 0.256876 0.449717
O O17 0.674871 0.198350 0.390466
O O18 0.698001 0.000000 0.491222
O O19 0.044502 0.000000 0.937884
O O20 0.000000 0.794884 0.000000
O O21 0.322302 0.000000 0.700076
#
# Coordination Sequence:
#
# PCOD8059085 Si02
#       8
#     4   4   4   4   4   4   4   4
#     4  10  19  33  53  73  96 133 175 207 244 300
#     4  11  23  35  48  72 105 137 169 210 252 291
#     4   9  17  33  52  72 101 136 170 201 243 301
#     4   8  15  30  52  77 102 128 158 199 253 302
#     4  10  22  37  49  67 103 142 170 204 254 302
#     4   9  18  31  51  76 101 131 169 209 245 292
#     4  10  18  33  58  78  97 132 170 204 248 302
#     4   9  17  30  51  79 105 124 155 209 260 294
#
# _framework density 17.032150000000001
#
# number of rings (size 3 to 8) (size 9 to 14) (size 15 to 20)
#    0.000    2.500    2.500    1.875    0.000    3.000 
#    0.000    5.000    0.000    0.750    0.000    5.250 
#    0.000    0.000    0.000    0.000    0.000    0.000 
#
# Total GULP energy -396733.539119 kJ/mol
# GULP energy per Si atom -12397.923097 kJ/mol
# Density = 1.699338 g / cm^3
# Si number density = 17.032150 Si / 1000 Ang^3
#
#
#
# Elastic Constant Matrix: (Units=GPa)
#
#
# Indices 1 2 3 4 5 6 
#
# 1 105.4872 44.5296 57.4720 0.0000 8.2870 0.0000
# 2 44.5296 63.4323 49.1850 0.0000 3.4105 0.0000
# 3 57.4720 49.1850 98.2430 0.0000 9.3457 0.0000
# 4 0.0000 0.0000 0.0000 14.7890 0.0000 -3.8988
# 5 8.2870 3.4105 9.3457 0.0000 24.5334 0.0000
# 6 0.0000 0.0000 0.0000 -3.8988 0.0000 21.0215
#
#
#
# Elastic Compliance Matrix: (Units=1/GPa)
#
#
# Indices 1 2 3 4 5 6 
#
# 1 0.015385 -0.006318 -0.005631 0.000000 -0.002174 0.000000
# 2 -0.006318 0.028407 -0.010743 0.000000 0.002277 0.000000
# 3 -0.005631 -0.010743 0.019225 0.000000 -0.003928 0.000000
# 4 0.000000 0.000000 0.000000 0.071094 0.000000 0.013186
# 5 -0.002174 0.002277 -0.003928 0.000000 0.042675 0.000000
# 6 0.000000 0.000000 0.000000 0.013186 0.000000 0.050016
#
#
# Mechanical properties :
#
#
# Convention : Reuss Voigt Hill
#
# Bulk Modulus (GPa) = 56.70516 63.28174 59.99345
# Shear Modulus (GPa) = 17.98157 19.80050 18.89103
#
# Velocity S-wave (km/s) = 3.25274 3.41330 3.33399
# Velocity P-wave (km/s) = 6.89002 7.26423 7.07960
#
# Compressibility (1/GPa) = 0.01763508
#
# Stress axis : x y z
#
# Youngs Moduli (GPa) = 64.99774 35.20222 52.01603
#
# Poissons Ratio (x) = 0.22239 0.29288
# Poissons Ratio (y) = 0.41063 0.55880
# Poissons Ratio (z) = 0.36598 0.37817
#
# Static dielectric constant tensor:
#      x y z
#    x 3.180980 0.000000 0.166920 
#    y 0.000000 3.012640 0.000000 
#    z 0.166920 0.000000 3.128760 
# 
# 
# High freq. dielectric constant tensor:
#      x y z
#    x 1.648040 0.000000 0.014240 
#    y 0.000000 1.642400 0.000000 
#    z 0.014240 0.000000 1.647060 
# 
# From -- ./inp_files/66029.got.cif
#   From: 2010.06.25/outbox.cif.g09.slc.cpg/sg10_34_cif.got.tgz:66029.got - 2010.06.27 22:07:45.
