data_PCOD8059871
_publ_section_title
;
Structure prediction by ZEFSAII (Michael W. Deem and Ramdas Pophale) SiO2 
 PCOD8059871
Probable space group: P 2/M
;
_chemical_formula_sum "Si O2"
_cell_formula_units_Z 28
_cell_length_a 9.773361
_cell_length_b 9.193033
_cell_length_c 32.449131
_cell_angle_alpha 90.000000
_cell_angle_beta 31.858353
_cell_angle_gamma 90.000000
_cell_volume 1538.836842
_symmetry_space_group_name_H-M "P 2/M"
_symmetry_group_IT_number 10
_symmetry_cell_setting 'monoclinic'
loop_
_space_group_symop_operation_xyz
x,y,z
-x,y,-z
-x,-y,-z
x,-y,z
loop_
_atom_site_type_symbol
_atom_site_label
_atom_site_fract_x
_atom_site_fract_y
_atom_site_fract_z
Si Si1 0.175925 0.333491 0.811760
Si Si2 0.713239 0.172410 0.063681
Si Si3 0.313891 0.830889 0.300834
Si Si4 0.777638 0.169874 0.585226
Si Si5 0.318302 0.334588 0.009954
Si Si6 0.793672 0.829468 0.761149
Si Si7 0.193601 0.826372 0.726095
O O1 0.220622 0.500000 0.787032
O O2 0.433778 0.266699 0.764559
O O3 0.075899 0.244694 0.797477
O O4 0.975863 0.320743 0.900148
O O5 0.493093 0.227375 0.152280
O O6 0.726625 0.000000 0.059162
O O7 0.624056 0.229165 0.042409
O O8 0.000000 0.236874 0.000000
O O9 0.156318 0.798367 0.383389
O O10 0.151335 0.791081 0.301083
O O11 0.398520 0.000000 0.278216
O O12 0.492343 0.228848 0.645772
O O13 0.000000 0.244729 0.500000
O O14 0.777655 0.000000 0.576235
O O15 0.386427 0.500000 0.979805
O O16 0.500000 0.280433 0.000000
O O17 0.026637 0.766754 0.729923
O O18 0.796795 0.000000 0.767413
O O19 0.182012 0.000000 0.733635
#
# Coordination Sequence:
#
# PCOD8059871 Si02
#       7
#     4   4   4   4   4   4   4
#     4  10  19  31  47  67  91 119 156 196 229 272
#     4  10  20  32  47  67  91 120 157 199 234 270
#     4   9  17  31  51  69  91 123 152 184 226 271
#     4   8  14  26  46  72  97 120 149 183 221 269
#     4  10  21  34  46  64  91 121 154 194 238 278
#     4   9  17  30  47  69  93 119 157 195 228 270
#     4   9  17  30  49  69  92 123 154 188 229 273
#
# _framework density 18.195561999999999
#
# number of rings (size 3 to 8) (size 9 to 14) (size 15 to 20)
#    0.000    2.714    0.000    3.000    0.000    2.857 
#    0.000    2.143    0.000   11.143    0.000    0.000 
#    0.000    9.143    0.000    0.000    0.000    0.000 
#
# Total GULP energy -347014.106661 kJ/mol
# GULP energy per Si atom -12393.360952 kJ/mol
# Density = 1.815415 g / cm^3
# Si number density = 18.195562 Si / 1000 Ang^3
#
#
#
# Elastic Constant Matrix: (Units=GPa)
#
#
# Indices 1 2 3 4 5 6 
#
# 1 124.8637 13.1040 47.2271 0.0000 14.0096 0.0000
# 2 13.1040 27.5429 14.8059 0.0000 3.8661 0.0000
# 3 47.2271 14.8059 90.1705 0.0000 13.0160 0.0000
# 4 0.0000 0.0000 0.0000 9.1287 0.0000 -1.5568
# 5 14.0096 3.8661 13.0160 0.0000 23.0126 0.0000
# 6 0.0000 0.0000 0.0000 -1.5568 0.0000 14.8651
#
#
#
# Elastic Compliance Matrix: (Units=1/GPa)
#
#
# Indices 1 2 3 4 5 6 
#
# 1 0.010333 -0.001970 -0.004604 0.000000 -0.003356 0.000000
# 2 -0.001970 0.040423 -0.005225 0.000000 -0.002636 0.000000
# 3 -0.004604 -0.005225 0.015058 0.000000 -0.004836 0.000000
# 4 0.000000 0.000000 0.000000 0.111537 0.000000 0.011681
# 5 -0.003356 -0.002636 -0.004836 0.000000 0.048675 0.000000
# 6 0.000000 0.000000 0.000000 0.011681 0.000000 0.068495
#
#
# Mechanical properties :
#
#
# Convention : Reuss Voigt Hill
#
# Bulk Modulus (GPa) = 23.68818 43.65013 33.66916
# Shear Modulus (GPa) = 15.05152 20.56395 17.80773
#
# Velocity S-wave (km/s) = 2.87924 3.36544 3.13179
# Velocity P-wave (km/s) = 4.90921 6.25644 5.62332
#
# Compressibility (1/GPa) = 0.04221515
#
# Stress axis : x y z
#
# Youngs Moduli (GPa) = 96.77291 24.73832 66.41164
#
# Poissons Ratio (x) = 0.04874 0.30578
# Poissons Ratio (y) = 0.19066 0.34700
# Poissons Ratio (z) = 0.44557 0.12926
#
# Static dielectric constant tensor:
#      x y z
#    x 3.554190 0.000000 -0.016990 
#    y 0.000000 3.027110 0.000000 
#    z -0.016990 0.000000 3.529030 
# 
# 
# High freq. dielectric constant tensor:
#      x y z
#    x 1.711610 0.000000 0.006980 
#    y 0.000000 1.668190 0.000000 
#    z 0.006980 0.000000 1.693780 
# 
# From -- ./inp_files/37940.got.cif
#   From: 2010.06.25/outbox.cif.g09.slc.cpg/sg10_19_cif.got.tgz:37940.got - 2010.06.27 22:07:45.
