data_PCOD8059662
_publ_section_title
;
Structure prediction by ZEFSAII (Michael W. Deem and Ramdas Pophale) SiO2 
 PCOD8059662
Probable space group: P 2/M
;
_chemical_formula_sum "Si O2"
_cell_formula_units_Z 28
_cell_length_a 20.652149
_cell_length_b 9.740954
_cell_length_c 16.153120
_cell_angle_alpha 90.000000
_cell_angle_beta 28.358298
_cell_angle_gamma 90.000000
_cell_volume 1543.483524
_symmetry_space_group_name_H-M "P 2/M"
_symmetry_group_IT_number 10
_symmetry_cell_setting 'monoclinic'
loop_
_space_group_symop_operation_xyz
x,y,z
-x,y,-z
-x,-y,-z
x,-y,z
loop_
_atom_site_type_symbol
_atom_site_label
_atom_site_fract_x
_atom_site_fract_y
_atom_site_fract_z
Si Si1 0.250299 0.841361 0.013462
Si Si2 0.552370 0.843009 0.678518
Si Si3 0.761803 0.655315 0.132209
Si Si4 0.933406 0.346897 0.211180
Si Si5 0.182598 0.158422 0.527137
Si Si6 0.992419 0.839593 0.599642
Si Si7 0.330368 0.658329 0.589513
O O1 0.136221 0.779219 0.203715
O O2 0.217696 0.000000 0.029650
O O3 0.400292 0.825805 0.886469
O O4 0.257139 0.760278 0.920314
O O5 0.660832 0.798891 0.628368
O O6 0.566923 0.751107 0.579451
O O7 0.579059 0.000000 0.621814
O O8 0.731036 0.500000 0.135991
O O9 0.661198 0.692627 0.321929
O O10 0.915225 0.663565 0.995858
O O11 0.904665 0.500000 0.277751
O O12 0.922960 0.242518 0.298935
O O13 0.824140 0.308926 0.264237
O O14 0.137072 0.188043 0.483473
O O15 0.158291 0.000000 0.575413
O O16 0.000000 0.770302 0.500000
O O17 0.964021 0.000000 0.620792
O O18 0.369552 0.500000 0.529729
#
# Coordination Sequence:
#
# PCOD8059662 Si02
#       7
#     4   4   4   4   4   4   4
#     4  10  20  34  50  70  98 129 159 196 244 287
#     4   9  19  33  48  69  99 131 162 197 235 279
#     4  10  19  30  47  71  99 128 165 205 239 277
#     4   9  16  28  47  70  97 126 160 201 241 278
#     4   9  16  30  51  72  95 125 159 194 234 284
#     4   9  17  31  53  77  97 120 154 196 241 290
#     4   9  18  31  47  69  97 132 167 200 236 278
#
# _framework density 18.140782999999999
#
# number of rings (size 3 to 8) (size 9 to 14) (size 15 to 20)
#    0.000    2.714    1.429    0.429    0.000    3.429 
#    0.000    3.571    0.000   10.286    0.000    0.000 
#    0.000    5.714    0.000    0.000    0.000    0.000 
#
# Total GULP energy -346987.687674 kJ/mol
# GULP energy per Si atom -12392.417417 kJ/mol
# Density = 1.809949 g / cm^3
# Si number density = 18.140783 Si / 1000 Ang^3
#
#
#
# Elastic Constant Matrix: (Units=GPa)
#
#
# Indices 1 2 3 4 5 6 
#
# 1 87.0211 31.9299 58.7937 0.0000 16.2848 0.0000
# 2 31.9299 47.3359 26.5577 0.0000 9.7238 0.0000
# 3 58.7937 26.5577 88.7539 0.0000 -0.0427 0.0000
# 4 0.0000 0.0000 0.0000 10.3962 0.0000 -6.9873
# 5 16.2848 9.7238 -0.0427 0.0000 26.4724 0.0000
# 6 0.0000 0.0000 0.0000 -6.9873 0.0000 12.4281
#
#
#
# Elastic Compliance Matrix: (Units=1/GPa)
#
#
# Indices 1 2 3 4 5 6 
#
# 1 0.027716 -0.006453 -0.016436 0.000000 -0.014706 0.000000
# 2 -0.006453 0.029429 -0.004535 0.000000 -0.006848 0.000000
# 3 -0.016436 -0.004535 0.023518 0.000000 0.011814 0.000000
# 4 0.000000 0.000000 0.000000 0.154612 0.000000 0.086925
# 5 -0.014706 -0.006848 0.011814 0.000000 0.049356 0.000000
# 6 0.000000 0.000000 0.000000 0.086925 0.000000 0.129334
#
#
# Mechanical properties :
#
#
# Convention : Reuss Voigt Hill
#
# Bulk Modulus (GPa) = 38.73709 50.85261 44.79485
# Shear Modulus (GPa) = 10.47302 16.91463 13.69383
#
# Velocity S-wave (km/s) = 2.40535 3.05685 2.75046
# Velocity P-wave (km/s) = 5.39576 6.36806 5.90197
#
# Compressibility (1/GPa) = 0.02581505
#
# Stress axis : x y z
#
# Youngs Moduli (GPa) = 36.08035 33.97977 42.52148
#
# Poissons Ratio (x) = 0.21927 0.69889
# Poissons Ratio (y) = 0.23283 0.19282
# Poissons Ratio (z) = 0.59302 0.15409
#
# Static dielectric constant tensor:
#      x y z
#    x 3.478820 0.000000 -0.168190 
#    y 0.000000 3.233980 0.000000 
#    z -0.168190 0.000000 3.402530 
# 
# 
# High freq. dielectric constant tensor:
#      x y z
#    x 1.701420 0.000000 -0.023660 
#    y 0.000000 1.682030 0.000000 
#    z -0.023660 0.000000 1.687670 
# 
# From -- ./inp_files/28679.got.cif
#   From: 2010.06.25/outbox.cif.g09.slc.cpg/sg10_15_cif.got.tgz:28679.got - 2010.06.27 22:07:45.
