data_PCOD8059340
_publ_section_title
;
Structure prediction by ZEFSAII (Michael W. Deem and Ramdas Pophale) SiO2 
 PCOD8059340
Probable space group: P 2/M
;
_chemical_formula_sum "Si O2"
_cell_formula_units_Z 28
_cell_length_a 22.465025
_cell_length_b 8.946027
_cell_length_c 13.796201
_cell_angle_alpha 90.000000
_cell_angle_beta 140.997281
_cell_angle_gamma 90.000000
_cell_volume 1744.993756
_symmetry_space_group_name_H-M "P 2/M"
_symmetry_group_IT_number 10
_symmetry_cell_setting 'monoclinic'
loop_
_space_group_symop_operation_xyz
x,y,z
-x,y,-z
-x,-y,-z
x,-y,z
loop_
_atom_site_type_symbol
_atom_site_label
_atom_site_fract_x
_atom_site_fract_y
_atom_site_fract_z
Si Si1 0.611103 0.171879 0.036697
Si Si2 0.097812 0.674863 0.730487
Si Si3 0.106638 0.322616 0.523585
Si Si4 0.296662 0.677041 0.670681
Si Si5 0.519700 0.325563 0.632190
Si Si6 0.701611 0.326935 0.974562
Si Si7 0.421690 0.827923 0.684694
O O1 0.630030 0.273114 0.153717
O O2 0.631996 0.000000 0.089200
O O3 0.678223 0.221992 0.034643
O O4 0.503146 0.193991 0.867717
O O5 0.082524 0.500000 0.699621
O O6 0.119051 0.737167 0.649344
O O7 0.997240 0.735738 0.645275
O O8 0.188514 0.709796 0.914473
O O9 0.114905 0.500000 0.530731
O O10 0.191589 0.260294 0.564055
O O11 0.299626 0.500000 0.664527
O O12 0.327993 0.748020 0.607773
O O13 0.500000 0.262840 0.500000
O O14 0.496146 0.500000 0.608853
O O15 0.630503 0.293543 0.795981
O O16 0.450940 0.243551 0.619715
O O17 0.692169 0.500000 0.995474
O O18 0.399231 0.000000 0.636950
#
# Coordination Sequence:
#
# PCOD8059340 Si02
#       7
#     4   4   4   4   4   4   4
#     4  10  19  29  40  58  88 120 148 178 209 247
#     4   8  12  22  39  61  86 112 145 179 209 246
#     4   8  14  22  37  61  87 113 144 181 211 240
#     4  11  19  28  43  63  86 117 151 180 213 251
#     4   9  18  32  49  70  91 108 135 180 224 259
#     4   9  15  26  46  66  85 114 147 175 211 259
#     4  10  21  33  44  61  86 117 148 177 213 258
#
# _framework density 16.045902999999999
#
# number of rings (size 3 to 8) (size 9 to 14) (size 15 to 20)
#    0.000    2.714    1.429    2.571    0.000    3.714 
#    0.000    0.000    0.000    2.571    0.000    1.000 
#    0.000    8.000    0.000    0.000    0.000    0.000 
#
# Total GULP energy -346939.687943 kJ/mol
# GULP energy per Si atom -12390.703141 kJ/mol
# Density = 1.600938 g / cm^3
# Si number density = 16.045903 Si / 1000 Ang^3
#
#
#
# Elastic Constant Matrix: (Units=GPa)
#
#
# Indices 1 2 3 4 5 6 
#
# 1 130.2113 41.2002 66.2160 0.0000 14.4975 0.0000
# 2 41.2002 47.1384 24.6782 0.0000 0.9742 0.0000
# 3 66.2160 24.6782 80.9771 0.0000 3.8671 0.0000
# 4 0.0000 0.0000 0.0000 10.7578 0.0000 -3.0866
# 5 14.4975 0.9742 3.8671 0.0000 19.0784 0.0000
# 6 0.0000 0.0000 0.0000 -3.0866 0.0000 8.4672
#
#
#
# Elastic Compliance Matrix: (Units=1/GPa)
#
#
# Indices 1 2 3 4 5 6 
#
# 1 0.017247 -0.009205 -0.010799 0.000000 -0.010447 0.000000
# 2 -0.009205 0.030156 -0.001942 0.000000 0.005849 0.000000
# 3 -0.010799 -0.001942 0.021584 0.000000 0.003930 0.000000
# 4 0.000000 0.000000 0.000000 0.103813 0.000000 0.037844
# 5 -0.010447 0.005849 0.003930 0.000000 0.059259 0.000000
# 6 0.000000 0.000000 0.000000 0.037844 0.000000 0.131898
#
#
# Mechanical properties :
#
#
# Convention : Reuss Voigt Hill
#
# Bulk Modulus (GPa) = 39.85036 58.05728 48.95382
# Shear Modulus (GPa) = 12.01305 16.07618 14.04461
#
# Velocity S-wave (km/s) = 2.73915 3.16869 2.96172
# Velocity P-wave (km/s) = 5.90703 7.04614 6.50158
#
# Compressibility (1/GPa) = 0.02509387
#
# Stress axis : x y z
#
# Youngs Moduli (GPa) = 57.98082 33.16143 46.33088
#
# Poissons Ratio (x) = 0.30525 0.50033
# Poissons Ratio (y) = 0.53371 0.08999
# Poissons Ratio (z) = 0.62613 0.06441
#
# Static dielectric constant tensor:
#      x y z
#    x 3.195020 0.000000 0.315950 
#    y 0.000000 2.850230 0.000000 
#    z 0.315950 0.000000 2.999690 
# 
# 
# High freq. dielectric constant tensor:
#      x y z
#    x 1.609710 0.000000 0.026460 
#    y 0.000000 1.597390 0.000000 
#    z 0.026460 0.000000 1.584380 
# 
# From -- ./inp_files/54708.got.cif
#   From: 2010.06.25/outbox.cif.g09.slc.cpg/sg10_28_cif.got.tgz:54708.got - 2010.06.27 22:07:45.
