data_PCOD8059169
_publ_section_title
;
Structure prediction by ZEFSAII (Michael W. Deem and Ramdas Pophale) SiO2 
 PCOD8059169
Probable space group: P 2/M
;
_chemical_formula_sum "Si O2"
_cell_formula_units_Z 32
_cell_length_a 14.266132
_cell_length_b 14.227724
_cell_length_c 12.174429
_cell_angle_alpha 90.000000
_cell_angle_beta 46.328633
_cell_angle_gamma 90.000000
_cell_volume 1787.376863
_symmetry_space_group_name_H-M "P 2/M"
_symmetry_group_IT_number 10
_symmetry_cell_setting 'monoclinic'
loop_
_space_group_symop_operation_xyz
x,y,z
-x,y,-z
-x,-y,-z
x,-y,z
loop_
_atom_site_type_symbol
_atom_site_label
_atom_site_fract_x
_atom_site_fract_y
_atom_site_fract_z
Si Si1 0.349513 0.393774 0.097510
Si Si2 0.438629 0.891676 0.360785
Si Si3 0.864718 0.395802 0.545779
Si Si4 0.741484 0.108928 0.691533
Si Si5 0.724492 0.110279 0.127161
Si Si6 0.219228 0.219242 0.130622
Si Si7 0.075209 0.782881 0.611452
Si Si8 0.798246 0.110297 0.308258
O O1 0.332174 0.500000 0.065332
O O2 0.261206 0.379427 0.276623
O O3 0.296111 0.317905 0.052480
O O4 0.500000 0.373841 0.000000
O O5 0.383917 0.873930 0.283219
O O6 0.580257 0.846003 0.257190
O O7 0.339910 0.853302 0.532793
O O8 0.457716 0.000000 0.371373
O O9 0.859073 0.500000 0.498320
O O10 0.855262 0.318978 0.456180
O O11 0.000000 0.382485 0.500000
O O12 0.709663 0.158505 0.832730
O O13 0.868628 0.147742 0.526876
O O14 0.766192 0.000000 0.694539
O O15 0.805781 0.128513 0.172342
O O16 0.721918 0.000000 0.100762
O O17 0.792383 0.164684 0.974005
O O18 0.074740 0.235480 0.290521
O O19 0.093403 0.827802 0.717854
O O20 0.819734 0.000000 0.318730
#
# Coordination Sequence:
#
# PCOD8059169 Si02
#       8
#     4   4   4   4   4   4   4   4
#     4  10  22  38  56  81 112 142 174 219 279 341
#     4   8  16  32  52  71  96 135 183 227 269 319
#     4  10  18  34  58  82 107 136 176 225 276 334
#     4  10  20  32  48  75 110 143 175 220 272 325
#     4  10  21  34  49  75 107 146 188 226 273 322
#     4  12  23  32  51  78 109 142 178 224 273 331
#     4  11  20  34  52  77 103 142 189 226 263 321
#     4   9  19  35  54  72 101 145 193 235 265 312
#
# _framework density 17.903331000000001
#
# number of rings (size 3 to 8) (size 9 to 14) (size 15 to 20)
#    0.000    2.000    2.500    2.250    1.750    4.500 
#    0.000    3.125    0.000    0.750    0.000    1.750 
#    0.000    6.250    0.000    0.000    0.000    0.000 
#
# Total GULP energy -396661.667006 kJ/mol
# GULP energy per Si atom -12395.677094 kJ/mol
# Density = 1.786258 g / cm^3
# Si number density = 17.903331 Si / 1000 Ang^3
#
#
#
# Elastic Constant Matrix: (Units=GPa)
#
#
# Indices 1 2 3 4 5 6 
#
# 1 71.5295 49.2747 30.4505 0.0000 3.6406 0.0000
# 2 49.2747 114.3425 33.5468 0.0000 10.9240 0.0000
# 3 30.4505 33.5468 52.2423 0.0000 2.7822 0.0000
# 4 0.0000 0.0000 0.0000 22.9927 0.0000 -2.2205
# 5 3.6406 10.9240 2.7822 0.0000 36.5129 0.0000
# 6 0.0000 0.0000 0.0000 -2.2205 0.0000 22.2288
#
#
#
# Elastic Compliance Matrix: (Units=1/GPa)
#
#
# Indices 1 2 3 4 5 6 
#
# 1 0.022605 -0.007297 -0.008521 0.000000 0.000578 0.000000
# 2 -0.007297 0.013404 -0.004197 0.000000 -0.002963 0.000000
# 3 -0.008521 -0.004197 0.026800 0.000000 0.000063 0.000000
# 4 0.000000 0.000000 0.000000 0.043916 0.000000 0.004387
# 5 0.000578 -0.002963 0.000063 0.000000 0.028212 0.000000
# 6 0.000000 0.000000 0.000000 0.004387 0.000000 0.045425
#
#
# Mechanical properties :
#
#
# Convention : Reuss Voigt Hill
#
# Bulk Modulus (GPa) = 43.89769 51.62869 47.76319
# Shear Modulus (GPa) = 21.93147 24.66970 23.30058
#
# Velocity S-wave (km/s) = 3.50379 3.71609 3.61150
# Velocity P-wave (km/s) = 6.39853 6.87841 6.64280
#
# Compressibility (1/GPa) = 0.02278024
#
# Stress axis : x y z
#
# Youngs Moduli (GPa) = 44.23873 74.60247 37.31377
#
# Poissons Ratio (x) = 0.54434 0.31795
# Poissons Ratio (y) = 0.32279 0.15660
# Poissons Ratio (z) = 0.37696 0.31309
#
# Static dielectric constant tensor:
#      x y z
#    x 3.275920 0.000000 -0.169190 
#    y 0.000000 3.394300 0.000000 
#    z -0.169190 0.000000 3.283680 
# 
# 
# High freq. dielectric constant tensor:
#      x y z
#    x 1.676650 0.000000 -0.017400 
#    y 0.000000 1.677530 0.000000 
#    z -0.017400 0.000000 1.689330 
# 
# From -- ./inp_files/51633.got.cif
#   From: 2010.06.25/outbox.cif.g09.slc.cpg/sg10_26_cif.got.tgz:51633.got - 2010.06.27 22:07:45.
