data_PCOD8059186
_publ_section_title
;
Structure prediction by ZEFSAII (Michael W. Deem and Ramdas Pophale) SiO2 
 PCOD8059186
Probable space group: P 2/M
;
_chemical_formula_sum "Si O2"
_cell_formula_units_Z 32
_cell_length_a 12.443936
_cell_length_b 8.829165
_cell_length_c 28.706263
_cell_angle_alpha 90.000000
_cell_angle_beta 30.469823
_cell_angle_gamma 90.000000
_cell_volume 1599.316369
_symmetry_space_group_name_H-M "P 2/M"
_symmetry_group_IT_number 10
_symmetry_cell_setting 'monoclinic'
loop_
_space_group_symop_operation_xyz
x,y,z
-x,y,-z
-x,-y,-z
x,-y,z
loop_
_atom_site_type_symbol
_atom_site_label
_atom_site_fract_x
_atom_site_fract_y
_atom_site_fract_z
Si Si1 0.028523 0.174435 0.173883
Si Si2 0.520174 0.170982 0.225426
Si Si3 0.184969 0.821645 0.466870
Si Si4 0.370758 0.321770 0.725709
Si Si5 0.090976 0.178803 0.347706
Si Si6 0.176504 0.828621 0.968695
Si Si7 0.209960 0.174919 0.202673
Si Si8 0.349040 0.677337 0.989468
O O1 0.817857 0.255154 0.234673
O O2 0.035189 0.192411 0.227394
O O3 0.021629 0.000000 0.161244
O O4 0.248207 0.246847 0.072946
O O5 0.656693 0.272053 0.210101
O O6 0.604649 0.174447 0.141155
O O7 0.283506 0.236458 0.308630
O O8 0.522306 0.000000 0.244557
O O9 0.401494 0.734847 0.376591
O O10 0.119446 0.777021 0.544749
O O11 0.000000 0.772692 0.500000
O O12 0.227178 0.000000 0.446429
O O13 0.357592 0.500000 0.726442
O O14 0.105120 0.243292 0.289498
O O15 0.110897 0.000000 0.336284
O O16 0.186563 0.717595 0.008661
O O17 0.120381 0.000000 0.006194
O O18 0.000000 0.765072 0.000000
O O19 0.420385 0.262990 0.109457
O O20 0.276179 0.000000 0.184415
O O21 0.359575 0.500000 0.994010
#
# Coordination Sequence:
#
# PCOD8059186 Si02
#       8
#     4   4   4   4   4   4   4   4
#     4  11  24  42  64  85 113 158 211 254 293 347
#     4  10  18  34  59  84 117 156 196 241 290 349
#     4  10  19  36  63  91 119 157 199 238 292 360
#     4  12  25  39  58  88 127 158 193 247 305 364
#     4   9  17  34  62  91 116 145 193 250 292 339
#     4  10  20  34  55  82 115 158 202 243 289 346
#     4  10  21  41  66  90 115 154 208 256 292 340
#     4  12  24  37  58  89 125 159 195 243 300 359
#
# _framework density 20.00855
#
# number of rings (size 3 to 8) (size 9 to 14) (size 15 to 20)
#    0.000    1.500    2.500    3.750    0.000    4.500 
#    0.000    1.250    0.000    3.750    0.000    0.000 
#    0.000    0.000    0.000    0.000    0.000    0.000 
#
# Total GULP energy -396702.825483 kJ/mol
# GULP energy per Si atom -12396.963296 kJ/mol
# Density = 1.996301 g / cm^3
# Si number density = 20.008550 Si / 1000 Ang^3
#
#
#
# Elastic Constant Matrix: (Units=GPa)
#
#
# Indices 1 2 3 4 5 6 
#
# 1 104.8615 42.0571 34.9922 0.0000 13.5742 0.0000
# 2 42.0571 106.1972 32.3029 0.0000 2.8674 0.0000
# 3 34.9922 32.3029 72.1387 0.0000 15.1706 0.0000
# 4 0.0000 0.0000 0.0000 14.0612 0.0000 -5.0518
# 5 13.5742 2.8674 15.1706 0.0000 27.5689 0.0000
# 6 0.0000 0.0000 0.0000 -5.0518 0.0000 8.6531
#
#
#
# Elastic Compliance Matrix: (Units=1/GPa)
#
#
# Indices 1 2 3 4 5 6 
#
# 1 0.012809 -0.003851 -0.003672 0.000000 -0.003886 0.000000
# 2 -0.003851 0.012135 -0.004183 0.000000 0.002936 0.000000
# 3 -0.003672 -0.004183 0.019275 0.000000 -0.008364 0.000000
# 4 0.000000 0.000000 0.000000 0.089993 0.000000 0.052540
# 5 -0.003886 0.002936 -0.008364 0.000000 0.042483 0.000000
# 6 0.000000 0.000000 0.000000 0.052540 0.000000 0.146239
#
#
# Mechanical properties :
#
#
# Convention : Reuss Voigt Hill
#
# Bulk Modulus (GPa) = 48.05991 55.76687 51.91339
# Shear Modulus (GPa) = 14.15298 21.64633 17.89965
#
# Velocity S-wave (km/s) = 2.66248 3.29272 2.99423
# Velocity P-wave (km/s) = 5.78996 6.51061 6.16083
#
# Compressibility (1/GPa) = 0.02080736
#
# Stress axis : x y z
#
# Youngs Moduli (GPa) = 78.06888 82.40800 51.87984
#
# Poissons Ratio (x) = 0.31736 0.19049
# Poissons Ratio (y) = 0.30065 0.21703
# Poissons Ratio (z) = 0.28664 0.34473
#
# Static dielectric constant tensor:
#      x y z
#    x 3.811820 0.000000 0.203390 
#    y 0.000000 3.369030 0.000000 
#    z 0.203390 0.000000 3.780800 
# 
# 
# High freq. dielectric constant tensor:
#      x y z
#    x 1.786510 0.000000 0.009750 
#    y 0.000000 1.750630 0.000000 
#    z 0.009750 0.000000 1.782750 
# 
# From -- ./inp_files/94916.got.cif
#   From: 2010.06.25/outbox.cif.g09.slc.cpg/sg10_48_cif.got.tgz:94916.got - 2010.06.27 22:07:45.
