data_PCOD8059119
_publ_section_title
;
Structure prediction by ZEFSAII (Michael W. Deem and Ramdas Pophale) SiO2 
 PCOD8059119
Probable space group: P 2/M
;
_chemical_formula_sum "Si O2"
_cell_formula_units_Z 28
_cell_length_a 27.449265
_cell_length_b 9.183316
_cell_length_c 9.548222
_cell_angle_alpha 90.000000
_cell_angle_beta 141.143917
_cell_angle_gamma 90.000000
_cell_volume 1509.989681
_symmetry_space_group_name_H-M "P 2/M"
_symmetry_group_IT_number 10
_symmetry_cell_setting 'monoclinic'
loop_
_space_group_symop_operation_xyz
x,y,z
-x,y,-z
-x,-y,-z
x,-y,z
loop_
_atom_site_type_symbol
_atom_site_label
_atom_site_fract_x
_atom_site_fract_y
_atom_site_fract_z
Si Si1 0.195263 0.168720 0.652394
Si Si2 0.369684 0.829180 0.370395
Si Si3 0.947260 0.329256 0.753760
Si Si4 0.499591 0.327872 0.836461
Si Si5 0.802284 0.172234 0.030645
Si Si6 0.040049 0.161710 0.737928
Si Si7 0.373042 0.167225 0.051711
O O1 0.137423 0.255645 0.420552
O O2 0.171955 0.000000 0.593166
O O3 0.183154 0.234681 0.781065
O O4 0.284179 0.191575 0.805941
O O5 0.424925 0.738851 0.594294
O O6 0.282072 0.778957 0.214645
O O7 0.385931 0.792923 0.243713
O O8 0.382427 0.000000 0.426306
O O9 0.934840 0.500000 0.720226
O O10 0.991890 0.277613 0.716308
O O11 0.000000 0.279075 0.000000
O O12 0.496634 0.500000 0.813112
O O13 0.576673 0.270109 0.934128
O O14 0.500000 0.281174 0.000000
O O15 0.800915 0.000000 0.046755
O O16 0.871137 0.220266 0.080288
O O17 0.000000 0.147969 0.500000
O O18 0.040215 0.000000 0.808152
O O19 0.397770 0.000000 0.082862
#
# Coordination Sequence:
#
# PCOD8059119 Si02
#       7
#     4   4   4   4   4   4   4
#     4   9  17  35  60  83 107 136 179 228 272 322
#     4   9  18  35  60  85 110 136 175 227 274 322
#     4  11  24  38  50  74 115 155 186 220 267 320
#     4  11  24  39  53  76 114 153 183 213 260 322
#     4   8  15  31  56  86 110 131 168 228 283 317
#     4  10  18  33  60  84 106 139 182 230 275 316
#     4   9  19  36  62  89 107 132 176 230 278 319
#
# _framework density 18.543172999999999
#
# number of rings (size 3 to 8) (size 9 to 14) (size 15 to 20)
#    0.000    2.429    1.429    3.000    0.000    5.429 
#    2.571    2.857    0.000    0.000    0.000    0.000 
#    0.000    0.000    0.000    0.000    0.000    0.000 
#
# Total GULP energy -347117.538777 kJ/mol
# GULP energy per Si atom -12397.054956 kJ/mol
# Density = 1.850097 g / cm^3
# Si number density = 18.543173 Si / 1000 Ang^3
#
#
#
# Elastic Constant Matrix: (Units=GPa)
#
#
# Indices 1 2 3 4 5 6 
#
# 1 83.3144 34.4803 57.8669 0.0000 14.2554 0.0000
# 2 34.4803 60.3529 61.3846 0.0000 2.2268 0.0000
# 3 57.8669 61.3846 143.9945 0.0000 15.2413 0.0000
# 4 0.0000 0.0000 0.0000 17.6186 0.0000 -15.4729
# 5 14.2554 2.2268 15.2413 0.0000 27.7631 0.0000
# 6 0.0000 0.0000 0.0000 -15.4729 0.0000 12.5235
#
#
#
# Elastic Compliance Matrix: (Units=1/GPa)
#
#
# Indices 1 2 3 4 5 6 
#
# 1 0.018578 -0.006180 -0.004113 0.000000 -0.006786 0.000000
# 2 -0.006180 0.031918 -0.011878 0.000000 0.007134 0.000000
# 3 -0.004113 -0.011878 0.014160 0.000000 -0.004709 0.000000
# 4 0.000000 0.000000 0.000000 -0.667398 0.000000 -0.824577
# 5 -0.006786 0.007134 -0.004709 0.000000 0.041516 0.000000
# 6 0.000000 0.000000 0.000000 -0.824577 0.000000 -0.938924
#
#
# Mechanical properties :
#
#
# Convention : Reuss Voigt Hill
#
# Bulk Modulus (GPa) = 49.22932 66.12502 57.67717
# Shear Modulus (GPa) = -3.45057 20.50971 8.52957
#
# Velocity S-wave (km/s) = -1.36560 3.32934 2.14705
# Velocity P-wave (km/s) = 4.91117 7.10752 6.10886
#
# Compressibility (1/GPa) = 0.02031310
#
# Stress axis : x y z
#
# Youngs Moduli (GPa) = 53.82615 31.33045 70.62308
#
# Poissons Ratio (x) = 0.19362 0.29049
# Poissons Ratio (y) = 0.33265 0.83886
# Poissons Ratio (z) = 0.22140 0.37214
#
# Static dielectric constant tensor:
#      x y z
#    x 3.111200 0.000000 0.329910 
#    y 0.000000 3.165780 0.000000 
#    z 0.329910 0.000000 3.544280 
# 
# 
# High freq. dielectric constant tensor:
#      x y z
#    x 1.714100 0.000000 0.021830 
#    y 0.000000 1.696940 0.000000 
#    z 0.021830 0.000000 1.725010 
# 
# From -- ./inp_files/37296.got.cif
#   From: 2010.06.25/outbox.cif.g09.slc.cpg/sg10_19_cif.got.tgz:37296.got - 2010.06.27 22:07:45.
