data_PCOD8059274
_publ_section_title
;
Structure prediction by ZEFSAII (Michael W. Deem and Ramdas Pophale) SiO2 
 PCOD8059274
Probable space group: P 2/M
;
_chemical_formula_sum "Si O2"
_cell_formula_units_Z 32
_cell_length_a 8.975445
_cell_length_b 22.846614
_cell_length_c 14.962196
_cell_angle_alpha 90.000000
_cell_angle_beta 29.246011
_cell_angle_gamma 90.000000
_cell_volume 1498.965101
_symmetry_space_group_name_H-M "P 2/M"
_symmetry_group_IT_number 10
_symmetry_cell_setting 'monoclinic'
loop_
_space_group_symop_operation_xyz
x,y,z
-x,y,-z
-x,-y,-z
x,-y,z
loop_
_atom_site_type_symbol
_atom_site_label
_atom_site_fract_x
_atom_site_fract_y
_atom_site_fract_z
Si Si1 0.140116 0.935238 0.698096
Si Si2 0.320304 0.360785 0.181644
Si Si3 0.716530 0.434548 0.468959
Si Si4 0.347763 0.615782 0.807787
Si Si5 0.938719 0.246955 0.629444
Si Si6 0.091132 0.122318 0.543928
Si Si7 0.206005 0.158409 0.804743
Si Si8 0.436489 0.723800 0.630429
O O1 0.500000 0.935912 0.500000
O O2 0.001071 0.917356 0.675110
O O3 0.046372 0.888307 0.822188
O O4 0.018870 0.000000 0.787679
O O5 0.495421 0.382565 0.177486
O O6 0.984652 0.388008 0.345980
O O7 0.300518 0.289891 0.196370
O O8 0.500000 0.380129 0.000000
O O9 0.500000 0.415928 0.500000
O O10 0.848805 0.500000 0.385111
O O11 0.513650 0.434568 0.664644
O O12 0.360023 0.676198 0.745574
O O13 0.000000 0.596913 0.000000
O O14 0.854026 0.178449 0.668191
O O15 0.249335 0.243874 0.519569
O O16 0.000000 0.275275 0.500000
O O17 0.448867 0.139227 0.353918
O O18 0.000000 0.088375 0.500000
O O19 0.192451 0.222879 0.764306
O O20 0.000000 0.161472 0.000000
O O21 0.500000 0.694721 0.500000
#
# Coordination Sequence:
#
# PCOD8059274 Si02
#       8
#     4   4   4   4   4   4   4   4
#     4   9  18  36  58  83 116 160 210 253 305 380
#     4  12  25  42  66  98 133 172 216 261 321 380
#     4  11  25  48  73  97 130 172 217 266 316 371
#     4  12  25  41  65  99 132 169 216 264 320 383
#     4  10  18  37  58  83 123 164 200 253 319 380
#     4   9  19  35  58  84 116 159 202 254 315 376
#     4  10  20  36  56  88 118 154 207 257 311 373
#     4  11  21  36  62  86 124 161 203 256 319 378
#
# _framework density 21.34806
#
# number of rings (size 3 to 8) (size 9 to 14) (size 15 to 20)
#    0.000    1.500    2.500    3.750    1.750    2.000 
#    2.250    0.625    0.000    0.750    0.000    0.000 
#    0.000    0.000    0.000    0.000    0.000    0.000 
#
# Total GULP energy -396489.625606 kJ/mol
# GULP energy per Si atom -12390.300800 kJ/mol
# Density = 2.129947 g / cm^3
# Si number density = 21.348060 Si / 1000 Ang^3
#
#
#
# Elastic Constant Matrix: (Units=GPa)
#
#
# Indices 1 2 3 4 5 6 
#
# 1 158.1401 38.4836 40.5360 0.0000 19.2145 0.0000
# 2 38.4836 91.3588 13.0125 0.0000 10.7104 0.0000
# 3 40.5360 13.0125 88.3044 0.0000 16.5113 0.0000
# 4 0.0000 0.0000 0.0000 9.9596 0.0000 10.4125
# 5 19.2145 10.7104 16.5113 0.0000 35.8972 0.0000
# 6 0.0000 0.0000 0.0000 10.4125 0.0000 19.1692
#
#
#
# Elastic Compliance Matrix: (Units=1/GPa)
#
#
# Indices 1 2 3 4 5 6 
#
# 1 0.007975 -0.002700 -0.002862 0.000000 -0.002147 0.000000
# 2 -0.002700 0.012362 -0.000178 0.000000 -0.002161 0.000000
# 3 -0.002862 -0.000178 0.013532 0.000000 -0.004639 0.000000
# 4 0.000000 0.000000 0.000000 0.232361 0.000000 -0.126216
# 5 -0.002147 -0.002161 -0.004639 0.000000 0.031785 0.000000
# 6 0.000000 0.000000 0.000000 -0.126216 0.000000 0.120726
#
#
# Mechanical properties :
#
#
# Convention : Reuss Voigt Hill
#
# Bulk Modulus (GPa) = 44.66440 57.98528 51.32484
# Shear Modulus (GPa) = 11.42377 29.38994 20.40686
#
# Velocity S-wave (km/s) = 2.31578 3.71442 3.09514
# Velocity P-wave (km/s) = 5.30263 6.75401 6.07184
#
# Compressibility (1/GPa) = 0.02238920
#
# Stress axis : x y z
#
# Youngs Moduli (GPa) = 125.39288 80.89346 73.90024
#
# Poissons Ratio (x) = 0.21842 0.21147
# Poissons Ratio (y) = 0.33857 0.01316
# Poissons Ratio (z) = 0.35882 0.01441
#
# Static dielectric constant tensor:
#      x y z
#    x 4.037060 0.000000 0.087930 
#    y 0.000000 3.950500 0.000000 
#    z 0.087930 0.000000 3.570540 
# 
# 
# High freq. dielectric constant tensor:
#      x y z
#    x 1.853760 0.000000 0.013620 
#    y 0.000000 1.832600 0.000000 
#    z 0.013620 0.000000 1.806100 
# 
# From -- ./inp_files/62698.got.cif
#   From: 2010.06.25/outbox.cif.g09.slc.cpg/sg10_32_cif.got.tgz:62698.got - 2010.06.27 22:07:45.
