data_PCOD8059659
_publ_section_title
;
Structure prediction by ZEFSAII (Michael W. Deem and Ramdas Pophale) SiO2 
 PCOD8059659
Probable space group: P 2/M
;
_chemical_formula_sum "Si O2"
_cell_formula_units_Z 28
_cell_length_a 9.544983
_cell_length_b 9.126500
_cell_length_c 32.226236
_cell_angle_alpha 90.000000
_cell_angle_beta 32.224502
_cell_angle_gamma 90.000000
_cell_volume 1496.959904
_symmetry_space_group_name_H-M "P 2/M"
_symmetry_group_IT_number 10
_symmetry_cell_setting 'monoclinic'
loop_
_space_group_symop_operation_xyz
x,y,z
-x,y,-z
-x,-y,-z
x,-y,z
loop_
_atom_site_type_symbol
_atom_site_label
_atom_site_fract_x
_atom_site_fract_y
_atom_site_fract_z
Si Si1 0.307909 0.826892 0.254251
Si Si2 0.661808 0.673377 0.322031
Si Si3 0.798303 0.827806 0.431365
Si Si4 0.715558 0.326204 0.914752
Si Si5 0.751623 0.326802 0.813332
Si Si6 0.311363 0.673608 0.776968
Si Si7 0.190295 0.666983 0.490835
O O1 0.383135 0.759766 0.190557
O O2 0.520117 0.762373 0.232451
O O3 0.007792 0.784242 0.342953
O O4 0.342813 0.000000 0.243852
O O5 0.646382 0.500000 0.326888
O O6 0.584281 0.720040 0.294721
O O7 0.464208 0.737060 0.405943
O O8 0.948505 0.726702 0.262334
O O9 0.500000 0.765442 0.500000
O O10 0.914207 0.760418 0.444570
O O11 0.786521 0.000000 0.439657
O O12 0.710745 0.500000 0.917395
O O13 0.639732 0.279315 0.886529
O O14 0.005888 0.276130 0.856051
O O15 0.500000 0.257748 0.000000
O O16 0.719890 0.500000 0.813899
O O17 0.341035 0.500000 0.777527
O O18 0.220626 0.500000 0.498367
O O19 0.000000 0.677998 0.500000
#
# Coordination Sequence:
#
# PCOD8059659 Si02
#       7
#     4   4   4   4   4   4   4
#     4  11  22  34  48  70 102 134 167 208 246 288
#     4   8  15  29  48  71  95 121 161 207 247 291
#     4  10  22  37  49  65  94 133 173 211 252 293
#     4   8  15  31  57  86 107 123 155 203 246 287
#     4   9  17  31  53  75  96 127 163 198 240 292
#     4   9  17  32  55  77 100 132 164 199 245 295
#     4  10  19  30  47  71  96 122 158 207 255 297
#
# _framework density 18.704575999999999
#
# number of rings (size 3 to 8) (size 9 to 14) (size 15 to 20)
#    0.000    2.714    0.000    3.857    0.000    2.857 
#    0.000    4.286    0.000    6.000    0.000    0.000 
#    0.000    0.000    0.000    0.000    0.000    0.000 
#
# Total GULP energy -346991.683772 kJ/mol
# GULP energy per Si atom -12392.560135 kJ/mol
# Density = 1.866200 g / cm^3
# Si number density = 18.704576 Si / 1000 Ang^3
#
#
#
# Elastic Constant Matrix: (Units=GPa)
#
#
# Indices 1 2 3 4 5 6 
#
# 1 99.9111 35.3348 31.6381 0.0000 20.6452 0.0000
# 2 35.3348 35.5648 24.9079 0.0000 9.0463 0.0000
# 3 31.6381 24.9079 87.8635 0.0000 18.5034 0.0000
# 4 0.0000 0.0000 0.0000 12.0713 0.0000 -5.6924
# 5 20.6452 9.0463 18.5034 0.0000 27.5953 0.0000
# 6 0.0000 0.0000 0.0000 -5.6924 0.0000 7.9544
#
#
#
# Elastic Compliance Matrix: (Units=1/GPa)
#
#
# Indices 1 2 3 4 5 6 
#
# 1 0.016833 -0.014558 -0.000335 0.000000 -0.007597 0.000000
# 2 -0.014558 0.048439 -0.008663 0.000000 0.000820 0.000000
# 3 -0.000335 -0.008663 0.015495 0.000000 -0.007299 0.000000
# 4 0.000000 0.000000 0.000000 0.125037 0.000000 0.089479
# 5 -0.007597 0.000820 -0.007299 0.000000 0.046547 0.000000
# 6 0.000000 0.000000 0.000000 0.089479 0.000000 0.189750
#
#
# Mechanical properties :
#
#
# Convention : Reuss Voigt Hill
#
# Bulk Modulus (GPa) = 29.71093 45.23345 37.47219
# Shear Modulus (GPa) = 9.99143 18.28812 14.13977
#
# Velocity S-wave (km/s) = 2.31372 3.13027 2.75244
# Velocity P-wave (km/s) = 4.80172 6.10740 5.49349
#
# Compressibility (1/GPa) = 0.03365764
#
# Stress axis : x y z
#
# Youngs Moduli (GPa) = 59.40675 20.64439 64.53828
#
# Poissons Ratio (x) = 0.30053 0.02160
# Poissons Ratio (y) = 0.86482 0.55907
# Poissons Ratio (z) = 0.01988 0.17883
#
# Static dielectric constant tensor:
#      x y z
#    x 3.409090 0.000000 -0.072050 
#    y 0.000000 3.028660 0.000000 
#    z -0.072050 0.000000 4.362820 
# 
# 
# High freq. dielectric constant tensor:
#      x y z
#    x 1.728780 0.000000 0.009970 
#    y 0.000000 1.686540 0.000000 
#    z 0.009970 0.000000 1.724940 
# 
# From -- ./inp_files/91950.got.cif
#   From: 2010.06.25/outbox.cif.g09.slc.cpg/sg10_46_cif.got.tgz:91950.got - 2010.06.27 22:07:45.
