data_PCOD8059517
_publ_section_title
;
Structure prediction by ZEFSAII (Michael W. Deem and Ramdas Pophale) SiO2 
 PCOD8059517
Probable space group: P 2/M
;
_chemical_formula_sum "Si O2"
_cell_formula_units_Z 28
_cell_length_a 12.265710
_cell_length_b 9.197154
_cell_length_c 20.332944
_cell_angle_alpha 90.000000
_cell_angle_beta 132.153464
_cell_angle_gamma 90.000000
_cell_volume 1700.472704
_symmetry_space_group_name_H-M "P 2/M"
_symmetry_group_IT_number 10
_symmetry_cell_setting 'monoclinic'
loop_
_space_group_symop_operation_xyz
x,y,z
-x,y,-z
-x,-y,-z
x,-y,z
loop_
_atom_site_type_symbol
_atom_site_label
_atom_site_fract_x
_atom_site_fract_y
_atom_site_fract_z
Si Si1 0.879724 0.329333 0.783801
Si Si2 0.174386 0.827625 0.924693
Si Si3 0.582783 0.328077 0.891340
Si Si4 0.433652 0.162772 0.574955
Si Si5 0.733257 0.835528 0.615878
Si Si6 0.378468 0.159834 0.894798
Si Si7 0.414948 0.331714 0.258613
O O1 0.913125 0.500000 0.794555
O O2 0.849369 0.272162 0.697334
O O3 0.743504 0.290905 0.775838
O O4 0.016274 0.244631 0.870363
O O5 0.228603 0.794458 0.871756
O O6 0.167728 0.000000 0.935245
O O7 0.282029 0.755435 0.021201
O O8 0.602181 0.500000 0.909052
O O9 0.427246 0.277550 0.860181
O O10 0.580398 0.281229 0.814601
O O11 0.301973 0.217234 0.473212
O O12 0.583594 0.168000 0.595548
O O13 0.450612 0.258244 0.647296
O O14 0.398056 0.000000 0.583436
O O15 0.796872 0.000000 0.641356
O O16 0.361437 0.000000 0.854898
O O17 0.500000 0.150085 0.000000
O O18 0.445396 0.500000 0.277686
#
# Coordination Sequence:
#
# PCOD8059517 Si02
#       7
#     4   4   4   4   4   4   4
#     4  10  19  30  44  64  91 122 152 178 212 262
#     4  10  20  33  47  64  88 116 147 186 225 258
#     4  10  19  31  47  66  89 117 148 182 219 259
#     4   8  14  25  43  63  84 114 149 182 214 254
#     4   8  14  26  42  62  87 113 145 184 220 251
#     4   8  16  31  48  65  84 107 141 186 228 260
#     4   9  19  31  42  63  95 123 146 178 217 257
#
# _framework density 16.466010000000001
#
# number of rings (size 3 to 8) (size 9 to 14) (size 15 to 20)
#    0.000    3.000    0.000    3.000    0.000    6.000 
#    0.000    5.714    0.000    0.000    0.000    1.000 
#    0.000    8.000    0.000    0.000    0.000    0.000 
#
# Total GULP energy -347006.894609 kJ/mol
# GULP energy per Si atom -12393.103379 kJ/mol
# Density = 1.642853 g / cm^3
# Si number density = 16.466010 Si / 1000 Ang^3
#
#
#
# Elastic Constant Matrix: (Units=GPa)
#
#
# Indices 1 2 3 4 5 6 
#
# 1 54.9748 35.6326 37.4560 0.0000 -20.1819 0.0000
# 2 35.6326 79.4789 46.3804 0.0000 -19.4910 0.0000
# 3 37.4560 46.3804 81.4247 0.0000 -30.3472 0.0000
# 4 0.0000 0.0000 0.0000 30.0625 0.0000 -0.8727
# 5 -20.1819 -19.4910 -30.3472 0.0000 14.5999 0.0000
# 6 0.0000 0.0000 0.0000 -0.8727 0.0000 22.8159
#
#
#
# Elastic Compliance Matrix: (Units=1/GPa)
#
#
# Indices 1 2 3 4 5 6 
#
# 1 0.041688 -0.008184 0.012829 0.000000 0.073367 0.000000
# 2 -0.008184 0.020993 -0.008718 0.000000 -0.001409 0.000000
# 3 0.012829 -0.008718 0.060441 0.000000 0.131727 0.000000
# 4 0.000000 0.000000 0.000000 0.033301 0.000000 0.001274
# 5 0.073367 -0.001409 0.131727 0.000000 0.441838 0.000000
# 6 0.000000 0.000000 0.000000 0.001274 0.000000 0.043878
#
#
# Mechanical properties :
#
#
# Convention : Reuss Voigt Hill
#
# Bulk Modulus (GPa) = 8.69752 50.53516 29.61634
# Shear Modulus (GPa) = 7.26100 19.92294 13.59197
#
# Velocity S-wave (km/s) = 2.10220 3.48220 2.87619
# Velocity P-wave (km/s) = 3.34454 6.85017 5.39030
#
# Compressibility (1/GPa) = 0.11497533
#
# Stress axis : x y z
#
# Youngs Moduli (GPa) = 23.98781 47.63431 16.54513
#
# Poissons Ratio (x) = 0.38985 -0.21226
# Poissons Ratio (y) = 0.19632 0.14424
# Poissons Ratio (z) = -0.30774 0.41529
#
# Static dielectric constant tensor:
#      x y z
#    x 3.074030 0.000000 -0.098910 
#    y 0.000000 3.177470 0.000000 
#    z -0.098910 0.000000 3.238900 
# 
# 
# High freq. dielectric constant tensor:
#      x y z
#    x 1.598030 0.000000 -0.008770 
#    y 0.000000 1.639950 0.000000 
#    z -0.008770 0.000000 1.623640 
# 
# From -- ./inp_files/63190.got.cif
#   From: 2010.06.25/outbox.cif.g09.slc.cpg/sg10_32_cif.got.tgz:63190.got - 2010.06.27 22:07:45.
