data_PCOD8059332
_publ_section_title
;
Structure prediction by ZEFSAII (Michael W. Deem and Ramdas Pophale) SiO2 
 PCOD8059332
Probable space group: P 2/M
;
_chemical_formula_sum "Si O2"
_cell_formula_units_Z 32
_cell_length_a 26.727263
_cell_length_b 18.908783
_cell_length_c 26.344502
_cell_angle_alpha 90.000000
_cell_angle_beta 168.921493
_cell_angle_gamma 90.000000
_cell_volume 2558.333407
_symmetry_space_group_name_H-M "P 2/M"
_symmetry_group_IT_number 10
_symmetry_cell_setting 'monoclinic'
loop_
_space_group_symop_operation_xyz
x,y,z
-x,y,-z
-x,-y,-z
x,-y,z
loop_
_atom_site_type_symbol
_atom_site_label
_atom_site_fract_x
_atom_site_fract_y
_atom_site_fract_z
Si Si1 0.883309 0.081113 0.331625
Si Si2 0.492064 0.915687 0.549304
Si Si3 0.014280 0.915541 0.897355
Si Si4 0.745150 0.728062 0.280675
Si Si5 0.746398 0.574549 0.281126
Si Si6 0.529043 0.916111 0.235696
Si Si7 0.371373 0.139364 0.772955
Si Si8 0.972598 0.083108 0.203052
O O1 0.000000 0.113488 0.500000
O O2 0.118018 0.088387 0.524976
O O3 0.805799 0.000000 0.261062
O O4 0.615341 0.120020 0.051656
O O5 0.500000 0.885719 0.500000
O O6 0.238211 0.886500 0.324986
O O7 0.491732 0.000000 0.547683
O O8 0.738406 0.886976 0.825593
O O9 0.020223 0.883879 0.846306
O O10 0.011274 0.000000 0.893031
O O11 0.750151 0.650382 0.313678
O O12 0.726416 0.782658 0.308894
O O13 0.000000 0.741215 0.500000
O O14 0.500000 0.736138 0.000000
O O15 0.738810 0.500000 0.306442
O O16 0.000000 0.572226 0.500000
O O17 0.500000 0.575089 0.000000
O O18 0.535557 0.868194 0.191958
O O19 0.770526 0.895514 0.511080
O O20 0.519733 0.000000 0.212910
O O21 0.275940 0.889611 0.013621
O O22 0.950680 0.000000 0.175029
#
# Coordination Sequence:
#
# PCOD8059332 Si02
#       8
#     4   4   4   4   4   4   4   4
#     4  11  22  33  43  53  66  86 111 136 165 206
#     4   9  15  21  30  46  65  81  95 113 144 189
#     4   9  15  23  34  45  59  78  98 122 151 185
#     4  10  19  30  43  58  75  92 108 128 158 200
#     4   8  14  25  41  59  76  92 108 124 144 178
#     4  10  19  29  39  49  61  78 105 140 171 197
#     4  12  21  31  43  55  70  87 108 138 174 205
#     4   9  17  28  39  49  59  76 105 137 166 193
#
# _framework density 12.508143
#
# number of rings (size 3 to 8) (size 9 to 14) (size 15 to 20)
#    0.000    2.250    0.000    5.250    0.000    6.500 
#    0.000    0.000    0.000    0.000    0.000    0.000 
#    0.000    0.000    0.000    0.000    0.000    0.000 
#
# Total GULP energy -396511.081180 kJ/mol
# GULP energy per Si atom -12390.971287 kJ/mol
# Density = 1.247967 g / cm^3
# Si number density = 12.508143 Si / 1000 Ang^3
#
#
#
# Elastic Constant Matrix: (Units=GPa)
#
#
# Indices 1 2 3 4 5 6 
#
# 1 92.2749 34.3492 40.8047 0.0000 1.0546 0.0000
# 2 34.3492 53.5027 25.9976 0.0000 -2.3461 0.0000
# 3 40.8047 25.9976 115.5284 0.0000 2.3307 0.0000
# 4 0.0000 0.0000 0.0000 9.2370 0.0000 1.8457
# 5 1.0546 -2.3461 2.3307 0.0000 22.9400 0.0000
# 6 0.0000 0.0000 0.0000 1.8457 0.0000 4.0252
#
#
#
# Elastic Compliance Matrix: (Units=1/GPa)
#
#
# Indices 1 2 3 4 5 6 
#
# 1 0.015519 -0.008268 -0.003597 0.000000 -0.001194 0.000000
# 2 -0.008268 0.025550 -0.002896 0.000000 0.003287 0.000000
# 3 -0.003597 -0.002896 0.010602 0.000000 -0.001208 0.000000
# 4 0.000000 0.000000 0.000000 0.119179 0.000000 -0.054648
# 5 -0.001194 0.003287 -0.001208 0.000000 0.044106 0.000000
# 6 0.000000 0.000000 0.000000 -0.054648 0.000000 0.273490
#
#
# Mechanical properties :
#
#
# Convention : Reuss Voigt Hill
#
# Bulk Modulus (GPa) = 45.14558 51.51212 48.32885
# Shear Modulus (GPa) = 9.51746 17.91742 13.71744
#
# Velocity S-wave (km/s) = 2.76144 3.78889 3.31521
# Velocity P-wave (km/s) = 6.80725 7.77259 7.30588
#
# Compressibility (1/GPa) = 0.02215056
#
# Stress axis : x y z
#
# Youngs Moduli (GPa) = 64.43678 39.13897 94.31990
#
# Poissons Ratio (x) = 0.32360 0.33924
# Poissons Ratio (y) = 0.53277 0.27311
# Poissons Ratio (z) = 0.23176 0.11333
#
# Static dielectric constant tensor:
#      x y z
#    x 2.538800 0.000000 0.143060 
#    y 0.000000 2.497800 0.000000 
#    z 0.143060 0.000000 3.306510 
# 
# 
# High freq. dielectric constant tensor:
#      x y z
#    x 1.455360 0.000000 0.008900 
#    y 0.000000 1.416230 0.000000 
#    z 0.008900 0.000000 1.504160 
# 
# From -- ./inp_files/94180.got.cif
#   From: 2010.06.25/outbox.cif.g09.slc.cpg/sg10_48_cif.got.tgz:94180.got - 2010.06.27 22:07:45.
