data_PCOD8059988
_publ_section_title
;
Structure prediction by ZEFSAII (Michael W. Deem and Ramdas Pophale) SiO2 
 PCOD8059988
Probable space group: P 2/M
;
_chemical_formula_sum "Si O2"
_cell_formula_units_Z 32
_cell_length_a 22.740450
_cell_length_b 8.930642
_cell_length_c 15.590359
_cell_angle_alpha 90.000000
_cell_angle_beta 147.732621
_cell_angle_gamma 90.000000
_cell_volume 1690.340495
_symmetry_space_group_name_H-M "P 2/M"
_symmetry_group_IT_number 10
_symmetry_cell_setting 'monoclinic'
loop_
_space_group_symop_operation_xyz
x,y,z
-x,y,-z
-x,-y,-z
x,-y,z
loop_
_atom_site_type_symbol
_atom_site_label
_atom_site_fract_x
_atom_site_fract_y
_atom_site_fract_z
Si Si1 0.969885 0.170933 0.832190
Si Si2 0.729965 0.674074 0.295931
Si Si3 0.365105 0.321557 0.997201
Si Si4 0.957867 0.673233 0.644928
Si Si5 0.203319 0.676038 0.940700
Si Si6 0.259489 0.828916 0.364814
Si Si7 0.384067 0.322410 0.673191
Si Si8 0.194364 0.676970 0.122461
O O1 0.926138 0.224979 0.686311
O O2 0.869616 0.185162 0.774083
O O3 0.011614 0.000000 0.878091
O O4 0.068883 0.275067 0.986308
O O5 0.700365 0.500000 0.259489
O O6 0.677254 0.746643 0.145677
O O7 0.862335 0.700226 0.456756
O O8 0.676916 0.742202 0.317269
O O9 0.354242 0.500000 0.982083
O O10 0.289337 0.252194 0.979755
O O11 0.489515 0.270809 0.166069
O O12 0.958829 0.500000 0.676434
O O13 0.078325 0.717733 0.757336
O O14 0.219152 0.500000 0.959154
O O15 0.226438 0.733286 0.066083
O O16 0.333206 0.746047 0.525225
O O17 0.276388 0.753004 0.292343
O O18 0.298080 0.000000 0.408235
O O19 0.371587 0.500000 0.651684
O O20 0.204313 0.500000 0.143623
#
# Coordination Sequence:
#
# PCOD8059988 Si02
#       8
#     4   4   4   4   4   4   4   4
#     4  10  19  31  48  73 105 136 165 200 251 306
#     4   9  16  27  48  78 106 130 164 209 257 300
#     4   9  17  30  50  76 103 133 169 212 254 296
#     4   9  16  28  48  75 106 135 165 206 249 296
#     4   8  16  30  47  72 105 135 166 203 250 298
#     4  11  22  34  50  74 103 134 168 207 254 305
#     4  10  19  32  52  76 103 133 169 211 253 296
#     4  10  20  33  52  76 102 133 168 207 249 299
#
# _framework density 18.931097000000001
#
# number of rings (size 3 to 8) (size 9 to 14) (size 15 to 20)
#    0.000    2.500    1.250    2.625    0.000    5.000 
#    0.000    3.125    0.000    9.750    0.000    3.500 
#    0.000    0.000    0.000    0.000    0.000    0.000 
#
# Total GULP energy -396673.190285 kJ/mol
# GULP energy per Si atom -12396.037196 kJ/mol
# Density = 1.888801 g / cm^3
# Si number density = 18.931097 Si / 1000 Ang^3
#
#
#
# Elastic Constant Matrix: (Units=GPa)
#
#
# Indices 1 2 3 4 5 6 
#
# 1 120.2290 25.5229 87.0419 0.0000 -3.2915 0.0000
# 2 25.5229 39.9694 28.5603 0.0000 -4.7811 0.0000
# 3 87.0419 28.5603 142.2309 0.0000 -23.1944 0.0000
# 4 0.0000 0.0000 0.0000 9.5274 0.0000 2.4036
# 5 -3.2915 -4.7811 -23.1944 0.0000 27.0069 0.0000
# 6 0.0000 0.0000 0.0000 2.4036 0.0000 6.9579
#
#
#
# Elastic Compliance Matrix: (Units=1/GPa)
#
#
# Indices 1 2 3 4 5 6 
#
# 1 0.016687 -0.003950 -0.010700 0.000000 -0.007855 0.000000
# 2 -0.003950 0.030146 -0.003308 0.000000 0.002015 0.000000
# 3 -0.010700 -0.003308 0.016205 0.000000 0.012027 0.000000
# 4 0.000000 0.000000 0.000000 0.114982 0.000000 -0.039721
# 5 -0.007855 0.002015 0.012027 0.000000 0.046757 0.000000
# 6 0.000000 0.000000 0.000000 -0.039721 0.000000 0.157442
#
#
# Mechanical properties :
#
#
# Convention : Reuss Voigt Hill
#
# Bulk Modulus (GPa) = 36.86945 64.96441 50.91693
# Shear Modulus (GPa) = 11.70481 19.45204 15.57843
#
# Velocity S-wave (km/s) = 2.48923 3.20897 2.87174
# Velocity P-wave (km/s) = 5.27063 6.93691 6.16037
#
# Compressibility (1/GPa) = 0.02712273
#
# Stress axis : x y z
#
# Youngs Moduli (GPa) = 59.92510 33.17217 61.71059
#
# Poissons Ratio (x) = 0.13102 0.66032
# Poissons Ratio (y) = 0.23669 0.20412
# Poissons Ratio (z) = 0.64121 0.10972
#
# Static dielectric constant tensor:
#      x y z
#    x 3.661870 0.000000 -0.095850 
#    y 0.000000 3.104110 0.000000 
#    z -0.095850 0.000000 3.527540 
# 
# 
# High freq. dielectric constant tensor:
#      x y z
#    x 1.725240 0.000000 -0.010320 
#    y 0.000000 1.692190 0.000000 
#    z -0.010320 0.000000 1.741600 
# 
# From -- ./inp_files/71680.got.cif
#   From: 2010.06.25/outbox.cif.g09.slc.cpg/sg10_36_cif.got.tgz:71680.got - 2010.06.27 22:07:45.
