data_PCOD8060536
_publ_section_title
;
Structure prediction by ZEFSAII (Michael W. Deem and Ramdas Pophale) SiO2 
 PCOD8060536
Probable space group: P 2/M
;
_chemical_formula_sum "Si O2"
_cell_formula_units_Z 32
_cell_length_a 22.968471
_cell_length_b 9.675722
_cell_length_c 9.669346
_cell_angle_alpha 90.000000
_cell_angle_beta 59.205602
_cell_angle_gamma 90.000000
_cell_volume 1845.911035
_symmetry_space_group_name_H-M "P 2/M"
_symmetry_group_IT_number 10
_symmetry_cell_setting 'monoclinic'
loop_
_space_group_symop_operation_xyz
x,y,z
-x,y,-z
-x,-y,-z
x,-y,z
loop_
_atom_site_type_symbol
_atom_site_label
_atom_site_fract_x
_atom_site_fract_y
_atom_site_fract_z
Si Si1 0.817430 0.335933 0.625420
Si Si2 0.937558 0.335294 0.668665
Si Si3 0.334648 0.341577 0.179200
Si Si4 0.937390 0.664713 0.983724
Si Si5 0.816173 0.335689 0.319011
Si Si6 0.451001 0.156742 0.931417
Si Si7 0.335810 0.658515 0.501644
Si Si8 0.455275 0.155673 0.420486
O O1 0.822034 0.500000 0.612968
O O2 0.869727 0.278401 0.676162
O O3 0.741756 0.292025 0.761331
O O4 0.834784 0.278519 0.450076
O O5 0.937693 0.500000 0.673522
O O6 0.000000 0.281317 0.500000
O O7 0.941763 0.277432 0.821003
O O8 0.345428 0.500000 0.121561
O O9 0.349635 0.323062 0.322587
O O10 0.384174 0.247645 0.029684
O O11 0.937788 0.500000 0.979274
O O12 0.868908 0.720550 0.140651
O O13 0.000000 0.719082 0.000000
O O14 0.818899 0.500000 0.322488
O O15 0.740182 0.290162 0.369416
O O16 0.495562 0.220357 0.754363
O O17 0.427626 0.000000 0.928048
O O18 0.500000 0.163418 0.000000
O O19 0.345864 0.500000 0.534589
O O20 0.388370 0.752123 0.522295
O O21 0.500000 0.154679 0.500000
O O22 0.432459 0.000000 0.407203
#
# Coordination Sequence:
#
# PCOD8060536 Si02
#       8
#     4   4   4   4   4   4   4   4
#     4   8  14  25  38  54  81 113 144 177 219 265
#     4   9  15  22  34  53  79 112 147 181 216 258
#     4   9  17  29  47  70  93 120 151 188 232 275
#     4   9  15  22  34  53  78 111 150 183 213 255
#     4   8  14  25  39  55  79 112 145 179 218 261
#     4  10  19  32  51  71  89 115 154 194 228 269
#     4   9  17  30  48  68  92 121 153 188 229 276
#     4  10  21  36  50  66  91 121 151 189 236 277
#
# _framework density 17.335612999999999
#
# number of rings (size 3 to 8) (size 9 to 14) (size 15 to 20)
#    0.000    3.000    1.250    2.250    0.000    4.000 
#    2.250    0.000    0.000    0.000    0.000    0.000 
#    0.000    1.000    0.000    1.750    0.000    2.250 
#
# Total GULP energy -396611.929353 kJ/mol
# GULP energy per Si atom -12394.122792 kJ/mol
# Density = 1.729616 g / cm^3
# Si number density = 17.335613 Si / 1000 Ang^3
#
#
#
# Elastic Constant Matrix: (Units=GPa)
#
#
# Indices 1 2 3 4 5 6 
#
# 1 123.5601 30.7268 64.6336 0.0000 -12.2909 0.0000
# 2 30.7268 29.8555 23.6838 0.0000 -8.8054 0.0000
# 3 64.6336 23.6838 126.6978 0.0000 -12.6106 0.0000
# 4 0.0000 0.0000 0.0000 10.2612 0.0000 5.0015
# 5 -12.2909 -8.8054 -12.6106 0.0000 28.9979 0.0000
# 6 0.0000 0.0000 0.0000 5.0015 0.0000 3.0467
#
#
#
# Elastic Compliance Matrix: (Units=1/GPa)
#
#
# Indices 1 2 3 4 5 6 
#
# 1 0.013009 -0.009396 -0.004824 0.000000 0.000563 0.000000
# 2 -0.009396 0.048576 -0.003361 0.000000 0.009306 0.000000
# 3 -0.004824 -0.003361 0.011160 0.000000 0.001788 0.000000
# 4 0.000000 0.000000 0.000000 0.487645 0.000000 -0.800530
# 5 0.000563 0.009306 0.001788 0.000000 0.038327 0.000000
# 6 0.000000 0.000000 0.000000 -0.800530 0.000000 1.642399
#
#
# Mechanical properties :
#
#
# Convention : Reuss Voigt Hill
#
# Bulk Modulus (GPa) = 26.60772 57.57796 42.09284
# Shear Modulus (GPa) = 2.18455 19.19912 10.69183
#
# Velocity S-wave (km/s) = 1.12378 3.33152 2.48615
# Velocity P-wave (km/s) = 4.13107 6.93430 5.70746
#
# Compressibility (1/GPa) = 0.03758308
#
# Stress axis : x y z
#
# Youngs Moduli (GPa) = 76.86820 20.58647 89.60609
#
# Poissons Ratio (x) = 0.19343 0.43227
# Poissons Ratio (y) = 0.72225 0.30115
# Poissons Ratio (z) = 0.37082 0.06919
#
# Static dielectric constant tensor:
#      x y z
#    x 3.374000 0.000000 -0.066630 
#    y 0.000000 2.720230 0.000000 
#    z -0.066630 0.000000 3.348300 
# 
# 
# High freq. dielectric constant tensor:
#      x y z
#    x 1.675330 0.000000 -0.008580 
#    y 0.000000 1.601690 0.000000 
#    z -0.008580 0.000000 1.672650 
# 
# From -- ./inp_files/34610.got.cif
#   From: 2010.06.25/outbox.cif.g09.slc.cpg/sg10_18_cif.got.tgz:34610.got - 2010.06.27 22:07:45.
