data_PCOD8060603
_publ_section_title
;
Structure prediction by ZEFSAII (Michael W. Deem and Ramdas Pophale) SiO2 
 PCOD8060603
Probable space group: P 2/M
;
_chemical_formula_sum "Si O2"
_cell_formula_units_Z 28
_cell_length_a 20.682299
_cell_length_b 9.181344
_cell_length_c 14.579533
_cell_angle_alpha 90.000000
_cell_angle_beta 147.660765
_cell_angle_gamma 90.000000
_cell_volume 1480.970767
_symmetry_space_group_name_H-M "P 2/M"
_symmetry_group_IT_number 10
_symmetry_cell_setting 'monoclinic'
loop_
_space_group_symop_operation_xyz
x,y,z
-x,y,-z
-x,-y,-z
x,-y,z
loop_
_atom_site_type_symbol
_atom_site_label
_atom_site_fract_x
_atom_site_fract_y
_atom_site_fract_z
Si Si1 0.185352 0.171180 0.471218
Si Si2 0.552852 0.668305 0.716093
Si Si3 0.696764 0.830826 0.570581
Si Si4 0.735808 0.833500 0.820764
Si Si5 0.921725 0.171186 0.198292
Si Si6 0.361031 0.170821 0.844156
Si Si7 0.738669 0.669265 0.100220
O O1 0.218807 0.230017 0.410004
O O2 0.292360 0.213846 0.668623
O O3 0.056901 0.235776 0.350062
O O4 0.167454 0.000000 0.444474
O O5 0.531187 0.500000 0.669868
O O6 0.427060 0.745154 0.580704
O O7 0.621676 0.735003 0.711177
O O8 0.630653 0.695999 0.900087
O O9 0.765757 0.806226 0.749683
O O10 0.666162 0.000000 0.517666
O O11 0.697211 0.000000 0.792017
O O12 0.853496 0.793545 0.021065
O O13 0.859955 0.254366 0.208696
O O14 0.919518 0.000000 0.218157
O O15 0.298053 0.259956 0.848550
O O16 0.350330 0.000000 0.853568
O O17 0.500000 0.218447 0.000000
O O18 0.766001 0.500000 0.147741
#
# Coordination Sequence:
#
# PCOD8060603 Si02
#       7
#     4   4   4   4   4   4   4
#     4   9  19  34  53  77 103 133 170 211 251 298
#     4  10  20  33  50  74 104 136 170 208 253 305
#     4  10  19  32  51  76 105 134 168 210 254 299
#     4   9  18  31  51  77 102 133 170 209 252 297
#     4   9  18  35  55  75 102 135 172 209 248 298
#     4  10  20  35  56  80 104 133 168 205 252 307
#     4  10  21  36  54  76 103 135 170 211 256 299
#
# _framework density 18.906516
#
# number of rings (size 3 to 8) (size 9 to 14) (size 15 to 20)
#    0.000    2.429    0.000    2.143    0.000    6.571 
#    0.000    7.857    0.000    0.000    0.000    5.000 
#    0.000    0.000    0.000    0.000    0.000    0.000 
#
# Total GULP energy -347243.216131 kJ/mol
# GULP energy per Si atom -12401.543433 kJ/mol
# Density = 1.886348 g / cm^3
# Si number density = 18.906516 Si / 1000 Ang^3
#
#
#
# Elastic Constant Matrix: (Units=GPa)
#
#
# Indices 1 2 3 4 5 6 
#
# 1 164.8292 50.6779 70.0221 0.0000 2.2219 0.0000
# 2 50.6779 59.7196 34.7117 0.0000 1.7599 0.0000
# 3 70.0221 34.7117 90.5208 0.0000 20.9374 0.0000
# 4 0.0000 0.0000 0.0000 15.5475 0.0000 -9.9581
# 5 2.2219 1.7599 20.9374 0.0000 31.5942 0.0000
# 6 0.0000 0.0000 0.0000 -9.9581 0.0000 -0.9371
#
#
#
# Elastic Compliance Matrix: (Units=1/GPa)
#
#
# Indices 1 2 3 4 5 6 
#
# 1 0.010642 -0.004867 -0.007388 0.000000 0.004419 0.000000
# 2 -0.004867 0.024478 -0.006360 0.000000 0.003194 0.000000
# 3 -0.007388 -0.006360 0.022438 0.000000 -0.013996 0.000000
# 4 0.000000 0.000000 0.000000 0.008239 0.000000 -0.087557
# 5 0.004419 0.003194 -0.013996 0.000000 0.040438 0.000000
# 6 0.000000 0.000000 0.000000 -0.087557 0.000000 -0.136700
#
#
# Mechanical properties :
#
#
# Convention : Reuss Voigt Hill
#
# Bulk Modulus (GPa) = 49.19350 69.54365 59.36857
# Shear Modulus (GPa) = 369.22834 19.88478 194.55656
#
# Velocity S-wave (km/s) = 13.98984 3.24658 10.15519
# Velocity P-wave (km/s) = 16.94196 7.13557 12.99897
#
# Compressibility (1/GPa) = 0.02032789
#
# Stress axis : x y z
#
# Youngs Moduli (GPa) = 93.96505 40.85336 44.56648
#
# Poissons Ratio (x) = 0.19883 0.32926
# Poissons Ratio (y) = 0.45732 0.28346
# Poissons Ratio (z) = 0.69422 0.25984
#
# Static dielectric constant tensor:
#      x y z
#    x 3.623220 0.000000 -0.012850 
#    y 0.000000 3.297960 0.000000 
#    z -0.012850 0.000000 3.573830 
# 
# 
# High freq. dielectric constant tensor:
#      x y z
#    x 1.742440 0.000000 -0.004020 
#    y 0.000000 1.712780 0.000000 
#    z -0.004020 0.000000 1.734980 
# 
# From -- ./inp_files/49342.got.cif
#   From: 2010.06.25/outbox.cif.g09.slc.cpg/sg10_25_cif.got.tgz:49342.got - 2010.06.27 22:07:45.
