data_PCOD8060240
_publ_section_title
;
Structure prediction by ZEFSAII (Michael W. Deem and Ramdas Pophale) SiO2 
 PCOD8060240
Probable space group: P 2/M
;
_chemical_formula_sum "Si O2"
_cell_formula_units_Z 32
_cell_length_a 25.047513
_cell_length_b 9.091900
_cell_length_c 16.319678
_cell_angle_alpha 90.000000
_cell_angle_beta 26.852583
_cell_angle_gamma 90.000000
_cell_volume 1678.717390
_symmetry_space_group_name_H-M "P 2/M"
_symmetry_group_IT_number 10
_symmetry_cell_setting 'monoclinic'
loop_
_space_group_symop_operation_xyz
x,y,z
-x,y,-z
-x,-y,-z
x,-y,z
loop_
_atom_site_type_symbol
_atom_site_label
_atom_site_fract_x
_atom_site_fract_y
_atom_site_fract_z
Si Si1 0.962434 0.174494 0.835426
Si Si2 0.611679 0.673922 0.895087
Si Si3 0.406444 0.324483 0.897310
Si Si4 0.629726 0.837857 0.310131
Si Si5 0.203838 0.667180 0.489500
Si Si6 0.776916 0.328300 0.986618
Si Si7 0.190304 0.839126 0.802950
Si Si8 0.669947 0.332899 0.516055
O O1 0.898411 0.242470 0.842015
O O2 0.097621 0.221102 0.650348
O O3 0.947492 0.000000 0.849881
O O4 0.904186 0.228261 0.001970
O O5 0.594959 0.500000 0.922444
O O6 0.732499 0.713285 0.682162
O O7 0.500000 0.743315 0.000000
O O8 0.617723 0.738628 0.978675
O O9 0.410877 0.500000 0.891214
O O10 0.536000 0.267921 0.687668
O O11 0.294667 0.270965 0.995551
O O12 0.500000 0.780237 0.500000
O O13 0.684723 0.854574 0.323953
O O14 0.636325 0.000000 0.257224
O O15 0.690694 0.705667 0.179314
O O16 0.155061 0.500000 0.551735
O O17 0.301057 0.680604 0.427614
O O18 0.806283 0.500000 0.939998
O O19 0.220686 0.742706 0.681902
O O20 0.145260 0.000000 0.834956
O O21 0.670942 0.500000 0.484557
#
# Coordination Sequence:
#
# PCOD8060240 Si02
#       8
#     4   4   4   4   4   4   4   4
#     4  10  22  40  56  70 101 147 187 219 259 313
#     4   9  15  30  56  83 111 139 166 204 261 323
#     4   9  17  30  51  83 115 138 165 209 267 322
#     4   9  17  30  47  68 100 142 184 217 255 313
#     4  10  20  34  57  84 105 134 177 219 260 310
#     4  10  19  31  51  78 106 135 175 224 265 306
#     4   9  19  33  48  69  98 140 185 217 253 306
#     4  10  19  31  51  82 113 136 167 216 269 314
#
# _framework density 19.062173000000001
#
# number of rings (size 3 to 8) (size 9 to 14) (size 15 to 20)
#    0.000    2.500    1.250    2.250    0.000    3.750 
#    0.000    3.750    0.000    6.375    0.000    0.000 
#    0.000    0.000    0.000    0.000    0.000    0.000 
#
# Total GULP energy -396453.227815 kJ/mol
# GULP energy per Si atom -12389.163369 kJ/mol
# Density = 1.901879 g / cm^3
# Si number density = 19.062173 Si / 1000 Ang^3
#
#
#
# Elastic Constant Matrix: (Units=GPa)
#
#
# Indices 1 2 3 4 5 6 
#
# 1 67.4998 21.1012 27.1700 0.0000 9.9805 0.0000
# 2 21.1012 42.2783 22.8301 0.0000 4.0155 0.0000
# 3 27.1700 22.8301 90.4289 0.0000 3.7485 0.0000
# 4 0.0000 0.0000 0.0000 12.8163 0.0000 -6.5411
# 5 9.9805 4.0155 3.7485 0.0000 28.7781 0.0000
# 6 0.0000 0.0000 0.0000 -6.5411 0.0000 13.5841
#
#
#
# Elastic Compliance Matrix: (Units=1/GPa)
#
#
# Indices 1 2 3 4 5 6 
#
# 1 0.019337 -0.007103 -0.003800 0.000000 -0.005220 0.000000
# 2 -0.007103 0.030245 -0.005458 0.000000 -0.001046 0.000000
# 3 -0.003800 -0.005458 0.013565 0.000000 0.000313 0.000000
# 4 0.000000 0.000000 0.000000 0.103449 0.000000 0.049813
# 5 -0.005220 -0.001046 0.000313 0.000000 0.036664 0.000000
# 6 0.000000 0.000000 0.000000 0.049813 0.000000 0.097602
#
#
# Mechanical properties :
#
#
# Convention : Reuss Voigt Hill
#
# Bulk Modulus (GPa) = 32.86909 38.04550 35.45730
# Shear Modulus (GPa) = 14.54646 19.64274 17.09460
#
# Velocity S-wave (km/s) = 2.76543 3.21356 2.99788
# Velocity P-wave (km/s) = 5.24189 5.81130 5.53392
#
# Compressibility (1/GPa) = 0.03042372
#
# Stress axis : x y z
#
# Youngs Moduli (GPa) = 51.71464 33.06357 73.71779
#
# Poissons Ratio (x) = 0.23486 0.28014
# Poissons Ratio (y) = 0.36734 0.40236
# Poissons Ratio (z) = 0.19653 0.18047
#
# Static dielectric constant tensor:
#      x y z
#    x 3.785580 0.000000 -0.149400 
#    y 0.000000 3.253860 0.000000 
#    z -0.149400 0.000000 3.521550 
# 
# 
# High freq. dielectric constant tensor:
#      x y z
#    x 1.740750 0.000000 -0.007410 
#    y 0.000000 1.706270 0.000000 
#    z -0.007410 0.000000 1.733920 
# 
# From -- ./inp_files/71553.got.cif
#   From: 2010.06.25/outbox.cif.g09.slc.cpg/sg10_36_cif.got.tgz:71553.got - 2010.06.27 22:07:45.
