data_PCOD8060288
_publ_section_title
;
Structure prediction by ZEFSAII (Michael W. Deem and Ramdas Pophale) SiO2 
 PCOD8060288
Probable space group: P 2/M
;
_chemical_formula_sum "Si O2"
_cell_formula_units_Z 32
_cell_length_a 16.438092
_cell_length_b 13.281511
_cell_length_c 7.853796
_cell_angle_alpha 90.000000
_cell_angle_beta 78.774691
_cell_angle_gamma 90.000000
_cell_volume 1681.859196
_symmetry_space_group_name_H-M "P 2/M"
_symmetry_group_IT_number 10
_symmetry_cell_setting 'monoclinic'
loop_
_space_group_symop_operation_xyz
x,y,z
-x,y,-z
-x,-y,-z
x,-y,z
loop_
_atom_site_type_symbol
_atom_site_label
_atom_site_fract_x
_atom_site_fract_y
_atom_site_fract_z
Si Si1 0.497331 0.111804 0.700976
Si Si2 0.916062 0.263403 0.963546
Si Si3 0.221788 0.612615 0.799148
Si Si4 0.325709 0.201639 0.770074
Si Si5 0.756406 0.609748 0.600279
Si Si6 0.216530 0.884777 0.109841
Si Si7 0.069230 0.617783 0.350548
Si Si8 0.325864 0.191909 0.370101
O O1 0.500000 0.099924 0.500000
O O2 0.421652 0.185016 0.781785
O O3 0.582991 0.160391 0.729576
O O4 0.486347 0.000000 0.786723
O O5 0.866874 0.180255 0.875203
O O6 0.952972 0.351836 0.830554
O O7 0.857826 0.320194 0.122265
O O8 0.000000 0.211418 0.000000
O O9 0.225317 0.500000 0.885329
O O10 0.303360 0.680125 0.810054
O O11 0.216160 0.595220 0.603269
O O12 0.308874 0.168054 0.578595
O O13 0.273340 0.133536 0.920522
O O14 0.729991 0.500000 0.685321
O O15 0.836824 0.656946 0.659096
O O16 0.681017 0.687514 0.655200
O O17 0.261007 0.863165 0.272691
O O18 0.189275 0.000000 0.121638
O O19 0.068889 0.500000 0.380370
O O20 0.000000 0.668403 0.500000
#
# Coordination Sequence:
#
# PCOD8060288 Si02
#       8
#     4   4   4   4   4   4   4   4
#     4   9  17  31  54  82 110 142 186 232 274 315
#     4  11  22  36  53  77 108 141 176 231 278 320
#     4   9  18  33  55  81 108 143 181 216 267 330
#     4   9  20  36  56  83 115 145 174 230 277 320
#     4   9  17  32  52  77 108 141 177 220 268 326
#     4  11  23  38  58  81 104 144 192 227 274 331
#     4  10  19  31  52  79 105 134 171 218 270 323
#     4  10  19  36  57  80 112 148 182 226 275 325
#
# _framework density 19.026562999999999
#
# number of rings (size 3 to 8) (size 9 to 14) (size 15 to 20)
#    0.000    2.250    1.250    1.875    0.000    4.250 
#    0.000    1.875    0.000    4.125    0.000    2.625 
#    0.000    0.000    0.000    0.000    0.000    0.000 
#
# Total GULP energy -396465.581958 kJ/mol
# GULP energy per Si atom -12389.549436 kJ/mol
# Density = 1.898326 g / cm^3
# Si number density = 19.026563 Si / 1000 Ang^3
#
#
#
# Elastic Constant Matrix: (Units=GPa)
#
#
# Indices 1 2 3 4 5 6 
#
# 1 135.2478 61.1832 26.8187 0.0000 2.8037 0.0000
# 2 61.1832 115.0669 16.5216 0.0000 -0.2684 0.0000
# 3 26.8187 16.5216 50.5541 0.0000 2.6684 0.0000
# 4 0.0000 0.0000 0.0000 19.4689 0.0000 -0.4505
# 5 2.8037 -0.2684 2.6684 0.0000 22.7978 0.0000
# 6 0.0000 0.0000 0.0000 -0.4505 0.0000 20.8590
#
#
#
# Elastic Compliance Matrix: (Units=1/GPa)
#
#
# Indices 1 2 3 4 5 6 
#
# 1 0.010438 -0.004999 -0.003857 0.000000 -0.000891 0.000000
# 2 -0.004999 0.011517 -0.001159 0.000000 0.000886 0.000000
# 3 -0.003857 -0.001159 0.022319 0.000000 -0.002152 0.000000
# 4 0.000000 0.000000 0.000000 0.051390 0.000000 0.001110
# 5 -0.000891 0.000886 -0.002152 0.000000 0.044236 0.000000
# 6 0.000000 0.000000 0.000000 0.001110 0.000000 0.047965
#
#
# Mechanical properties :
#
#
# Convention : Reuss Voigt Hill
#
# Bulk Modulus (GPa) = 41.24440 56.65732 48.95086
# Shear Modulus (GPa) = 23.15080 25.71483 24.43281
#
# Velocity S-wave (km/s) = 3.49200 3.68029 3.58738
# Velocity P-wave (km/s) = 6.16304 6.92113 6.55306
#
# Compressibility (1/GPa) = 0.02424572
#
# Stress axis : x y z
#
# Youngs Moduli (GPa) = 95.80075 86.82910 44.80462
#
# Poissons Ratio (x) = 0.43402 0.17281
# Poissons Ratio (y) = 0.47886 0.05192
# Poissons Ratio (z) = 0.36949 0.10063
#
# Static dielectric constant tensor:
#      x y z
#    x 3.735620 0.000000 0.011740 
#    y 0.000000 3.628940 0.000000 
#    z 0.011740 0.000000 3.452540 
# 
# 
# High freq. dielectric constant tensor:
#      x y z
#    x 1.731420 0.000000 0.004540 
#    y 0.000000 1.732620 0.000000 
#    z 0.004540 0.000000 1.736890 
# 
# From -- ./inp_files/29057.got.cif
#   From: 2010.06.25/outbox.cif.g09.slc.cpg/sg10_15_cif.got.tgz:29057.got - 2010.06.27 22:07:45.
