data_PCOD8060905
_publ_section_title
;
Structure prediction by ZEFSAII (Michael W. Deem and Ramdas Pophale) SiO2 
 PCOD8060905
Probable space group: P 2/M
;
_chemical_formula_sum "Si O2"
_cell_formula_units_Z 32
_cell_length_a 26.258456
_cell_length_b 8.916807
_cell_length_c 20.830529
_cell_angle_alpha 90.000000
_cell_angle_beta 21.314829
_cell_angle_gamma 90.000000
_cell_volume 1772.858735
_symmetry_space_group_name_H-M "P 2/M"
_symmetry_group_IT_number 10
_symmetry_cell_setting 'monoclinic'
loop_
_space_group_symop_operation_xyz
x,y,z
-x,y,-z
-x,-y,-z
x,-y,z
loop_
_atom_site_type_symbol
_atom_site_label
_atom_site_fract_x
_atom_site_fract_y
_atom_site_fract_z
Si Si1 0.906857 0.674806 0.920583
Si Si2 0.400949 0.177600 0.022633
Si Si3 0.394157 0.672231 0.777902
Si Si4 0.303481 0.177021 0.275477
Si Si5 0.897376 0.175164 0.062868
Si Si6 0.008872 0.821259 0.674724
Si Si7 0.259288 0.322777 0.067452
Si Si8 0.588114 0.177033 0.456236
O O1 0.942075 0.500000 0.872512
O O2 0.993685 0.763156 0.764942
O O3 0.742205 0.706208 0.104979
O O4 0.951963 0.735053 0.936976
O O5 0.563889 0.227708 0.836920
O O6 0.386482 0.000000 0.027349
O O7 0.322205 0.228915 0.179985
O O8 0.329486 0.268505 0.049864
O O9 0.436748 0.500000 0.724410
O O10 0.524880 0.765166 0.597476
O O11 0.363023 0.721599 0.887406
O O12 0.158516 0.240263 0.473877
O O13 0.301211 0.000000 0.278523
O O14 0.746108 0.234059 0.262962
O O15 0.893878 0.000000 0.049382
O O16 0.000000 0.211999 0.000000
O O17 0.890137 0.756361 0.767160
O O18 0.000159 0.000000 0.683973
O O19 0.232937 0.500000 0.099190
O O20 0.500000 0.242343 0.500000
O O21 0.580909 0.000000 0.466430
#
# Coordination Sequence:
#
# PCOD8060905 Si02
#       8
#     4   4   4   4   4   4   4   4
#     4  10  20  35  54  77 106 139 174 214 261 316
#     4   9  17  35  59  80 105 140 177 219 266 313
#     4   9  19  34  52  73 102 137 171 211 257 306
#     4   8  17  34  57  82 106 135 180 224 261 313
#     4  10  21  37  54  75 105 136 170 216 264 308
#     4  10  19  34  57  81 105 139 179 220 265 313
#     4  10  21  36  51  78 114 143 176 218 263 313
#     4  10  19  32  54  80  99 125 172 219 254 302
#
# _framework density 18.049942999999999
#
# number of rings (size 3 to 8) (size 9 to 14) (size 15 to 20)
#    0.000    2.500    1.250    2.625    0.000    4.000 
#    2.250    6.250    0.000    0.000    0.000    0.000 
#    0.000    0.000    0.000    0.000    0.000    0.000 
#
# Total GULP energy -396799.045469 kJ/mol
# GULP energy per Si atom -12399.970171 kJ/mol
# Density = 1.800886 g / cm^3
# Si number density = 18.049943 Si / 1000 Ang^3
#
#
#
# Elastic Constant Matrix: (Units=GPa)
#
#
# Indices 1 2 3 4 5 6 
#
# 1 128.8823 43.8794 75.5417 0.0000 0.2671 0.0000
# 2 43.8794 55.4684 41.8382 0.0000 0.7608 0.0000
# 3 75.5417 41.8382 150.4529 0.0000 1.3645 0.0000
# 4 0.0000 0.0000 0.0000 12.0948 0.0000 2.8227
# 5 0.2671 0.7608 1.3645 0.0000 20.6645 0.0000
# 6 0.0000 0.0000 0.0000 2.8227 0.0000 24.3445
#
#
#
# Elastic Compliance Matrix: (Units=1/GPa)
#
#
# Indices 1 2 3 4 5 6 
#
# 1 0.012658 -0.006608 -0.004521 0.000000 0.000378 0.000000
# 2 -0.006608 0.026267 -0.003981 0.000000 -0.000619 0.000000
# 3 -0.004521 -0.003981 0.010028 0.000000 -0.000457 0.000000
# 4 0.000000 0.000000 0.000000 0.084979 0.000000 -0.009853
# 5 0.000378 -0.000619 -0.000457 0.000000 0.048440 0.000000
# 6 0.000000 0.000000 0.000000 -0.009853 0.000000 0.042220
#
#
# Mechanical properties :
#
#
# Convention : Reuss Voigt Hill
#
# Bulk Modulus (GPa) = 53.38429 73.03580 63.21005
# Shear Modulus (GPa) = 19.15286 22.99038 21.07162
#
# Velocity S-wave (km/s) = 3.26099 3.57278 3.42044
# Velocity P-wave (km/s) = 6.61958 7.58753 7.12003
#
# Compressibility (1/GPa) = 0.01873210
#
# Stress axis : x y z
#
# Youngs Moduli (GPa) = 78.99981 38.07060 99.72191
#
# Poissons Ratio (x) = 0.25158 0.45088
# Poissons Ratio (y) = 0.52206 0.39697
# Poissons Ratio (z) = 0.35719 0.15155
#
# Static dielectric constant tensor:
#      x y z
#    x 3.282910 0.000000 0.047610 
#    y 0.000000 3.141250 0.000000 
#    z 0.047610 0.000000 3.625730 
# 
# 
# High freq. dielectric constant tensor:
#      x y z
#    x 1.696400 0.000000 0.007580 
#    y 0.000000 1.687500 0.000000 
#    z 0.007580 0.000000 1.700900 
# 
# From -- ./inp_files/86893.got.cif
#   From: 2010.06.25/outbox.cif.g09.slc.cpg/sg10_44_cif.got.tgz:86893.got - 2010.06.27 22:07:45.
