data_PCOD8060999
_publ_section_title
;
Structure prediction by ZEFSAII (Michael W. Deem and Ramdas Pophale) SiO2 
 PCOD8060999
Probable space group: P 2/M
;
_chemical_formula_sum "Si O2"
_cell_formula_units_Z 30
_cell_length_a 14.475567
_cell_length_b 23.031077
_cell_length_c 5.012488
_cell_angle_alpha 90.000000
_cell_angle_beta 116.740538
_cell_angle_gamma 90.000000
_cell_volume 1492.383841
_symmetry_space_group_name_H-M "P 2/M"
_symmetry_group_IT_number 10
_symmetry_cell_setting 'monoclinic'
loop_
_space_group_symop_operation_xyz
x,y,z
-x,y,-z
-x,-y,-z
x,-y,z
loop_
_atom_site_type_symbol
_atom_site_label
_atom_site_fract_x
_atom_site_fract_y
_atom_site_fract_z
Si Si1 0.431049 0.566722 0.168294
Si Si2 0.238486 0.933900 0.335258
Si Si3 0.245272 0.351664 0.785384
Si Si4 0.381139 0.834013 0.336036
Si Si5 0.111505 0.066022 0.656875
Si Si6 0.620783 0.759794 0.168451
Si Si7 0.073622 0.500000 0.850387
Si Si8 0.120461 0.379269 0.093679
O O1 0.500000 0.591997 0.500000
O O2 0.401138 0.500000 0.184341
O O3 0.500000 0.574296 0.000000
O O4 0.325056 0.601212 0.001538
O O5 0.329069 0.894626 0.339079
O O6 0.195147 0.907405 0.557922
O O7 0.280402 0.000000 0.420184
O O8 0.145807 0.930652 0.004880
O O9 0.306840 0.294725 0.784216
O O10 0.183974 0.376520 0.450446
O O11 0.165953 0.335822 0.925811
O O12 0.500000 0.849706 0.500000
O O13 0.351422 0.783635 0.504639
O O14 0.351883 0.810408 0.006562
O O15 0.000000 0.097993 0.500000
O O16 0.097886 0.000000 0.537666
O O17 0.500000 0.741150 0.000000
O O18 0.000000 0.500000 0.500000
O O19 0.140011 0.441324 0.968678
O O20 0.000000 0.500000 0.000000
O O21 0.000000 0.366090 0.000000
#
# Coordination Sequence:
#
# PCOD8060999 Si02
#       8
#     4   4   4   4   4   4   2   4
#     4  10  22  38  56  85 123 149 178 232 294 350
#     4  10  19  32  55  85 115 149 187 234 290 352
#     4  12  23  38  66  86 112 157 200 238 291 348
#     4  10  21  38  59  83 116 149 186 240 290 340
#     4   9  17  30  50  78 113 151 188 228 273 328
#     4  10  22  40  62  86 109 147 200 244 282 340
#     4  10  20  38  58  82 118 154 190 238 282 336
#     4  11  24  39  60  89 120 154 196 244 289 345
#
# _framework density 20.102065
#
# number of rings (size 3 to 8) (size 9 to 14) (size 15 to 20)
#    0.000    1.733    0.000    5.200    1.867    3.467 
#    0.000    0.000    0.000   20.800    0.000    0.000 
#    0.000    0.000    0.000    0.000    0.000    0.000 
#
# Total GULP energy -371901.291314 kJ/mol
# GULP energy per Si atom -12396.709710 kJ/mol
# Density = 2.005631 g / cm^3
# Si number density = 20.102065 Si / 1000 Ang^3
#
#
#
# Elastic Constant Matrix: (Units=GPa)
#
#
# Indices 1 2 3 4 5 6 
#
# 1 122.6873 49.9739 39.7376 0.0000 -1.3778 0.0000
# 2 49.9739 69.5389 25.6608 0.0000 18.0449 0.0000
# 3 39.7376 25.6608 123.7074 0.0000 -2.7992 0.0000
# 4 0.0000 0.0000 0.0000 -34.5868 0.0000 -2.4341
# 5 -1.3778 18.0449 -2.7992 0.0000 32.7438 0.0000
# 6 0.0000 0.0000 0.0000 -2.4341 0.0000 26.0053
#
#
#
# Elastic Compliance Matrix: (Units=1/GPa)
#
#
# Indices 1 2 3 4 5 6 
#
# 1 0.012987 -0.010177 -0.001925 0.000000 0.005991 0.000000
# 2 -0.010177 0.026632 -0.002602 0.000000 -0.015327 0.000000
# 3 -0.001925 -0.002602 0.009290 0.000000 0.002147 0.000000
# 4 0.000000 0.000000 0.000000 -0.028724 0.000000 -0.002689
# 5 0.005991 -0.015327 0.002147 0.000000 0.039422 0.000000
# 6 0.000000 0.000000 0.000000 -0.002689 0.000000 0.038202
#
#
# Mechanical properties :
#
#
# Convention : Reuss Voigt Hill
#
# Bulk Modulus (GPa) = 51.28051 60.74201 56.01126
# Shear Modulus (GPa) = 37.39191 18.20323 27.79757
#
# Velocity S-wave (km/s) = 4.31757 3.01248 3.72266
# Velocity P-wave (km/s) = 7.10075 6.51018 6.81187
#
# Compressibility (1/GPa) = 0.01950059
#
# Stress axis : x y z
#
# Youngs Moduli (GPa) = 76.99972 37.54916 107.63937
#
# Poissons Ratio (x) = 0.38215 0.20722
# Poissons Ratio (y) = 0.78364 0.28007
# Poissons Ratio (z) = 0.14823 0.09770
#
# Static dielectric constant tensor:
#      x y z
#    x 3.783940 0.000000 -0.063710 
#    y 0.000000 3.145360 0.000000 
#    z -0.063710 0.000000 3.611430 
# 
# 
# High freq. dielectric constant tensor:
#      x y z
#    x 1.802140 0.000000 -0.014480 
#    y 0.000000 1.753810 0.000000 
#    z -0.014480 0.000000 1.795030 
# 
# From -- ./inp_files/10220.got.cif
#   From: 2010.06.25/outbox.cif.g09.slc.cpg/sg10_6_cif.got.tgz:10220.got - 2010.06.27 22:07:45.
