data_PCOD8060322
_publ_section_title
;
Structure prediction by ZEFSAII (Michael W. Deem and Ramdas Pophale) SiO2 
 PCOD8060322
Probable space group: P 2/M
;
_chemical_formula_sum "Si O2"
_cell_formula_units_Z 28
_cell_length_a 33.452239
_cell_length_b 7.885007
_cell_length_c 33.868108
_cell_angle_alpha 90.000000
_cell_angle_beta 8.871472
_cell_angle_gamma 90.000000
_cell_volume 1377.699677
_symmetry_space_group_name_H-M "P 2/M"
_symmetry_group_IT_number 10
_symmetry_cell_setting 'monoclinic'
loop_
_space_group_symop_operation_xyz
x,y,z
-x,y,-z
-x,-y,-z
x,-y,z
loop_
_atom_site_type_symbol
_atom_site_label
_atom_site_fract_x
_atom_site_fract_y
_atom_site_fract_z
Si Si1 0.277179 0.500000 0.749528
Si Si2 0.144501 0.186754 0.251786
Si Si3 0.025895 0.203509 0.746653
Si Si4 0.483685 0.807569 0.247320
Si Si5 0.320332 0.201909 0.768782
Si Si6 0.222889 0.000000 0.250346
Si Si7 0.876301 0.802228 0.261720
Si Si8 0.396582 0.689257 0.247666
O O1 0.500000 0.500000 0.500000
O O2 0.305417 0.323297 0.745636
O O3 0.000000 0.500000 0.000000
O O4 0.877970 0.283792 0.505234
O O5 0.124147 0.000000 0.251744
O O6 0.193931 0.166887 0.250702
O O7 0.383494 0.284418 0.999560
O O8 0.248477 0.279150 0.500786
O O9 0.072477 0.277244 0.745161
O O10 0.027227 0.000000 0.744298
O O11 0.755696 0.279005 0.993780
O O12 0.435734 0.807119 0.247287
O O13 0.499238 0.000000 0.246422
O O14 0.588615 0.243755 0.528726
O O15 0.301879 0.000000 0.775281
O O16 0.087367 0.263100 0.024408
O O17 0.000000 0.000000 0.500000
O O18 0.500000 0.000000 0.000000
O O19 0.915616 0.000000 0.227342
O O20 0.412800 0.500000 0.248116
#
# Coordination Sequence:
#
# PCOD8060322 Si02
#       8
#     2   4   4   4   4   2   4   4
#     4  12  26  42  62  88 122 150 190 242 296 364
#     4  10  22  38  64  89 112 151 205 240 288 367
#     4   9  17  30  52  83 108 147 194 246 291 332
#     4  10  19  31  53  79 114 153 201 242 286 341
#     4  10  21  38  62  87 115 153 192 237 294 354
#     4  10  20  38  68  96 116 140 192 262 306 348
#     4   9  17  33  59  86 114 146 193 241 285 348
#     4  12  23  38  57  84 126 164 197 250 298 353
#
# _framework density 20.323733000000001
#
# number of rings (size 3 to 8) (size 9 to 14) (size 15 to 20)
#    0.429    1.429    0.000    5.143    0.000    5.143 
#    0.000    0.000    9.429    8.571    0.000    0.000 
#    0.000    0.000    0.000    0.000    0.000    0.000 
#
# Total GULP energy -347114.106061 kJ/mol
# GULP energy per Si atom -12396.932359 kJ/mol
# Density = 2.027747 g / cm^3
# Si number density = 20.323733 Si / 1000 Ang^3
#
#
#
# Elastic Constant Matrix: (Units=GPa)
#
#
# Indices 1 2 3 4 5 6 
#
# 1 147.2511 26.6588 71.0929 0.0000 6.2980 0.0000
# 2 26.6588 53.2946 28.1679 0.0000 -1.9552 0.0000
# 3 71.0929 28.1679 187.0570 0.0000 13.7568 0.0000
# 4 0.0000 0.0000 0.0000 21.3276 0.0000 0.2764
# 5 6.2980 -1.9552 13.7568 0.0000 56.9711 0.0000
# 6 0.0000 0.0000 0.0000 0.2764 0.0000 3.9369
#
#
#
# Elastic Compliance Matrix: (Units=1/GPa)
#
#
# Indices 1 2 3 4 5 6 
#
# 1 0.008700 -0.002860 -0.002849 0.000000 -0.000372 0.000000
# 2 -0.002860 0.021447 -0.002260 0.000000 0.001598 0.000000
# 3 -0.002849 -0.002260 0.006874 0.000000 -0.001422 0.000000
# 4 0.000000 0.000000 0.000000 0.046930 0.000000 -0.003295
# 5 -0.000372 0.001598 -0.001422 0.000000 0.017992 0.000000
# 6 0.000000 0.000000 0.000000 -0.003295 0.000000 0.254238
#
#
# Mechanical properties :
#
#
# Convention : Reuss Voigt Hill
#
# Bulk Modulus (GPa) = 47.43025 71.04911 59.23968
# Shear Modulus (GPa) = 13.18750 33.89268 23.54009
#
# Velocity S-wave (km/s) = 2.55006 4.08811 3.40701
# Velocity P-wave (km/s) = 5.66202 7.57087 6.68493
#
# Compressibility (1/GPa) = 0.02108359
#
# Stress axis : x y z
#
# Youngs Moduli (GPa) = 114.94132 46.62555 145.48567
#
# Poissons Ratio (x) = 0.13335 0.41442
# Poissons Ratio (y) = 0.32874 0.32882
# Poissons Ratio (z) = 0.32741 0.10538
#
# Static dielectric constant tensor:
#      x y z
#    x 3.634000 0.000000 0.018180 
#    y 0.000000 3.548840 0.000000 
#    z 0.018180 0.000000 3.888790 
# 
# 
# High freq. dielectric constant tensor:
#      x y z
#    x 1.792480 0.000000 -0.000560 
#    y 0.000000 1.763320 0.000000 
#    z -0.000560 0.000000 1.819130 
# 
# From -- ./inp_files/96009.got.cif
#   From: 2010.06.25/outbox.cif.g09.slc.cpg/sg10_49_cif.got.tgz:96009.got - 2010.06.27 22:07:45.
