data_PCOD8060373
_publ_section_title
;
Structure prediction by ZEFSAII (Michael W. Deem and Ramdas Pophale) SiO2 
 PCOD8060373
Probable space group: P 2/M
;
_chemical_formula_sum "Si O2"
_cell_formula_units_Z 24
_cell_length_a 19.576297
_cell_length_b 19.259230
_cell_length_c 5.064333
_cell_angle_alpha 90.000000
_cell_angle_beta 119.242703
_cell_angle_gamma 90.000000
_cell_volume 1666.042739
_symmetry_space_group_name_H-M "P 2/M"
_symmetry_group_IT_number 10
_symmetry_cell_setting 'monoclinic'
loop_
_space_group_symop_operation_xyz
x,y,z
-x,y,-z
-x,-y,-z
x,-y,z
loop_
_atom_site_type_symbol
_atom_site_label
_atom_site_fract_x
_atom_site_fract_y
_atom_site_fract_z
Si Si1 0.089000 0.792553 0.767795
Si Si2 0.413330 0.918109 0.364738
Si Si3 0.852950 0.134924 0.607957
Si Si4 0.054843 0.500000 0.854669
Si Si5 0.945227 0.000000 0.649194
Si Si6 0.683239 0.081993 0.311973
Si Si7 0.945348 0.647887 0.147565
O O1 0.143571 0.807451 0.617529
O O2 0.110004 0.714821 0.912542
O O3 0.000000 0.799749 0.500000
O O4 0.101978 0.844356 0.038575
O O5 0.500000 0.884954 0.500000
O O6 0.378179 0.897279 0.578765
O O7 0.420459 0.000000 0.342776
O O8 0.354743 0.890424 0.029856
O O9 0.763396 0.122261 0.516106
O O10 0.890256 0.067005 0.546388
O O11 0.000000 0.500000 0.500000
O O12 0.102853 0.573765 0.961483
O O13 0.000000 0.500000 0.000000
O O14 0.000000 0.000000 0.500000
O O15 0.000000 0.000000 0.000000
O O16 0.700485 0.000000 0.343228
O O17 0.000000 0.640418 0.500000
O O18 0.000000 0.662274 0.000000
#
# Coordination Sequence:
#
# PCOD8060373 Si02
#       7
#     4   4   4   2   2   4   4
#     4  11  21  32  45  57  78 105 143 180 214 244
#     4   9  17  29  48  67  81  96 117 152 202 257
#     4  12  22  34  44  58  77 107 139 180 215 247
#     4   8  14  24  40  60  78  94 118 156 209 256
#     4  12  24  34  44  54  69 100 145 186 218 240
#     4  10  19  32  45  60  82 101 127 164 208 247
#     4   9  16  27  42  59  77  98 125 166 212 250
#
# _framework density 14.405393999999999
#
# number of rings (size 3 to 8) (size 9 to 14) (size 15 to 20)
#    0.000    1.833    0.833    6.500    0.000    2.000 
#    0.000    0.000    0.000    0.000    0.000    0.000 
#    0.000    0.000    0.000    0.000    0.000    0.000 
#
# Total GULP energy -297394.717154 kJ/mol
# GULP energy per Si atom -12391.446548 kJ/mol
# Density = 1.437261 g / cm^3
# Si number density = 14.405394 Si / 1000 Ang^3
#
#
#
# Elastic Constant Matrix: (Units=GPa)
#
#
# Indices 1 2 3 4 5 6 
#
# 1 66.0669 28.0588 26.9875 0.0000 -2.7640 0.0000
# 2 28.0588 74.9864 21.3492 0.0000 3.7263 0.0000
# 3 26.9875 21.3492 64.2049 0.0000 -11.4947 0.0000
# 4 0.0000 0.0000 0.0000 8.8632 0.0000 -7.1006
# 5 -2.7640 3.7263 -11.4947 0.0000 29.3096 0.0000
# 6 0.0000 0.0000 0.0000 -7.1006 0.0000 11.9379
#
#
#
# Elastic Compliance Matrix: (Units=1/GPa)
#
#
# Indices 1 2 3 4 5 6 
#
# 1 0.020260 -0.005700 -0.006613 0.000000 0.000042 0.000000
# 2 -0.005700 0.016802 -0.003947 0.000000 -0.004222 0.000000
# 3 -0.006613 -0.003947 0.021129 0.000000 0.008165 0.000000
# 4 0.000000 0.000000 0.000000 0.215522 0.000000 0.128190
# 5 0.000042 -0.004222 0.008165 0.000000 0.037861 0.000000
# 6 0.000000 0.000000 0.000000 0.128190 0.000000 0.160013
#
#
# Mechanical properties :
#
#
# Convention : Reuss Voigt Hill
#
# Bulk Modulus (GPa) = 38.95461 39.78324 39.36892
# Shear Modulus (GPa) = 9.75295 18.61301 14.18298
#
# Velocity S-wave (km/s) = 2.60481 3.59846 3.14117
# Velocity P-wave (km/s) = 6.01225 6.70388 6.36746
#
# Compressibility (1/GPa) = 0.02567091
#
# Stress axis : x y z
#
# Youngs Moduli (GPa) = 49.35777 59.51601 47.32852
#
# Poissons Ratio (x) = 0.33926 0.31299
# Poissons Ratio (y) = 0.28136 0.18679
# Poissons Ratio (z) = 0.32641 0.23490
#
# Static dielectric constant tensor:
#      x y z
#    x 2.772320 0.000000 -0.205150 
#    y 0.000000 3.322300 0.000000 
#    z -0.205150 0.000000 2.817860 
# 
# 
# High freq. dielectric constant tensor:
#      x y z
#    x 1.540790 0.000000 -0.037890 
#    y 0.000000 1.525240 0.000000 
#    z -0.037890 0.000000 1.547570 
# 
# From -- ./inp_files/11508.got.cif
#   From: 2010.06.25/outbox.cif.g09.slc.cpg/sg10_6_cif.got.tgz:11508.got - 2010.06.27 22:07:45.
