data_PCOD8060587
_publ_section_title
;
Structure prediction by ZEFSAII (Michael W. Deem and Ramdas Pophale) SiO2 
 PCOD8060587
Probable space group: P 2/M
;
_chemical_formula_sum "Si O2"
_cell_formula_units_Z 32
_cell_length_a 19.859952
_cell_length_b 9.154485
_cell_length_c 19.620412
_cell_angle_alpha 90.000000
_cell_angle_beta 152.183243
_cell_angle_gamma 90.000000
_cell_volume 1664.589527
_symmetry_space_group_name_H-M "P 2/M"
_symmetry_group_IT_number 10
_symmetry_cell_setting 'monoclinic'
loop_
_space_group_symop_operation_xyz
x,y,z
-x,y,-z
-x,-y,-z
x,-y,z
loop_
_atom_site_type_symbol
_atom_site_label
_atom_site_fract_x
_atom_site_fract_y
_atom_site_fract_z
Si Si1 0.059625 0.673697 0.625308
Si Si2 0.381703 0.673762 0.947545
Si Si3 0.411690 0.834525 0.481216
Si Si4 0.083414 0.830526 0.010451
Si Si5 0.370860 0.166269 0.207097
Si Si6 0.499266 0.672974 0.198236
Si Si7 0.176884 0.673180 0.477830
Si Si8 0.134056 0.170286 0.298804
O O1 0.066293 0.500000 0.629267
O O2 0.220933 0.734851 0.786092
O O3 0.000000 0.734244 0.500000
O O4 0.945041 0.727666 0.578854
O O5 0.377632 0.500000 0.941162
O O6 0.500000 0.733868 0.000000
O O7 0.435174 0.728216 0.069182
O O8 0.500000 0.751526 0.500000
O O9 0.485699 0.826846 0.620548
O O10 0.255331 0.765942 0.355284
O O11 0.387963 0.000000 0.434341
O O12 0.012111 0.804940 0.873010
O O13 0.095776 0.000000 0.040175
O O14 0.244132 0.767971 0.142102
O O15 0.000000 0.754580 0.000000
O O16 0.394035 0.261622 0.160886
O O17 0.334204 0.000000 0.152303
O O18 0.492628 0.500000 0.197915
O O19 0.664950 0.726993 0.355676
O O20 0.176052 0.500000 0.470118
O O21 0.132008 0.740019 0.365922
O O22 0.163087 0.000000 0.341649
#
# Coordination Sequence:
#
# PCOD8060587 Si02
#       8
#     4   4   4   4   4   4   4   4
#     4   9  17  30  50  75 101 131 168 207 245 288
#     4   9  17  30  50  75 101 131 168 207 245 288
#     4   9  16  28  49  73  94 123 168 212 245 285
#     4   9  18  32  51  75 100 127 166 216 259 295
#     4  10  19  32  51  75 101 131 167 208 253 299
#     4  10  20  33  50  74 105 136 165 204 251 297
#     4  10  20  33  50  74 105 136 165 204 251 297
#     4  10  19  32  51  75 101 131 167 208 253 299
#
# _framework density 19.223958
#
# number of rings (size 3 to 8) (size 9 to 14) (size 15 to 20)
#    0.000    2.500    1.250    1.500    1.750    6.000 
#    0.000    0.000    0.000    5.250    0.000    0.000 
#    0.000    0.000    0.000    0.000    0.000    0.000 
#
# Total GULP energy -396586.790768 kJ/mol
# GULP energy per Si atom -12393.337212 kJ/mol
# Density = 1.918020 g / cm^3
# Si number density = 19.223958 Si / 1000 Ang^3
#
#
#
# Elastic Constant Matrix: (Units=GPa)
#
#
# Indices 1 2 3 4 5 6 
#
# 1 140.5826 16.8702 40.5188 0.0000 3.6651 0.0000
# 2 16.8702 10.2241 9.1888 0.0000 -0.7610 0.0000
# 3 40.5188 9.1888 93.5036 0.0000 8.2698 0.0000
# 4 0.0000 0.0000 0.0000 16.7910 0.0000 -5.5772
# 5 3.6651 -0.7610 8.2698 0.0000 37.1966 0.0000
# 6 0.0000 0.0000 0.0000 -5.5772 0.0000 31.2414
#
#
#
# Elastic Compliance Matrix: (Units=1/GPa)
#
#
# Indices 1 2 3 4 5 6 
#
# 1 0.009518 -0.013261 -0.002769 0.000000 -0.000594 0.000000
# 2 -0.013261 0.126547 -0.007175 0.000000 0.005491 0.000000
# 3 -0.002769 -0.007175 0.012841 0.000000 -0.002729 0.000000
# 4 0.000000 0.000000 0.000000 0.063310 0.000000 0.011302
# 5 -0.000594 0.005491 -0.002729 0.000000 0.027662 0.000000
# 6 0.000000 0.000000 0.000000 0.011302 0.000000 0.034027
#
#
# Mechanical properties :
#
#
# Convention : Reuss Voigt Hill
#
# Bulk Modulus (GPa) = 9.75646 41.94064 25.84855
# Shear Modulus (GPa) = 14.10518 28.89463 21.49990
#
# Velocity S-wave (km/s) = 2.71168 3.88113 3.34786
# Velocity P-wave (km/s) = 3.85882 6.47676 5.33099
#
# Compressibility (1/GPa) = 0.10249614
#
# Stress axis : x y z
#
# Youngs Moduli (GPa) = 105.06266 7.90220 77.87482
#
# Poissons Ratio (x) = 0.10479 0.21563
# Poissons Ratio (y) = 1.39324 0.55877
# Poissons Ratio (z) = 0.29091 0.05670
#
# Static dielectric constant tensor:
#      x y z
#    x 3.792170 0.000000 0.145970 
#    y 0.000000 2.865930 0.000000 
#    z 0.145970 0.000000 3.707110 
# 
# 
# High freq. dielectric constant tensor:
#      x y z
#    x 1.767070 0.000000 0.006140 
#    y 0.000000 1.669720 0.000000 
#    z 0.006140 0.000000 1.764860 
# 
# From -- ./inp_files/78950.got.cif
#   From: 2010.06.25/outbox.cif.g09.slc.cpg/sg10_40_cif.got.tgz:78950.got - 2010.06.27 22:07:45.
