data_PCOD8060012
_publ_section_title
;
Structure prediction by ZEFSAII (Michael W. Deem and Ramdas Pophale) SiO2 
 PCOD8060012
Probable space group: P 2/M
;
_chemical_formula_sum "Si O2"
_cell_formula_units_Z 24
_cell_length_a 24.100979
_cell_length_b 8.588456
_cell_length_c 9.228155
_cell_angle_alpha 90.000000
_cell_angle_beta 136.321833
_cell_angle_gamma 90.000000
_cell_volume 1319.154166
_symmetry_space_group_name_H-M "P 2/M"
_symmetry_group_IT_number 10
_symmetry_cell_setting 'monoclinic'
loop_
_space_group_symop_operation_xyz
x,y,z
-x,y,-z
-x,-y,-z
x,-y,z
loop_
_atom_site_type_symbol
_atom_site_label
_atom_site_fract_x
_atom_site_fract_y
_atom_site_fract_z
Si Si1 0.741701 0.817175 0.569245
Si Si2 0.759628 0.318106 0.915694
Si Si3 0.084829 0.319348 0.617653
Si Si4 0.584317 0.815773 0.107424
Si Si5 0.674950 0.179213 0.007958
Si Si6 0.186583 0.680252 0.551887
O O1 0.747671 0.776921 0.747749
O O2 0.656694 0.753295 0.345903
O O3 0.814783 0.730621 0.619702
O O4 0.751238 0.000000 0.565690
O O5 0.762443 0.500000 0.886914
O O6 0.841199 0.254860 0.146163
O O7 0.684360 0.283127 0.881134
O O8 0.078548 0.500000 0.643234
O O9 0.102343 0.293467 0.478566
O O10 0.000000 0.237583 0.500000
O O11 0.598091 0.773523 0.962714
O O12 0.581452 0.000000 0.120443
O O13 0.500000 0.740525 0.000000
O O14 0.750182 0.204435 0.255244
O O15 0.670195 0.000000 0.950982
O O16 0.212685 0.500000 0.619414
#
# Coordination Sequence:
#
# PCOD8060012 Si02
#       6
#     4   4   4   4   4   4
#     4  10  19  31  49  70  94 123 155 193 232 274
#     4  10  19  31  49  70  94 123 155 193 232 274
#     4   8  15  29  49  71  91 116 155 195 227 266
#     4   8  15  29  49  71  91 116 155 195 227 266
#     4   9  16  28  48  70  93 122 155 190 227 273
#     4   9  16  28  48  70  93 122 155 190 227 273
#
# _framework density 18.193474999999999
#
# number of rings (size 3 to 8) (size 9 to 14) (size 15 to 20)
#    0.000    3.000    0.000    4.000    0.000    0.000 
#    0.000    1.667    0.000   46.000    0.000    0.000 
#    0.000    0.000    0.000    0.000    0.000    0.000 
#
# Total GULP energy -297328.649166 kJ/mol
# GULP energy per Si atom -12388.693715 kJ/mol
# Density = 1.815207 g / cm^3
# Si number density = 18.193475 Si / 1000 Ang^3
#
#
#
# Elastic Constant Matrix: (Units=GPa)
#
#
# Indices 1 2 3 4 5 6 
#
# 1 173.6132 29.1904 58.5180 0.0000 -9.2937 0.0000
# 2 29.1904 39.9745 13.5779 0.0000 1.5719 0.0000
# 3 58.5180 13.5779 64.0750 0.0000 -13.3318 0.0000
# 4 0.0000 0.0000 0.0000 20.2934 0.0000 -8.9411
# 5 -9.2937 1.5719 -13.3318 0.0000 27.6763 0.0000
# 6 0.0000 0.0000 0.0000 -8.9411 0.0000 25.4649
#
#
#
# Elastic Compliance Matrix: (Units=1/GPa)
#
#
# Indices 1 2 3 4 5 6 
#
# 1 0.008886 -0.003983 -0.007339 0.000000 -0.000325 0.000000
# 2 -0.003983 0.029318 -0.003556 0.000000 -0.004716 0.000000
# 3 -0.007339 -0.003556 0.025108 0.000000 0.009832 0.000000
# 4 0.000000 0.000000 0.000000 0.058295 0.000000 0.020468
# 5 -0.000325 -0.004716 0.009832 0.000000 0.041027 0.000000
# 6 0.000000 0.000000 0.000000 0.020468 0.000000 0.046456
#
#
# Mechanical properties :
#
#
# Convention : Reuss Voigt Hill
#
# Bulk Modulus (GPa) = 29.80091 53.35948 41.58020
# Shear Modulus (GPa) = 19.99740 26.44533 23.22136
#
# Velocity S-wave (km/s) = 3.31894 3.81670 3.57649
# Velocity P-wave (km/s) = 5.57698 6.98681 6.32132
#
# Compressibility (1/GPa) = 0.03355603
#
# Stress axis : x y z
#
# Youngs Moduli (GPa) = 112.53842 34.10887 39.82731
#
# Poissons Ratio (x) = 0.13586 0.29228
# Poissons Ratio (y) = 0.44826 0.14163
# Poissons Ratio (z) = 0.82590 0.12129
#
# Static dielectric constant tensor:
#      x y z
#    x 4.006280 0.000000 -0.030880 
#    y 0.000000 3.099150 0.000000 
#    z -0.030880 0.000000 3.105660 
# 
# 
# High freq. dielectric constant tensor:
#      x y z
#    x 1.725500 0.000000 -0.021430 
#    y 0.000000 1.685510 0.000000 
#    z -0.021430 0.000000 1.656780 
# 
# From -- ./inp_files/31218.got.cif
#   From: 2010.06.25/outbox.cif.g09.slc.cpg/sg10_16_cif.got.tgz:31218.got - 2010.06.27 22:07:45.
