data_PCOD8060556
_publ_section_title
;
Structure prediction by ZEFSAII (Michael W. Deem and Ramdas Pophale) SiO2 
 PCOD8060556
Probable space group: P 2/M
;
_chemical_formula_sum "Si O2"
_cell_formula_units_Z 32
_cell_length_a 14.196008
_cell_length_b 9.111786
_cell_length_c 22.482065
_cell_angle_alpha 90.000000
_cell_angle_beta 37.198562
_cell_angle_gamma 90.000000
_cell_volume 1758.162823
_symmetry_space_group_name_H-M "P 2/M"
_symmetry_group_IT_number 10
_symmetry_cell_setting 'monoclinic'
loop_
_space_group_symop_operation_xyz
x,y,z
-x,y,-z
-x,-y,-z
x,-y,z
loop_
_atom_site_type_symbol
_atom_site_label
_atom_site_fract_x
_atom_site_fract_y
_atom_site_fract_z
Si Si1 0.014178 0.172638 0.749625
Si Si2 0.320288 0.668834 0.290951
Si Si3 0.332269 0.670675 0.872766
Si Si4 0.950291 0.327175 0.661965
Si Si5 0.720852 0.330937 0.231092
Si Si6 0.929336 0.329903 0.907940
Si Si7 0.857575 0.164489 0.526584
Si Si8 0.639778 0.827947 0.387975
O O1 0.196975 0.212618 0.662757
O O2 0.939127 0.252870 0.731319
O O3 0.920828 0.232884 0.853106
O O4 0.987544 0.000000 0.757227
O O5 0.291287 0.500000 0.322851
O O6 0.498726 0.698353 0.182828
O O7 0.209963 0.712826 0.291497
O O8 0.287439 0.762902 0.366667
O O9 0.293500 0.500000 0.885119
O O10 0.325823 0.737866 0.809438
O O11 0.201656 0.736883 0.982085
O O12 0.974677 0.500000 0.656217
O O13 0.098592 0.260306 0.552860
O O14 0.671279 0.500000 0.261373
O O15 0.627762 0.246796 0.329565
O O16 0.905438 0.310353 0.143624
O O17 0.897537 0.500000 0.907639
O O18 0.000000 0.162967 0.500000
O O19 0.813782 0.000000 0.527968
O O20 0.500000 0.769499 0.500000
O O21 0.624471 0.000000 0.384954
#
# Coordination Sequence:
#
# PCOD8060556 Si02
#       8
#     4   4   4   4   4   4   4   4
#     4  10  20  34  52  72  96 128 165 203 243 289
#     4   9  18  32  49  72 101 130 163 203 242 283
#     4   9  17  31  52  76 100 126 159 202 247 288
#     4  10  19  32  51  72  96 130 169 204 239 284
#     4   9  17  30  51  77 100 125 159 197 239 288
#     4   9  17  32  53  74  97 126 161 200 243 292
#     4   9  17  30  48  69  95 127 160 196 239 285
#     4   9  19  35  51  70 100 132 159 193 239 289
#
# _framework density 18.200817000000001
#
# number of rings (size 3 to 8) (size 9 to 14) (size 15 to 20)
#    0.000    2.750    0.000    1.500    0.000    5.250 
#    0.000    5.000    0.000    6.750    0.000    0.000 
#    0.000    0.000    0.000    0.000    0.000    0.000 
#
# Total GULP energy -396802.066066 kJ/mol
# GULP energy per Si atom -12400.064565 kJ/mol
# Density = 1.815939 g / cm^3
# Si number density = 18.200817 Si / 1000 Ang^3
#
#
#
# Elastic Constant Matrix: (Units=GPa)
#
#
# Indices 1 2 3 4 5 6 
#
# 1 90.0521 41.1549 63.5767 0.0000 19.7676 0.0000
# 2 41.1549 70.8283 48.0813 0.0000 11.3123 0.0000
# 3 63.5767 48.0813 155.8979 0.0000 12.0728 0.0000
# 4 0.0000 0.0000 0.0000 16.8288 0.0000 -1.4416
# 5 19.7676 11.3123 12.0728 0.0000 26.4039 0.0000
# 6 0.0000 0.0000 0.0000 -1.4416 0.0000 15.2791
#
#
#
# Elastic Compliance Matrix: (Units=1/GPa)
#
#
# Indices 1 2 3 4 5 6 
#
# 1 0.019993 -0.006371 -0.005433 0.000000 -0.009754 0.000000
# 2 -0.006371 0.020639 -0.003579 0.000000 -0.002436 0.000000
# 3 -0.005433 -0.003579 0.009641 0.000000 0.001192 0.000000
# 4 0.000000 0.000000 0.000000 0.059906 0.000000 0.005652
# 5 -0.009754 -0.002436 0.001192 0.000000 0.045675 0.000000
# 6 0.000000 0.000000 0.000000 0.005652 0.000000 0.065982
#
#
# Mechanical properties :
#
#
# Convention : Reuss Voigt Hill
#
# Bulk Modulus (GPa) = 51.26002 69.15602 60.20802
# Shear Modulus (GPa) = 19.29718 22.63337 20.96527
#
# Velocity S-wave (km/s) = 3.25966 3.53021 3.39763
# Velocity P-wave (km/s) = 6.51091 7.39561 6.96732
#
# Compressibility (1/GPa) = 0.01950838
#
# Stress axis : x y z
#
# Youngs Moduli (GPa) = 50.01666 48.45217 103.71831
#
# Poissons Ratio (x) = 0.30869 0.56352
# Poissons Ratio (y) = 0.31865 0.37116
# Poissons Ratio (z) = 0.27175 0.17339
#
# Static dielectric constant tensor:
#      x y z
#    x 3.257360 0.000000 0.061770 
#    y 0.000000 3.289620 0.000000 
#    z 0.061770 0.000000 3.428530 
# 
# 
# High freq. dielectric constant tensor:
#      x y z
#    x 1.694770 0.000000 0.006040 
#    y 0.000000 1.692240 0.000000 
#    z 0.006040 0.000000 1.704890 
# 
# From -- ./inp_files/84741.got.cif
#   From: 2010.06.25/outbox.cif.g09.slc.cpg/sg10_43_cif.got.tgz:84741.got - 2010.06.27 22:07:45.
