data_PCOD8060512
_publ_section_title
;
Structure prediction by ZEFSAII (Michael W. Deem and Ramdas Pophale) SiO2 
 PCOD8060512
Probable space group: P 2/M
;
_chemical_formula_sum "Si O2"
_cell_formula_units_Z 32
_cell_length_a 17.526353
_cell_length_b 18.235048
_cell_length_c 13.406019
_cell_angle_alpha 90.000000
_cell_angle_beta 154.226577
_cell_angle_gamma 90.000000
_cell_volume 1862.950218
_symmetry_space_group_name_H-M "P 2/M"
_symmetry_group_IT_number 10
_symmetry_cell_setting 'monoclinic'
loop_
_space_group_symop_operation_xyz
x,y,z
-x,y,-z
-x,-y,-z
x,-y,z
loop_
_atom_site_type_symbol
_atom_site_label
_atom_site_fract_x
_atom_site_fract_y
_atom_site_fract_z
Si Si1 0.995704 0.916522 0.381101
Si Si2 0.592055 0.825303 0.398599
Si Si3 0.247872 0.322760 0.369552
Si Si4 0.873820 0.322766 0.995509
Si Si5 0.562067 0.417924 0.686200
Si Si6 0.785499 0.825295 0.978954
Si Si7 0.191714 0.913643 0.191714
Si Si8 0.610314 0.916523 0.224918
O O1 0.000000 0.889688 0.500000
O O2 0.184768 0.910831 0.554312
O O3 0.924892 0.000000 0.292347
O O4 0.865989 0.863264 0.170512
O O5 0.713897 0.754037 0.530874
O O6 0.408287 0.796866 0.224844
O O7 0.670336 0.884150 0.566591
O O8 0.561470 0.863256 0.256936
O O9 0.218816 0.305579 0.218811
O O10 0.411832 0.378110 0.575578
O O11 0.069547 0.356265 0.208627
O O12 0.751931 0.378122 0.915678
O O13 0.896913 0.245975 0.079959
O O14 0.500000 0.421032 0.500000
O O15 0.585439 0.500000 0.756349
O O16 0.774052 0.884121 0.877771
O O17 0.211790 0.000000 0.211756
O O18 0.000000 0.888431 0.000000
O O19 0.557450 0.000000 0.190006
O O20 0.500000 0.889695 0.000000
#
# Coordination Sequence:
#
# PCOD8060512 Si02
#       8
#     4   4   4   4   4   4   4   4
#     4  10  21  37  54  72  97 133 176 224 273 316
#     4  12  22  33  51  73 101 137 177 219 265 315
#     4  10  19  32  50  73 104 140 174 211 261 309
#     4  10  19  32  50  73 104 140 174 211 261 309
#     4   9  18  32  50  74 104 138 174 208 250 313
#     4  12  22  33  51  73 101 137 177 219 265 315
#     4  11  23  35  47  69  99 134 179 223 263 313
#     4  10  21  37  54  72  97 133 176 224 273 316
#
# _framework density 17.177056
#
# number of rings (size 3 to 8) (size 9 to 14) (size 15 to 20)
#    0.000    1.500    2.500    4.125    0.000    6.000 
#    0.000    2.500    0.000    0.000    0.000    0.000 
#    0.000    1.000    0.500    0.000    0.000    0.000 
#
# Total GULP energy -396876.108651 kJ/mol
# GULP energy per Si atom -12402.378395 kJ/mol
# Density = 1.713796 g / cm^3
# Si number density = 17.177056 Si / 1000 Ang^3
#
#
#
# Elastic Constant Matrix: (Units=GPa)
#
#
# Indices 1 2 3 4 5 6 
#
# 1 78.8977 39.5652 38.3812 0.0000 7.9137 0.0000
# 2 39.5652 91.2010 39.8443 0.0000 1.9212 0.0000
# 3 38.3812 39.8443 81.7382 0.0000 10.5309 0.0000
# 4 0.0000 0.0000 0.0000 2.4648 0.0000 22.9980
# 5 7.9137 1.9212 10.5309 0.0000 37.7459 0.0000
# 6 0.0000 0.0000 0.0000 22.9980 0.0000 -1.0653
#
#
#
# Elastic Compliance Matrix: (Units=1/GPa)
#
#
# Indices 1 2 3 4 5 6 
#
# 1 0.018384 -0.005430 -0.005730 0.000000 -0.001979 0.000000
# 2 -0.005430 0.015591 -0.005285 0.000000 0.001819 0.000000
# 3 -0.005730 -0.005285 0.017957 0.000000 -0.003540 0.000000
# 4 0.000000 0.000000 0.000000 0.002004 0.000000 0.043267
# 5 -0.001979 0.001819 -0.003540 0.000000 0.027803 0.000000
# 6 0.000000 0.000000 0.000000 0.043267 0.000000 -0.004637
#
#
# Mechanical properties :
#
#
# Convention : Reuss Voigt Hill
#
# Bulk Modulus (GPa) = 52.51669 54.15759 53.33714
# Shear Modulus (GPa) = 42.97774 16.76550 29.87162
#
# Velocity S-wave (km/s) = 5.00747 3.12755 4.17471
# Velocity P-wave (km/s) = 8.00457 6.68129 7.37268
#
# Compressibility (1/GPa) = 0.01904157
#
# Stress axis : x y z
#
# Youngs Moduli (GPa) = 54.39537 64.13974 55.68845
#
# Poissons Ratio (x) = 0.34829 0.31912
# Poissons Ratio (y) = 0.29538 0.29429
# Poissons Ratio (z) = 0.31171 0.33895
#
# Static dielectric constant tensor:
#      x y z
#    x 3.174260 0.000000 0.252530 
#    y 0.000000 3.120510 0.000000 
#    z 0.252530 0.000000 3.213460 
# 
# 
# High freq. dielectric constant tensor:
#      x y z
#    x 1.653870 0.000000 0.029840 
#    y 0.000000 1.646730 0.000000 
#    z 0.029840 0.000000 1.658490 
# 
# From -- ./inp_files/52002.got.cif
#   From: 2010.06.25/outbox.cif.g09.slc.cpg/sg10_27_cif.got.tgz:52002.got - 2010.06.27 22:07:45.
