data_PCOD8060515
_publ_section_title
;
Structure prediction by ZEFSAII (Michael W. Deem and Ramdas Pophale) SiO2 
 PCOD8060515
Probable space group: P 2/M
;
_chemical_formula_sum "Si O2"
_cell_formula_units_Z 32
_cell_length_a 24.274398
_cell_length_b 9.150772
_cell_length_c 10.129665
_cell_angle_alpha 90.000000
_cell_angle_beta 51.266672
_cell_angle_gamma 90.000000
_cell_volume 1755.225659
_symmetry_space_group_name_H-M "P 2/M"
_symmetry_group_IT_number 10
_symmetry_cell_setting 'monoclinic'
loop_
_space_group_symop_operation_xyz
x,y,z
-x,y,-z
-x,-y,-z
x,-y,z
loop_
_atom_site_type_symbol
_atom_site_label
_atom_site_fract_x
_atom_site_fract_y
_atom_site_fract_z
Si Si1 0.662181 0.826701 0.281141
Si Si2 0.194802 0.329853 0.858302
Si Si3 0.195313 0.329869 0.555893
Si Si4 0.078303 0.673490 0.234473
Si Si5 0.338151 0.826870 0.266154
Si Si6 0.078895 0.326487 0.528924
Si Si7 0.557982 0.826965 0.662995
Si Si8 0.400241 0.826306 0.899216
O O1 0.734342 0.755478 0.217793
O O2 0.599936 0.772840 0.471140
O O3 0.642220 0.771824 0.165021
O O4 0.671427 0.000000 0.274277
O O5 0.208103 0.500000 0.867106
O O6 0.171484 0.303926 0.742307
O O7 0.133316 0.265002 0.044530
O O8 0.208452 0.500000 0.507446
O O9 0.266579 0.245335 0.420357
O O10 0.134295 0.264594 0.552499
O O11 0.076708 0.500000 0.229453
O O12 0.101274 0.723568 0.347547
O O13 0.999657 0.733762 0.320556
O O14 0.401197 0.775130 0.267326
O O15 0.328073 0.000000 0.287445
O O16 0.357707 0.771330 0.090752
O O17 0.077490 0.500000 0.538899
O O18 0.479332 0.759148 0.780475
O O19 0.552234 0.000000 0.669662
O O20 0.405938 0.000000 0.891347
#
# Coordination Sequence:
#
# PCOD8060515 Si02
#       8
#     4   4   4   4   4   4   4   4
#     4  10  19  32  50  73  98 126 160 199 242 286
#     4  10  20  32  48  72 101 130 159 196 239 283
#     4  10  20  32  48  72 101 130 159 196 239 283
#     4   8  15  29  49  72  96 124 160 198 234 276
#     4  10  19  32  50  73  98 126 160 199 242 286
#     4   8  15  29  49  72  96 124 160 198 234 276
#     4   9  16  30  51  71  94 125 160 200 243 283
#     4   9  18  30  49  75  96 119 162 210 241 275
#
# _framework density 18.231273000000002
#
# number of rings (size 3 to 8) (size 9 to 14) (size 15 to 20)
#    0.000    2.750    1.250    1.500    1.750    3.500 
#    0.000    2.500    0.000    5.250    0.000    3.500 
#    0.000    0.000    0.000    0.000    0.000    0.000 
#
# Total GULP energy -396710.734713 kJ/mol
# GULP energy per Si atom -12397.210460 kJ/mol
# Density = 1.818978 g / cm^3
# Si number density = 18.231273 Si / 1000 Ang^3
#
#
#
# Elastic Constant Matrix: (Units=GPa)
#
#
# Indices 1 2 3 4 5 6 
#
# 1 105.6393 20.9929 54.1488 0.0000 6.1114 0.0000
# 2 20.9929 16.6876 19.6377 0.0000 0.3785 0.0000
# 3 54.1488 19.6377 124.0086 0.0000 10.6896 0.0000
# 4 0.0000 0.0000 0.0000 16.8019 0.0000 -3.9734
# 5 6.1114 0.3785 10.6896 0.0000 32.8253 0.0000
# 6 0.0000 0.0000 0.0000 -3.9734 0.0000 19.5717
#
#
#
# Elastic Compliance Matrix: (Units=1/GPa)
#
#
# Indices 1 2 3 4 5 6 
#
# 1 0.014201 -0.013103 -0.004024 0.000000 -0.001182 0.000000
# 2 -0.013103 0.086033 -0.008259 0.000000 0.004137 0.000000
# 3 -0.004024 -0.008259 0.011376 0.000000 -0.002860 0.000000
# 4 0.000000 0.000000 0.000000 0.062519 0.000000 0.012693
# 5 -0.001182 0.004137 -0.002860 0.000000 0.031568 0.000000
# 6 0.000000 0.000000 0.000000 0.012693 0.000000 0.053671
#
#
# Mechanical properties :
#
#
# Convention : Reuss Voigt Hill
#
# Bulk Modulus (GPa) = 16.43709 48.43270 32.43490
# Shear Modulus (GPa) = 15.13229 23.94352 19.53790
#
# Velocity S-wave (km/s) = 2.88413 3.62791 3.27719
# Velocity P-wave (km/s) = 4.48624 6.64623 5.67004
#
# Compressibility (1/GPa) = 0.06083800
#
# Stress axis : x y z
#
# Youngs Moduli (GPa) = 70.41736 11.62338 87.90754
#
# Poissons Ratio (x) = 0.15230 0.35375
# Poissons Ratio (y) = 0.92264 0.72606
# Poissons Ratio (z) = 0.28337 0.09600
#
# Static dielectric constant tensor:
#      x y z
#    x 3.642120 0.000000 0.082740 
#    y 0.000000 2.801700 0.000000 
#    z 0.082740 0.000000 3.713130 
# 
# 
# High freq. dielectric constant tensor:
#      x y z
#    x 1.718700 0.000000 0.004530 
#    y 0.000000 1.642860 0.000000 
#    z 0.004530 0.000000 1.722250 
# 
# From -- ./inp_files/34614.got.cif
#   From: 2010.06.25/outbox.cif.g09.slc.cpg/sg10_18_cif.got.tgz:34614.got - 2010.06.27 22:07:45.
