data_PCOD8060937
_publ_section_title
;
Structure prediction by ZEFSAII (Michael W. Deem and Ramdas Pophale) SiO2 
 PCOD8060937
Probable space group: P 2/M
;
_chemical_formula_sum "Si O2"
_cell_formula_units_Z 26
_cell_length_a 8.844613
_cell_length_b 14.435460
_cell_length_c 10.888574
_cell_angle_alpha 90.000000
_cell_angle_beta 67.400316
_cell_angle_gamma 90.000000
_cell_volume 1283.459204
_symmetry_space_group_name_H-M "P 2/M"
_symmetry_group_IT_number 10
_symmetry_cell_setting 'monoclinic'
loop_
_space_group_symop_operation_xyz
x,y,z
-x,y,-z
-x,-y,-z
x,-y,z
loop_
_atom_site_type_symbol
_atom_site_label
_atom_site_fract_x
_atom_site_fract_y
_atom_site_fract_z
Si Si1 0.085331 0.606900 0.776355
Si Si2 0.747305 0.752691 0.103151
Si Si3 0.177841 0.103751 0.719489
Si Si4 0.124442 0.768990 0.203954
Si Si5 0.826876 0.395680 0.516066
Si Si6 0.596473 0.261023 0.708461
Si Si7 0.500000 0.850149 0.500000
O O1 0.049618 0.500000 0.825876
O O2 0.154512 0.665331 0.869759
O O3 0.206863 0.610836 0.620576
O O4 0.921210 0.659051 0.779670
O O5 0.762221 0.846147 0.176594
O O6 0.558239 0.720405 0.154393
O O7 0.815717 0.786810 0.952630
O O8 0.332375 0.093473 0.577815
O O9 0.029384 0.165757 0.711203
O O10 0.114574 0.000000 0.767747
O O11 0.266950 0.793622 0.255571
O O12 0.839653 0.500000 0.557999
O O13 0.672902 0.355779 0.636056
O O14 0.000000 0.345871 0.500000
O O15 0.535442 0.208104 0.609127
#
# Coordination Sequence:
#
# PCOD8060937 Si02
#       7
#     4   4   4   4   4   4   2
#     4  10  20  36  58  84 115 153 197 244 290 342
#     4  10  23  38  56  87 116 156 199 237 284 344
#     4  10  21  40  64  88 117 151 188 236 291 348
#     4  11  22  37  60  85 116 155 200 236 283 346
#     4  10  19  32  54  82 111 149 196 240 287 337
#     4  11  21  38  59  82 119 152 191 244 293 339
#     4  10  23  38  61  90 116 148 185 236 300 352
#
# _framework density 20.257753000000001
#
# number of rings (size 3 to 8) (size 9 to 14) (size 15 to 20)
#    0.000    1.692    1.538    5.308    0.000    3.077 
#    0.000    6.538    0.000    7.385    0.000    0.000 
#    0.000    0.000    0.000    0.000    0.000    0.000 
#
# Total GULP energy -322156.811833 kJ/mol
# GULP energy per Si atom -12390.646609 kJ/mol
# Density = 2.021165 g / cm^3
# Si number density = 20.257753 Si / 1000 Ang^3
#
#
#
# Elastic Constant Matrix: (Units=GPa)
#
#
# Indices 1 2 3 4 5 6 
#
# 1 123.5515 32.5474 32.1764 0.0000 -3.1995 0.0000
# 2 32.5474 108.9263 19.6722 0.0000 -4.0269 0.0000
# 3 32.1764 19.6722 78.5797 0.0000 -6.0765 0.0000
# 4 0.0000 0.0000 0.0000 14.1197 0.0000 -1.4460
# 5 -3.1995 -4.0269 -6.0765 0.0000 36.4617 0.0000
# 6 0.0000 0.0000 0.0000 -1.4460 0.0000 9.7189
#
#
#
# Elastic Compliance Matrix: (Units=1/GPa)
#
#
# Indices 1 2 3 4 5 6 
#
# 1 0.009560 -0.002250 -0.003348 0.000000 0.000032 0.000000
# 2 -0.002250 0.010161 -0.001571 0.000000 0.000663 0.000000
# 3 -0.003348 -0.001571 0.014643 0.000000 0.001973 0.000000
# 4 0.000000 0.000000 0.000000 0.071919 0.000000 0.010701
# 5 0.000032 0.000663 0.001973 0.000000 0.027831 0.000000
# 6 0.000000 0.000000 0.000000 0.010701 0.000000 0.104484
#
#
# Mechanical properties :
#
#
# Convention : Reuss Voigt Hill
#
# Bulk Modulus (GPa) = 49.94099 53.31661 51.62880
# Shear Modulus (GPa) = 19.25951 27.17083 23.21517
#
# Velocity S-wave (km/s) = 3.08672 3.66629 3.38892
# Velocity P-wave (km/s) = 6.11638 6.65571 6.39174
#
# Compressibility (1/GPa) = 0.02002363
#
# Stress axis : x y z
#
# Youngs Moduli (GPa) = 104.60780 98.41353 68.29235
#
# Poissons Ratio (x) = 0.22148 0.22868
# Poissons Ratio (y) = 0.23542 0.10729
# Poissons Ratio (z) = 0.35028 0.15461
#
# Static dielectric constant tensor:
#      x y z
#    x 4.013920 0.000000 -0.295220 
#    y 0.000000 3.431610 0.000000 
#    z -0.295220 0.000000 3.932490 
# 
# 
# High freq. dielectric constant tensor:
#      x y z
#    x 1.789020 0.000000 -0.004640 
#    y 0.000000 1.766620 0.000000 
#    z -0.004640 0.000000 1.800390 
# 
# From -- ./inp_files/42615.got.cif
#   From: 2010.06.25/outbox.cif.g09.slc.cpg/sg10_22_cif.got.tgz:42615.got - 2010.06.27 22:07:45.
