data_PCOD8060493
_publ_section_title
;
Structure prediction by ZEFSAII (Michael W. Deem and Ramdas Pophale) SiO2 
 PCOD8060493
Probable space group: P 2/M
;
_chemical_formula_sum "Si O2"
_cell_formula_units_Z 32
_cell_length_a 21.083386
_cell_length_b 8.659384
_cell_length_c 14.144113
_cell_angle_alpha 90.000000
_cell_angle_beta 132.724677
_cell_angle_gamma 90.000000
_cell_volume 1896.999737
_symmetry_space_group_name_H-M "P 2/M"
_symmetry_group_IT_number 10
_symmetry_cell_setting 'monoclinic'
loop_
_space_group_symop_operation_xyz
x,y,z
-x,y,-z
-x,-y,-z
x,-y,z
loop_
_atom_site_type_symbol
_atom_site_label
_atom_site_fract_x
_atom_site_fract_y
_atom_site_fract_z
Si Si1 0.504500 0.326626 0.116688
Si Si2 0.090210 0.681064 0.990869
Si Si3 0.836389 0.818936 0.112518
Si Si4 0.007929 0.821005 0.398354
Si Si5 0.671193 0.818604 0.062769
Si Si6 0.320024 0.819818 0.710838
Si Si7 0.904831 0.818740 0.807345
Si Si8 0.837140 0.679538 0.555804
O O1 0.517971 0.500000 0.168030
O O2 0.584561 0.221461 0.231377
O O3 0.500000 0.321408 0.000000
O O4 0.414612 0.260799 0.066102
O O5 0.071404 0.500000 0.970982
O O6 0.125993 0.731073 0.129309
O O7 0.160004 0.726820 0.982417
O O8 0.001975 0.770940 0.877916
O O9 0.918193 0.775823 0.259195
O O10 0.751428 0.762443 0.081312
O O11 0.832697 0.000000 0.087449
O O12 0.000000 0.781931 0.500000
O O13 0.083920 0.718993 0.432958
O O14 0.031270 0.000000 0.405275
O O15 0.689300 0.770408 0.189193
O O16 0.656870 0.000000 0.042301
O O17 0.252161 0.721018 0.583838
O O18 0.301499 0.000000 0.677665
O O19 0.842067 0.773922 0.658512
O O20 0.901361 0.000000 0.822565
O O21 0.839736 0.500000 0.582650
#
# Coordination Sequence:
#
# PCOD8060493 Si02
#       8
#     4   4   4   4   4   4   4   4
#     4   9  17  30  48  72 101 131 164 211 261 299
#     4  11  21  34  52  75 100 126 162 212 261 301
#     4  10  19  32  50  72 100 135 173 208 246 297
#     4  10  20  34  50  68  97 139 178 207 239 290
#     4   9  18  32  51  74 100 135 176 211 244 294
#     4  10  19  33  52  73  99 136 175 211 249 299
#     4  11  21  36  55  72  94 129 169 209 253 303
#     4  12  23  34  49  74 103 132 167 211 257 300
#
# _framework density 16.868742000000001
#
# number of rings (size 3 to 8) (size 9 to 14) (size 15 to 20)
#    0.000    1.750    1.250    5.625    0.000    4.750 
#    0.000    1.250    0.000    0.000    0.000    0.875 
#    0.000    7.000    0.000    0.000    0.000    0.000 
#
# Total GULP energy -396913.017511 kJ/mol
# GULP energy per Si atom -12403.531797 kJ/mol
# Density = 1.683035 g / cm^3
# Si number density = 16.868742 Si / 1000 Ang^3
#
#
#
# Elastic Constant Matrix: (Units=GPa)
#
#
# Indices 1 2 3 4 5 6 
#
# 1 87.3320 22.8853 63.0026 0.0000 2.9679 0.0000
# 2 22.8853 65.0124 27.8996 0.0000 1.8771 0.0000
# 3 63.0026 27.8996 72.9997 0.0000 8.1677 0.0000
# 4 0.0000 0.0000 0.0000 25.4947 0.0000 1.2873
# 5 2.9679 1.8771 8.1677 0.0000 25.4213 0.0000
# 6 0.0000 0.0000 0.0000 1.2873 0.0000 20.2102
#
#
#
# Elastic Compliance Matrix: (Units=1/GPa)
#
#
# Indices 1 2 3 4 5 6 
#
# 1 0.031016 0.000800 -0.027657 0.000000 0.005206 0.000000
# 2 0.000800 0.018441 -0.007859 0.000000 0.001070 0.000000
# 3 -0.027657 -0.007859 0.041642 0.000000 -0.009570 0.000000
# 4 0.000000 0.000000 0.000000 0.039350 0.000000 -0.002506
# 5 0.005206 0.001070 -0.009570 0.000000 0.041725 0.000000
# 6 0.000000 0.000000 0.000000 -0.002506 0.000000 0.049640
#
#
# Mechanical properties :
#
#
# Convention : Reuss Voigt Hill
#
# Bulk Modulus (GPa) = 46.14740 50.32433 48.23587
# Shear Modulus (GPa) = 16.75224 21.66235 19.20729
#
# Velocity S-wave (km/s) = 3.15476 3.58742 3.37802
# Velocity P-wave (km/s) = 6.37857 6.85982 6.62357
#
# Compressibility (1/GPa) = 0.02166969
#
# Stress axis : x y z
#
# Youngs Moduli (GPa) = 32.24156 54.22559 24.01418
#
# Poissons Ratio (x) = -0.04340 0.66415
# Poissons Ratio (y) = -0.02580 0.18872
# Poissons Ratio (z) = 0.89169 0.42613
#
# Static dielectric constant tensor:
#      x y z
#    x 3.181080 0.000000 0.035580 
#    y 0.000000 3.184900 0.000000 
#    z 0.035580 0.000000 3.123030 
# 
# 
# High freq. dielectric constant tensor:
#      x y z
#    x 1.634850 0.000000 0.002760 
#    y 0.000000 1.659270 0.000000 
#    z 0.002760 0.000000 1.635180 
# 
# From -- ./inp_files/66150.got.cif
#   From: 2010.06.25/outbox.cif.g09.slc.cpg/sg10_34_cif.got.tgz:66150.got - 2010.06.27 22:07:45.
