data_PCOD8060396
_publ_section_title
;
Structure prediction by ZEFSAII (Michael W. Deem and Ramdas Pophale) SiO2 
 PCOD8060396
Probable space group: P 2/M
;
_chemical_formula_sum "Si O2"
_cell_formula_units_Z 32
_cell_length_a 12.363205
_cell_length_b 14.285827
_cell_length_c 12.363208
_cell_angle_alpha 90.000000
_cell_angle_beta 107.705829
_cell_angle_gamma 90.000000
_cell_volume 2080.137943
_symmetry_space_group_name_H-M "P 2/M"
_symmetry_group_IT_number 10
_symmetry_cell_setting 'monoclinic'
loop_
_space_group_symop_operation_xyz
x,y,z
-x,y,-z
-x,-y,-z
x,-y,z
loop_
_atom_site_type_symbol
_atom_site_label
_atom_site_fract_x
_atom_site_fract_y
_atom_site_fract_z
Si Si1 0.269196 0.610746 0.730805
Si Si2 0.259997 0.707640 0.106518
Si Si3 0.182058 0.897637 0.023123
Si Si4 0.488061 0.390060 0.121801
Si Si5 0.106518 0.292360 0.259998
Si Si6 0.121802 0.390060 0.488061
Si Si7 0.882298 0.611428 0.117702
Si Si8 0.023123 0.897637 0.182058
O O1 0.263490 0.500000 0.736512
O O2 0.398853 0.644493 0.781891
O O3 0.218109 0.644493 0.601148
O O4 0.193732 0.649822 0.806269
O O5 0.383898 0.663202 0.143966
O O6 0.216504 0.708296 0.216504
O O7 0.271713 0.813306 0.062347
O O8 0.170630 0.648584 0.009207
O O9 0.108594 0.883822 0.891406
O O10 0.243039 0.000000 0.039015
O O11 0.096887 0.892387 0.096887
O O12 0.466829 0.500000 0.129387
O O13 0.500000 0.364039 0.000000
O O14 0.143967 0.336797 0.383900
O O15 0.062346 0.186694 0.271713
O O16 0.009207 0.351417 0.170633
O O17 0.129390 0.500000 0.466828
O O18 0.000000 0.364041 0.500000
O O19 0.885719 0.500000 0.114280
O O20 0.039015 0.000000 0.243039
#
# Coordination Sequence:
#
# PCOD8060396 Si02
#       8
#     4   4   4   4   4   4   4   4
#     4   9  18  33  49  64  85 126 174 193 207 260
#     4  11  20  29  45  73  99 121 151 192 244 282
#     4   8  14  26  43  64  93 124 151 184 230 286
#     4  10  19  32  48  66  93 128 162 190 220 273
#     4  11  20  29  45  73  99 121 151 192 244 282
#     4  10  19  32  48  66  93 128 162 190 220 273
#     4  11  19  28  44  69 100 124 149 192 237 275
#     4   8  14  26  43  64  93 124 151 184 230 286
#
# _framework density 15.383595
#
# number of rings (size 3 to 8) (size 9 to 14) (size 15 to 20)
#    0.000    2.250    3.750    1.875    0.000    2.500 
#    0.000    0.625    0.000    3.000    0.000    0.875 
#    0.000    4.000    0.000    0.000    0.000    0.000 
#
# Total GULP energy -396671.261619 kJ/mol
# GULP energy per Si atom -12395.976926 kJ/mol
# Density = 1.534858 g / cm^3
# Si number density = 15.383595 Si / 1000 Ang^3
#
#
#
# Elastic Constant Matrix: (Units=GPa)
#
#
# Indices 1 2 3 4 5 6 
#
# 1 76.5747 38.1694 46.0510 0.0000 5.7943 0.0000
# 2 38.1694 87.2478 37.5897 0.0000 -0.8038 0.0000
# 3 46.0510 37.5897 87.5932 0.0000 9.3330 0.0000
# 4 0.0000 0.0000 0.0000 13.9552 0.0000 8.4031
# 5 5.7943 -0.8038 9.3330 0.0000 22.2343 0.0000
# 6 0.0000 0.0000 0.0000 8.4031 0.0000 7.8379
#
#
#
# Elastic Compliance Matrix: (Units=1/GPa)
#
#
# Indices 1 2 3 4 5 6 
#
# 1 0.021105 -0.005608 -0.008460 0.000000 -0.002152 0.000000
# 2 -0.005608 0.015770 -0.004225 0.000000 0.003805 0.000000
# 3 -0.008460 -0.004225 0.018276 0.000000 -0.005619 0.000000
# 4 0.000000 0.000000 0.000000 0.202179 0.000000 -0.216758
# 5 -0.002152 0.003805 -0.005619 0.000000 0.048033 0.000000
# 6 0.000000 0.000000 0.000000 -0.216758 0.000000 0.359973
#
#
# Mechanical properties :
#
#
# Convention : Reuss Voigt Hill
#
# Bulk Modulus (GPa) = 53.86209 55.00398 54.43304
# Shear Modulus (GPa) = 7.06106 17.44585 12.25346
#
# Velocity S-wave (km/s) = 2.14475 3.37123 2.82534
# Velocity P-wave (km/s) = 6.42043 7.14046 6.79000
#
# Compressibility (1/GPa) = 0.01856593
#
# Stress axis : x y z
#
# Youngs Moduli (GPa) = 47.38228 63.41046 54.71741
#
# Poissons Ratio (x) = 0.35561 0.46289
# Poissons Ratio (y) = 0.26573 0.23116
# Poissons Ratio (z) = 0.40084 0.26789
#
# Static dielectric constant tensor:
#      x y z
#    x 2.833810 0.000000 0.127820 
#    y 0.000000 3.164040 0.000000 
#    z 0.127820 0.000000 2.926870 
# 
# 
# High freq. dielectric constant tensor:
#      x y z
#    x 1.567600 0.000000 0.003260 
#    y 0.000000 1.582800 0.000000 
#    z 0.003260 0.000000 1.569970 
# 
# From -- ./inp_files/47408.got.cif
#   From: 2010.06.25/outbox.cif.g09.slc.cpg/sg10_24_cif.got.tgz:47408.got - 2010.06.27 22:07:45.
