data_PCOD8060919
_publ_section_title
;
Structure prediction by ZEFSAII (Michael W. Deem and Ramdas Pophale) SiO2 
 PCOD8060919
Probable space group: P 2/M
;
_chemical_formula_sum "Si O2"
_cell_formula_units_Z 28
_cell_length_a 9.203146
_cell_length_b 32.157198
_cell_length_c 5.075661
_cell_angle_alpha 90.000000
_cell_angle_beta 62.658734
_cell_angle_gamma 90.000000
_cell_volume 1334.320827
_symmetry_space_group_name_H-M "P 2/M"
_symmetry_group_IT_number 10
_symmetry_cell_setting 'monoclinic'
loop_
_space_group_symop_operation_xyz
x,y,z
-x,y,-z
-x,-y,-z
x,-y,z
loop_
_atom_site_type_symbol
_atom_site_label
_atom_site_fract_x
_atom_site_fract_y
_atom_site_fract_z
Si Si1 0.685466 0.547837 0.274877
Si Si2 0.811634 0.591778 0.650721
Si Si3 0.890275 0.735289 0.350326
Si Si4 0.305031 0.046661 0.143814
Si Si5 0.892877 0.170826 0.344972
Si Si6 0.692855 0.094335 0.361122
Si Si7 0.392097 0.328148 0.338544
O O1 0.500000 0.559307 0.500000
O O2 0.703655 0.500000 0.175932
O O3 0.793002 0.556171 0.445026
O O4 0.747553 0.575953 0.984245
O O5 0.708826 0.631711 0.659026
O O6 0.000000 0.604897 0.500000
O O7 0.829552 0.782540 0.454138
O O8 0.726984 0.708445 0.467479
O O9 0.000000 0.719249 0.500000
O O10 0.000000 0.730431 0.000000
O O11 0.237445 0.062476 0.479060
O O12 0.242095 0.000000 0.139987
O O13 0.500000 0.047365 0.000000
O O14 0.236621 0.077928 0.975743
O O15 0.742429 0.140653 0.405397
O O16 0.000000 0.154103 0.500000
O O17 0.000000 0.172043 0.000000
O O18 0.500000 0.093966 0.500000
O O19 0.500000 0.340370 0.500000
O O20 0.500000 0.312968 0.000000
#
# Coordination Sequence:
#
# PCOD8060919 Si02
#       7
#     4   4   4   4   4   4   4
#     4  11  24  43  66  92 125 164 206 255 307 353
#     4  12  25  41  64  92 126 165 205 249 296 358
#     4  10  22  42  65  89 119 157 200 239 290 359
#     4   9  17  30  50  77 107 141 184 234 284 331
#     4  10  21  38  59  82 114 153 185 226 287 352
#     4  10  19  32  54  81 107 140 187 237 278 331
#     4  12  25  42  65  93 125 158 198 249 303 352
#
# _framework density 20.984459000000001
#
# number of rings (size 3 to 8) (size 9 to 14) (size 15 to 20)
#    0.000    1.429    0.000    6.000    0.000    6.286 
#    0.000    2.143    0.000    8.571    0.000    0.000 
#    0.000    0.000    0.000    0.000    0.000    0.000 
#
# Total GULP energy -347237.230527 kJ/mol
# GULP energy per Si atom -12401.329662 kJ/mol
# Density = 2.093670 g / cm^3
# Si number density = 20.984459 Si / 1000 Ang^3
#
#
#
# Elastic Constant Matrix: (Units=GPa)
#
#
# Indices 1 2 3 4 5 6 
#
# 1 100.1755 41.1673 53.9907 0.0000 11.5196 0.0000
# 2 41.1673 98.3215 42.3495 0.0000 -10.3064 0.0000
# 3 53.9907 42.3495 119.9738 0.0000 16.7915 0.0000
# 4 0.0000 0.0000 0.0000 48.1824 0.0000 21.5696
# 5 11.5196 -10.3064 16.7915 0.0000 32.7966 0.0000
# 6 0.0000 0.0000 0.0000 21.5696 0.0000 45.7389
#
#
#
# Elastic Compliance Matrix: (Units=1/GPa)
#
#
# Indices 1 2 3 4 5 6 
#
# 1 0.014813 -0.004802 -0.004343 0.000000 -0.004488 0.000000
# 2 -0.004802 0.014941 -0.004315 0.000000 0.008591 0.000000
# 3 -0.004343 -0.004315 0.012699 0.000000 -0.006332 0.000000
# 4 0.000000 0.000000 0.000000 0.026308 0.000000 -0.012407
# 5 -0.004488 0.008591 -0.006332 0.000000 0.038009 0.000000
# 6 0.000000 0.000000 0.000000 -0.012407 0.000000 0.027714
#
#
# Mechanical properties :
#
#
# Convention : Reuss Voigt Hill
#
# Bulk Modulus (GPa) = 64.38256 65.94285 65.16270
# Shear Modulus (GPa) = 30.01538 37.40781 33.71159
#
# Velocity S-wave (km/s) = 3.78612 4.22672 4.01247
# Velocity P-wave (km/s) = 7.06120 7.43727 7.25168
#
# Compressibility (1/GPa) = 0.01553216
#
# Stress axis : x y z
#
# Youngs Moduli (GPa) = 67.51024 66.93188 78.74642
#
# Poissons Ratio (x) = 0.32141 0.34197
# Poissons Ratio (y) = 0.32419 0.33981
# Poissons Ratio (z) = 0.29318 0.28883
#
# Static dielectric constant tensor:
#      x y z
#    x 3.853910 0.000000 0.266470 
#    y 0.000000 4.075130 0.000000 
#    z 0.266470 0.000000 3.937620 
# 
# 
# High freq. dielectric constant tensor:
#      x y z
#    x 1.819670 0.000000 0.021220 
#    y 0.000000 1.829050 0.000000 
#    z 0.021220 0.000000 1.829430 
# 
# From -- ./inp_files/5491.got.cif
#   From: 2010.06.25/outbox.cif.g09.slc.cpg/sg10_3_cif.got.tgz:5491.got - 2010.06.27 22:07:45.
