data_PCOD8060218
_publ_section_title
;
Structure prediction by ZEFSAII (Michael W. Deem and Ramdas Pophale) SiO2 
 PCOD8060218
Probable space group: P 2/M
;
_chemical_formula_sum "Si O2"
_cell_formula_units_Z 32
_cell_length_a 14.394019
_cell_length_b 9.612160
_cell_length_c 24.414674
_cell_angle_alpha 90.000000
_cell_angle_beta 149.689907
_cell_angle_gamma 90.000000
_cell_volume 1704.785866
_symmetry_space_group_name_H-M "P 2/M"
_symmetry_group_IT_number 10
_symmetry_cell_setting 'monoclinic'
loop_
_space_group_symop_operation_xyz
x,y,z
-x,y,-z
-x,-y,-z
x,-y,z
loop_
_atom_site_type_symbol
_atom_site_label
_atom_site_fract_x
_atom_site_fract_y
_atom_site_fract_z
Si Si1 0.914912 0.847131 0.188474
Si Si2 0.458998 0.835261 0.539359
Si Si3 0.828914 0.844437 0.776347
Si Si4 0.394536 0.341215 0.998319
Si Si5 0.890167 0.663937 0.388916
Si Si6 0.066512 0.164372 0.380875
Si Si7 0.082768 0.662306 0.982638
Si Si8 0.512602 0.658630 0.833929
O O1 0.793528 0.741582 0.091556
O O2 0.108729 0.849480 0.255572
O O3 0.939641 0.802011 0.263824
O O4 0.823284 0.000000 0.139839
O O5 0.500000 0.769566 0.500000
O O6 0.617613 0.794078 0.664145
O O7 0.269989 0.780023 0.469655
O O8 0.446272 0.000000 0.526404
O O9 0.843867 0.000000 0.809570
O O10 0.949311 0.740161 0.873169
O O11 0.342701 0.500000 0.960436
O O12 0.500000 0.276873 0.000000
O O13 0.511400 0.323808 0.112903
O O14 0.889957 0.500000 0.373821
O O15 0.677814 0.719317 0.288251
O O16 0.000000 0.694407 0.500000
O O17 0.990106 0.748851 0.392457
O O18 0.064981 0.000000 0.393945
O O19 0.086819 0.500000 0.967656
O O20 0.292640 0.725653 0.087090
O O21 0.000000 0.685341 0.000000
O O22 0.525289 0.500000 0.822074
#
# Coordination Sequence:
#
# PCOD8060218 Si02
#       8
#     4   4   4   4   4   4   4   4
#     4  10  19  31  51  80 111 139 172 220 270 315
#     4   9  16  31  55  80 111 150 182 212 267 339
#     4  10  19  33  55  81 108 141 181 221 264 318
#     4  10  19  31  51  76 104 143 182 212 256 325
#     4  10  22  40  60  79 105 145 188 230 273 319
#     4  10  20  35  57  84 112 144 183 225 271 325
#     4  10  21  37  57  79 107 145 183 221 269 325
#     4   9  18  35  55  77 106 141 179 216 267 329
#
# _framework density 18.770685
#
# number of rings (size 3 to 8) (size 9 to 14) (size 15 to 20)
#    0.000    2.250    2.500    0.750    0.000    3.250 
#    0.000    3.125    0.000    0.750    0.000    0.000 
#    0.000    0.000    0.000    0.000    0.000    0.000 
#
# Total GULP energy -396587.578006 kJ/mol
# GULP energy per Si atom -12393.361813 kJ/mol
# Density = 1.872796 g / cm^3
# Si number density = 18.770685 Si / 1000 Ang^3
#
#
#
# Elastic Constant Matrix: (Units=GPa)
#
#
# Indices 1 2 3 4 5 6 
#
# 1 94.0074 29.5195 51.1725 0.0000 6.4837 0.0000
# 2 29.5195 47.7559 44.7028 0.0000 -3.0477 0.0000
# 3 51.1725 44.7028 140.3084 0.0000 12.1263 0.0000
# 4 0.0000 0.0000 0.0000 24.1047 0.0000 2.2805
# 5 6.4837 -3.0477 12.1263 0.0000 29.4545 0.0000
# 6 0.0000 0.0000 0.0000 2.2805 0.0000 21.6408
#
#
#
# Elastic Compliance Matrix: (Units=1/GPa)
#
#
# Indices 1 2 3 4 5 6 
#
# 1 0.014433 -0.006220 -0.003061 0.000000 -0.002560 0.000000
# 2 -0.006220 0.034095 -0.009350 0.000000 0.008747 0.000000
# 3 -0.003061 -0.009350 0.011663 0.000000 -0.005095 0.000000
# 4 0.000000 0.000000 0.000000 0.041903 0.000000 -0.004416
# 5 -0.002560 0.008747 -0.005095 0.000000 0.037517 0.000000
# 6 0.000000 0.000000 0.000000 -0.004416 0.000000 0.046674
#
#
# Mechanical properties :
#
#
# Convention : Reuss Voigt Hill
#
# Bulk Modulus (GPa) = 43.61258 59.20679 51.40968
# Shear Modulus (GPa) = 21.62704 25.48513 23.55608
#
# Velocity S-wave (km/s) = 3.39805 3.68871 3.54636
# Velocity P-wave (km/s) = 6.21936 7.05356 6.64956
#
# Compressibility (1/GPa) = 0.02292917
#
# Stress axis : x y z
#
# Youngs Moduli (GPa) = 69.28341 29.32965 85.74099
#
# Poissons Ratio (x) = 0.18242 0.26247
# Poissons Ratio (y) = 0.43092 0.80171
# Poissons Ratio (z) = 0.21209 0.27424
#
# Static dielectric constant tensor:
#      x y z
#    x 3.553520 0.000000 0.212730 
#    y 0.000000 3.135440 0.000000 
#    z 0.212730 0.000000 3.544030 
# 
# 
# High freq. dielectric constant tensor:
#      x y z
#    x 1.729370 0.000000 0.009480 
#    y 0.000000 1.693730 0.000000 
#    z 0.009480 0.000000 1.737470 
# 
# From -- ./inp_files/50759.got.cif
#   From: 2010.06.25/outbox.cif.g09.slc.cpg/sg10_26_cif.got.tgz:50759.got - 2010.06.27 22:07:45.
