data_PCOD8060767
_publ_section_title
;
Structure prediction by ZEFSAII (Michael W. Deem and Ramdas Pophale) SiO2 
 PCOD8060767
Probable space group: P 2/M
;
_chemical_formula_sum "Si O2"
_cell_formula_units_Z 32
_cell_length_a 20.010519
_cell_length_b 8.894241
_cell_length_c 24.923130
_cell_angle_alpha 90.000000
_cell_angle_beta 22.809738
_cell_angle_gamma 90.000000
_cell_volume 1719.628189
_symmetry_space_group_name_H-M "P 2/M"
_symmetry_group_IT_number 10
_symmetry_cell_setting 'monoclinic'
loop_
_space_group_symop_operation_xyz
x,y,z
-x,y,-z
-x,-y,-z
x,-y,z
loop_
_atom_site_type_symbol
_atom_site_label
_atom_site_fract_x
_atom_site_fract_y
_atom_site_fract_z
Si Si1 0.324262 0.333923 0.162838
Si Si2 0.364102 0.175034 0.867895
Si Si3 0.151309 0.175366 0.848071
Si Si4 0.004725 0.324029 0.857045
Si Si5 0.848781 0.675242 0.367193
Si Si6 0.551982 0.678097 0.087762
Si Si7 0.851360 0.176603 0.797891
Si Si8 0.500643 0.826898 0.650300
O O1 0.239444 0.500000 0.227823
O O2 0.379210 0.278735 0.181883
O O3 0.192751 0.220709 0.231149
O O4 0.500000 0.342567 0.000000
O O5 0.470026 0.257548 0.836486
O O6 0.468211 0.205461 0.736712
O O7 0.350779 0.000000 0.891135
O O8 0.172786 0.237324 0.003525
O O9 0.331834 0.214730 0.741630
O O10 0.138945 0.270703 0.802834
O O11 0.134122 0.000000 0.846816
O O12 0.000000 0.225706 0.000000
O O13 0.968771 0.500000 0.888734
O O14 0.086170 0.281648 0.739882
O O15 0.871809 0.500000 0.362143
O O16 0.650172 0.719558 0.518704
O O17 0.956237 0.768798 0.331682
O O18 0.577955 0.500000 0.070074
O O19 0.723561 0.745435 0.934425
O O20 0.835458 0.000000 0.816103
O O21 0.552274 0.000000 0.602995
#
# Coordination Sequence:
#
# PCOD8060767 Si02
#       8
#     4   4   4   4   4   4   4   4
#     4   8  16  30  48  74 113 151 183 228 282 334
#     4  11  21  36  59  85 114 149 189 237 285 335
#     4  10  20  39  62  84 114 148 185 233 286 339
#     4  11  23  37  58  86 114 148 190 235 281 338
#     4  11  24  40  57  81 117 154 190 235 285 338
#     4  10  19  32  52  82 116 149 188 233 282 335
#     4  11  20  31  53  81 112 150 191 234 281 334
#     4  10  23  41  60  84 113 148 191 233 284 345
#
# _framework density 18.608674000000001
#
# number of rings (size 3 to 8) (size 9 to 14) (size 15 to 20)
#    0.000    1.750    2.500    3.375    0.000    6.500 
#    0.000    2.500    0.000    0.750    0.000    5.250 
#    0.000    0.000    0.000    0.000    0.000    0.000 
#
# Total GULP energy -396877.073930 kJ/mol
# GULP energy per Si atom -12402.408560 kJ/mol
# Density = 1.856632 g / cm^3
# Si number density = 18.608674 Si / 1000 Ang^3
#
#
#
# Elastic Constant Matrix: (Units=GPa)
#
#
# Indices 1 2 3 4 5 6 
#
# 1 132.7009 54.1593 26.4909 0.0000 -19.4214 0.0000
# 2 54.1593 95.8236 35.1851 0.0000 -5.6024 0.0000
# 3 26.4909 35.1851 64.8372 0.0000 -11.4649 0.0000
# 4 0.0000 0.0000 0.0000 5.8478 0.0000 -7.5493
# 5 -19.4214 -5.6024 -11.4649 0.0000 16.9397 0.0000
# 6 0.0000 0.0000 0.0000 -7.5493 0.0000 36.2373
#
#
#
# Elastic Compliance Matrix: (Units=1/GPa)
#
#
# Indices 1 2 3 4 5 6 
#
# 1 0.011623 -0.006121 0.000649 0.000000 0.011740 0.000000
# 2 -0.006121 0.016261 -0.007512 0.000000 -0.006724 0.000000
# 3 0.000649 -0.007512 0.021500 0.000000 0.012811 0.000000
# 4 0.000000 0.000000 0.000000 0.233914 0.000000 0.048731
# 5 0.011740 -0.006724 0.012811 0.000000 0.078939 0.000000
# 6 0.000000 0.000000 0.000000 0.048731 0.000000 0.037748
#
#
# Mechanical properties :
#
#
# Convention : Reuss Voigt Hill
#
# Bulk Modulus (GPa) = 42.70832 58.33692 50.52262
# Shear Modulus (GPa) = 11.52716 23.64007 17.58361
#
# Velocity S-wave (km/s) = 2.49158 3.56810 3.07728
# Velocity P-wave (km/s) = 5.59266 6.95647 6.31151
#
# Compressibility (1/GPa) = 0.02341464
#
# Stress axis : x y z
#
# Youngs Moduli (GPa) = 86.03959 61.49825 46.51147
#
# Poissons Ratio (x) = 0.37642 -0.03018
# Poissons Ratio (y) = 0.52664 0.34941
# Poissons Ratio (z) = -0.05583 0.46199
#
# Static dielectric constant tensor:
#      x y z
#    x 3.866960 0.000000 -0.121100 
#    y 0.000000 3.426770 0.000000 
#    z -0.121100 0.000000 3.089200 
# 
# 
# High freq. dielectric constant tensor:
#      x y z
#    x 1.740910 0.000000 -0.012230 
#    y 0.000000 1.727960 0.000000 
#    z -0.012230 0.000000 1.686730 
# 
# From -- ./inp_files/93592.got.cif
#   From: 2010.06.25/outbox.cif.g09.slc.cpg/sg10_47_cif.got.tgz:93592.got - 2010.06.27 22:07:45.
