data_PCOD8060743
_publ_section_title
;
Structure prediction by ZEFSAII (Michael W. Deem and Ramdas Pophale) SiO2 
 PCOD8060743
Probable space group: P 2/M
;
_chemical_formula_sum "Si O2"
_cell_formula_units_Z 20
_cell_length_a 9.391984
_cell_length_b 8.829718
_cell_length_c 14.923623
_cell_angle_alpha 90.000000
_cell_angle_beta 109.560225
_cell_angle_gamma 90.000000
_cell_volume 1166.173247
_symmetry_space_group_name_H-M "P 2/M"
_symmetry_group_IT_number 10
_symmetry_cell_setting 'monoclinic'
loop_
_space_group_symop_operation_xyz
x,y,z
-x,y,-z
-x,-y,-z
x,-y,z
loop_
_atom_site_type_symbol
_atom_site_label
_atom_site_fract_x
_atom_site_fract_y
_atom_site_fract_z
Si Si1 0.356535 0.678004 0.911394
Si Si2 0.517393 0.821344 0.230373
Si Si3 0.478035 0.672161 0.396666
Si Si4 0.772881 0.671915 0.784769
Si Si5 0.056322 0.825018 0.911813
O O1 0.352359 0.500000 0.894293
O O2 0.363736 0.760014 0.816733
O O3 0.207238 0.729991 0.930793
O O4 0.500000 0.728361 0.000000
O O5 0.570689 0.769146 0.341697
O O6 0.351010 0.749441 0.174742
O O7 0.506304 0.000000 0.222418
O O8 0.500000 0.743758 0.500000
O O9 0.539897 0.500000 0.408674
O O10 0.299743 0.675338 0.330963
O O11 0.801647 0.500000 0.823259
O O12 0.928043 0.764800 0.816940
O O13 0.087975 0.000000 0.897978
O O14 0.000000 0.796785 0.000000
#
# Coordination Sequence:
#
# PCOD8060743 Si02
#       5
#     4   4   4   4   4
#     4  11  23  37  54  75 103 142 184 221 262 317
#     4  10  19  32  52  79 109 137 173 219 267 312
#     4   8  16  32  55  81 108 139 177 219 263 314
#     4   9  18  33  53  77 105 138 177 215 258 312
#     4  11  23  36  52  76 107 141 176 219 270 316
#
# _framework density 17.150110999999999
#
# number of rings (size 3 to 8) (size 9 to 14) (size 15 to 20)
#    1.200    1.000    0.000    4.200    0.000    6.800 
#    0.000    0.000    0.000    1.200    0.000    8.400 
#    0.000    0.000    0.000    0.000    0.000    0.000 
#
# Total GULP energy -247881.287556 kJ/mol
# GULP energy per Si atom -12394.064378 kJ/mol
# Density = 1.711108 g / cm^3
# Si number density = 17.150111 Si / 1000 Ang^3
#
#
#
# Elastic Constant Matrix: (Units=GPa)
#
#
# Indices 1 2 3 4 5 6 
#
# 1 77.9983 24.8312 32.2623 0.0000 -3.6688 0.0000
# 2 24.8312 89.5722 42.4316 0.0000 -6.0603 0.0000
# 3 32.2623 42.4316 100.0902 0.0000 -7.6587 0.0000
# 4 0.0000 0.0000 0.0000 17.7365 0.0000 -3.3603
# 5 -3.6688 -6.0603 -7.6587 0.0000 21.9320 0.0000
# 6 0.0000 0.0000 0.0000 -3.3603 0.0000 29.9628
#
#
#
# Elastic Compliance Matrix: (Units=1/GPa)
#
#
# Indices 1 2 3 4 5 6 
#
# 1 0.015190 -0.002345 -0.003860 0.000000 0.000545 0.000000
# 2 -0.002345 0.014404 -0.005215 0.000000 0.001767 0.000000
# 3 -0.003860 -0.005215 0.013651 0.000000 0.002680 0.000000
# 4 0.000000 0.000000 0.000000 0.057605 0.000000 0.006460
# 5 0.000545 0.001767 0.002680 0.000000 0.047111 0.000000
# 6 0.000000 0.000000 0.000000 0.006460 0.000000 0.034099
#
#
# Mechanical properties :
#
#
# Convention : Reuss Voigt Hill
#
# Bulk Modulus (GPa) = 49.01077 51.85676 50.43377
# Shear Modulus (GPa) = 23.61794 25.13531 24.37663
#
# Velocity S-wave (km/s) = 3.71500 3.83248 3.77419
# Velocity P-wave (km/s) = 6.85866 7.06304 6.96160
#
# Compressibility (1/GPa) = 0.02040368
#
# Stress axis : x y z
#
# Youngs Moduli (GPa) = 65.83375 69.42281 73.25318
#
# Poissons Ratio (x) = 0.16283 0.28277
# Poissons Ratio (y) = 0.15441 0.38204
# Poissons Ratio (z) = 0.25413 0.36206
#
# Static dielectric constant tensor:
#      x y z
#    x 2.979160 0.000000 0.027530 
#    y 0.000000 3.201440 0.000000 
#    z 0.027530 0.000000 3.137500 
# 
# 
# High freq. dielectric constant tensor:
#      x y z
#    x 1.635590 0.000000 -0.000870 
#    y 0.000000 1.674960 0.000000 
#    z -0.000870 0.000000 1.648110 
# 
# From -- ./inp_files/26774.got.cif
#   From: 2010.06.25/outbox.cif.g09.slc.cpg/sg10_14_cif.got.tgz:26774.got - 2010.06.27 22:07:45.
