data_PCOD8061478
_publ_section_title
;
Structure prediction by ZEFSAII (Michael W. Deem and Ramdas Pophale) SiO2 
 PCOD8061478
Probable space group: P 2/M
;
_chemical_formula_sum "Si O2"
_cell_formula_units_Z 32
_cell_length_a 20.138341
_cell_length_b 8.925751
_cell_length_c 24.875855
_cell_angle_alpha 90.000000
_cell_angle_beta 22.702627
_cell_angle_gamma 90.000000
_cell_volume 1725.741138
_symmetry_space_group_name_H-M "P 2/M"
_symmetry_group_IT_number 10
_symmetry_cell_setting 'monoclinic'
loop_
_space_group_symop_operation_xyz
x,y,z
-x,y,-z
-x,-y,-z
x,-y,z
loop_
_atom_site_type_symbol
_atom_site_label
_atom_site_fract_x
_atom_site_fract_y
_atom_site_fract_z
Si Si1 0.006060 0.823341 0.132280
Si Si2 0.321714 0.324013 0.849280
Si Si3 0.932126 0.823461 0.390678
Si Si4 0.667578 0.327010 0.410564
Si Si5 0.503961 0.674718 0.168840
Si Si6 0.882519 0.677412 0.538624
Si Si7 0.814976 0.824776 0.890032
Si Si8 0.597658 0.823053 0.574751
O O1 0.825942 0.739110 0.257991
O O2 0.073056 0.781415 0.141604
O O3 0.982930 0.000000 0.141380
O O4 0.138773 0.759535 0.989066
O O5 0.291063 0.500000 0.865363
O O6 0.432528 0.284094 0.819098
O O7 0.423418 0.260881 0.722044
O O8 0.960904 0.744767 0.425918
O O9 0.748928 0.777048 0.502669
O O10 0.083741 0.767083 0.237978
O O11 0.942457 0.000000 0.390776
O O12 0.500000 0.308107 0.500000
O O13 0.700990 0.500000 0.400590
O O14 0.650012 0.228599 0.476793
O O15 0.510148 0.500000 0.153295
O O16 0.310760 0.737365 0.306651
O O17 0.627248 0.749686 0.032468
O O18 0.882509 0.500000 0.532440
O O19 0.000000 0.731988 0.500000
O O20 0.785050 0.000000 0.910088
O O21 0.567063 0.000000 0.597358
#
# Coordination Sequence:
#
# PCOD8061478 Si02
#       8
#     4   4   4   4   4   4   4   4
#     4  10  19  35  57  83 114 148 185 228 278 333
#     4  10  19  33  55  85 115 144 183 233 282 332
#     4  10  20  35  55  82 111 140 183 230 274 326
#     4  11  24  40  58  83 116 152 187 228 280 335
#     4   9  18  32  51  79 108 141 182 222 272 328
#     4  10  21  37  55  78 111 148 186 228 275 330
#     4   9  18  33  53  80 109 139 177 226 274 321
#     4  11  21  36  58  85 113 146 188 234 279 330
#
# _framework density 18.542757999999999
#
# number of rings (size 3 to 8) (size 9 to 14) (size 15 to 20)
#    0.000    2.000    2.500    1.500    0.000    3.750 
#    0.000    1.250    0.000    7.500    0.000    0.000 
#    0.000    0.000    0.000    0.000    0.000    0.000 
#
# Total GULP energy -396907.911197 kJ/mol
# GULP energy per Si atom -12403.372225 kJ/mol
# Density = 1.850055 g / cm^3
# Si number density = 18.542758 Si / 1000 Ang^3
#
#
#
# Elastic Constant Matrix: (Units=GPa)
#
#
# Indices 1 2 3 4 5 6 
#
# 1 32.0405 17.7077 6.3917 0.0000 -1.0610 0.0000
# 2 17.7077 48.1613 30.6265 0.0000 -2.8220 0.0000
# 3 6.3917 30.6265 122.0879 0.0000 2.5899 0.0000
# 4 0.0000 0.0000 0.0000 36.5236 0.0000 5.4228
# 5 -1.0610 -2.8220 2.5899 0.0000 25.3539 0.0000
# 6 0.0000 0.0000 0.0000 5.4228 0.0000 22.8769
#
#
#
# Elastic Compliance Matrix: (Units=1/GPa)
#
#
# Indices 1 2 3 4 5 6 
#
# 1 0.039530 -0.015752 0.001888 0.000000 -0.000292 0.000000
# 2 -0.015752 0.031276 -0.007096 0.000000 0.003547 0.000000
# 3 0.001888 -0.007096 0.009909 0.000000 -0.001723 0.000000
# 4 0.000000 0.000000 0.000000 0.028378 0.000000 -0.006727
# 5 -0.000292 0.003547 -0.001723 0.000000 0.040000 0.000000
# 6 0.000000 0.000000 0.000000 -0.006727 0.000000 0.045307
#
#
# Mechanical properties :
#
#
# Convention : Reuss Voigt Hill
#
# Bulk Modulus (GPa) = 25.77720 34.63794 30.20757
# Shear Modulus (GPa) = 20.06015 26.78847 23.42431
#
# Velocity S-wave (km/s) = 3.29269 3.80503 3.55809
# Velocity P-wave (km/s) = 5.32798 6.16643 5.76248
#
# Compressibility (1/GPa) = 0.03879398
#
# Stress axis : x y z
#
# Youngs Moduli (GPa) = 25.29744 31.97391 100.92181
#
# Poissons Ratio (x) = 0.50365 -0.19055
# Poissons Ratio (y) = 0.39848 0.71617
# Poissons Ratio (z) = -0.04776 0.22689
#
# Static dielectric constant tensor:
#      x y z
#    x 3.175640 0.000000 0.023510 
#    y 0.000000 3.341400 0.000000 
#    z 0.023510 0.000000 3.671050 
# 
# 
# High freq. dielectric constant tensor:
#      x y z
#    x 1.687610 0.000000 0.009450 
#    y 0.000000 1.721620 0.000000 
#    z 0.009450 0.000000 1.736590 
# 
# From -- ./inp_files/86780.got.cif
#   From: 2010.06.25/outbox.cif.g09.slc.cpg/sg10_44_cif.got.tgz:86780.got - 2010.06.27 22:07:45.
