data_PCOD8061625
_publ_section_title
;
Structure prediction by ZEFSAII (Michael W. Deem and Ramdas Pophale) SiO2 
 PCOD8061625
Probable space group: P 2/M
;
_chemical_formula_sum "Si O2"
_cell_formula_units_Z 28
_cell_length_a 14.508862
_cell_length_b 8.857695
_cell_length_c 12.571727
_cell_angle_alpha 90.000000
_cell_angle_beta 59.870199
_cell_angle_gamma 90.000000
_cell_volume 1397.365825
_symmetry_space_group_name_H-M "P 2/M"
_symmetry_group_IT_number 10
_symmetry_cell_setting 'monoclinic'
loop_
_space_group_symop_operation_xyz
x,y,z
-x,y,-z
-x,-y,-z
x,-y,z
loop_
_atom_site_type_symbol
_atom_site_label
_atom_site_fract_x
_atom_site_fract_y
_atom_site_fract_z
Si Si1 0.279060 0.821304 0.003481
Si Si2 0.277065 0.676194 0.224470
Si Si3 0.201906 0.175296 0.642575
Si Si4 0.119170 0.819845 0.912872
Si Si5 0.886585 0.824691 0.527162
Si Si6 0.502752 0.324306 0.189731
Si Si7 0.573284 0.829530 0.559123
O O1 0.197708 0.761838 0.960213
O O2 0.398058 0.766910 0.912711
O O3 0.277916 0.000000 0.007665
O O4 0.239298 0.759199 0.139542
O O5 0.257532 0.500000 0.221382
O O6 0.208374 0.733949 0.363180
O O7 0.400807 0.711846 0.175517
O O8 0.160052 0.248290 0.776518
O O9 0.116553 0.201034 0.598116
O O10 0.314365 0.245103 0.540012
O O11 0.222551 0.000000 0.652831
O O12 0.117168 0.000000 0.910746
O O13 0.000000 0.757129 0.000000
O O14 0.000000 0.761861 0.500000
O O15 0.872681 0.000000 0.564897
O O16 0.531260 0.500000 0.170350
O O17 0.480993 0.275803 0.322617
O O18 0.500000 0.834389 0.500000
O O19 0.588627 0.000000 0.596216
#
# Coordination Sequence:
#
# PCOD8061625 Si02
#       7
#     4   4   4   4   4   4   4
#     4  11  23  38  62  91 119 154 202 248 295 353
#     4  11  24  41  60  85 122 161 199 243 301 359
#     4   9  17  32  54  84 120 149 180 236 294 342
#     4   9  19  35  58  89 121 151 188 240 299 350
#     4  10  21  36  61  92 118 149 198 248 294 350
#     4  11  23  39  58  84 120 158 197 242 300 362
#     4  10  19  33  57  86 117 152 195 243 292 347
#
# _framework density 20.037700999999998
#
# number of rings (size 3 to 8) (size 9 to 14) (size 15 to 20)
#    0.000    1.857    1.429    2.571    2.000    6.286 
#    0.000    0.000    0.000    2.571    0.000    0.000 
#    0.000    0.000    0.000    0.000    0.000    0.000 
#
# Total GULP energy -347264.827061 kJ/mol
# GULP energy per Si atom -12402.315252 kJ/mol
# Density = 1.999209 g / cm^3
# Si number density = 20.037701 Si / 1000 Ang^3
#
#
#
# Elastic Constant Matrix: (Units=GPa)
#
#
# Indices 1 2 3 4 5 6 
#
# 1 114.0505 35.8641 36.4116 0.0000 7.0281 0.0000
# 2 35.8641 52.7222 27.6996 0.0000 4.5283 0.0000
# 3 36.4116 27.6996 113.9487 0.0000 12.6448 0.0000
# 4 0.0000 0.0000 0.0000 2.4726 0.0000 3.6463
# 5 7.0281 4.5283 12.6448 0.0000 36.6575 0.0000
# 6 0.0000 0.0000 0.0000 3.6463 0.0000 7.5885
#
#
#
# Elastic Compliance Matrix: (Units=1/GPa)
#
#
# Indices 1 2 3 4 5 6 
#
# 1 0.011571 -0.006775 -0.001973 0.000000 -0.000701 0.000000
# 2 -0.006775 0.025739 -0.004038 0.000000 -0.000488 0.000000
# 3 -0.001973 -0.004038 0.010700 0.000000 -0.002814 0.000000
# 4 0.000000 0.000000 0.000000 1.387775 0.000000 -0.666833
# 5 -0.000701 -0.000488 -0.002814 0.000000 0.028445 0.000000
# 6 0.000000 0.000000 0.000000 -0.666833 0.000000 0.452195
#
#
# Mechanical properties :
#
#
# Convention : Reuss Voigt Hill
#
# Bulk Modulus (GPa) = 44.56395 53.40799 48.98597
# Shear Modulus (GPa) = 2.56479 21.39347 11.97913
#
# Velocity S-wave (km/s) = 1.13259 3.27105 2.44771
# Velocity P-wave (km/s) = 4.89884 6.40141 5.69985
#
# Compressibility (1/GPa) = 0.02243966
#
# Stress axis : x y z
#
# Youngs Moduli (GPa) = 86.41935 38.85128 93.45668
#
# Poissons Ratio (x) = 0.26321 0.18439
# Poissons Ratio (y) = 0.58546 0.37737
# Poissons Ratio (z) = 0.17050 0.15688
#
# Static dielectric constant tensor:
#      x y z
#    x 3.821090 0.000000 0.045670 
#    y 0.000000 3.345690 0.000000 
#    z 0.045670 0.000000 3.785320 
# 
# 
# High freq. dielectric constant tensor:
#      x y z
#    x 1.794620 0.000000 0.004480 
#    y 0.000000 1.744450 0.000000 
#    z 0.004480 0.000000 1.794020 
# 
# From -- ./inp_files/49551.got.cif
#   From: 2010.06.25/outbox.cif.g09.slc.cpg/sg10_25_cif.got.tgz:49551.got - 2010.06.27 22:07:45.
