data_PCOD8061346
_publ_section_title
;
Structure prediction by ZEFSAII (Michael W. Deem and Ramdas Pophale) SiO2 
 PCOD8061346
Probable space group: P 2/M
;
_chemical_formula_sum "Si O2"
_cell_formula_units_Z 28
_cell_length_a 27.717842
_cell_length_b 9.431978
_cell_length_c 9.739445
_cell_angle_alpha 90.000000
_cell_angle_beta 142.089276
_cell_angle_gamma 90.000000
_cell_volume 1564.483014
_symmetry_space_group_name_H-M "P 2/M"
_symmetry_group_IT_number 10
_symmetry_cell_setting 'monoclinic'
loop_
_space_group_symop_operation_xyz
x,y,z
-x,y,-z
-x,-y,-z
x,-y,z
loop_
_atom_site_type_symbol
_atom_site_label
_atom_site_fract_x
_atom_site_fract_y
_atom_site_fract_z
Si Si1 0.876877 0.332906 0.872535
Si Si2 0.301881 0.338258 0.543277
Si Si3 0.010272 0.164974 0.682541
Si Si4 0.540896 0.165584 0.724298
Si Si5 0.299973 0.163343 0.802925
Si Si6 0.458224 0.656555 0.761028
Si Si7 0.876067 0.164366 0.594725
O O1 0.896128 0.500000 0.905226
O O2 0.785960 0.303543 0.704405
O O3 0.900556 0.259260 0.780977
O O4 0.922798 0.262631 0.101652
O O5 0.307700 0.500000 0.605507
O O6 0.325585 0.246330 0.726298
O O7 0.365181 0.307205 0.566286
O O8 0.000000 0.207416 0.500000
O O9 0.930370 0.197005 0.586173
O O10 0.034212 0.000000 0.749099
O O11 0.500000 0.235286 0.500000
O O12 0.498633 0.226247 0.761235
O O13 0.524646 0.000000 0.691264
O O14 0.634802 0.198402 0.934248
O O15 0.212042 0.204191 0.653384
O O16 0.303356 0.000000 0.769713
O O17 0.467589 0.500000 0.716064
O O18 0.500000 0.659259 0.000000
O O19 0.882818 0.000000 0.655016
#
# Coordination Sequence:
#
# PCOD8061346 Si02
#       7
#     4   4   4   4   4   4   4
#     4  10  20  34  55  80 106 133 167 212 259 305
#     4   9  18  33  52  77 105 130 166 216 258 297
#     4  10  21  37  54  76 106 138 172 208 250 304
#     4  10  21  35  49  74 109 139 171 213 258 302
#     4   9  17  31  52  74 100 134 172 210 254 303
#     4  10  19  33  55  77 100 135 176 212 252 302
#     4   9  18  34  56  77  99 133 174 214 252 300
#
# _framework density 17.897285
#
# number of rings (size 3 to 8) (size 9 to 14) (size 15 to 20)
#    0.000    2.429    1.429    0.857    0.000    4.286 
#    2.571    0.000    0.000    0.000    0.000    0.000 
#    0.000    0.000    0.000    0.000    0.000    0.000 
#
# Total GULP energy -347098.791845 kJ/mol
# GULP energy per Si atom -12396.385423 kJ/mol
# Density = 1.785655 g / cm^3
# Si number density = 17.897285 Si / 1000 Ang^3
#
#
#
# Elastic Constant Matrix: (Units=GPa)
#
#
# Indices 1 2 3 4 5 6 
#
# 1 87.8819 35.0069 57.6784 0.0000 4.8836 0.0000
# 2 35.0069 55.8115 56.8557 0.0000 0.4461 0.0000
# 3 57.6784 56.8557 131.6806 0.0000 1.2747 0.0000
# 4 0.0000 0.0000 0.0000 -460.2550 0.0000 179.0020
# 5 4.8836 0.4461 1.2747 0.0000 22.9188 0.0000
# 6 0.0000 0.0000 0.0000 179.0020 0.0000 -65.8428
#
#
#
# Elastic Compliance Matrix: (Units=1/GPa)
#
#
# Indices 1 2 3 4 5 6 
#
# 1 0.017087 -0.005533 -0.005064 0.000000 -0.003252 0.000000
# 2 -0.005533 0.033779 -0.012173 0.000000 0.001198 0.000000
# 3 -0.005064 -0.012173 0.015064 0.000000 0.000478 0.000000
# 4 0.000000 0.000000 0.000000 0.037901 0.000000 0.103039
# 5 -0.003252 0.001198 0.000478 0.000000 0.044275 0.000000
# 6 0.000000 0.000000 0.000000 0.103039 0.000000 0.264936
#
#
# Mechanical properties :
#
#
# Convention : Reuss Voigt Hill
#
# Bulk Modulus (GPa) = 49.04352 63.82846 56.43599
# Shear Modulus (GPa) = 10.74395 -92.24694 -40.75149
#
# Velocity S-wave (km/s) = 2.45278 -7.18709 -4.77693
# Velocity P-wave (km/s) = 5.95683 5.75597 1.08457
#
# Compressibility (1/GPa) = 0.02039005
#
# Stress axis : x y z
#
# Youngs Moduli (GPa) = 58.52335 29.60442 66.38557
#
# Poissons Ratio (x) = 0.16380 0.33618
# Poissons Ratio (y) = 0.32380 0.80810
# Poissons Ratio (z) = 0.29637 0.36037
#
# Static dielectric constant tensor:
#      x y z
#    x 3.364770 0.000000 0.244660 
#    y 0.000000 3.347100 0.000000 
#    z 0.244660 0.000000 3.608880 
# 
# 
# High freq. dielectric constant tensor:
#      x y z
#    x 1.681170 0.000000 0.024270 
#    y 0.000000 1.693090 0.000000 
#    z 0.024270 0.000000 1.693630 
# 
# From -- ./inp_files/37244.got.cif
#   From: 2010.06.25/outbox.cif.g09.slc.cpg/sg10_19_cif.got.tgz:37244.got - 2010.06.27 22:07:45.
