data_PCOD8061584
_publ_section_title
;
Structure prediction by ZEFSAII (Michael W. Deem and Ramdas Pophale) SiO2 
 PCOD8061584
Probable space group: P 2/M
;
_chemical_formula_sum "Si O2"
_cell_formula_units_Z 32
_cell_length_a 15.118602
_cell_length_b 8.650955
_cell_length_c 24.073589
_cell_angle_alpha 90.000000
_cell_angle_beta 150.394451
_cell_angle_gamma 90.000000
_cell_volume 1555.487048
_symmetry_space_group_name_H-M "P 2/M"
_symmetry_group_IT_number 10
_symmetry_cell_setting 'monoclinic'
loop_
_space_group_symop_operation_xyz
x,y,z
-x,y,-z
-x,-y,-z
x,-y,z
loop_
_atom_site_type_symbol
_atom_site_label
_atom_site_fract_x
_atom_site_fract_y
_atom_site_fract_z
Si Si1 0.563426 0.681950 0.655276
Si Si2 0.722089 0.816510 0.970918
Si Si3 0.472095 0.819416 0.243108
Si Si4 0.465508 0.171930 0.923939
Si Si5 0.192168 0.676303 0.627590
Si Si6 0.221504 0.183376 0.410876
Si Si7 0.911655 0.829115 0.321956
Si Si8 0.106052 0.183730 0.225516
O O1 0.558496 0.500000 0.646721
O O2 0.537531 0.725892 0.705224
O O3 0.413414 0.748850 0.531871
O O4 0.753772 0.746824 0.740900
O O5 0.678258 0.760711 0.883662
O O6 0.562731 0.749790 0.923688
O O7 0.716642 0.000000 0.965591
O O8 0.911931 0.756490 0.098287
O O9 0.666289 0.792058 0.322226
O O10 0.450633 0.000000 0.244945
O O11 0.253201 0.154254 0.809157
O O12 0.552961 0.000000 0.975318
O O13 0.500000 0.265209 0.000000
O O14 0.249063 0.500000 0.646712
O O15 0.165565 0.704233 0.677879
O O16 0.000000 0.720208 0.500000
O O17 0.152767 0.243423 0.313262
O O18 0.081934 0.237540 0.381894
O O19 0.236767 0.000000 0.417794
O O20 0.955973 0.000000 0.371728
O O21 0.114838 0.000000 0.227954
#
# Coordination Sequence:
#
# PCOD8061584 Si02
#       8
#     4   4   4   4   4   4   4   4
#     4  12  26  42  60  85 119 161 205 252 310 366
#     4   9  18  34  59  91 122 154 194 246 303 354
#     4  11  22  40  64  89 119 156 203 254 301 356
#     4   9  15  27  52  87 121 148 182 231 284 340
#     4  11  23  37  54  81 119 161 198 238 289 348
#     4  10  21  38  63  94 123 154 199 254 304 356
#     4  10  19  33  56  88 118 150 191 234 285 344
#     4  10  21  40  65  92 120 153 199 254 309 362
#
# _framework density 20.572334000000001
#
# number of rings (size 3 to 8) (size 9 to 14) (size 15 to 20)
#    0.000    1.750    1.250    3.750    0.000    9.000 
#    0.000    3.750    0.000    0.375    0.000    0.000 
#    0.000    0.000    0.000    0.000    0.000    0.000 
#
# Total GULP energy -396585.555494 kJ/mol
# GULP energy per Si atom -12393.298609 kJ/mol
# Density = 2.052551 g / cm^3
# Si number density = 20.572334 Si / 1000 Ang^3
#
#
#
# Elastic Constant Matrix: (Units=GPa)
#
#
# Indices 1 2 3 4 5 6 
#
# 1 83.7046 7.9437 32.7747 0.0000 2.2361 0.0000
# 2 7.9437 19.9797 22.0289 0.0000 2.3843 0.0000
# 3 32.7747 22.0289 115.8482 0.0000 -4.1992 0.0000
# 4 0.0000 0.0000 0.0000 2.1393 0.0000 5.2428
# 5 2.2361 2.3843 -4.1992 0.0000 40.4411 0.0000
# 6 0.0000 0.0000 0.0000 5.2428 0.0000 13.1368
#
#
#
# Elastic Compliance Matrix: (Units=1/GPa)
#
#
# Indices 1 2 3 4 5 6 
#
# 1 0.013512 -0.001253 -0.003622 0.000000 -0.001049 0.000000
# 2 -0.001253 0.064469 -0.012085 0.000000 -0.004987 0.000000
# 3 -0.003622 -0.012085 0.012033 0.000000 0.002162 0.000000
# 4 0.000000 0.000000 0.000000 21.305632 0.000000 -8.502911
# 5 -0.001049 -0.004987 0.002162 0.000000 0.025304 0.000000
# 6 0.000000 0.000000 0.000000 -8.502911 0.000000 3.469567
#
#
# Mechanical properties :
#
#
# Convention : Reuss Voigt Hill
#
# Bulk Modulus (GPa) = 17.82763 38.33634 28.08198
# Shear Modulus (GPa) = 0.20046 21.59579 10.89812
#
# Velocity S-wave (km/s) = 0.31249 3.24350 2.30412
# Velocity P-wave (km/s) = 2.96898 5.71860 4.55616
#
# Compressibility (1/GPa) = 0.05609270
#
# Stress axis : x y z
#
# Youngs Moduli (GPa) = 74.00762 15.51140 83.10314
#
# Poissons Ratio (x) = 0.01944 0.30104
# Poissons Ratio (y) = 0.09273 1.00432
# Poissons Ratio (z) = 0.26809 0.18746
#
# Static dielectric constant tensor:
#      x y z
#    x 3.827020 0.000000 -0.111140 
#    y 0.000000 3.309350 0.000000 
#    z -0.111140 0.000000 4.009890 
# 
# 
# High freq. dielectric constant tensor:
#      x y z
#    x 1.812330 0.000000 -0.004720 
#    y 0.000000 1.762980 0.000000 
#    z -0.004720 0.000000 1.819830 
# 
# From -- ./inp_files/71587.got.cif
#   From: 2010.06.25/outbox.cif.g09.slc.cpg/sg10_36_cif.got.tgz:71587.got - 2010.06.27 22:07:45.
