data_PCOD8061633
_publ_section_title
;
Structure prediction by ZEFSAII (Michael W. Deem and Ramdas Pophale) SiO2 
 PCOD8061633
Probable space group: P 2/M
;
_chemical_formula_sum "Si O2"
_cell_formula_units_Z 28
_cell_length_a 15.513597
_cell_length_b 9.201818
_cell_length_c 11.820502
_cell_angle_alpha 90.000000
_cell_angle_beta 56.592018
_cell_angle_gamma 90.000000
_cell_volume 1408.605907
_symmetry_space_group_name_H-M "P 2/M"
_symmetry_group_IT_number 10
_symmetry_cell_setting 'monoclinic'
loop_
_space_group_symop_operation_xyz
x,y,z
-x,y,-z
-x,-y,-z
x,-y,z
loop_
_atom_site_type_symbol
_atom_site_label
_atom_site_fract_x
_atom_site_fract_y
_atom_site_fract_z
Si Si1 0.238242 0.830221 0.835668
Si Si2 0.819651 0.829945 0.373082
Si Si3 0.446634 0.335136 0.652905
Si Si4 0.385520 0.327393 0.096530
Si Si5 0.199156 0.330828 0.080834
Si Si6 0.999438 0.668865 0.630265
Si Si7 0.348279 0.334880 0.370372
O O1 0.178943 0.796317 0.761800
O O2 0.353307 0.768322 0.751526
O O3 0.245162 0.000000 0.853677
O O4 0.174728 0.756829 0.983912
O O5 0.917991 0.757598 0.358415
O O6 0.714238 0.767271 0.500230
O O7 0.822379 0.000000 0.395491
O O8 0.500000 0.279190 0.500000
O O9 0.405321 0.500000 0.666679
O O10 0.529794 0.327703 0.692849
O O11 0.394410 0.500000 0.090571
O O12 0.309044 0.276715 0.051883
O O13 0.334655 0.278625 0.252139
O O14 0.500000 0.258550 0.000000
O O15 0.203581 0.500000 0.046475
O O16 0.112352 0.299297 0.236842
O O17 0.029265 0.500000 0.615802
O O18 0.000000 0.721708 0.500000
O O19 0.307434 0.500000 0.414496
#
# Coordination Sequence:
#
# PCOD8061633 Si02
#       7
#     4   4   4   4   4   4   4
#     4  11  24  39  56  82 121 163 196 234 290 351
#     4  11  24  39  57  84 117 154 194 238 289 348
#     4  10  19  33  57  88 117 152 198 243 287 340
#     4   9  17  32  57  87 116 146 183 232 290 346
#     4  10  21  38  61  87 115 149 193 242 288 343
#     4  10  22  42  67  91 114 145 190 244 298 348
#     4  10  19  34  59  87 116 151 193 244 295 344
#
# _framework density 19.87781
#
# number of rings (size 3 to 8) (size 9 to 14) (size 15 to 20)
#    0.000    1.857    1.429    2.571    0.000    8.571 
#    0.000    5.000    0.000    1.714    0.000    0.000 
#    0.000    0.000    0.000    0.000    0.000    0.000 
#
# Total GULP energy -347266.817520 kJ/mol
# GULP energy per Si atom -12402.386340 kJ/mol
# Density = 1.983257 g / cm^3
# Si number density = 19.877810 Si / 1000 Ang^3
#
#
#
# Elastic Constant Matrix: (Units=GPa)
#
#
# Indices 1 2 3 4 5 6 
#
# 1 115.0233 56.5350 57.8654 0.0000 7.9070 0.0000
# 2 56.5350 78.3137 61.3333 0.0000 7.8677 0.0000
# 3 57.8654 61.3333 135.3903 0.0000 16.0353 0.0000
# 4 0.0000 0.0000 0.0000 13.7805 0.0000 3.7613
# 5 7.9070 7.8677 16.0353 0.0000 33.9267 0.0000
# 6 0.0000 0.0000 0.0000 3.7613 0.0000 24.0113
#
#
#
# Elastic Compliance Matrix: (Units=1/GPa)
#
#
# Indices 1 2 3 4 5 6 
#
# 1 0.013873 -0.008321 -0.002124 0.000000 -0.000300 0.000000
# 2 -0.008321 0.024786 -0.007649 0.000000 -0.000193 0.000000
# 3 -0.002124 -0.007649 0.012172 0.000000 -0.003484 0.000000
# 4 0.000000 0.000000 0.000000 0.075807 0.000000 -0.011875
# 5 -0.000300 -0.000193 -0.003484 0.000000 0.031237 0.000000
# 6 0.000000 0.000000 0.000000 -0.011875 0.000000 0.043507
#
#
# Mechanical properties :
#
#
# Convention : Reuss Voigt Hill
#
# Bulk Modulus (GPa) = 68.29703 75.57719 71.93711
# Shear Modulus (GPa) = 20.62259 24.54327 22.58293
#
# Velocity S-wave (km/s) = 3.22447 3.51765 3.37425
# Velocity P-wave (km/s) = 6.94953 7.38931 7.17279
#
# Compressibility (1/GPa) = 0.01464193
#
# Stress axis : x y z
#
# Youngs Moduli (GPa) = 72.08178 40.34475 82.15793
#
# Poissons Ratio (x) = 0.33572 0.17452
# Poissons Ratio (y) = 0.59982 0.62843
# Poissons Ratio (z) = 0.15311 0.30860
#
# Static dielectric constant tensor:
#      x y z
#    x 3.682670 0.000000 0.136180 
#    y 0.000000 3.380320 0.000000 
#    z 0.136180 0.000000 3.774810 
# 
# 
# High freq. dielectric constant tensor:
#      x y z
#    x 1.780800 0.000000 0.009980 
#    y 0.000000 1.745700 0.000000 
#    z 0.009980 0.000000 1.787590 
# 
# From -- ./inp_files/49645.got.cif
#   From: 2010.06.25/outbox.cif.g09.slc.cpg/sg10_25_cif.got.tgz:49645.got - 2010.06.27 22:07:45.
