data_PCOD8061161
_publ_section_title
;
Structure prediction by ZEFSAII (Michael W. Deem and Ramdas Pophale) SiO2 
 PCOD8061161
Probable space group: P 2/M
;
_chemical_formula_sum "Si O2"
_cell_formula_units_Z 32
_cell_length_a 12.361818
_cell_length_b 9.189911
_cell_length_c 29.496563
_cell_angle_alpha 90.000000
_cell_angle_beta 30.541009
_cell_angle_gamma 90.000000
_cell_volume 1702.790483
_symmetry_space_group_name_H-M "P 2/M"
_symmetry_group_IT_number 10
_symmetry_cell_setting 'monoclinic'
loop_
_space_group_symop_operation_xyz
x,y,z
-x,y,-z
-x,-y,-z
x,-y,z
loop_
_atom_site_type_symbol
_atom_site_label
_atom_site_fract_x
_atom_site_fract_y
_atom_site_fract_z
Si Si1 0.660229 0.172390 0.008736
Si Si2 0.800260 0.827744 0.335661
Si Si3 0.071207 0.665119 0.624489
Si Si4 0.366056 0.672525 0.258145
Si Si5 0.771198 0.328958 0.595815
Si Si6 0.425791 0.663919 0.425614
Si Si7 0.210878 0.172209 0.135933
Si Si8 0.220915 0.327792 0.943605
O O1 0.415630 0.224694 0.090821
O O2 0.769054 0.254072 0.011039
O O3 0.675843 0.000000 0.011104
O O4 0.782620 0.221950 0.918803
O O5 0.809879 0.767078 0.382827
O O6 0.585243 0.778259 0.389603
O O7 0.999674 0.764283 0.235370
O O8 0.802913 0.000000 0.337039
O O9 0.074490 0.500000 0.641681
O O10 0.195066 0.676075 0.532273
O O11 0.829929 0.719208 0.703463
O O12 0.377129 0.500000 0.257814
O O13 0.326351 0.739065 0.322725
O O14 0.585669 0.731975 0.157527
O O15 0.805303 0.500000 0.590695
O O16 0.602664 0.296917 0.616842
O O17 0.000000 0.258925 0.500000
O O18 0.515500 0.500000 0.399260
O O19 0.212099 0.000000 0.136216
O O20 0.236585 0.500000 0.944700
O O21 0.000000 0.282363 0.000000
#
# Coordination Sequence:
#
# PCOD8061161 Si02
#       8
#     4   4   4   4   4   4   4   4
#     4   9  17  35  60  76  93 129 177 217 248 292
#     4  11  22  34  49  73 107 139 166 201 257 318
#     4  10  19  33  53  75 100 131 174 219 250 287
#     4   9  17  31  53  77 102 135 171 211 257 300
#     4   9  15  29  53  77  96 123 172 220 250 285
#     4  10  20  33  52  77 102 130 170 218 254 290
#     4   8  17  34  55  77  98 127 169 217 258 294
#     4  10  21  34  48  75 114 142 160 199 262 316
#
# _framework density 18.792681999999999
#
# number of rings (size 3 to 8) (size 9 to 14) (size 15 to 20)
#    0.000    2.500    1.250    2.250    0.000    3.250 
#    0.000    4.375    0.000    1.875    0.000    0.000 
#    0.000    0.000    0.000    0.000    0.000    0.000 
#
# Total GULP energy -396758.613744 kJ/mol
# GULP energy per Si atom -12398.706679 kJ/mol
# Density = 1.874991 g / cm^3
# Si number density = 18.792682 Si / 1000 Ang^3
#
#
#
# Elastic Constant Matrix: (Units=GPa)
#
#
# Indices 1 2 3 4 5 6 
#
# 1 128.9481 35.9072 40.3382 0.0000 1.5493 0.0000
# 2 35.9072 39.4718 19.4128 0.0000 -1.6866 0.0000
# 3 40.3382 19.4128 70.2065 0.0000 -6.8307 0.0000
# 4 0.0000 0.0000 0.0000 18.2763 0.0000 3.9784
# 5 1.5493 -1.6866 -6.8307 0.0000 30.4360 0.0000
# 6 0.0000 0.0000 0.0000 3.9784 0.0000 12.5402
#
#
#
# Elastic Compliance Matrix: (Units=1/GPa)
#
#
# Indices 1 2 3 4 5 6 
#
# 1 0.011514 -0.008345 -0.004509 0.000000 -0.002060 0.000000
# 2 -0.008345 0.035371 -0.004860 0.000000 0.001294 0.000000
# 3 -0.004509 -0.004860 0.018580 0.000000 0.004130 0.000000
# 4 0.000000 0.000000 0.000000 0.058775 0.000000 -0.018646
# 5 -0.002060 0.001294 0.004130 0.000000 0.033959 0.000000
# 6 0.000000 0.000000 0.000000 -0.018646 0.000000 0.085659
#
#
# Mechanical properties :
#
#
# Convention : Reuss Voigt Hill
#
# Bulk Modulus (GPa) = 33.29079 47.77144 40.53111
# Shear Modulus (GPa) = 17.28326 21.78172 19.53249
#
# Velocity S-wave (km/s) = 3.03591 3.40818 3.22742
# Velocity P-wave (km/s) = 5.48108 6.40024 5.95841
#
# Compressibility (1/GPa) = 0.03003834
#
# Stress axis : x y z
#
# Youngs Moduli (GPa) = 86.85147 28.27160 53.82195
#
# Poissons Ratio (x) = 0.23592 0.24266
# Poissons Ratio (y) = 0.72476 0.26157
# Poissons Ratio (z) = 0.39157 0.13740
#
# Static dielectric constant tensor:
#      x y z
#    x 3.405190 0.000000 0.111360 
#    y 0.000000 2.965220 0.000000 
#    z 0.111360 0.000000 3.835640 
# 
# 
# High freq. dielectric constant tensor:
#      x y z
#    x 1.738740 0.000000 0.004950 
#    y 0.000000 1.681960 0.000000 
#    z 0.004950 0.000000 1.737110 
# 
# From -- ./inp_files/63828.got.cif
#   From: 2010.06.25/outbox.cif.g09.slc.cpg/sg10_32_cif.got.tgz:63828.got - 2010.06.27 22:07:45.
