data_PCOD8061079
_publ_section_title
;
Structure prediction by ZEFSAII (Michael W. Deem and Ramdas Pophale) SiO2 
 PCOD8061079
Probable space group: P 2/M
;
_chemical_formula_sum "Si O2"
_cell_formula_units_Z 32
_cell_length_a 12.475596
_cell_length_b 18.948888
_cell_length_c 9.286278
_cell_angle_alpha 90.000000
_cell_angle_beta 47.912555
_cell_angle_gamma 90.000000
_cell_volume 1629.155153
_symmetry_space_group_name_H-M "P 2/M"
_symmetry_group_IT_number 10
_symmetry_cell_setting 'monoclinic'
loop_
_space_group_symop_operation_xyz
x,y,z
-x,y,-z
-x,-y,-z
x,-y,z
loop_
_atom_site_type_symbol
_atom_site_label
_atom_site_fract_x
_atom_site_fract_y
_atom_site_fract_z
Si Si1 0.310822 0.813636 0.884850
Si Si2 0.647509 0.190395 0.614944
Si Si3 0.334200 0.303383 0.644334
Si Si4 0.651722 0.581241 0.817927
Si Si5 0.082713 0.630445 0.289338
Si Si6 0.184287 0.416371 0.617290
Si Si7 0.669396 0.921526 0.373939
Si Si8 0.145890 0.209596 0.306694
O O1 0.475617 0.815146 0.792049
O O2 0.284621 0.736610 0.835113
O O3 0.267625 0.875113 0.812782
O O4 0.204733 0.829457 0.112847
O O5 0.691595 0.251062 0.464854
O O6 0.701700 0.115994 0.498130
O O7 0.726274 0.208317 0.692364
O O8 0.500000 0.325648 0.500000
O O9 0.244110 0.375357 0.703459
O O10 0.621287 0.500000 0.820089
O O11 0.759385 0.594448 0.855815
O O12 0.720811 0.610574 0.606608
O O13 0.500000 0.618589 0.000000
O O14 0.101517 0.713297 0.292980
O O15 0.000000 0.596371 0.500000
O O16 0.983391 0.608336 0.243787
O O17 0.194727 0.500000 0.632429
O O18 0.500000 0.925036 0.500000
O O19 0.737786 0.000000 0.313349
O O20 0.000000 0.172764 0.500000
#
# Coordination Sequence:
#
# PCOD8061079 Si02
#       8
#     4   4   4   4   4   4   4   4
#     4   9  19  34  56  82 109 141 176 221 267 316
#     4   9  17  33  56  82 110 138 177 223 265 310
#     4   9  18  33  52  77 106 138 178 221 271 328
#     4   9  17  28  45  72 101 128 164 213 270 328
#     4   9  18  31  47  69  98 134 173 214 266 319
#     4  10  19  33  52  71  99 140 181 223 272 328
#     4   8  15  32  59  87 113 144 181 216 253 305
#     4  11  21  33  52  79 107 137 178 224 269 315
#
# _framework density 19.642081999999998
#
# number of rings (size 3 to 8) (size 9 to 14) (size 15 to 20)
#    0.000    2.750    0.000    4.500    0.000    4.750 
#    0.000    6.250    0.000    7.500    0.000    0.000 
#    0.000    0.000    0.000    0.000    0.000    0.000 
#
# Total GULP energy -396539.922014 kJ/mol
# GULP energy per Si atom -12391.872563 kJ/mol
# Density = 1.959738 g / cm^3
# Si number density = 19.642082 Si / 1000 Ang^3
#
#
#
# Elastic Constant Matrix: (Units=GPa)
#
#
# Indices 1 2 3 4 5 6 
#
# 1 103.7210 52.6688 41.8756 0.0000 -3.7806 0.0000
# 2 52.6688 99.9795 25.9342 0.0000 0.0668 0.0000
# 3 41.8756 25.9342 107.9897 0.0000 -4.4101 0.0000
# 4 0.0000 0.0000 0.0000 12.9071 0.0000 1.8721
# 5 -3.7806 0.0668 -4.4101 0.0000 23.5968 0.0000
# 6 0.0000 0.0000 0.0000 1.8721 0.0000 17.2657
#
#
#
# Elastic Compliance Matrix: (Units=1/GPa)
#
#
# Indices 1 2 3 4 5 6 
#
# 1 0.014743 -0.006721 -0.004037 0.000000 0.001627 0.000000
# 2 -0.006721 0.013736 -0.000744 0.000000 -0.001255 0.000000
# 3 -0.004037 -0.000744 0.011062 0.000000 0.001423 0.000000
# 4 0.000000 0.000000 0.000000 0.078714 0.000000 -0.008535
# 5 0.001627 -0.001255 0.001423 0.000000 0.042909 0.000000
# 6 0.000000 0.000000 0.000000 -0.008535 0.000000 0.058844
#
#
# Mechanical properties :
#
#
# Convention : Reuss Voigt Hill
#
# Bulk Modulus (GPa) = 60.46246 61.40529 60.93387
# Shear Modulus (GPa) = 20.11884 23.50136 21.81010
#
# Velocity S-wave (km/s) = 3.20390 3.46277 3.33585
# Velocity P-wave (km/s) = 6.67350 6.87878 6.77692
#
# Compressibility (1/GPa) = 0.01653919
#
# Stress axis : x y z
#
# Youngs Moduli (GPa) = 67.82954 72.80024 90.39816
#
# Poissons Ratio (x) = 0.48925 0.36489
# Poissons Ratio (y) = 0.45585 0.06726
# Poissons Ratio (z) = 0.27379 0.05416
#
# Static dielectric constant tensor:
#      x y z
#    x 3.590020 0.000000 -0.129080 
#    y 0.000000 3.551300 0.000000 
#    z -0.129080 0.000000 3.632060 
# 
# 
# High freq. dielectric constant tensor:
#      x y z
#    x 1.759040 0.000000 -0.004680 
#    y 0.000000 1.743150 0.000000 
#    z -0.004680 0.000000 1.746380 
# 
# From -- ./inp_files/26060.got.cif
#   From: 2010.06.25/outbox.cif.g09.slc.cpg/sg10_14_cif.got.tgz:26060.got - 2010.06.27 22:07:45.
