data_PCOD8061558
_publ_section_title
;
Structure prediction by ZEFSAII (Michael W. Deem and Ramdas Pophale) SiO2 
 PCOD8061558
Probable space group: P 2/M
;
_chemical_formula_sum "Si O2"
_cell_formula_units_Z 32
_cell_length_a 22.676546
_cell_length_b 9.072812
_cell_length_c 15.267080
_cell_angle_alpha 90.000000
_cell_angle_beta 31.274361
_cell_angle_gamma 90.000000
_cell_volume 1630.634147
_symmetry_space_group_name_H-M "P 2/M"
_symmetry_group_IT_number 10
_symmetry_cell_setting 'monoclinic'
loop_
_space_group_symop_operation_xyz
x,y,z
-x,y,-z
-x,-y,-z
x,-y,z
loop_
_atom_site_type_symbol
_atom_site_label
_atom_site_fract_x
_atom_site_fract_y
_atom_site_fract_z
Si Si1 0.281982 0.327088 0.121345
Si Si2 0.247799 0.827891 0.515575
Si Si3 0.496368 0.828149 0.769993
Si Si4 0.805326 0.668222 0.066628
Si Si5 0.548529 0.668564 0.347645
Si Si6 0.866390 0.328835 0.175705
Si Si7 0.912564 0.674314 0.759496
Si Si8 0.833602 0.328787 0.553527
O O1 0.297087 0.500000 0.084404
O O2 0.178584 0.261272 0.194050
O O3 0.255072 0.294719 0.256844
O O4 0.400297 0.249937 0.949399
O O5 0.381839 0.793661 0.342329
O O6 0.187420 0.756074 0.675245
O O7 0.194963 0.767020 0.493932
O O8 0.223838 0.000000 0.551411
O O9 0.501151 0.767970 0.665592
O O10 0.469150 0.000000 0.801785
O O11 0.841473 0.500000 0.036880
O O12 0.683060 0.681770 0.178065
O O13 0.813965 0.740550 0.152034
O O14 0.889547 0.738376 0.886954
O O15 0.500000 0.730378 0.500000
O O16 0.508693 0.500000 0.383553
O O17 0.835280 0.500000 0.227708
O O18 0.000000 0.302996 0.000000
O O19 0.894311 0.500000 0.784249
O O20 0.040914 0.714513 0.569921
O O21 0.830974 0.500000 0.529783
#
# Coordination Sequence:
#
# PCOD8061558 Si02
#       8
#     4   4   4   4   4   4   4   4
#     4  10  20  37  63  91 117 147 189 244 301 350
#     4  11  25  42  57  79 118 164 201 239 289 344
#     4  11  24  40  57  80 117 161 200 238 285 345
#     4   9  16  28  52  85 115 144 178 225 287 342
#     4  10  19  33  56  84 112 145 188 239 290 338
#     4  10  20  36  61  90 117 150 195 243 287 340
#     4   9  16  32  59  91 122 144 177 235 300 357
#     4  10  21  37  62  91 114 146 194 248 298 348
#
# _framework density 19.624267
#
# number of rings (size 3 to 8) (size 9 to 14) (size 15 to 20)
#    0.000    2.000    1.250    2.625    0.000    8.000 
#    0.000    3.750    0.000    1.500    0.000    0.000 
#    0.000    0.000    0.000    0.000    0.000    0.000 
#
# Total GULP energy -396769.277577 kJ/mol
# GULP energy per Si atom -12399.039924 kJ/mol
# Density = 1.957960 g / cm^3
# Si number density = 19.624267 Si / 1000 Ang^3
#
#
#
# Elastic Constant Matrix: (Units=GPa)
#
#
# Indices 1 2 3 4 5 6 
#
# 1 90.8942 39.1702 29.0733 0.0000 5.9031 0.0000
# 2 39.1702 61.9233 49.4207 0.0000 0.3607 0.0000
# 3 29.0733 49.4207 122.7577 0.0000 7.4415 0.0000
# 4 0.0000 0.0000 0.0000 15.3442 0.0000 -6.1722
# 5 5.9031 0.3607 7.4415 0.0000 29.3143 0.0000
# 6 0.0000 0.0000 0.0000 -6.1722 0.0000 11.8909
#
#
#
# Elastic Compliance Matrix: (Units=1/GPa)
#
#
# Indices 1 2 3 4 5 6 
#
# 1 0.015417 -0.010273 0.000675 0.000000 -0.003150 0.000000
# 2 -0.010273 0.030776 -0.010217 0.000000 0.004284 0.000000
# 3 0.000675 -0.010217 0.012289 0.000000 -0.003130 0.000000
# 4 0.000000 0.000000 0.000000 0.082369 0.000000 0.042755
# 5 -0.003150 0.004284 -0.003130 0.000000 0.035489 0.000000
# 6 0.000000 0.000000 0.000000 0.042755 0.000000 0.106291
#
#
# Mechanical properties :
#
#
# Convention : Reuss Voigt Hill
#
# Bulk Modulus (GPa) = 53.03975 56.76707 54.90341
# Shear Modulus (GPa) = 15.21859 21.83728 18.52794
#
# Velocity S-wave (km/s) = 2.78780 3.33944 3.07601
# Velocity P-wave (km/s) = 6.11954 6.62261 6.37603
#
# Compressibility (1/GPa) = 0.01885378
#
# Stress axis : x y z
#
# Youngs Moduli (GPa) = 64.86155 32.49243 81.37313
#
# Poissons Ratio (x) = 0.33380 -0.05496
# Poissons Ratio (y) = 0.66633 0.83137
# Poissons Ratio (z) = -0.04381 0.33197
#
# Static dielectric constant tensor:
#      x y z
#    x 3.669370 0.000000 0.024750 
#    y 0.000000 3.235900 0.000000 
#    z 0.024750 0.000000 3.729260 
# 
# 
# High freq. dielectric constant tensor:
#      x y z
#    x 1.774120 0.000000 0.003810 
#    y 0.000000 1.721220 0.000000 
#    z 0.003810 0.000000 1.783090 
# 
# From -- ./inp_files/71521.got.cif
#   From: 2010.06.25/outbox.cif.g09.slc.cpg/sg10_36_cif.got.tgz:71521.got - 2010.06.27 22:07:45.
