data_PCOD8061741
_publ_section_title
;
Structure prediction by ZEFSAII (Michael W. Deem and Ramdas Pophale) SiO2 
 PCOD8061741
Probable space group: P 2/M
;
_chemical_formula_sum "Si O2"
_cell_formula_units_Z 28
_cell_length_a 28.288329
_cell_length_b 9.334377
_cell_length_c 8.070258
_cell_angle_alpha 90.000000
_cell_angle_beta 136.671608
_cell_angle_gamma 90.000000
_cell_volume 1462.235802
_symmetry_space_group_name_H-M "P 2/M"
_symmetry_group_IT_number 10
_symmetry_cell_setting 'monoclinic'
loop_
_space_group_symop_operation_xyz
x,y,z
-x,y,-z
-x,-y,-z
x,-y,z
loop_
_atom_site_type_symbol
_atom_site_label
_atom_site_fract_x
_atom_site_fract_y
_atom_site_fract_z
Si Si1 0.070552 0.167371 0.261232
Si Si2 0.666938 0.170857 0.730159
Si Si3 0.068865 0.664882 0.588441
Si Si4 0.422116 0.829285 0.811306
Si Si5 0.213606 0.665846 0.113770
Si Si6 0.207346 0.163129 0.420823
Si Si7 0.653295 0.836431 0.058827
O O1 0.084464 0.247264 0.465490
O O2 0.132722 0.205903 0.297662
O O3 0.067021 0.000000 0.291071
O O4 0.000000 0.223016 0.000000
O O5 0.617715 0.223392 0.455271
O O6 0.740709 0.248013 0.902089
O O7 0.678416 0.000000 0.757846
O O8 0.635210 0.221400 0.827728
O O9 0.058765 0.500000 0.512831
O O10 0.000000 0.724767 0.500000
O O11 0.132875 0.687291 0.873516
O O12 0.387838 0.763113 0.892116
O O13 0.419058 0.000000 0.806982
O O14 0.500000 0.772392 0.000000
O O15 0.234730 0.500000 0.163181
O O16 0.229242 0.729753 0.333005
O O17 0.264449 0.180200 0.709267
O O18 0.207430 0.000000 0.352673
O O19 0.630159 0.000000 0.005163
#
# Coordination Sequence:
#
# PCOD8061741 Si02
#       7
#     4   4   4   4   4   4   4
#     4  10  21  35  53  80 108 137 179 229 277 330
#     4  10  19  34  57  80 110 148 179 222 280 325
#     4  10  22  38  53  73 105 144 184 227 276 331
#     4   9  17  30  51  83 117 143 177 225 271 325
#     4  11  22  35  54  80 107 138 184 231 271 325
#     4  10  19  34  54  76 107 141 177 222 274 332
#     4   9  17  30  51  80 108 140 182 219 266 327
#
# _framework density 19.148758999999998
#
# number of rings (size 3 to 8) (size 9 to 14) (size 15 to 20)
#    0.000    2.143    1.429    2.143    0.000    4.000 
#    0.000    3.571    0.000    0.429    0.000    1.000 
#    0.000    0.000    0.000    0.000    0.000    0.000 
#
# Total GULP energy -347147.282263 kJ/mol
# GULP energy per Si atom -12398.117224 kJ/mol
# Density = 1.910518 g / cm^3
# Si number density = 19.148759 Si / 1000 Ang^3
#
#
#
# Elastic Constant Matrix: (Units=GPa)
#
#
# Indices 1 2 3 4 5 6 
#
# 1 143.5569 30.9878 71.0920 0.0000 -7.6329 0.0000
# 2 30.9878 37.7180 21.1794 0.0000 -7.3957 0.0000
# 3 71.0920 21.1794 91.9861 0.0000 -6.5808 0.0000
# 4 0.0000 0.0000 0.0000 11.2553 0.0000 5.0370
# 5 -7.6329 -7.3957 -6.5808 0.0000 42.0673 0.0000
# 6 0.0000 0.0000 0.0000 5.0370 0.0000 4.0251
#
#
#
# Elastic Compliance Matrix: (Units=1/GPa)
#
#
# Indices 1 2 3 4 5 6 
#
# 1 0.012179 -0.005425 -0.008165 0.000000 -0.000021 0.000000
# 2 -0.005425 0.033657 -0.003240 0.000000 0.004426 0.000000
# 3 -0.008165 -0.003240 0.017982 0.000000 0.000762 0.000000
# 4 0.000000 0.000000 0.000000 0.201942 0.000000 -0.252712
# 5 -0.000021 0.004426 0.000762 0.000000 0.024665 0.000000
# 6 0.000000 0.000000 0.000000 -0.252712 0.000000 0.564690
#
#
# Mechanical properties :
#
#
# Convention : Reuss Voigt Hill
#
# Bulk Modulus (GPa) = 33.15895 57.75326 45.45611
# Shear Modulus (GPa) = 5.56280 21.46966 13.51623
#
# Velocity S-wave (km/s) = 1.70627 3.35207 2.65967
# Velocity P-wave (km/s) = 4.60824 6.72366 5.76383
#
# Compressibility (1/GPa) = 0.03015777
#
# Stress axis : x y z
#
# Youngs Moduli (GPa) = 82.10536 29.71166 55.61045
#
# Poissons Ratio (x) = 0.16120 0.45408
# Poissons Ratio (y) = 0.44545 0.18016
# Poissons Ratio (z) = 0.67042 0.09626
#
# Static dielectric constant tensor:
#      x y z
#    x 3.775260 0.000000 0.028850 
#    y 0.000000 3.141790 0.000000 
#    z 0.028850 0.000000 3.600610 
# 
# 
# High freq. dielectric constant tensor:
#      x y z
#    x 1.755740 0.000000 -0.001780 
#    y 0.000000 1.700460 0.000000 
#    z -0.001780 0.000000 1.749020 
# 
# From -- ./inp_files/38023.got.cif
#   From: 2010.06.25/outbox.cif.g09.slc.cpg/sg10_20_cif.got.tgz:38023.got - 2010.06.27 22:07:45.
