data_PCOD8061360
_publ_section_title
;
Structure prediction by ZEFSAII (Michael W. Deem and Ramdas Pophale) SiO2 
 PCOD8061360
Probable space group: P 2/M
;
_chemical_formula_sum "Si O2"
_cell_formula_units_Z 28
_cell_length_a 29.438198
_cell_length_b 9.154618
_cell_length_c 9.317139
_cell_angle_alpha 90.000000
_cell_angle_beta 142.316928
_cell_angle_gamma 90.000000
_cell_volume 1534.912496
_symmetry_space_group_name_H-M "P 2/M"
_symmetry_group_IT_number 10
_symmetry_cell_setting 'monoclinic'
loop_
_space_group_symop_operation_xyz
x,y,z
-x,y,-z
-x,-y,-z
x,-y,z
loop_
_atom_site_type_symbol
_atom_site_label
_atom_site_fract_x
_atom_site_fract_y
_atom_site_fract_z
Si Si1 0.124323 0.326586 0.460308
Si Si2 0.994264 0.833305 0.651197
Si Si3 0.712425 0.338952 0.110700
Si Si4 0.137676 0.169173 0.197584
Si Si5 0.427034 0.829708 0.900648
Si Si6 0.429311 0.169834 0.239725
Si Si7 0.283210 0.663824 0.537503
O O1 0.119629 0.500000 0.421496
O O2 0.205343 0.283929 0.728385
O O3 0.110246 0.246537 0.274307
O O4 0.063500 0.276423 0.421346
O O5 0.000000 0.789936 0.500000
O O6 0.966462 0.000000 0.601075
O O7 0.074532 0.812384 0.921484
O O8 0.697500 0.500000 0.011310
O O9 0.711370 0.340881 0.278920
O O10 0.647043 0.236409 0.887985
O O11 0.210728 0.243951 0.312564
O O12 0.154769 0.000000 0.274341
O O13 0.357014 0.741923 0.661109
O O14 0.411471 0.000000 0.836650
O O15 0.500000 0.776638 0.000000
O O16 0.439522 0.793921 0.098541
O O17 0.500000 0.237019 0.500000
O O18 0.423458 0.000000 0.256359
O O19 0.277450 0.500000 0.459488
#
# Coordination Sequence:
#
# PCOD8061360 Si02
#       7
#     4   4   4   4   4   4   4
#     4  10  20  34  54  79 103 128 165 210 251 296
#     4  10  22  38  53  73 103 136 168 203 247 299
#     4   8  16  30  47  69  95 123 156 195 238 283
#     4  10  19  33  55  78  99 128 168 210 250 295
#     4   9  17  30  48  69  95 127 161 197 240 291
#     4   9  17  29  46  69  94 121 156 196 236 279
#     4   9  17  30  49  73  99 125 160 206 248 288
#
# _framework density 18.242080999999999
#
# number of rings (size 3 to 8) (size 9 to 14) (size 15 to 20)
#    0.000    2.714    0.000    2.571    0.000    7.714 
#    0.000    1.429    0.000    6.857    0.000    0.000 
#    0.000    0.000    0.000    0.000    0.000    0.000 
#
# Total GULP energy -347165.174259 kJ/mol
# GULP energy per Si atom -12398.756224 kJ/mol
# Density = 1.820056 g / cm^3
# Si number density = 18.242081 Si / 1000 Ang^3
#
#
#
# Elastic Constant Matrix: (Units=GPa)
#
#
# Indices 1 2 3 4 5 6 
#
# 1 93.1336 53.8760 54.6886 0.0000 24.6856 0.0000
# 2 53.8760 100.3687 62.5694 0.0000 16.3557 0.0000
# 3 54.6886 62.5694 116.9908 0.0000 21.2609 0.0000
# 4 0.0000 0.0000 0.0000 21.1824 0.0000 11.8202
# 5 24.6856 16.3557 21.2609 0.0000 28.8425 0.0000
# 6 0.0000 0.0000 0.0000 11.8202 0.0000 26.2619
#
#
#
# Elastic Compliance Matrix: (Units=1/GPa)
#
#
# Indices 1 2 3 4 5 6 
#
# 1 0.019332 -0.006360 -0.003792 0.000000 -0.010144 0.000000
# 2 -0.006360 0.017265 -0.006317 0.000000 0.000309 0.000000
# 3 -0.003792 -0.006317 0.014385 0.000000 -0.003776 0.000000
# 4 0.000000 0.000000 0.000000 0.063043 0.000000 -0.028375
# 5 -0.010144 0.000309 -0.003776 0.000000 0.045961 0.000000
# 6 0.000000 0.000000 0.000000 -0.028375 0.000000 0.050849
#
#
# Mechanical properties :
#
#
# Convention : Reuss Voigt Hill
#
# Bulk Modulus (GPa) = 55.42039 72.52901 63.97470
# Shear Modulus (GPa) = 20.01714 24.54798 22.28256
#
# Velocity S-wave (km/s) = 3.31615 3.67233 3.49878
# Velocity P-wave (km/s) = 6.71632 7.60439 7.17411
#
# Compressibility (1/GPa) = 0.01804390
#
# Stress axis : x y z
#
# Youngs Moduli (GPa) = 51.72840 57.92206 69.51801
#
# Poissons Ratio (x) = 0.36839 0.26360
# Poissons Ratio (y) = 0.32900 0.43912
# Poissons Ratio (z) = 0.19615 0.36587
#
# Static dielectric constant tensor:
#      x y z
#    x 3.246870 0.000000 0.343310 
#    y 0.000000 3.488340 0.000000 
#    z 0.343310 0.000000 3.464410 
# 
# 
# High freq. dielectric constant tensor:
#      x y z
#    x 1.685660 0.000000 0.028410 
#    y 0.000000 1.710770 0.000000 
#    z 0.028410 0.000000 1.702960 
# 
# From -- ./inp_files/37305.got.cif
#   From: 2010.06.25/outbox.cif.g09.slc.cpg/sg10_19_cif.got.tgz:37305.got - 2010.06.27 22:07:45.
