data_PCOD8061047
_publ_section_title
;
Structure prediction by ZEFSAII (Michael W. Deem and Ramdas Pophale) SiO2 
 PCOD8061047
Probable space group: P 2/M
;
_chemical_formula_sum "Si O2"
_cell_formula_units_Z 32
_cell_length_a 8.510946
_cell_length_b 18.367839
_cell_length_c 22.687857
_cell_angle_alpha 90.000000
_cell_angle_beta 148.996448
_cell_angle_gamma 90.000000
_cell_volume 1826.894703
_symmetry_space_group_name_H-M "P 2/M"
_symmetry_group_IT_number 10
_symmetry_cell_setting 'monoclinic'
loop_
_space_group_symop_operation_xyz
x,y,z
-x,y,-z
-x,-y,-z
x,-y,z
loop_
_atom_site_type_symbol
_atom_site_label
_atom_site_fract_x
_atom_site_fract_y
_atom_site_fract_z
Si Si1 0.254313 0.317058 0.034158
Si Si2 0.261898 0.200614 0.809027
Si Si3 0.209635 0.154496 0.436957
Si Si4 0.695062 0.918631 0.338036
Si Si5 0.667975 0.778411 0.408032
Si Si6 0.663393 0.917257 0.893748
Si Si7 0.694202 0.579802 0.120646
Si Si8 0.965827 0.287730 0.814810
O O1 0.479415 0.255488 0.131170
O O2 0.459278 0.389441 0.093613
O O3 0.000000 0.335127 0.000000
O O4 0.108628 0.290145 0.925643
O O5 0.433048 0.122561 0.865065
O O6 0.990831 0.198861 0.674623
O O7 0.132751 0.222891 0.831794
O O8 0.500000 0.115623 0.500000
O O9 0.348579 0.213824 0.526949
O O10 0.020229 0.093780 0.410938
O O11 0.637058 0.858873 0.369376
O O12 0.438208 0.910688 0.206391
O O13 0.693605 0.000000 0.365259
O O14 0.397118 0.726166 0.298250
O O15 0.000000 0.743884 0.500000
O O16 0.674404 0.000000 0.919722
O O17 0.000000 0.882014 0.000000
O O18 0.819237 0.500000 0.180403
O O19 0.974178 0.635834 0.199835
O O20 0.500000 0.571262 0.000000
#
# Coordination Sequence:
#
# PCOD8061047 Si02
#       8
#     4   4   4   4   4   4   4   4
#     4  10  21  31  53  85 107 137 172 211 259 303
#     4  10  19  33  52  73 105 134 175 218 261 312
#     4  10  19  33  50  72  95 135 173 224 268 306
#     4   9  20  35  49  70 100 136 179 223 270 319
#     4  10  21  33  52  74 104 135 177 218 261 311
#     4   9  18  32  51  74 101 139 176 216 272 318
#     4   8  16  34  55  79 112 141 165 203 254 309
#     4  10  20  35  53  81 106 136 175 208 261 311
#
# _framework density 17.516062000000002
#
# number of rings (size 3 to 8) (size 9 to 14) (size 15 to 20)
#    0.000    2.500    1.250    1.500    7.000    2.750 
#    0.000    0.625    0.000    1.875    0.000    7.000 
#    0.000    0.000    0.000    0.000    0.000    0.000 
#
# Total GULP energy -396569.515385 kJ/mol
# GULP energy per Si atom -12392.797356 kJ/mol
# Density = 1.747619 g / cm^3
# Si number density = 17.516062 Si / 1000 Ang^3
#
#
#
# Elastic Constant Matrix: (Units=GPa)
#
#
# Indices 1 2 3 4 5 6 
#
# 1 98.5635 46.1184 38.8093 0.0000 12.2583 0.0000
# 2 46.1184 95.2380 48.5060 0.0000 10.6021 0.0000
# 3 38.8093 48.5060 102.2795 0.0000 15.7460 0.0000
# 4 0.0000 0.0000 0.0000 65.9480 0.0000 -55.3595
# 5 12.2583 10.6021 15.7460 0.0000 30.6026 0.0000
# 6 0.0000 0.0000 0.0000 -55.3595 0.0000 76.7551
#
#
#
# Elastic Compliance Matrix: (Units=1/GPa)
#
#
# Indices 1 2 3 4 5 6 
#
# 1 0.013834 -0.005199 -0.002398 0.000000 -0.002507 0.000000
# 2 -0.005199 0.015865 -0.005458 0.000000 -0.000605 0.000000
# 3 -0.002398 -0.005458 0.013941 0.000000 -0.004322 0.000000
# 4 0.000000 0.000000 0.000000 0.038432 0.000000 0.027719
# 5 -0.002507 -0.000605 -0.004322 0.000000 0.036114 0.000000
# 6 0.000000 0.000000 0.000000 0.027719 0.000000 0.033021
#
#
# Mechanical properties :
#
#
# Convention : Reuss Voigt Hill
#
# Bulk Modulus (GPa) = 57.04390 62.54981 59.79685
# Shear Modulus (GPa) = 27.29864 45.50431 36.40147
#
# Velocity S-wave (km/s) = 3.95206 5.10245 4.56365
# Velocity P-wave (km/s) = 7.31179 8.39648 7.87284
#
# Compressibility (1/GPa) = 0.01753036
#
# Stress axis : x y z
#
# Youngs Moduli (GPa) = 72.28468 63.03300 71.73230
#
# Poissons Ratio (x) = 0.32770 0.17200
# Poissons Ratio (y) = 0.37579 0.39151
# Poissons Ratio (z) = 0.17333 0.34403
#
# Static dielectric constant tensor:
#      x y z
#    x 3.240250 0.000000 0.083760 
#    y 0.000000 3.360220 0.000000 
#    z 0.083760 0.000000 3.416930 
# 
# 
# High freq. dielectric constant tensor:
#      x y z
#    x 1.673520 0.000000 0.007430 
#    y 0.000000 1.648770 0.000000 
#    z 0.007430 0.000000 1.682020 
# 
# From -- ./inp_files/25979.got.cif
#   From: 2010.06.25/outbox.cif.g09.slc.cpg/sg10_13_cif.got.tgz:25979.got - 2010.06.27 22:07:45.
