data_PCOD8061308
_publ_section_title
;
Structure prediction by ZEFSAII (Michael W. Deem and Ramdas Pophale) SiO2 
 PCOD8061308
Probable space group: P 2/M
;
_chemical_formula_sum "Si O2"
_cell_formula_units_Z 32
_cell_length_a 12.590217
_cell_length_b 8.969735
_cell_length_c 30.931091
_cell_angle_alpha 90.000000
_cell_angle_beta 151.965847
_cell_angle_gamma 90.000000
_cell_volume 1641.738117
_symmetry_space_group_name_H-M "P 2/M"
_symmetry_group_IT_number 10
_symmetry_cell_setting 'monoclinic'
loop_
_space_group_symop_operation_xyz
x,y,z
-x,y,-z
-x,-y,-z
x,-y,z
loop_
_atom_site_type_symbol
_atom_site_label
_atom_site_fract_x
_atom_site_fract_y
_atom_site_fract_z
Si Si1 0.890356 0.832233 0.832378
Si Si2 0.647754 0.324055 0.282145
Si Si3 0.902039 0.329057 0.709248
Si Si4 0.556382 0.674659 0.345345
Si Si5 0.078994 0.325336 0.383119
Si Si6 0.239859 0.329173 0.905488
Si Si7 0.444960 0.823923 0.569357
Si Si8 0.805050 0.831269 0.900189
O O1 0.707773 0.714836 0.749292
O O2 0.907022 0.825998 0.889383
O O3 0.130142 0.781278 0.900635
O O4 0.828565 0.000000 0.794506
O O5 0.622075 0.500000 0.271013
O O6 0.665966 0.272221 0.339095
O O7 0.427981 0.258089 0.179862
O O8 0.866490 0.267907 0.334887
O O9 0.818699 0.500000 0.682348
O O10 0.963852 0.286936 0.682299
O O11 0.704060 0.225558 0.656709
O O12 0.129408 0.302964 0.818591
O O13 0.591006 0.500000 0.364975
O O14 0.663913 0.759989 0.425012
O O15 0.118611 0.500000 0.404800
O O16 0.301912 0.238377 0.477920
O O17 0.207056 0.500000 0.908392
O O18 0.500000 0.284187 0.000000
O O19 0.430269 0.000000 0.564867
O O20 0.754162 0.000000 0.896819
O O21 0.000000 0.758469 0.000000
#
# Coordination Sequence:
#
# PCOD8061308 Si02
#       8
#     4   4   4   4   4   4   4   4
#     4  10  19  33  54  80 109 145 187 233 281 331
#     4   9  20  37  58  85 114 146 190 240 284 333
#     4  10  21  39  61  82 113 155 192 233 286 342
#     4  10  19  35  59  83 111 147 185 231 285 337
#     4  10  22  40  59  82 115 154 192 233 289 347
#     4  10  21  36  56  84 114 148 189 232 284 341
#     4  12  24  37  58  87 114 147 194 241 285 339
#     4   9  19  35  55  80 113 152 190 228 282 345
#
# _framework density 19.491537000000001
#
# number of rings (size 3 to 8) (size 9 to 14) (size 15 to 20)
#    0.000    2.000    1.250    2.250    0.000    5.500 
#    0.000    3.750    0.000    0.000    0.000    0.000 
#    0.000    0.000    0.000    0.000    0.000    0.000 
#
# Total GULP energy -396844.614235 kJ/mol
# GULP energy per Si atom -12401.394195 kJ/mol
# Density = 1.944717 g / cm^3
# Si number density = 19.491537 Si / 1000 Ang^3
#
#
#
# Elastic Constant Matrix: (Units=GPa)
#
#
# Indices 1 2 3 4 5 6 
#
# 1 101.0741 35.0814 41.8139 0.0000 3.3713 0.0000
# 2 35.0814 62.6768 29.7340 0.0000 -5.0025 0.0000
# 3 41.8139 29.7340 107.5428 0.0000 -7.1828 0.0000
# 4 0.0000 0.0000 0.0000 15.9874 0.0000 -4.8681
# 5 3.3713 -5.0025 -7.1828 0.0000 24.5509 0.0000
# 6 0.0000 0.0000 0.0000 -4.8681 0.0000 20.9813
#
#
#
# Elastic Compliance Matrix: (Units=1/GPa)
#
#
# Indices 1 2 3 4 5 6 
#
# 1 0.013826 -0.006211 -0.003947 0.000000 -0.004319 0.000000
# 2 -0.006211 0.021282 -0.003185 0.000000 0.004258 0.000000
# 3 -0.003947 -0.003185 0.011940 0.000000 0.003386 0.000000
# 4 0.000000 0.000000 0.000000 0.067304 0.000000 0.015616
# 5 -0.004319 0.004258 0.003386 0.000000 0.043183 0.000000
# 6 0.000000 0.000000 0.000000 0.015616 0.000000 0.051285
#
#
# Mechanical properties :
#
#
# Convention : Reuss Voigt Hill
#
# Bulk Modulus (GPa) = 49.11001 53.83913 51.47457
# Shear Modulus (GPa) = 20.63607 23.28156 21.95881
#
# Velocity S-wave (km/s) = 3.25733 3.45982 3.36010
# Velocity P-wave (km/s) = 6.27672 6.60623 6.44358
#
# Compressibility (1/GPa) = 0.02036245
#
# Stress axis : x y z
#
# Youngs Moduli (GPa) = 72.32503 46.98786 83.75196
#
# Poissons Ratio (x) = 0.29185 0.33057
# Poissons Ratio (y) = 0.44922 0.26674
# Poissons Ratio (z) = 0.28547 0.14965
#
# Static dielectric constant tensor:
#      x y z
#    x 3.718130 0.000000 -0.152730 
#    y 0.000000 3.479590 0.000000 
#    z -0.152730 0.000000 3.519960 
# 
# 
# High freq. dielectric constant tensor:
#      x y z
#    x 1.763390 0.000000 -0.010900 
#    y 0.000000 1.750840 0.000000 
#    z -0.010900 0.000000 1.755190 
# 
# From -- ./inp_files/95042.got.cif
#   From: 2010.06.25/outbox.cif.g09.slc.cpg/sg10_48_cif.got.tgz:95042.got - 2010.06.27 22:07:45.
