data_PCOD8061406
_publ_section_title
;
Structure prediction by ZEFSAII (Michael W. Deem and Ramdas Pophale) SiO2 
 PCOD8061406
Probable space group: P 2/M
;
_chemical_formula_sum "Si O2"
_cell_formula_units_Z 28
_cell_length_a 8.976976
_cell_length_b 8.347847
_cell_length_c 28.983341
_cell_angle_alpha 90.000000
_cell_angle_beta 141.268339
_cell_angle_gamma 90.000000
_cell_volume 1358.942162
_symmetry_space_group_name_H-M "P 2/M"
_symmetry_group_IT_number 10
_symmetry_cell_setting 'monoclinic'
loop_
_space_group_symop_operation_xyz
x,y,z
-x,y,-z
-x,-y,-z
x,-y,z
loop_
_atom_site_type_symbol
_atom_site_label
_atom_site_fract_x
_atom_site_fract_y
_atom_site_fract_z
Si Si1 0.629757 0.814192 0.212471
Si Si2 0.237152 0.309859 0.928164
Si Si3 0.884177 0.313500 0.922909
Si Si4 0.327990 0.808811 0.498476
Si Si5 0.796809 0.809330 0.352358
Si Si6 0.034395 0.314038 0.782743
Si Si7 0.479787 0.187616 0.358606
O O1 0.349887 0.792337 0.138390
O O2 0.705218 0.748043 0.280833
O O3 0.766204 0.710495 0.207607
O O4 0.698022 0.000000 0.223208
O O5 0.255197 0.500000 0.930760
O O6 0.133170 0.244554 0.854878
O O7 0.067469 0.253364 0.928439
O O8 0.500000 0.236832 0.000000
O O9 0.819460 0.500000 0.901154
O O10 0.000000 0.279522 0.000000
O O11 0.500000 0.742126 0.500000
O O12 0.419090 0.739088 0.569334
O O13 0.062481 0.744248 0.425197
O O14 0.332021 0.000000 0.499553
O O15 0.623038 0.737785 0.349878
O O16 0.792091 0.000000 0.352468
O O17 0.971677 0.500000 0.772096
O O18 0.798801 0.219484 0.712339
O O19 0.525162 0.000000 0.370432
#
# Coordination Sequence:
#
# PCOD8061406 Si02
#       7
#     4   4   4   4   4   4   4
#     4  11  22  36  55  79 109 141 177 222 266 310
#     4   9  18  34  56  80 104 135 177 218 255 305
#     4  10  20  36  59  83 108 140 177 216 261 315
#     4   9  16  28  50  79 108 139 176 216 259 311
#     4   9  18  32  52  80 109 139 177 220 265 312
#     4  11  22  36  55  78 107 141 177 217 264 319
#     4  10  19  33  55  80 107 138 175 220 266 313
#
# _framework density 20.604263
#
# number of rings (size 3 to 8) (size 9 to 14) (size 15 to 20)
#    0.000    2.143    0.000    3.857    0.000    6.571 
#    0.000    1.429    0.000    9.429    0.000    0.000 
#    0.000    0.000    0.000    0.000    0.000    0.000 
#
# Total GULP energy -347288.303639 kJ/mol
# GULP energy per Si atom -12403.153701 kJ/mol
# Density = 2.055737 g / cm^3
# Si number density = 20.604263 Si / 1000 Ang^3
#
#
#
# Elastic Constant Matrix: (Units=GPa)
#
#
# Indices 1 2 3 4 5 6 
#
# 1 178.0295 4.7752 81.4397 0.0000 -10.9077 0.0000
# 2 4.7752 13.7816 8.1073 0.0000 -5.9971 0.0000
# 3 81.4397 8.1073 171.1616 0.0000 -8.8632 0.0000
# 4 0.0000 0.0000 0.0000 12.5275 0.0000 -2.8338
# 5 -10.9077 -5.9971 -8.8632 0.0000 49.1725 0.0000
# 6 0.0000 0.0000 0.0000 -2.8338 0.0000 16.6314
#
#
#
# Elastic Compliance Matrix: (Units=1/GPa)
#
#
# Indices 1 2 3 4 5 6 
#
# 1 0.007228 -0.000086 -0.003384 0.000000 0.000983 0.000000
# 2 -0.000086 0.078377 -0.003207 0.000000 0.008962 0.000000
# 3 -0.003384 -0.003207 0.007616 0.000000 0.000231 0.000000
# 4 0.000000 0.000000 0.000000 0.083024 0.000000 0.014147
# 5 0.000983 0.008962 0.000231 0.000000 0.021689 0.000000
# 6 0.000000 0.000000 0.000000 0.014147 0.000000 0.062538
#
#
# Mechanical properties :
#
#
# Convention : Reuss Voigt Hill
#
# Bulk Modulus (GPa) = 12.52097 61.29077 36.90587
# Shear Modulus (GPa) = 16.64178 33.57631 25.10905
#
# Velocity S-wave (km/s) = 2.84507 4.04119 3.49468
# Velocity P-wave (km/s) = 4.10885 7.18235 5.85101
#
# Compressibility (1/GPa) = 0.07986599
#
# Stress axis : x y z
#
# Youngs Moduli (GPa) = 138.35931 12.75890 131.29529
#
# Poissons Ratio (x) = 0.00110 0.44430
# Poissons Ratio (y) = 0.01189 0.42112
# Poissons Ratio (z) = 0.46820 0.04092
#
# Static dielectric constant tensor:
#      x y z
#    x 3.960200 0.000000 -0.141880 
#    y 0.000000 3.140890 0.000000 
#    z -0.141880 0.000000 3.924220 
# 
# 
# High freq. dielectric constant tensor:
#      x y z
#    x 1.824990 0.000000 -0.003310 
#    y 0.000000 1.753170 0.000000 
#    z -0.003310 0.000000 1.824070 
# 
# From -- ./inp_files/34257.got.cif
#   From: 2010.06.25/outbox.cif.g09.slc.cpg/sg10_18_cif.got.tgz:34257.got - 2010.06.27 22:07:45.
