data_PCOD8061237
_publ_section_title
;
Structure prediction by ZEFSAII (Michael W. Deem and Ramdas Pophale) SiO2 
 PCOD8061237
Probable space group: P 2/M
;
_chemical_formula_sum "Si O2"
_cell_formula_units_Z 32
_cell_length_a 26.399559
_cell_length_b 9.066810
_cell_length_c 21.136360
_cell_angle_alpha 90.000000
_cell_angle_beta 159.140655
_cell_angle_gamma 90.000000
_cell_volume 1801.452878
_symmetry_space_group_name_H-M "P 2/M"
_symmetry_group_IT_number 10
_symmetry_cell_setting 'monoclinic'
loop_
_space_group_symop_operation_xyz
x,y,z
-x,y,-z
-x,-y,-z
x,-y,z
loop_
_atom_site_type_symbol
_atom_site_label
_atom_site_fract_x
_atom_site_fract_y
_atom_site_fract_z
Si Si1 0.985530 0.173784 0.675430
Si Si2 0.712097 0.825335 0.024939
Si Si3 0.095366 0.331029 0.919594
Si Si4 0.590295 0.826504 0.544616
Si Si5 0.876701 0.669007 0.905811
Si Si6 0.401634 0.175081 0.974585
Si Si7 0.597857 0.672677 0.773548
Si Si8 0.702827 0.175477 0.280335
O O1 0.993397 0.235410 0.755803
O O2 0.846749 0.241153 0.478797
O O3 0.973101 0.000000 0.666401
O O4 0.124684 0.220471 0.797888
O O5 0.670487 0.764770 0.045693
O O6 0.607438 0.746150 0.853624
O O7 0.690808 0.000000 0.993825
O O8 0.065535 0.500000 0.867911
O O9 0.060438 0.294213 0.951514
O O10 0.259979 0.291294 0.099857
O O11 0.500000 0.776573 0.500000
O O12 0.752036 0.780672 0.743777
O O13 0.533850 0.743705 0.416814
O O14 0.579881 0.000000 0.520984
O O15 0.820744 0.500000 0.839035
O O16 0.000000 0.696147 0.000000
O O17 0.565842 0.228120 0.161074
O O18 0.397549 0.000000 0.969956
O O19 0.313032 0.233296 0.810404
O O20 0.570565 0.500000 0.749590
O O21 0.710504 0.000000 0.288813
#
# Coordination Sequence:
#
# PCOD8061237 Si02
#       8
#     4   4   4   4   4   4   4   4
#     4   9  17  28  46  71  96 123 160 202 242 289
#     4   9  17  29  46  71 100 125 156 207 254 286
#     4   9  18  33  52  72  97 132 167 202 248 300
#     4  11  22  35  56  82 105 132 170 216 260 305
#     4  10  21  38  57  76 103 138 175 213 255 307
#     4   8  14  26  45  67  97 129 157 196 245 294
#     4  10  19  33  54  75  99 134 172 207 248 305
#     4   8  14  26  44  68  95 128 163 193 238 299
#
# _framework density 17.763439999999999
#
# number of rings (size 3 to 8) (size 9 to 14) (size 15 to 20)
#    0.000    2.750    1.250    1.500    0.000    2.250 
#    2.250    2.500    0.000    0.750    0.000    5.250 
#    0.000    0.000    0.000    0.000    0.000    0.000 
#
# Total GULP energy -396775.920742 kJ/mol
# GULP energy per Si atom -12399.247523 kJ/mol
# Density = 1.772301 g / cm^3
# Si number density = 17.763440 Si / 1000 Ang^3
#
#
#
# Elastic Constant Matrix: (Units=GPa)
#
#
# Indices 1 2 3 4 5 6 
#
# 1 142.8467 28.0797 67.3593 0.0000 -14.9487 0.0000
# 2 28.0797 34.7951 34.4403 0.0000 -5.5728 0.0000
# 3 67.3593 34.4403 131.0023 0.0000 -18.5419 0.0000
# 4 0.0000 0.0000 0.0000 10.3793 0.0000 1.8813
# 5 -14.9487 -5.5728 -18.5419 0.0000 21.3524 0.0000
# 6 0.0000 0.0000 0.0000 1.8813 0.0000 11.5344
#
#
#
# Elastic Compliance Matrix: (Units=1/GPa)
#
#
# Indices 1 2 3 4 5 6 
#
# 1 0.009744 -0.003853 -0.003619 0.000000 0.002674 0.000000
# 2 -0.003853 0.040412 -0.008587 0.000000 0.000392 0.000000
# 3 -0.003619 -0.008587 0.012628 0.000000 0.006191 0.000000
# 4 0.000000 0.000000 0.000000 0.099280 0.000000 -0.016193
# 5 0.002674 0.000392 0.006191 0.000000 0.054183 0.000000
# 6 0.000000 0.000000 0.000000 -0.016193 0.000000 0.089338
#
#
# Mechanical properties :
#
#
# Convention : Reuss Voigt Hill
#
# Bulk Modulus (GPa) = 32.61038 63.15586 47.88312
# Shear Modulus (GPa) = 14.37083 20.57090 17.47087
#
# Velocity S-wave (km/s) = 2.84740 3.40670 3.13953
# Velocity P-wave (km/s) = 5.40446 7.14879 6.33693
#
# Compressibility (1/GPa) = 0.03066508
#
# Stress axis : x y z
#
# Youngs Moduli (GPa) = 102.62458 24.74513 79.18865
#
# Poissons Ratio (x) = 0.09535 0.28657
# Poissons Ratio (y) = 0.39546 0.68002
# Poissons Ratio (z) = 0.37138 0.21249
#
# Static dielectric constant tensor:
#      x y z
#    x 3.524150 0.000000 -0.115160 
#    y 0.000000 2.998960 0.000000 
#    z -0.115160 0.000000 3.369250 
# 
# 
# High freq. dielectric constant tensor:
#      x y z
#    x 1.686710 0.000000 -0.011940 
#    y 0.000000 1.658240 0.000000 
#    z -0.011940 0.000000 1.685590 
# 
# From -- ./inp_files/86952.got.cif
#   From: 2010.06.25/outbox.cif.g09.slc.cpg/sg10_44_cif.got.tgz:86952.got - 2010.06.27 22:07:45.
