data_PCOD8061323
_publ_section_title
;
Structure prediction by ZEFSAII (Michael W. Deem and Ramdas Pophale) SiO2 
 PCOD8061323
Probable space group: P 2/M
;
_chemical_formula_sum "Si O2"
_cell_formula_units_Z 30
_cell_length_a 15.532390
_cell_length_b 12.397074
_cell_length_c 9.354867
_cell_angle_alpha 90.000000
_cell_angle_beta 116.581444
_cell_angle_gamma 90.000000
_cell_volume 1610.934718
_symmetry_space_group_name_H-M "P 2/M"
_symmetry_group_IT_number 10
_symmetry_cell_setting 'monoclinic'
loop_
_space_group_symop_operation_xyz
x,y,z
-x,y,-z
-x,-y,-z
x,-y,z
loop_
_atom_site_type_symbol
_atom_site_label
_atom_site_fract_x
_atom_site_fract_y
_atom_site_fract_z
Si Si1 0.634629 0.118795 0.923058
Si Si2 0.500000 0.248899 0.000000
Si Si3 0.111586 0.879378 0.597750
Si Si4 0.319501 0.379461 0.756605
Si Si5 0.392001 0.879347 0.423222
Si Si6 0.886448 0.627336 0.894718
Si Si7 0.222183 0.251559 0.442154
Si Si8 0.803747 0.727565 0.120240
O O1 0.535789 0.175578 0.895709
O O2 0.646904 0.113973 0.764426
O O3 0.636374 0.000000 0.991810
O O4 0.722729 0.182824 0.051205
O O5 0.415950 0.316818 0.866251
O O6 0.159952 0.832358 0.489195
O O7 0.116922 0.792906 0.731117
O O8 0.000000 0.895458 0.500000
O O9 0.155517 0.000000 0.660643
O O10 0.353509 0.500000 0.760075
O O11 0.267714 0.343336 0.573671
O O12 0.240434 0.371960 0.823996
O O13 0.500000 0.828424 0.500000
O O14 0.315256 0.807955 0.448818
O O15 0.397303 0.000000 0.495207
O O16 0.861058 0.500000 0.863303
O O17 0.846067 0.691597 0.727194
O O18 0.838781 0.680724 0.997479
O O19 0.000000 0.643558 0.000000
#
# Coordination Sequence:
#
# PCOD8061323 Si02
#       8
#     4   2   4   4   4   4   4   4
#     4  10  19  33  54  81 111 144 184 225 275 339
#     4  10  20  34  56  82 114 150 190 236 282 340
#     4  10  21  37  58  86 117 150 191 239 294 359
#     4  10  21  36  57  80 110 152 194 241 286 337
#     4  10  20  34  55  82 116 152 187 229 282 347
#     4  11  23  39  60  85 114 152 201 252 300 351
#     4  11  21  38  60  83 119 154 195 241 299 349
#     4  10  20  37  57  80 111 149 187 236 292 344
#
# _framework density 18.622729
#
# number of rings (size 3 to 8) (size 9 to 14) (size 15 to 20)
#    0.000    1.733    1.333    3.600    0.000    0.000 
#    0.000    4.000    0.000   11.200    0.000    0.000 
#    0.000    0.000    0.000    0.000    0.000    0.000 
#
# Total GULP energy -371787.269438 kJ/mol
# GULP energy per Si atom -12392.908981 kJ/mol
# Density = 1.858034 g / cm^3
# Si number density = 18.622729 Si / 1000 Ang^3
#
#
#
# Elastic Constant Matrix: (Units=GPa)
#
#
# Indices 1 2 3 4 5 6 
#
# 1 89.2264 48.2646 29.6145 0.0000 -4.5613 0.0000
# 2 48.2646 113.7219 31.8251 0.0000 -6.7607 0.0000
# 3 29.6145 31.8251 91.7474 0.0000 -3.6309 0.0000
# 4 0.0000 0.0000 0.0000 -7.8947 0.0000 -12.9662
# 5 -4.5613 -6.7607 -3.6309 0.0000 31.1490 0.0000
# 6 0.0000 0.0000 0.0000 -12.9662 0.0000 15.8532
#
#
#
# Elastic Compliance Matrix: (Units=1/GPa)
#
#
# Indices 1 2 3 4 5 6 
#
# 1 0.015255 -0.005608 -0.002952 0.000000 0.000673 0.000000
# 2 -0.005608 0.011894 -0.002256 0.000000 0.001497 0.000000
# 3 -0.002952 -0.002256 0.012657 0.000000 0.000553 0.000000
# 4 0.000000 0.000000 0.000000 -0.054055 0.000000 -0.044211
# 5 0.000673 0.001497 0.000553 0.000000 0.032592 0.000000
# 6 0.000000 0.000000 0.000000 -0.044211 0.000000 0.026919
#
#
# Mechanical properties :
#
#
# Convention : Reuss Voigt Hill
#
# Bulk Modulus (GPa) = 55.02716 57.12266 56.07491
# Shear Modulus (GPa) = 68.53740 20.15426 44.34583
#
# Velocity S-wave (km/s) = 6.07314 3.29331 4.88512
# Velocity P-wave (km/s) = 8.87636 6.72320 7.87373
#
# Compressibility (1/GPa) = 0.01817285
#
# Stress axis : x y z
#
# Youngs Moduli (GPa) = 65.55079 84.07571 79.00809
#
# Poissons Ratio (x) = 0.47153 0.23324
# Poissons Ratio (y) = 0.36763 0.17826
# Poissons Ratio (z) = 0.19352 0.18969
#
# Static dielectric constant tensor:
#      x y z
#    x 2.577660 0.000000 0.216990 
#    y 0.000000 3.626500 0.000000 
#    z 0.216990 0.000000 3.422300 
# 
# 
# High freq. dielectric constant tensor:
#      x y z
#    x 1.730190 0.000000 0.002310 
#    y 0.000000 1.729330 0.000000 
#    z 0.002310 0.000000 1.730210 
# 
# From -- ./inp_files/28638.got.cif
#   From: 2010.06.25/outbox.cif.g09.slc.cpg/sg10_15_cif.got.tgz:28638.got - 2010.06.27 22:07:45.
