data_PCOD8061087
_publ_section_title
;
Structure prediction by ZEFSAII (Michael W. Deem and Ramdas Pophale) SiO2 
 PCOD8061087
Probable space group: P 2/M
;
_chemical_formula_sum "Si O2"
_cell_formula_units_Z 32
_cell_length_a 29.973962
_cell_length_b 8.499569
_cell_length_c 16.677043
_cell_angle_alpha 90.000000
_cell_angle_beta 153.737442
_cell_angle_gamma 90.000000
_cell_volume 1880.004582
_symmetry_space_group_name_H-M "P 2/M"
_symmetry_group_IT_number 10
_symmetry_cell_setting 'monoclinic'
loop_
_space_group_symop_operation_xyz
x,y,z
-x,y,-z
-x,-y,-z
x,-y,z
loop_
_atom_site_type_symbol
_atom_site_label
_atom_site_fract_x
_atom_site_fract_y
_atom_site_fract_z
Si Si1 0.640157 0.185080 0.685677
Si Si2 0.556609 0.685853 0.708950
Si Si3 0.682859 0.325275 0.517162
Si Si4 0.987179 0.315276 0.889142
Si Si5 0.183008 0.821217 0.139422
Si Si6 0.465647 0.815650 0.161580
Si Si7 0.221188 0.324354 0.500936
Si Si8 0.596702 0.688220 0.103517
O O1 0.559348 0.270941 0.498023
O O2 0.631248 0.247306 0.761498
O O3 0.753482 0.223293 0.838012
O O4 0.617174 0.000000 0.644506
O O5 0.568335 0.500000 0.732734
O O6 0.591158 0.764853 0.848222
O O7 0.692141 0.500000 0.570520
O O8 0.742079 0.199412 0.665349
O O9 0.567620 0.281553 0.323302
O O10 0.728577 0.326581 0.503886
O O11 0.968400 0.500000 0.868305
O O12 0.888631 0.240299 0.685754
O O13 0.000000 0.243623 0.000000
O O14 0.084336 0.285716 0.990316
O O15 0.145961 0.000000 0.076827
O O16 0.487058 0.000000 0.195778
O O17 0.401377 0.766207 0.980807
O O18 0.203372 0.500000 0.504542
O O19 0.300661 0.243977 0.689912
O O20 0.596752 0.500000 0.097039
O O21 0.500000 0.743287 0.000000
#
# Coordination Sequence:
#
# PCOD8061087 Si02
#       8
#     4   4   4   4   4   4   4   4
#     4  10  20  34  50  72 106 136 163 209 263 304
#     4  11  21  33  52  75  99 133 175 208 248 307
#     4  11  19  32  52  72  99 137 178 214 250 298
#     4  10  19  33  52  73 100 137 179 216 250 296
#     4  11  22  33  48  75 106 139 171 208 257 307
#     4  12  23  34  48  74 107 138 172 210 260 308
#     4   9  18  33  51  73  99 133 176 221 256 287
#     4  10  19  34  54  74  99 135 178 216 253 300
#
# _framework density 17.021234
#
# number of rings (size 3 to 8) (size 9 to 14) (size 15 to 20)
#    0.000    1.500    3.750    4.125    0.000    2.000 
#    0.000    0.625    0.000    0.000    0.000    0.875 
#    0.000    7.000    0.000    0.000    0.000    0.000 
#
# Total GULP energy -396700.262100 kJ/mol
# GULP energy per Si atom -12396.883191 kJ/mol
# Density = 1.698249 g / cm^3
# Si number density = 17.021234 Si / 1000 Ang^3
#
#
#
# Elastic Constant Matrix: (Units=GPa)
#
#
# Indices 1 2 3 4 5 6 
#
# 1 109.6682 26.8503 57.5881 0.0000 -8.4571 0.0000
# 2 26.8503 42.6208 7.9627 0.0000 3.0789 0.0000
# 3 57.5881 7.9627 113.0818 0.0000 1.1809 0.0000
# 4 0.0000 0.0000 0.0000 14.9048 0.0000 -1.1112
# 5 -8.4571 3.0789 1.1809 0.0000 36.4927 0.0000
# 6 0.0000 0.0000 0.0000 -1.1112 0.0000 19.8313
#
#
#
# Elastic Compliance Matrix: (Units=1/GPa)
#
#
# Indices 1 2 3 4 5 6 
#
# 1 0.015423 -0.008682 -0.007290 0.000000 0.004543 0.000000
# 2 -0.008682 0.028803 0.002440 0.000000 -0.004521 0.000000
# 3 -0.007290 0.002440 0.012408 0.000000 -0.002297 0.000000
# 4 0.000000 0.000000 0.000000 0.067374 0.000000 0.003775
# 5 0.004543 -0.004521 -0.002297 0.000000 0.028911 0.000000
# 6 0.000000 0.000000 0.000000 0.003775 0.000000 0.050637
#
#
# Mechanical properties :
#
#
# Convention : Reuss Voigt Hill
#
# Bulk Modulus (GPa) = 33.81829 50.01924 41.91876
# Shear Modulus (GPa) = 20.79214 25.77706 23.28460
#
# Velocity S-wave (km/s) = 3.49885 3.89576 3.70262
# Velocity P-wave (km/s) = 6.01947 7.04884 6.55439
#
# Compressibility (1/GPa) = 0.02956980
#
# Stress axis : x y z
#
# Youngs Moduli (GPa) = 64.84032 34.71876 80.59392
#
# Poissons Ratio (x) = 0.30143 0.58754
# Poissons Ratio (y) = 0.56295 -0.19669
# Poissons Ratio (z) = 0.47270 -0.08473
#
# Static dielectric constant tensor:
#      x y z
#    x 3.293230 0.000000 -0.045210 
#    y 0.000000 3.110830 0.000000 
#    z -0.045210 0.000000 3.209550 
# 
# 
# High freq. dielectric constant tensor:
#      x y z
#    x 1.651070 0.000000 0.000430 
#    y 0.000000 1.651600 0.000000 
#    z 0.000430 0.000000 1.632150 
# 
# From -- ./inp_files/72239.got.cif
#   From: 2010.06.25/outbox.cif.g09.slc.cpg/sg10_37_cif.got.tgz:72239.got - 2010.06.27 22:07:45.
