data_PCOD8061071
_publ_section_title
;
Structure prediction by ZEFSAII (Michael W. Deem and Ramdas Pophale) SiO2 
 PCOD8061071
Probable space group: P 2/M
;
_chemical_formula_sum "Si O2"
_cell_formula_units_Z 30
_cell_length_a 30.548668
_cell_length_b 10.033005
_cell_length_c 30.433341
_cell_angle_alpha 90.000000
_cell_angle_beta 170.319514
_cell_angle_gamma 90.000000
_cell_volume 1568.480964
_symmetry_space_group_name_H-M "P 2/M"
_symmetry_group_IT_number 10
_symmetry_cell_setting 'monoclinic'
loop_
_space_group_symop_operation_xyz
x,y,z
-x,y,-z
-x,-y,-z
x,-y,z
loop_
_atom_site_type_symbol
_atom_site_label
_atom_site_fract_x
_atom_site_fract_y
_atom_site_fract_z
Si Si1 0.847323 0.249657 0.933629
Si Si2 0.739997 0.500000 0.770904
Si Si3 0.131179 0.847495 0.951271
Si Si4 0.759522 0.659063 0.233719
Si Si5 0.204105 0.342931 0.828398
Si Si6 0.657832 0.153036 0.419968
Si Si7 0.386854 0.851220 0.432637
Si Si8 0.316415 0.341410 0.637806
O O1 0.874686 0.253363 0.013319
O O2 0.132778 0.227817 0.196121
O O3 0.724886 0.379467 0.790478
O O4 0.623150 0.140119 0.701509
O O5 0.500000 0.500000 0.500000
O O6 0.000000 0.500000 0.000000
O O7 0.889478 0.809463 0.681786
O O8 0.105676 0.000000 0.942921
O O9 0.390019 0.824457 0.180004
O O10 0.760347 0.500000 0.233241
O O11 0.777590 0.718820 0.202358
O O12 0.000000 0.713498 0.500000
O O13 0.500000 0.713337 0.000000
O O14 0.208384 0.500000 0.827938
O O15 0.941331 0.296306 0.591748
O O16 0.445505 0.295143 0.096307
O O17 0.668343 0.258473 0.391404
O O18 0.682698 0.000000 0.427613
O O19 0.500000 0.783896 0.500000
O O20 0.289319 0.000000 0.325933
O O21 0.321080 0.500000 0.632025
#
# Coordination Sequence:
#
# PCOD8061071 Si02
#       8
#     4   2   4   4   4   4   4   4
#     4  12  23  40  60  85 112 148 185 215 264 323
#     4  12  26  44  62  82 118 160 186 216 260 316
#     4  10  21  38  60  83 108 137 171 219 274 316
#     4   9  15  23  37  61  96 139 177 216 269 323
#     4   9  17  28  45  69 105 139 181 224 270 327
#     4  10  21  38  57  81 109 141 177 224 276 327
#     4  11  22  36  59  88 113 137 175 225 266 305
#     4  10  19  33  51  76 103 142 177 219 274 321
#
# _framework density 19.126785999999999
#
# number of rings (size 3 to 8) (size 9 to 14) (size 15 to 20)
#    0.000    1.733    0.000    6.000    0.000    5.333 
#    2.400    0.000    0.000    0.000    0.000    0.000 
#    0.000   10.667    0.000    0.000    0.000    0.000 
#
# Total GULP energy -371967.425075 kJ/mol
# GULP energy per Si atom -12398.914169 kJ/mol
# Density = 1.908325 g / cm^3
# Si number density = 19.126786 Si / 1000 Ang^3
#
#
#
# Elastic Constant Matrix: (Units=GPa)
#
#
# Indices 1 2 3 4 5 6 
#
# 1 169.9409 60.1238 89.4443 0.0000 -15.2286 0.0000
# 2 60.1238 55.4114 33.3772 0.0000 -6.6893 0.0000
# 3 89.4443 33.3772 191.8866 0.0000 -7.9794 0.0000
# 4 0.0000 0.0000 0.0000 3.6363 0.0000 -3.3245
# 5 -15.2286 -6.6893 -7.9794 0.0000 35.5346 0.0000
# 6 0.0000 0.0000 0.0000 -3.3245 0.0000 14.6208
#
#
#
# Elastic Compliance Matrix: (Units=1/GPa)
#
#
# Indices 1 2 3 4 5 6 
#
# 1 0.011508 -0.010099 -0.003514 0.000000 0.002242 0.000000
# 2 -0.010099 0.029352 -0.000351 0.000000 0.001118 0.000000
# 3 -0.003514 -0.000351 0.006910 0.000000 -0.000021 0.000000
# 4 0.000000 0.000000 0.000000 0.347173 0.000000 0.078941
# 5 0.002242 0.001118 -0.000021 0.000000 0.029308 0.000000
# 6 0.000000 0.000000 0.000000 0.078941 0.000000 0.086345
#
#
# Mechanical properties :
#
#
# Convention : Reuss Voigt Hill
#
# Bulk Modulus (GPa) = 50.40457 87.01438 68.70948
# Shear Modulus (GPa) = 9.17198 26.37793 17.77496
#
# Velocity S-wave (km/s) = 2.19221 3.71767 3.05179
# Velocity P-wave (km/s) = 5.72868 8.00127 6.95838
#
# Compressibility (1/GPa) = 0.01983947
#
# Stress axis : x y z
#
# Youngs Moduli (GPa) = 86.89632 34.06971 144.72155
#
# Poissons Ratio (x) = 0.34408 0.50860
# Poissons Ratio (y) = 0.87758 0.05086
# Poissons Ratio (z) = 0.30538 0.01197
#
# Static dielectric constant tensor:
#      x y z
#    x 3.580660 0.000000 -0.048930 
#    y 0.000000 3.201520 0.000000 
#    z -0.048930 0.000000 3.482390 
# 
# 
# High freq. dielectric constant tensor:
#      x y z
#    x 1.749740 0.000000 -0.001400 
#    y 0.000000 1.698810 0.000000 
#    z -0.001400 0.000000 1.771680 
# 
# From -- ./inp_files/94101.got.cif
#   From: 2010.06.25/outbox.cif.g09.slc.cpg/sg10_48_cif.got.tgz:94101.got - 2010.06.27 22:07:45.
