data_PCOD8061803
_publ_section_title
;
Structure prediction by ZEFSAII (Michael W. Deem and Ramdas Pophale) SiO2 
 PCOD8061803
Probable space group: P 2/M
;
_chemical_formula_sum "Si O2"
_cell_formula_units_Z 28
_cell_length_a 9.570083
_cell_length_b 8.686146
_cell_length_c 28.420174
_cell_angle_alpha 90.000000
_cell_angle_beta 38.891140
_cell_angle_gamma 90.000000
_cell_volume 1483.270689
_symmetry_space_group_name_H-M "P 2/M"
_symmetry_group_IT_number 10
_symmetry_cell_setting 'monoclinic'
loop_
_space_group_symop_operation_xyz
x,y,z
-x,y,-z
-x,-y,-z
x,-y,z
loop_
_atom_site_type_symbol
_atom_site_label
_atom_site_fract_x
_atom_site_fract_y
_atom_site_fract_z
Si Si1 0.125139 0.819985 0.902754
Si Si2 0.717434 0.181067 0.415153
Si Si3 0.742573 0.178037 0.818941
Si Si4 0.300519 0.680028 0.950978
Si Si5 0.827400 0.322362 0.698265
Si Si6 0.596047 0.323391 0.249311
Si Si7 0.757214 0.178054 0.297475
O O1 0.253156 0.724634 0.909300
O O2 0.231935 0.781989 0.824605
O O3 0.145548 0.000000 0.908254
O O4 0.865825 0.770763 0.970690
O O5 0.500000 0.235737 0.500000
O O6 0.689021 0.226976 0.368020
O O7 0.928373 0.268522 0.382318
O O8 0.760065 0.000000 0.409189
O O9 0.554866 0.274233 0.896073
O O10 0.745401 0.221842 0.763461
O O11 0.981400 0.212279 0.779534
O O12 0.679569 0.000000 0.838821
O O13 0.264972 0.500000 0.967504
O O14 0.832584 0.500000 0.712392
O O15 0.657672 0.293807 0.699921
O O16 0.663467 0.500000 0.224001
O O17 0.612750 0.279262 0.299649
O O18 0.703001 0.000000 0.303062
#
# Coordination Sequence:
#
# PCOD8061803 Si02
#       7
#     4   4   4   4   4   4   4
#     4  11  21  33  52  76 106 145 186 230 277 321
#     4   9  19  38  62  86 111 140 179 224 267 321
#     4  10  19  34  55  79 106 142 189 233 271 323
#     4  11  20  32  51  78 110 141 182 233 280 325
#     4  10  20  33  54  82 110 142 181 224 269 323
#     4  11  22  36  53  79 113 146 182 225 275 328
#     4   9  20  36  56  81 109 142 181 223 272 326
#
# _framework density 18.877203000000002
#
# number of rings (size 3 to 8) (size 9 to 14) (size 15 to 20)
#    0.000    1.857    1.429    5.571    0.000    4.857 
#    0.000    1.429    0.000    8.571    0.000    0.000 
#    0.000    0.000    0.000    0.000    0.000    0.000 
#
# Total GULP energy -347285.464213 kJ/mol
# GULP energy per Si atom -12403.052293 kJ/mol
# Density = 1.883424 g / cm^3
# Si number density = 18.877203 Si / 1000 Ang^3
#
#
#
# Elastic Constant Matrix: (Units=GPa)
#
#
# Indices 1 2 3 4 5 6 
#
# 1 97.8536 37.2988 41.9921 0.0000 -7.8369 0.0000
# 2 37.2988 80.4996 27.6454 0.0000 -6.0361 0.0000
# 3 41.9921 27.6454 116.8958 0.0000 -12.1650 0.0000
# 4 0.0000 0.0000 0.0000 19.8199 0.0000 -3.9909
# 5 -7.8369 -6.0361 -12.1650 0.0000 20.5361 0.0000
# 6 0.0000 0.0000 0.0000 -3.9909 0.0000 29.2866
#
#
#
# Elastic Compliance Matrix: (Units=1/GPa)
#
#
# Indices 1 2 3 4 5 6 
#
# 1 0.013819 -0.005042 -0.003599 0.000000 0.001659 0.000000
# 2 -0.005042 0.015456 -0.001675 0.000000 0.001627 0.000000
# 3 -0.003599 -0.001675 0.010710 0.000000 0.004478 0.000000
# 4 0.000000 0.000000 0.000000 0.051878 0.000000 0.007069
# 5 0.001659 0.001627 0.004478 0.000000 0.052459 0.000000
# 6 0.000000 0.000000 0.000000 0.007069 0.000000 0.035109
#
#
# Mechanical properties :
#
#
# Convention : Reuss Voigt Hill
#
# Bulk Modulus (GPa) = 51.67333 56.56907 54.12120
# Shear Modulus (GPa) = 24.21168 26.48270 25.34719
#
# Velocity S-wave (km/s) = 3.58521 3.74959 3.66832
# Velocity P-wave (km/s) = 6.67616 6.98411 6.83187
#
# Compressibility (1/GPa) = 0.01935234
#
# Stress axis : x y z
#
# Youngs Moduli (GPa) = 72.36613 64.70050 93.37495
#
# Poissons Ratio (x) = 0.32625 0.33604
# Poissons Ratio (y) = 0.36490 0.15637
# Poissons Ratio (z) = 0.26043 0.10835
#
# Static dielectric constant tensor:
#      x y z
#    x 3.277830 0.000000 -0.233630 
#    y 0.000000 3.488360 0.000000 
#    z -0.233630 0.000000 3.550470 
# 
# 
# High freq. dielectric constant tensor:
#      x y z
#    x 1.711630 0.000000 -0.017460 
#    y 0.000000 1.742170 0.000000 
#    z -0.017460 0.000000 1.725280 
# 
# From -- ./inp_files/94501.got.cif
#   From: 2010.06.25/outbox.cif.g09.slc.cpg/sg10_48_cif.got.tgz:94501.got - 2010.06.27 22:07:45.
