data_PCOD8061264
_publ_section_title
;
Structure prediction by ZEFSAII (Michael W. Deem and Ramdas Pophale) SiO2 
 PCOD8061264
Probable space group: P 2/M
;
_chemical_formula_sum "Si O2"
_cell_formula_units_Z 30
_cell_length_a 17.514930
_cell_length_b 10.220690
_cell_length_c 28.338247
_cell_angle_alpha 90.000000
_cell_angle_beta 19.291051
_cell_angle_gamma 90.000000
_cell_volume 1675.939097
_symmetry_space_group_name_H-M "P 2/M"
_symmetry_group_IT_number 10
_symmetry_cell_setting 'monoclinic'
loop_
_space_group_symop_operation_xyz
x,y,z
-x,y,-z
-x,-y,-z
x,-y,z
loop_
_atom_site_type_symbol
_atom_site_label
_atom_site_fract_x
_atom_site_fract_y
_atom_site_fract_z
Si Si1 0.488631 0.850108 0.107970
Si Si2 0.994990 0.640967 0.691907
Si Si3 0.973615 0.849844 0.405594
Si Si4 0.239755 0.154910 0.962606
Si Si5 0.291587 0.155008 0.742236
Si Si6 0.552640 0.351709 0.522186
Si Si7 0.494659 0.152791 0.723357
Si Si8 0.500000 0.720779 0.000000
O O1 0.659752 0.784240 0.046855
O O2 0.516532 0.802578 0.038413
O O3 0.226799 0.827696 0.280233
O O4 0.553468 0.000000 0.067364
O O5 0.036716 0.500000 0.642119
O O6 0.053666 0.760068 0.623881
O O7 0.169903 0.654333 0.633657
O O8 0.732431 0.636493 0.863515
O O9 0.769302 0.813799 0.561394
O O10 0.944168 0.000000 0.405679
O O11 0.382179 0.217767 0.835524
O O12 0.276800 0.000000 0.941764
O O13 0.974004 0.191397 0.111418
O O14 0.437217 0.243170 0.622111
O O15 0.363426 0.200258 0.752830
O O16 0.339756 0.000000 0.705835
O O17 0.500000 0.310207 0.500000
O O18 0.462167 0.500000 0.585847
O O19 0.453017 0.000000 0.751651
#
# Coordination Sequence:
#
# PCOD8061264 Si02
#       8
#     4   4   4   4   4   4   4   2
#     4   9  18  31  46  73 108 137 165 206 258 301
#     4  10  20  35  53  75  99 131 169 206 249 303
#     4   9  17  31  52  76 101 130 166 208 250 296
#     4   9  18  30  48  76 107 135 167 208 256 301
#     4  10  19  33  54  78 103 133 172 212 250 296
#     4  10  22  37  53  74 104 137 168 206 255 303
#     4   9  16  29  50  76 102 132 168 210 253 299
#     4  10  20  32  52  74  97 134 173 210 243 302
#
# _framework density 17.900411999999999
#
# number of rings (size 3 to 8) (size 9 to 14) (size 15 to 20)
#    0.000    2.533    1.333    0.800    1.867    2.933 
#    0.000    2.667    0.000    2.400    0.000    3.733 
#    0.000    0.000    0.000    0.000    0.000    0.000 
#
# Total GULP energy -371702.050592 kJ/mol
# GULP energy per Si atom -12390.068353 kJ/mol
# Density = 1.785967 g / cm^3
# Si number density = 17.900412 Si / 1000 Ang^3
#
#
#
# Elastic Constant Matrix: (Units=GPa)
#
#
# Indices 1 2 3 4 5 6 
#
# 1 124.9479 29.4958 58.6117 0.0000 1.8145 0.0000
# 2 29.4958 43.9605 33.1789 0.0000 -2.0790 0.0000
# 3 58.6117 33.1789 113.3254 0.0000 0.2566 0.0000
# 4 0.0000 0.0000 0.0000 10.9278 0.0000 -5.9951
# 5 1.8145 -2.0790 0.2566 0.0000 21.5235 0.0000
# 6 0.0000 0.0000 0.0000 -5.9951 0.0000 9.8492
#
#
#
# Elastic Compliance Matrix: (Units=1/GPa)
#
#
# Indices 1 2 3 4 5 6 
#
# 1 0.011122 -0.004087 -0.004553 0.000000 -0.001278 0.000000
# 2 -0.004087 0.030887 -0.006937 0.000000 0.003411 0.000000
# 3 -0.004553 -0.006937 0.013211 0.000000 -0.000444 0.000000
# 4 0.000000 0.000000 0.000000 0.137388 0.000000 0.083627
# 5 -0.001278 0.003411 -0.000444 0.000000 0.046903 0.000000
# 6 0.000000 0.000000 0.000000 0.083627 0.000000 0.152434
#
#
# Mechanical properties :
#
#
# Convention : Reuss Voigt Hill
#
# Bulk Modulus (GPa) = 41.55152 58.31183 49.93167
# Shear Modulus (GPa) = 11.59768 19.18993 15.39381
#
# Velocity S-wave (km/s) = 2.54815 3.27775 2.93570
# Velocity P-wave (km/s) = 5.64982 6.85356 6.28059
#
# Compressibility (1/GPa) = 0.02406651
#
# Stress axis : x y z
#
# Youngs Moduli (GPa) = 89.90824 32.37647 75.69469
#
# Poissons Ratio (x) = 0.13231 0.34465
# Poissons Ratio (y) = 0.36743 0.52509
# Poissons Ratio (z) = 0.40936 0.22459
#
# Static dielectric constant tensor:
#      x y z
#    x 3.528570 0.000000 -0.158500 
#    y 0.000000 3.048750 0.000000 
#    z -0.158500 0.000000 3.570080 
# 
# 
# High freq. dielectric constant tensor:
#      x y z
#    x 1.691960 0.000000 -0.016630 
#    y 0.000000 1.656530 0.000000 
#    z -0.016630 0.000000 1.704370 
# 
# From -- ./inp_files/95508.got.cif
#   From: 2010.06.25/outbox.cif.g09.slc.cpg/sg10_48_cif.got.tgz:95508.got - 2010.06.27 22:07:45.
