data_PCOD8061108
_publ_section_title
;
Structure prediction by ZEFSAII (Michael W. Deem and Ramdas Pophale) SiO2 
 PCOD8061108
Probable space group: P 2/M
;
_chemical_formula_sum "Si O2"
_cell_formula_units_Z 28
_cell_length_a 14.943639
_cell_length_b 13.892640
_cell_length_c 9.522700
_cell_angle_alpha 90.000000
_cell_angle_beta 133.843896
_cell_angle_gamma 90.000000
_cell_volume 1425.853420
_symmetry_space_group_name_H-M "P 2/M"
_symmetry_group_IT_number 10
_symmetry_cell_setting 'monoclinic'
loop_
_space_group_symop_operation_xyz
x,y,z
-x,y,-z
-x,-y,-z
x,-y,z
loop_
_atom_site_type_symbol
_atom_site_label
_atom_site_fract_x
_atom_site_fract_y
_atom_site_fract_z
Si Si1 0.150415 0.892202 0.415887
Si Si2 0.054079 0.753774 0.706043
Si Si3 0.734386 0.889739 0.172083
Si Si4 0.340827 0.889481 0.395591
Si Si5 0.618894 0.607051 0.728597
Si Si6 0.574920 0.803834 0.787834
Si Si7 0.896936 0.389434 0.998751
O O1 0.045229 0.814124 0.314644
O O2 0.256723 0.876125 0.650596
O O3 0.207775 0.879690 0.323933
O O4 0.095328 0.000000 0.374262
O O5 0.000000 0.715004 0.500000
O O6 0.166151 0.825402 0.800296
O O7 0.093167 0.663459 0.841235
O O8 0.755818 0.000000 0.152804
O O9 0.601845 0.852989 0.968107
O O10 0.435808 0.826047 0.589928
O O11 0.331611 0.847999 0.228717
O O12 0.386114 0.000000 0.443030
O O13 0.500000 0.618088 0.500000
O O14 0.618742 0.500000 0.797336
O O15 0.600635 0.689039 0.827069
O O16 0.751918 0.621821 0.791282
O O17 0.929425 0.500000 0.063393
O O18 0.000000 0.349178 0.000000
#
# Coordination Sequence:
#
# PCOD8061108 Si02
#       7
#     4   4   4   4   4   4   4
#     4   9  20  35  51  74 108 146 179 214 263 321
#     4  10  20  34  55  79 108 142 181 222 270 319
#     4  10  19  33  52  75 104 141 181 218 258 317
#     4  10  20  33  49  76 111 140 173 221 271 318
#     4  10  20  36  57  81 108 141 181 223 275 331
#     4  11  19  32  53  78 101 136 178 223 268 316
#     4  10  22  38  58  84 111 140 181 232 278 326
#
# _framework density 19.637360999999999
#
# number of rings (size 3 to 8) (size 9 to 14) (size 15 to 20)
#    0.000    2.000    2.857    2.143    2.000    2.571 
#    0.000    2.143    0.000    3.429    0.000    1.000 
#    0.000    0.571    0.000    0.000    0.000    0.000 
#
# Total GULP energy -346999.498257 kJ/mol
# GULP energy per Si atom -12392.839223 kJ/mol
# Density = 1.959267 g / cm^3
# Si number density = 19.637361 Si / 1000 Ang^3
#
#
#
# Elastic Constant Matrix: (Units=GPa)
#
#
# Indices 1 2 3 4 5 6 
#
# 1 61.4624 20.3512 10.6520 0.0000 3.4872 0.0000
# 2 20.3512 101.1754 15.8702 0.0000 -2.0366 0.0000
# 3 10.6520 15.8702 62.3793 0.0000 7.3888 0.0000
# 4 0.0000 0.0000 0.0000 20.7073 0.0000 -2.6013
# 5 3.4872 -2.0366 7.3888 0.0000 21.7943 0.0000
# 6 0.0000 0.0000 0.0000 -2.6013 0.0000 21.8697
#
#
#
# Elastic Compliance Matrix: (Units=1/GPa)
#
#
# Indices 1 2 3 4 5 6 
#
# 1 0.017849 -0.003343 -0.001898 0.000000 -0.002525 0.000000
# 2 -0.003343 0.010999 -0.002513 0.000000 0.002415 0.000000
# 3 -0.001898 -0.002513 0.017697 0.000000 -0.005931 0.000000
# 4 0.000000 0.000000 0.000000 0.049025 0.000000 0.005831
# 5 -0.002525 0.002415 -0.005931 0.000000 0.048524 0.000000
# 6 0.000000 0.000000 0.000000 0.005831 0.000000 0.046419
#
#
# Mechanical properties :
#
#
# Convention : Reuss Voigt Hill
#
# Bulk Modulus (GPa) = 32.22139 35.41821 33.81980
# Shear Modulus (GPa) = 23.10868 24.75050 23.92959
#
# Velocity S-wave (km/s) = 3.43413 3.55403 3.49460
# Velocity P-wave (km/s) = 5.67170 5.90905 5.79159
#
# Compressibility (1/GPa) = 0.03103528
#
# Stress axis : x y z
#
# Youngs Moduli (GPa) = 56.02427 90.91554 56.50648
#
# Poissons Ratio (x) = 0.30397 0.10727
# Poissons Ratio (y) = 0.18731 0.14203
# Poissons Ratio (z) = 0.10635 0.22852
#
# Static dielectric constant tensor:
#      x y z
#    x 3.474380 0.000000 0.092940 
#    y 0.000000 3.755330 0.000000 
#    z 0.092940 0.000000 3.588500 
# 
# 
# High freq. dielectric constant tensor:
#      x y z
#    x 1.747670 0.000000 0.015760 
#    y 0.000000 1.772450 0.000000 
#    z 0.015760 0.000000 1.755260 
# 
# From -- ./inp_files/29590.got.cif
#   From: 2010.06.25/outbox.cif.g09.slc.cpg/sg10_15_cif.got.tgz:29590.got - 2010.06.27 22:07:45.
