data_PCOD8061592
_publ_section_title
;
Structure prediction by ZEFSAII (Michael W. Deem and Ramdas Pophale) SiO2 
 PCOD8061592
Probable space group: P 2/M
;
_chemical_formula_sum "Si O2"
_cell_formula_units_Z 24
_cell_length_a 11.429910
_cell_length_b 17.274195
_cell_length_c 8.949724
_cell_angle_alpha 90.000000
_cell_angle_beta 50.869244
_cell_angle_gamma 90.000000
_cell_volume 1370.718906
_symmetry_space_group_name_H-M "P 2/M"
_symmetry_group_IT_number 10
_symmetry_cell_setting 'monoclinic'
loop_
_space_group_symop_operation_xyz
x,y,z
-x,y,-z
-x,-y,-z
x,-y,z
loop_
_atom_site_type_symbol
_atom_site_label
_atom_site_fract_x
_atom_site_fract_y
_atom_site_fract_z
Si Si1 0.847827 0.231202 0.707830
Si Si2 0.582500 0.410217 0.277845
Si Si3 0.159011 0.290054 0.952937
Si Si4 0.658592 0.913632 0.951849
Si Si5 0.591770 0.825357 0.284348
Si Si6 0.423541 0.294844 0.216937
O O1 0.771706 0.147581 0.788254
O O2 0.754188 0.286951 0.670380
O O3 0.000000 0.214965 0.500000
O O4 0.868126 0.273097 0.850268
O O5 0.500000 0.393498 0.500000
O O6 0.612133 0.500000 0.226525
O O7 0.745003 0.368716 0.141402
O O8 0.471044 0.379856 0.236182
O O9 0.253298 0.220170 0.799785
O O10 0.000000 0.300224 0.000000
O O11 0.725858 0.000000 0.879235
O O12 0.500000 0.905907 0.000000
O O13 0.633819 0.898077 0.147842
O O14 0.500000 0.857115 0.500000
O O15 0.481353 0.765766 0.291372
O O16 0.500000 0.272690 0.000000
#
# Coordination Sequence:
#
# PCOD8061592 Si02
#       6
#     4   4   4   4   4   4
#     4  11  22  34  56  83 110 142 183 230 269 316
#     4  10  22  38  59  82 110 147 178 222 276 326
#     4  10  21  35  54  83 110 144 181 223 272 319
#     4  10  19  36  57  79 111 143 180 229 277 324
#     4  10  19  33  57  81 109 143 185 232 265 319
#     4  11  17  37  57  82 105 138 193 230 263 315
#
# _framework density 17.509060000000002
#
# number of rings (size 3 to 8) (size 9 to 14) (size 15 to 20)
#    0.000    1.667    6.667    2.000    4.667    1.333 
#    0.000    0.000    0.000    9.000    0.000    0.000 
#    0.000    0.000    0.000    0.000    0.000    0.000 
#
# Total GULP energy -297525.844009 kJ/mol
# GULP energy per Si atom -12396.910167 kJ/mol
# Density = 1.746921 g / cm^3
# Si number density = 17.509060 Si / 1000 Ang^3
#
#
#
# Elastic Constant Matrix: (Units=GPa)
#
#
# Indices 1 2 3 4 5 6 
#
# 1 132.2564 62.9146 49.9076 0.0000 -13.0300 0.0000
# 2 62.9146 113.0052 46.6142 0.0000 -10.3221 0.0000
# 3 49.9076 46.6142 113.4984 0.0000 -15.8805 0.0000
# 4 0.0000 0.0000 0.0000 17.6313 0.0000 0.3227
# 5 -13.0300 -10.3221 -15.8805 0.0000 21.3047 0.0000
# 6 0.0000 0.0000 0.0000 0.3227 0.0000 20.4671
#
#
#
# Elastic Compliance Matrix: (Units=1/GPa)
#
#
# Indices 1 2 3 4 5 6 
#
# 1 0.011092 -0.004910 -0.002506 0.000000 0.002537 0.000000
# 2 -0.004910 0.012914 -0.003003 0.000000 0.001016 0.000000
# 3 -0.002506 -0.003003 0.011977 0.000000 0.005940 0.000000
# 4 0.000000 0.000000 0.000000 0.056734 0.000000 -0.000895
# 5 0.002537 0.001016 0.005940 0.000000 0.053410 0.000000
# 6 0.000000 0.000000 0.000000 -0.000895 0.000000 0.048873
#
#
# Mechanical properties :
#
#
# Convention : Reuss Voigt Hill
#
# Bulk Modulus (GPa) = 66.02403 75.29252 70.65828
# Shear Modulus (GPa) = 22.63608 25.16887 23.90248
#
# Velocity S-wave (km/s) = 3.59948 3.79552 3.69880
# Velocity P-wave (km/s) = 7.42061 7.89325 7.66057
#
# Compressibility (1/GPa) = 0.01514600
#
# Stress axis : x y z
#
# Youngs Moduli (GPa) = 90.15147 77.43405 83.49358
#
# Poissons Ratio (x) = 0.38021 0.20923
# Poissons Ratio (y) = 0.44266 0.25071
# Poissons Ratio (z) = 0.22591 0.23251
#
# Static dielectric constant tensor:
#      x y z
#    x 2.575020 0.000000 -0.164880 
#    y 0.000000 3.255340 0.000000 
#    z -0.164880 0.000000 3.194810 
# 
# 
# High freq. dielectric constant tensor:
#      x y z
#    x 1.675220 0.000000 0.006720 
#    y 0.000000 1.663360 0.000000 
#    z 0.006720 0.000000 1.679450 
# 
# From -- ./inp_files/19299.got.cif
#   From: 2010.06.25/outbox.cif.g09.slc.cpg/sg10_10_cif.got.tgz:19299.got - 2010.06.27 22:07:45.
