data_PCOD8061005
_publ_section_title
;
Structure prediction by ZEFSAII (Michael W. Deem and Ramdas Pophale) SiO2 
 PCOD8061005
Probable space group: P 2/M
;
_chemical_formula_sum "Si O2"
_cell_formula_units_Z 28
_cell_length_a 9.332456
_cell_length_b 8.014313
_cell_length_c 34.843832
_cell_angle_alpha 90.000000
_cell_angle_beta 145.614526
_cell_angle_gamma 90.000000
_cell_volume 1471.805419
_symmetry_space_group_name_H-M "P 2/M"
_symmetry_group_IT_number 10
_symmetry_cell_setting 'monoclinic'
loop_
_space_group_symop_operation_xyz
x,y,z
-x,y,-z
-x,-y,-z
x,-y,z
loop_
_atom_site_type_symbol
_atom_site_label
_atom_site_fract_x
_atom_site_fract_y
_atom_site_fract_z
Si Si1 0.295091 0.310859 0.162164
Si Si2 0.470471 0.306230 0.704136
Si Si3 0.707924 0.811901 0.198512
Si Si4 0.732250 0.807925 0.686466
Si Si5 0.094211 0.698532 0.414655
Si Si6 0.971359 0.000000 0.930620
Si Si7 0.473832 0.305755 0.435889
Si Si8 0.602014 0.000000 0.920583
O O1 0.183708 0.500000 0.133871
O O2 0.377185 0.272830 0.223496
O O3 0.543656 0.303771 0.190168
O O4 0.086321 0.170379 0.105455
O O5 0.454958 0.500000 0.690498
O O6 0.619619 0.216132 0.703339
O O7 0.188732 0.226525 0.645208
O O8 0.571285 0.833976 0.126033
O O9 0.984890 0.728634 0.254236
O O10 0.720135 0.000000 0.219352
O O11 0.545234 0.731446 0.613312
O O12 0.760879 0.000000 0.683790
O O13 0.070910 0.500000 0.408459
O O14 0.261136 0.763042 0.487960
O O15 0.231465 0.765293 0.406056
O O16 0.812928 0.000000 0.934111
O O17 0.270288 0.000000 0.009110
O O18 0.479162 0.500000 0.444615
#
# Coordination Sequence:
#
# PCOD8061005 Si02
#       8
#     4   4   4   4   4   2   4   2
#     4  10  19  32  56  83 106 140 180 216 265 317
#     4  10  21  34  49  73 103 135 178 222 260 314
#     4   8  17  34  53  72 104 137 175 215 254 314
#     4  11  22  33  49  73 103 137 175 215 264 313
#     4   8  16  33  55  75  95 129 174 216 266 321
#     4   9  16  32  55  81 116 137 168 219 265 306
#     4   9  17  33  56  75  96 129 172 221 266 314
#     4   7  14  32  55  75 106 143 164 213 261 310
#
# _framework density 19.024253000000002
#
# number of rings (size 3 to 8) (size 9 to 14) (size 15 to 20)
#    0.429    2.429    0.714    2.143    1.000    2.857 
#    0.000   11.429    0.000    1.714    0.000    2.000 
#    0.000    0.000    0.000    0.000    0.000    0.000 
#
# Total GULP energy -346892.362642 kJ/mol
# GULP energy per Si atom -12389.012951 kJ/mol
# Density = 1.898095 g / cm^3
# Si number density = 19.024253 Si / 1000 Ang^3
#
#
#
# Elastic Constant Matrix: (Units=GPa)
#
#
# Indices 1 2 3 4 5 6 
#
# 1 59.7127 10.5468 38.0955 0.0000 -13.8302 0.0000
# 2 10.5468 50.0911 35.7219 0.0000 -4.7990 0.0000
# 3 38.0955 35.7219 122.3765 0.0000 -17.0833 -0.0001
# 4 0.0000 0.0000 0.0000 18.2970 0.0000 5.9102
# 5 -13.8302 -4.7990 -17.0833 0.0000 13.5815 0.0000
# 6 0.0000 0.0000 -0.0001 5.9102 0.0000 -10.0986
#
#
#
# Elastic Compliance Matrix: (Units=1/GPa)
#
#
# Indices 1 2 3 4 5 6 
#
# 1 0.024168 0.000262 -0.005036 0.000000 0.018369 0.000000
# 2 0.000262 0.025217 -0.007474 0.000000 -0.000223 0.000000
# 3 -0.005036 -0.007474 0.013144 0.000000 0.008765 0.000000
# 4 0.000000 0.000000 0.000000 0.045964 0.000000 0.026901
# 5 0.018369 -0.000223 0.008765 0.000000 0.103281 0.000000
# 6 0.000000 0.000000 0.000000 0.026901 0.000000 -0.083280
#
#
# Mechanical properties :
#
#
# Convention : Reuss Voigt Hill
#
# Bulk Modulus (GPa) = 26.29173 44.54543 35.41858
# Shear Modulus (GPa) = 30.18131 14.21039 22.19585
#
# Velocity S-wave (km/s) = 3.98737 2.73603 3.41942
# Velocity P-wave (km/s) = 5.92021 5.78334 5.85218
#
# Compressibility (1/GPa) = 0.03803477
#
# Stress axis : x y z
#
# Youngs Moduli (GPa) = 41.37765 39.65622 76.07930
#
# Poissons Ratio (x) = -0.01041 0.38311
# Poissons Ratio (y) = -0.01086 0.56859
# Poissons Ratio (z) = 0.20837 0.29638
#
# Static dielectric constant tensor:
#      x y z
#    x 3.259770 0.000000 0.200560 
#    y 0.000000 3.169530 0.000000 
#    z 0.200560 0.000000 3.949020 
# 
# 
# High freq. dielectric constant tensor:
#      x y z
#    x 1.713720 0.000000 0.001430 
#    y 0.000000 1.714030 0.000000 
#    z 0.001430 0.000000 1.742640 
# 
# From -- ./inp_files/94556.got.cif
#   From: 2010.06.25/outbox.cif.g09.slc.cpg/sg10_48_cif.got.tgz:94556.got - 2010.06.27 22:07:45.
