data_PCOD8061613
_publ_section_title
;
Structure prediction by ZEFSAII (Michael W. Deem and Ramdas Pophale) SiO2 
 PCOD8061613
Probable space group: P 2/M
;
_chemical_formula_sum "Si O2"
_cell_formula_units_Z 28
_cell_length_a 14.809851
_cell_length_b 8.376550
_cell_length_c 21.503811
_cell_angle_alpha 90.000000
_cell_angle_beta 150.232162
_cell_angle_gamma 90.000000
_cell_volume 1324.460454
_symmetry_space_group_name_H-M "P 2/M"
_symmetry_group_IT_number 10
_symmetry_cell_setting 'monoclinic'
loop_
_space_group_symop_operation_xyz
x,y,z
-x,y,-z
-x,-y,-z
x,-y,z
loop_
_atom_site_type_symbol
_atom_site_label
_atom_site_fract_x
_atom_site_fract_y
_atom_site_fract_z
Si Si1 0.191434 0.187213 0.936392
Si Si2 0.391526 0.186729 0.826932
Si Si3 0.054056 0.810597 0.101717
Si Si4 0.895596 0.811396 0.245968
Si Si5 0.723282 0.815000 0.478039
Si Si6 0.804138 0.682426 0.401453
Si Si7 0.574592 0.315111 0.611976
O O1 0.091542 0.260137 0.816003
O O2 0.105522 0.257846 0.948367
O O3 0.160583 0.000000 0.922419
O O4 0.398448 0.228545 0.046439
O O5 0.291371 0.236513 0.831126
O O6 0.318197 0.305415 0.731735
O O7 0.355362 0.000000 0.789997
O O8 0.245918 0.762665 0.248892
O O9 0.057565 0.000000 0.098919
O O10 0.000000 0.742874 0.000000
O O11 0.072754 0.750856 0.387848
O O12 0.900167 0.000000 0.243267
O O13 0.699107 0.786589 0.390402
O O14 0.585572 0.708961 0.434669
O O15 0.692727 0.000000 0.476746
O O16 0.822981 0.500000 0.435078
O O17 0.000000 0.755650 0.500000
O O18 0.500000 0.245922 0.500000
O O19 0.618919 0.500000 0.629577
#
# Coordination Sequence:
#
# PCOD8061613 Si02
#       7
#     4   4   4   4   4   4   4
#     4   9  18  33  56  85 118 150 189 245 303 350
#     4  10  19  33  57  85 114 151 198 242 288 352
#     4  10  22  40  62  91 124 161 211 264 313 368
#     4   9  17  31  54  87 118 148 189 242 298 352
#     4  11  22  37  63  92 119 154 203 255 302 355
#     4  11  23  38  55  81 122 164 199 242 299 359
#     4  11  25  44  65  92 126 166 210 258 319 384
#
# _framework density 21.140682999999999
#
# number of rings (size 3 to 8) (size 9 to 14) (size 15 to 20)
#    0.000    1.857    1.429    2.571    2.000    4.857 
#    0.000    0.714    0.000    3.429    0.000    0.000 
#    0.000    0.000    0.000    0.000    0.000    0.000 
#
# Total GULP energy -346914.116842 kJ/mol
# GULP energy per Si atom -12389.789887 kJ/mol
# Density = 2.109257 g / cm^3
# Si number density = 21.140683 Si / 1000 Ang^3
#
#
#
# Elastic Constant Matrix: (Units=GPa)
#
#
# Indices 1 2 3 4 5 6 
#
# 1 169.4202 6.9352 69.6098 0.0000 -0.7558 0.0000
# 2 6.9352 24.9620 13.9966 0.0000 -0.0709 0.0000
# 3 69.6098 13.9966 107.5588 0.0000 -15.9158 0.0000
# 4 0.0000 0.0000 0.0000 19.6559 0.0000 -2.8998
# 5 -0.7558 -0.0709 -15.9158 0.0000 37.9166 0.0000
# 6 0.0000 0.0000 0.0000 -2.8998 0.0000 11.3654
#
#
#
# Elastic Compliance Matrix: (Units=1/GPa)
#
#
# Indices 1 2 3 4 5 6 
#
# 1 0.008230 0.000951 -0.005785 0.000000 -0.002262 0.000000
# 2 0.000951 0.043535 -0.006681 0.000000 -0.002704 0.000000
# 3 -0.005785 -0.006681 0.014812 0.000000 0.006089 0.000000
# 4 0.000000 0.000000 0.000000 0.052865 0.000000 0.013488
# 5 -0.002262 -0.002704 0.006089 0.000000 0.028880 0.000000
# 6 0.000000 0.000000 0.000000 0.013488 0.000000 0.091428
#
#
# Mechanical properties :
#
#
# Convention : Reuss Voigt Hill
#
# Bulk Modulus (GPa) = 22.96361 53.66936 38.31648
# Shear Modulus (GPa) = 18.03136 27.88090 22.95613
#
# Velocity S-wave (km/s) = 2.92365 3.63550 3.29884
# Velocity P-wave (km/s) = 4.72047 6.56235 5.71608
#
# Compressibility (1/GPa) = 0.04354716
#
# Stress axis : x y z
#
# Youngs Moduli (GPa) = 121.50125 22.97004 67.51464
#
# Poissons Ratio (x) = -0.02184 0.39057
# Poissons Ratio (y) = -0.11551 0.45104
# Poissons Ratio (z) = 0.70289 0.15345
#
# Static dielectric constant tensor:
#      x y z
#    x 3.900370 0.000000 -0.396690 
#    y 0.000000 3.324530 0.000000 
#    z -0.396690 0.000000 3.799980 
# 
# 
# High freq. dielectric constant tensor:
#      x y z
#    x 1.848130 0.000000 -0.004530 
#    y 0.000000 1.786160 0.000000 
#    z -0.004530 0.000000 1.834690 
# 
# From -- ./inp_files/85003.got.cif
#   From: 2010.06.25/outbox.cif.g09.slc.cpg/sg10_43_cif.got.tgz:85003.got - 2010.06.27 22:07:45.
