data_PCOD8061766
_publ_section_title
;
Structure prediction by ZEFSAII (Michael W. Deem and Ramdas Pophale) SiO2 
 PCOD8061766
Probable space group: P 2/M
;
_chemical_formula_sum "Si O2"
_cell_formula_units_Z 24
_cell_length_a 11.254985
_cell_length_b 8.864099
_cell_length_c 23.788537
_cell_angle_alpha 90.000000
_cell_angle_beta 144.912511
_cell_angle_gamma 90.000000
_cell_volume 1364.219021
_symmetry_space_group_name_H-M "P 2/M"
_symmetry_group_IT_number 10
_symmetry_cell_setting 'monoclinic'
loop_
_space_group_symop_operation_xyz
x,y,z
-x,y,-z
-x,-y,-z
x,-y,z
loop_
_atom_site_type_symbol
_atom_site_label
_atom_site_fract_x
_atom_site_fract_y
_atom_site_fract_z
Si Si1 0.752000 0.821162 0.954282
Si Si2 0.631803 0.323484 0.674077
Si Si3 0.430205 0.675606 0.909992
Si Si4 0.960518 0.322772 0.710624
Si Si5 0.328221 0.829378 0.481231
Si Si6 0.184811 0.678836 0.137032
O O1 0.559704 0.779198 0.918397
O O2 0.709372 0.757382 0.875434
O O3 0.782451 0.000000 0.963527
O O4 0.956202 0.743871 0.058707
O O5 0.603301 0.500000 0.654942
O O6 0.823713 0.265896 0.710397
O O7 0.417205 0.246334 0.572266
O O8 0.675572 0.280436 0.755333
O O9 0.461864 0.500000 0.906974
O O10 0.194058 0.727536 0.812183
O O11 0.500000 0.709162 0.000000
O O12 0.942866 0.500000 0.697060
O O13 0.879989 0.250675 0.621178
O O14 0.500000 0.812975 0.500000
O O15 0.272318 0.000000 0.473813
O O16 0.167916 0.500000 0.121185
#
# Coordination Sequence:
#
# PCOD8061766 Si02
#       6
#     4   4   4   4   4   4
#     4  11  22  34  49  73 104 133 162 200 249 297
#     4   9  17  30  51  76  97 123 163 206 244 283
#     4  10  20  35  54  74  98 131 170 205 240 288
#     4   9  17  30  49  72  99 129 162 202 242 284
#     4   9  17  28  44  69 101 132 159 193 241 294
#     4  10  19  34  55  74  96 129 169 208 243 286
#
# _framework density 17.592483000000001
#
# number of rings (size 3 to 8) (size 9 to 14) (size 15 to 20)
#    0.000    2.333    0.000    4.500    0.000    7.000 
#    0.000    3.333    0.000    1.000    0.000    7.000 
#    0.000    0.000    0.000    0.000    0.000    0.000 
#
# Total GULP energy -297619.375183 kJ/mol
# GULP energy per Si atom -12400.807299 kJ/mol
# Density = 1.755244 g / cm^3
# Si number density = 17.592483 Si / 1000 Ang^3
#
#
#
# Elastic Constant Matrix: (Units=GPa)
#
#
# Indices 1 2 3 4 5 6 
#
# 1 71.5357 33.3424 53.3003 0.0000 -6.9555 0.0000
# 2 33.3424 66.3937 48.9631 0.0000 -7.3582 0.0000
# 3 53.3003 48.9631 154.2244 0.0000 -19.4605 0.0000
# 4 0.0000 0.0000 0.0000 12.0097 0.0000 3.0027
# 5 -6.9555 -7.3582 -19.4605 0.0000 25.8949 0.0000
# 6 0.0000 0.0000 0.0000 3.0027 0.0000 19.2312
#
#
#
# Elastic Compliance Matrix: (Units=1/GPa)
#
#
# Indices 1 2 3 4 5 6 
#
# 1 0.020916 -0.006757 -0.005100 0.000000 -0.000135 0.000000
# 2 -0.006757 0.021872 -0.004478 0.000000 0.001035 0.000000
# 3 -0.005100 -0.004478 0.010313 0.000000 0.005108 0.000000
# 4 0.000000 0.000000 0.000000 0.086648 0.000000 -0.013529
# 5 -0.000135 0.001035 0.005108 0.000000 0.042714 0.000000
# 6 0.000000 0.000000 0.000000 -0.013529 0.000000 0.054111
#
#
# Mechanical properties :
#
#
# Convention : Reuss Voigt Hill
#
# Bulk Modulus (GPa) = 48.94882 62.59615 55.77249
# Shear Modulus (GPa) = 18.11231 21.86371 19.98801
#
# Velocity S-wave (km/s) = 3.21214 3.52914 3.37437
# Velocity P-wave (km/s) = 6.45300 7.22945 6.85223
#
# Compressibility (1/GPa) = 0.02042950
#
# Stress axis : x y z
#
# Youngs Moduli (GPa) = 47.81135 45.71996 96.96574
#
# Poissons Ratio (x) = 0.30895 0.49454
# Poissons Ratio (y) = 0.32308 0.43422
# Poissons Ratio (z) = 0.24385 0.20474
#
# Static dielectric constant tensor:
#      x y z
#    x 3.065650 0.000000 -0.132440 
#    y 0.000000 3.232620 0.000000 
#    z -0.132440 0.000000 3.387080 
# 
# 
# High freq. dielectric constant tensor:
#      x y z
#    x 1.651020 0.000000 -0.015890 
#    y 0.000000 1.682170 0.000000 
#    z -0.015890 0.000000 1.686150 
# 
# From -- ./inp_files/52860.got.cif
#   From: 2010.06.25/outbox.cif.g09.slc.cpg/sg10_27_cif.got.tgz:52860.got - 2010.06.27 22:07:45.
