data_PCOD8061242
_publ_section_title
;
Structure prediction by ZEFSAII (Michael W. Deem and Ramdas Pophale) SiO2 
 PCOD8061242
Probable space group: P 2/M
;
_chemical_formula_sum "Si O2"
_cell_formula_units_Z 32
_cell_length_a 33.490344
_cell_length_b 9.187048
_cell_length_c 13.669071
_cell_angle_alpha 90.000000
_cell_angle_beta 155.454177
_cell_angle_gamma 90.000000
_cell_volume 1747.120648
_symmetry_space_group_name_H-M "P 2/M"
_symmetry_group_IT_number 10
_symmetry_cell_setting 'monoclinic'
loop_
_space_group_symop_operation_xyz
x,y,z
-x,y,-z
-x,-y,-z
x,-y,z
loop_
_atom_site_type_symbol
_atom_site_label
_atom_site_fract_x
_atom_site_fract_y
_atom_site_fract_z
Si Si1 0.714362 0.834054 0.048738
Si Si2 0.638557 0.667806 0.697795
Si Si3 0.550073 0.170537 0.212061
Si Si4 0.728283 0.330586 0.689806
Si Si5 0.113933 0.336872 0.250943
Si Si6 0.533623 0.167065 0.769339
Si Si7 0.889813 0.167101 0.569401
Si Si8 0.889568 0.171180 0.949199
O O1 0.822660 0.804880 0.326291
O O2 0.701476 0.000000 0.985050
O O3 0.696293 0.730532 0.917611
O O4 0.642407 0.800698 0.978765
O O5 0.618817 0.500000 0.673111
O O6 0.702438 0.695100 0.744703
O O7 0.535357 0.742457 0.455739
O O8 0.648276 0.260018 0.441134
O O9 0.479483 0.209470 0.145680
O O10 0.575409 0.000000 0.266147
O O11 0.500000 0.220112 0.000000
O O12 0.737754 0.500000 0.684756
O O13 0.829606 0.249408 0.900779
O O14 0.156143 0.500000 0.334597
O O15 0.150916 0.265278 0.433463
O O16 0.147902 0.237855 0.236536
O O17 0.000000 0.340506 0.000000
O O18 0.505174 0.000000 0.690533
O O19 0.998647 0.207663 0.782655
O O20 0.884759 0.000000 0.593410
O O21 0.869433 0.000000 0.904177
#
# Coordination Sequence:
#
# PCOD8061242 Si02
#       8
#     4   4   4   4   4   4   4   4
#     4  10  20  34  53  76 103 134 168 211 260 306
#     4  10  21  36  53  74 100 130 168 214 260 309
#     4   9  18  33  53  79 109 138 169 205 248 303
#     4  10  21  36  53  74 101 135 175 216 259 308
#     4   9  17  30  49  73 102 135 168 204 248 298
#     4   9  18  33  53  76 102 133 167 203 248 304
#     4   9  19  34  51  76 107 136 171 214 255 299
#     4  10  19  33  54  76 101 137 177 214 253 301
#
# _framework density 18.315850999999999
#
# number of rings (size 3 to 8) (size 9 to 14) (size 15 to 20)
#    0.000    2.500    0.000    1.875    0.000    7.250 
#    0.000    3.125    0.000    3.750    0.000    0.000 
#    0.000    0.000    0.000    0.000    0.000    0.000 
#
# Total GULP energy -396854.248344 kJ/mol
# GULP energy per Si atom -12401.695261 kJ/mol
# Density = 1.827416 g / cm^3
# Si number density = 18.315851 Si / 1000 Ang^3
#
#
#
# Elastic Constant Matrix: (Units=GPa)
#
#
# Indices 1 2 3 4 5 6 
#
# 1 78.9993 48.3585 54.2438 0.0000 -0.3255 0.0000
# 2 48.3585 96.3779 52.2905 0.0000 -0.0916 0.0000
# 3 54.2438 52.2905 103.4966 0.0000 -7.1346 0.0000
# 4 0.0000 0.0000 0.0000 18.0800 0.0000 -1.8040
# 5 -0.3255 -0.0916 -7.1346 0.0000 28.3015 0.0000
# 6 0.0000 0.0000 0.0000 -1.8040 0.0000 32.2896
#
#
#
# Elastic Compliance Matrix: (Units=1/GPa)
#
#
# Indices 1 2 3 4 5 6 
#
# 1 0.022680 -0.006695 -0.008638 0.000000 -0.001938 0.000000
# 2 -0.006695 0.016362 -0.004843 0.000000 -0.001245 0.000000
# 3 -0.008638 -0.004843 0.016923 0.000000 0.004151 0.000000
# 4 0.000000 0.000000 0.000000 0.055620 0.000000 0.003108
# 5 -0.001938 -0.001245 0.004151 0.000000 0.036354 0.000000
# 6 0.000000 0.000000 0.000000 0.003108 0.000000 0.031143
#
#
# Mechanical properties :
#
#
# Convention : Reuss Voigt Hill
#
# Bulk Modulus (GPa) = 64.05538 65.40658 64.73098
# Shear Modulus (GPa) = 22.25809 23.99961 23.12885
#
# Velocity S-wave (km/s) = 3.48981 3.62376 3.55741
# Velocity P-wave (km/s) = 7.16149 7.30046 7.23131
#
# Compressibility (1/GPa) = 0.01561149
#
# Stress axis : x y z
#
# Youngs Moduli (GPa) = 44.09248 61.11788 59.09291
#
# Poissons Ratio (x) = 0.40919 0.51042
# Poissons Ratio (y) = 0.29520 0.28621
# Poissons Ratio (z) = 0.38085 0.29602
#
# Static dielectric constant tensor:
#      x y z
#    x 3.391120 0.000000 0.022480 
#    y 0.000000 3.480720 0.000000 
#    z 0.022480 0.000000 3.220430 
# 
# 
# High freq. dielectric constant tensor:
#      x y z
#    x 1.707990 0.000000 0.000600 
#    y 0.000000 1.715780 0.000000 
#    z 0.000600 0.000000 1.694580 
# 
# From -- ./inp_files/58292.got.cif
#   From: 2010.06.25/outbox.cif.g09.slc.cpg/sg10_30_cif.got.tgz:58292.got - 2010.06.27 22:07:45.
