data_PCOD8061037
_publ_section_title
;
Structure prediction by ZEFSAII (Michael W. Deem and Ramdas Pophale) SiO2 
 PCOD8061037
Probable space group: P 2/M
;
_chemical_formula_sum "Si O2"
_cell_formula_units_Z 24
_cell_length_a 22.504079
_cell_length_b 15.435013
_cell_length_c 24.783538
_cell_angle_alpha 90.000000
_cell_angle_beta 168.666553
_cell_angle_gamma 90.000000
_cell_volume 1691.745810
_symmetry_space_group_name_H-M "P 2/M"
_symmetry_group_IT_number 10
_symmetry_cell_setting 'monoclinic'
loop_
_space_group_symop_operation_xyz
x,y,z
-x,y,-z
-x,-y,-z
x,-y,z
loop_
_atom_site_type_symbol
_atom_site_label
_atom_site_fract_x
_atom_site_fract_y
_atom_site_fract_z
Si Si1 0.820580 0.103454 0.892352
Si Si2 0.140217 0.688562 0.684130
Si Si3 0.146038 0.500000 0.687623
Si Si4 0.855440 0.000000 0.313264
Si Si5 0.093200 0.155868 0.455922
Si Si6 0.857823 0.897346 0.714690
Si Si7 0.777814 0.896546 0.066692
O O1 0.480767 0.140389 0.588706
O O2 0.818934 0.000000 0.891366
O O3 0.000000 0.138201 0.000000
O O4 0.979583 0.140388 0.087518
O O5 0.055620 0.592661 0.633371
O O6 0.000000 0.703835 0.500000
O O7 0.990509 0.751484 0.594304
O O8 0.500000 0.703836 0.000000
O O9 0.000000 0.500000 0.500000
O O10 0.500000 0.500000 0.000000
O O11 0.000000 0.000000 0.500000
O O12 0.957788 0.914788 0.374671
O O13 0.500000 0.000000 0.000000
O O14 0.951195 0.145626 0.270789
O O15 0.450854 0.145625 0.770452
O O16 0.039574 0.868974 0.823745
O O17 0.844905 0.000000 0.706938
O O18 0.753366 0.000000 0.052024
#
# Coordination Sequence:
#
# PCOD8061037 Si02
#       7
#     4   4   2   2   4   4   4
#     4   9  15  24  37  56  74  92 123 169 213 239
#     4  10  19  33  48  66  82 100 128 166 217 260
#     4   8  16  30  50  66  82  98 118 158 209 264
#     4  12  22  32  42  56  76 102 129 168 211 240
#     4  12  21  32  45  59  80 107 138 174 203 249
#     4   9  17  26  39  52  71 101 131 165 202 234
#     4  11  20  33  42  56  79 111 146 172 198 234
#
# _framework density 14.186529
#
# number of rings (size 3 to 8) (size 9 to 14) (size 15 to 20)
#    0.000    1.833    1.667    4.500    0.000    4.667 
#    0.000    0.000    0.000    0.000    0.000    0.000 
#    0.000    0.000    0.000    0.000    0.000    0.000 
#
# Total GULP energy -297495.326517 kJ/mol
# GULP energy per Si atom -12395.638605 kJ/mol
# Density = 1.415424 g / cm^3
# Si number density = 14.186529 Si / 1000 Ang^3
#
#
#
# Elastic Constant Matrix: (Units=GPa)
#
#
# Indices 1 2 3 4 5 6 
#
# 1 130.2794 41.5692 73.5340 0.0000 -7.3109 0.0000
# 2 41.5692 77.5144 31.0542 0.0000 5.9003 0.0000
# 3 73.5340 31.0542 151.8464 0.0000 -4.7847 0.0000
# 4 0.0000 0.0000 0.0000 13.6502 0.0000 -1.7582
# 5 -7.3109 5.9003 -4.7847 0.0000 33.4722 0.0000
# 6 0.0000 0.0000 0.0000 -1.7582 0.0000 10.5175
#
#
#
# Elastic Compliance Matrix: (Units=1/GPa)
#
#
# Indices 1 2 3 4 5 6 
#
# 1 0.012044 -0.004760 -0.004771 0.000000 0.002788 0.000000
# 2 -0.004760 0.016219 -0.001140 0.000000 -0.004062 0.000000
# 3 -0.004771 -0.001140 0.009144 0.000000 0.000466 0.000000
# 4 0.000000 0.000000 0.000000 0.074871 0.000000 0.012516
# 5 0.002788 -0.004062 0.000466 0.000000 0.031267 0.000000
# 6 0.000000 0.000000 0.000000 0.012516 0.000000 0.097172
#
#
# Mechanical properties :
#
#
# Convention : Reuss Voigt Hill
#
# Bulk Modulus (GPa) = 62.24589 72.43943 67.34266
# Shear Modulus (GPa) = 18.69758 25.76016 22.22887
#
# Velocity S-wave (km/s) = 3.63434 4.26586 3.96270
# Velocity P-wave (km/s) = 7.84750 8.68542 8.27707
#
# Compressibility (1/GPa) = 0.01606532
#
# Stress axis : x y z
#
# Youngs Moduli (GPa) = 83.02894 61.65529 109.36135
#
# Poissons Ratio (x) = 0.29346 0.52179
# Poissons Ratio (y) = 0.39519 0.12468
# Poissons Ratio (z) = 0.39615 0.07029
#
# Static dielectric constant tensor:
#      x y z
#    x 2.859310 0.000000 -0.103060 
#    y 0.000000 2.693530 0.000000 
#    z -0.103060 0.000000 3.042960 
# 
# 
# High freq. dielectric constant tensor:
#      x y z
#    x 1.541290 0.000000 -0.014360 
#    y 0.000000 1.488900 0.000000 
#    z -0.014360 0.000000 1.566870 
# 
# From -- ./inp_files/13350.got.cif
#   From: 2010.06.25/outbox.cif.g09.slc.cpg/sg10_7_cif.got.tgz:13350.got - 2010.06.27 22:07:45.
