data_PCOD8062534
_publ_section_title
;
Structure prediction by ZEFSAII (Michael W. Deem and Ramdas Pophale) SiO2 
 PCOD8062534
Probable space group: P 2/M
;
_chemical_formula_sum "Si O2"
_cell_formula_units_Z 28
_cell_length_a 31.877022
_cell_length_b 9.243925
_cell_length_c 5.044158
_cell_angle_alpha 90.000000
_cell_angle_beta 66.918361
_cell_angle_gamma 90.000000
_cell_volume 1367.368997
_symmetry_space_group_name_H-M "P 2/M"
_symmetry_group_IT_number 10
_symmetry_cell_setting 'monoclinic'
loop_
_space_group_symop_operation_xyz
x,y,z
-x,y,-z
-x,-y,-z
x,-y,z
loop_
_atom_site_type_symbol
_atom_site_label
_atom_site_fract_x
_atom_site_fract_y
_atom_site_fract_z
Si Si1 0.052859 0.331777 0.304374
Si Si2 0.242095 0.332843 0.853714
Si Si3 0.656782 0.326858 0.314164
Si Si4 0.466957 0.000000 0.831713
Si Si5 0.184957 0.669472 0.483385
Si Si6 0.907786 0.175482 0.286981
Si Si7 0.601884 0.746224 0.954147
Si Si8 0.468465 0.500000 0.827566
O O1 0.070017 0.500000 0.245079
O O2 0.080448 0.242434 0.456284
O O3 0.000000 0.329589 0.500000
O O4 0.058889 0.247429 0.012347
O O5 0.247041 0.500000 0.912275
O O6 0.292451 0.265457 0.755232
O O7 0.223624 0.305739 0.606873
O O8 0.206179 0.271228 0.156657
O O9 0.654070 0.500000 0.343106
O O10 0.622446 0.256596 0.609444
O O11 0.643495 0.270556 0.056863
O O12 0.500000 0.000000 0.500000
O O13 0.500000 0.000000 0.000000
O O14 0.429768 0.121254 0.919121
O O15 0.169774 0.500000 0.510190
O O16 0.142923 0.772760 0.660549
O O17 0.911885 0.000000 0.278124
O O18 0.564883 0.629605 0.099922
O O19 0.500000 0.500000 0.500000
O O20 0.500000 0.500000 0.000000
#
# Coordination Sequence:
#
# PCOD8062534 Si02
#       8
#     4   4   4   2   4   4   4   2
#     4  11  24  43  66  94 127 172 226 274 319 383
#     4   9  19  33  60  89 118 151 198 252 299 358
#     4  11  20  38  62  95 121 148 192 250 303 351
#     4  12  26  46  62  82 118 160 200 238 284 352
#     4  10  19  36  59  88 117 161 211 249 298 367
#     4  12  25  40  64  94 135 173 211 272 333 385
#     4  12  23  39  63  86 119 156 193 242 293 354
#     4  12  22  36  56  88 114 144 192 236 292 342
#
# _framework density 20.477281999999999
#
# number of rings (size 3 to 8) (size 9 to 14) (size 15 to 20)
#    0.000    1.000    1.429    6.429    0.000    6.286 
#    0.000    0.000    9.429    0.000    0.000    0.000 
#    0.000    0.000    0.000    0.000    0.000    0.000 
#
# Total GULP energy -347077.662241 kJ/mol
# GULP energy per Si atom -12395.630794 kJ/mol
# Density = 2.043067 g / cm^3
# Si number density = 20.477282 Si / 1000 Ang^3
#
#
#
# Elastic Constant Matrix: (Units=GPa)
#
#
# Indices 1 2 3 4 5 6 
#
# 1 95.3144 31.5222 5.9223 0.0000 0.1286 0.0000
# 2 31.5222 129.0657 25.1585 0.0000 -6.5933 0.0000
# 3 5.9223 25.1585 100.2930 0.0000 0.5546 0.0000
# 4 0.0000 0.0000 0.0000 27.3970 0.0000 -0.5933
# 5 0.1286 -6.5933 0.5546 0.0000 42.2673 0.0000
# 6 0.0000 0.0000 0.0000 -0.5933 0.0000 20.0192
#
#
#
# Elastic Compliance Matrix: (Units=1/GPa)
#
#
# Indices 1 2 3 4 5 6 
#
# 1 0.011423 -0.002821 0.000036 0.000000 -0.000475 0.000000
# 2 -0.002821 0.008915 -0.002078 0.000000 0.001426 0.000000
# 3 0.000036 -0.002078 0.010492 0.000000 -0.000462 0.000000
# 4 0.000000 0.000000 0.000000 0.036524 0.000000 0.001082
# 5 -0.000475 0.001426 -0.000462 0.000000 0.023889 0.000000
# 6 0.000000 0.000000 0.000000 0.001082 0.000000 0.049984
#
#
# Mechanical properties :
#
#
# Convention : Reuss Voigt Hill
#
# Bulk Modulus (GPa) = 47.38355 49.98656 48.68505
# Shear Modulus (GPa) = 31.64799 35.40803 33.52801
#
# Velocity S-wave (km/s) = 3.93557 4.16280 4.05078
# Velocity P-wave (km/s) = 6.62129 6.89702 6.76056
#
# Compressibility (1/GPa) = 0.02110437
#
# Stress axis : x y z
#
# Youngs Moduli (GPa) = 87.54257 112.17227 95.30714
#
# Poissons Ratio (x) = 0.31645 -0.00341
# Poissons Ratio (y) = 0.24697 0.19801
# Poissons Ratio (z) = -0.00313 0.23305
#
# Static dielectric constant tensor:
#      x y z
#    x 3.916800 0.000000 -0.035860 
#    y 0.000000 3.634330 0.000000 
#    z -0.035860 0.000000 3.941080 
# 
# 
# High freq. dielectric constant tensor:
#      x y z
#    x 1.819170 0.000000 -0.002330 
#    y 0.000000 1.779160 0.000000 
#    z -0.002330 0.000000 1.819640 
# 
# From -- ./inp_files/13606.got.cif
#   From: 2010.06.25/outbox.cif.g09.slc.cpg/sg10_7_cif.got.tgz:13606.got - 2010.06.27 22:07:45.
