data_PCOD8062266
_publ_section_title
;
Structure prediction by ZEFSAII (Michael W. Deem and Ramdas Pophale) SiO2 
 PCOD8062266
Probable space group: P 2/M
;
_chemical_formula_sum "Si O2"
_cell_formula_units_Z 28
_cell_length_a 14.534428
_cell_length_b 19.048710
_cell_length_c 10.107166
_cell_angle_alpha 90.000000
_cell_angle_beta 29.255245
_cell_angle_gamma 90.000000
_cell_volume 1367.528037
_symmetry_space_group_name_H-M "P 2/M"
_symmetry_group_IT_number 10
_symmetry_cell_setting 'monoclinic'
loop_
_space_group_symop_operation_xyz
x,y,z
-x,y,-z
-x,-y,-z
x,-y,z
loop_
_atom_site_type_symbol
_atom_site_label
_atom_site_fract_x
_atom_site_fract_y
_atom_site_fract_z
Si Si1 0.904658 0.921598 0.255810
Si Si2 0.155310 0.923491 0.193158
Si Si3 0.720485 0.211241 0.579302
Si Si4 0.497959 0.582229 0.350828
Si Si5 0.293121 0.218796 0.103022
Si Si6 0.116561 0.642655 0.226619
Si Si7 0.870938 0.345568 0.285087
O O1 0.738390 0.867943 0.502567
O O2 0.067546 0.918436 0.159129
O O3 0.816922 0.000000 0.357056
O O4 0.000000 0.898775 0.000000
O O5 0.294596 0.858123 0.034283
O O6 0.000000 0.916356 0.500000
O O7 0.257257 0.000000 0.080415
O O8 0.791121 0.215361 0.642774
O O9 0.846693 0.261842 0.330582
O O10 0.509861 0.240477 0.834755
O O11 0.500000 0.610954 0.500000
O O12 0.459973 0.500000 0.398579
O O13 0.330360 0.617626 0.478300
O O14 0.693662 0.598176 0.031341
O O15 0.174278 0.275096 0.168163
O O16 0.000000 0.616448 0.500000
O O17 0.977794 0.626624 0.279900
O O18 0.000000 0.363757 0.000000
#
# Coordination Sequence:
#
# PCOD8062266 Si02
#       7
#     4   4   4   4   4   4   4
#     4  10  21  38  57  84 123 166 216 275 335 393
#     4  10  19  35  57  83 118 162 218 269 322 390
#     4  11  22  37  61  93 128 169 221 279 327 392
#     4  11  26  49  73 105 142 173 223 279 327 402
#     4  11  22  37  61  92 131 168 218 281 331 382
#     4  12  24  43  72  99 141 182 218 276 338 395
#     4  12  24  42  71 102 132 177 227 268 333 401
#
# _framework density 20.474900000000002
#
# number of rings (size 3 to 8) (size 9 to 14) (size 15 to 20)
#    0.000    1.000    5.714    1.714    0.000    2.286 
#    0.000    4.286    0.000    2.571    0.000    0.000 
#    0.000    0.000    0.000    0.000    0.000    0.000 
#
# Total GULP energy -347180.400239 kJ/mol
# GULP energy per Si atom -12399.300009 kJ/mol
# Density = 2.042830 g / cm^3
# Si number density = 20.474900 Si / 1000 Ang^3
#
#
#
# Elastic Constant Matrix: (Units=GPa)
#
#
# Indices 1 2 3 4 5 6 
#
# 1 133.7524 34.1438 48.9353 0.0000 7.8557 0.0000
# 2 34.1438 82.7669 24.6877 0.0000 -1.5553 0.0000
# 3 48.9353 24.6877 107.0831 0.0000 10.0291 0.0000
# 4 0.0000 0.0000 0.0000 28.6125 0.0000 -4.2752
# 5 7.8557 -1.5553 10.0291 0.0000 34.7503 0.0000
# 6 0.0000 0.0000 0.0000 -4.2752 0.0000 23.1371
#
#
#
# Elastic Compliance Matrix: (Units=1/GPa)
#
#
# Indices 1 2 3 4 5 6 
#
# 1 0.009613 -0.002915 -0.003603 0.000000 -0.001264 0.000000
# 2 -0.002915 0.013933 -0.002056 0.000000 0.001876 0.000000
# 3 -0.003603 -0.002056 0.011708 0.000000 -0.002656 0.000000
# 4 0.000000 0.000000 0.000000 0.035942 0.000000 0.006641
# 5 -0.001264 0.001876 -0.002656 0.000000 0.029913 0.000000
# 6 0.000000 0.000000 0.000000 0.006641 0.000000 0.044448
#
#
# Mechanical properties :
#
#
# Convention : Reuss Voigt Hill
#
# Bulk Modulus (GPa) = 55.22708 59.90399 57.56554
# Shear Modulus (GPa) = 29.63166 31.68904 30.66035
#
# Velocity S-wave (km/s) = 3.80836 3.93835 3.87390
# Velocity P-wave (km/s) = 6.80953 7.07118 6.94159
#
# Compressibility (1/GPa) = 0.01810706
#
# Stress axis : x y z
#
# Youngs Moduli (GPa) = 104.02734 71.77183 85.41431
#
# Poissons Ratio (x) = 0.20920 0.30771
# Poissons Ratio (y) = 0.30322 0.17560
# Poissons Ratio (z) = 0.37477 0.14756
#
# Static dielectric constant tensor:
#      x y z
#    x 3.724020 0.000000 0.186390 
#    y 0.000000 3.763670 0.000000 
#    z 0.186390 0.000000 3.638310 
# 
# 
# High freq. dielectric constant tensor:
#      x y z
#    x 1.804050 0.000000 0.005680 
#    y 0.000000 1.801200 0.000000 
#    z 0.005680 0.000000 1.793400 
# 
# From -- ./inp_files/30383.got.cif
#   From: 2010.06.25/outbox.cif.g09.slc.cpg/sg10_16_cif.got.tgz:30383.got - 2010.06.27 22:07:45.
