data_PCOD8062204
_publ_section_title
;
Structure prediction by ZEFSAII (Michael W. Deem and Ramdas Pophale) SiO2 
 PCOD8062204
Probable space group: P 2/M
;
_chemical_formula_sum "Si O2"
_cell_formula_units_Z 28
_cell_length_a 12.924548
_cell_length_b 21.928855
_cell_length_c 5.156472
_cell_angle_alpha 90.000000
_cell_angle_beta 77.837035
_cell_angle_gamma 90.000000
_cell_volume 1428.643862
_symmetry_space_group_name_H-M "P 2/M"
_symmetry_group_IT_number 10
_symmetry_cell_setting 'monoclinic'
loop_
_space_group_symop_operation_xyz
x,y,z
-x,y,-z
-x,-y,-z
x,-y,z
loop_
_atom_site_type_symbol
_atom_site_label
_atom_site_fract_x
_atom_site_fract_y
_atom_site_fract_z
Si Si1 0.722464 0.429684 0.954511
Si Si2 0.570388 0.066128 0.213834
Si Si3 0.957274 0.753275 0.273217
Si Si4 0.051163 0.618310 0.223761
Si Si5 0.376182 0.188670 0.001838
Si Si6 0.291258 0.750389 0.544463
Si Si7 0.620204 0.619549 0.522436
O O1 0.755271 0.500000 0.940249
O O2 0.823111 0.388219 0.831956
O O3 0.633343 0.418663 0.781481
O O4 0.685551 0.411310 0.258835
O O5 0.500000 0.085572 0.500000
O O6 0.626345 0.000000 0.241046
O O7 0.500000 0.057193 0.000000
O O8 0.651259 0.120975 0.099411
O O9 0.832639 0.744164 0.338002
O O10 0.000000 0.790419 0.500000
O O11 0.021733 0.689551 0.239124
O O12 0.000000 0.790052 0.000000
O O13 0.000000 0.585589 0.500000
O O14 0.000000 0.585850 0.000000
O O15 0.311986 0.201231 0.301322
O O16 0.500000 0.194684 0.000000
O O17 0.346609 0.234690 0.788399
O O18 0.339002 0.686630 0.429363
O O19 0.500000 0.620818 0.500000
#
# Coordination Sequence:
#
# PCOD8062204 Si02
#       7
#     4   4   4   4   4   4   4
#     4  12  26  43  63  85 107 138 185 234 286 353
#     4   9  17  31  52  79 117 165 204 233 270 312
#     4  10  19  35  56  77 105 138 174 227 288 339
#     4  10  20  37  59  82 106 132 167 218 285 343
#     4  11  21  35  54  85 124 158 193 230 267 320
#     4  12  23  37  58  84 114 149 190 230 282 343
#     4  12  25  42  61  82 112 150 186 225 278 338
#
# _framework density 19.599005999999999
#
# number of rings (size 3 to 8) (size 9 to 14) (size 15 to 20)
#    0.000    1.143    0.000    9.857    0.000    2.286 
#    0.000    0.000    0.000    0.000    0.000    0.000 
#    0.000   11.429    0.000    0.000    0.000    0.000 
#
# Total GULP energy -347037.968091 kJ/mol
# GULP energy per Si atom -12394.213146 kJ/mol
# Density = 1.955440 g / cm^3
# Si number density = 19.599006 Si / 1000 Ang^3
#
#
#
# Elastic Constant Matrix: (Units=GPa)
#
#
# Indices 1 2 3 4 5 6 
#
# 1 77.6535 16.2625 28.9625 0.0000 1.6448 0.0000
# 2 16.2625 63.4847 27.8533 0.0000 -2.8275 0.0000
# 3 28.9625 27.8533 140.7676 0.0000 16.0077 0.0000
# 4 0.0000 0.0000 0.0000 6.4946 0.0000 -15.5926
# 5 1.6448 -2.8275 16.0077 0.0000 39.0510 0.0000
# 6 0.0000 0.0000 0.0000 -15.5926 0.0000 3.3128
#
#
#
# Elastic Compliance Matrix: (Units=1/GPa)
#
#
# Indices 1 2 3 4 5 6 
#
# 1 0.014332 -0.002581 -0.002463 0.000000 0.000219 0.000000
# 2 -0.002581 0.018006 -0.003348 0.000000 0.002785 0.000000
# 3 -0.002463 -0.003348 0.008694 0.000000 -0.003703 0.000000
# 4 0.000000 0.000000 0.000000 -0.014949 0.000000 -0.070359
# 5 0.000219 0.002785 -0.003703 0.000000 0.027318 0.000000
# 6 0.000000 0.000000 0.000000 -0.070359 0.000000 -0.029306
#
#
# Mechanical properties :
#
#
# Convention : Reuss Voigt Hill
#
# Bulk Modulus (GPa) = 41.24124 47.56250 44.40187
# Shear Modulus (GPa) = 102.11611 23.69352 62.90481
#
# Velocity S-wave (km/s) = 7.22605 3.48072 5.67147
# Velocity P-wave (km/s) = 9.52414 6.36195 8.09888
#
# Compressibility (1/GPa) = 0.02424757
#
# Stress axis : x y z
#
# Youngs Moduli (GPa) = 69.77275 55.53659 115.01818
#
# Poissons Ratio (x) = 0.14334 0.28329
# Poissons Ratio (y) = 0.18009 0.38514
# Poissons Ratio (z) = 0.17185 0.18596
#
# Static dielectric constant tensor:
#      x y z
#    x 2.307680 0.000000 -3.351020 
#    y 0.000000 3.756040 0.000000 
#    z -3.351020 0.000000 -6.584200 
# 
# 
# High freq. dielectric constant tensor:
#      x y z
#    x 1.748770 0.000000 0.018810 
#    y 0.000000 1.730840 0.000000 
#    z 0.018810 0.000000 1.799440 
# 
# From -- ./inp_files/7693.got.cif
#   From: 2010.06.25/outbox.cif.g09.slc.cpg/sg10_4_cif.got.tgz:7693.got - 2010.06.27 22:07:45.
