data_PCOD8062388
_publ_section_title
;
Structure prediction by ZEFSAII (Michael W. Deem and Ramdas Pophale) SiO2 
 PCOD8062388
Probable space group: P 2/M
;
_chemical_formula_sum "Si O2"
_cell_formula_units_Z 28
_cell_length_a 17.617604
_cell_length_b 8.752373
_cell_length_c 14.107465
_cell_angle_alpha 90.000000
_cell_angle_beta 136.462988
_cell_angle_gamma 90.000000
_cell_volume 1498.405262
_symmetry_space_group_name_H-M "P 2/M"
_symmetry_group_IT_number 10
_symmetry_cell_setting 'monoclinic'
loop_
_space_group_symop_operation_xyz
x,y,z
-x,y,-z
-x,-y,-z
x,-y,z
loop_
_atom_site_type_symbol
_atom_site_label
_atom_site_fract_x
_atom_site_fract_y
_atom_site_fract_z
Si Si1 0.366989 0.319312 0.639400
Si Si2 0.840426 0.679130 0.676799
Si Si3 0.203217 0.681854 0.149164
Si Si4 0.068915 0.820168 0.863288
Si Si5 0.618991 0.180624 0.143581
Si Si6 0.752025 0.323944 0.102328
Si Si7 0.402079 0.325313 0.211919
O O1 0.378357 0.500000 0.668974
O O2 0.262182 0.278790 0.481636
O O3 0.357030 0.232490 0.728705
O O4 0.475074 0.255098 0.681102
O O5 0.867241 0.500000 0.699226
O O6 0.812407 0.734166 0.757601
O O7 0.943542 0.772213 0.730307
O O8 0.199465 0.500000 0.133555
O O9 0.320950 0.748493 0.217563
O O10 0.105459 0.748302 0.996543
O O11 0.140597 0.760317 0.840416
O O12 0.080327 0.000000 0.879918
O O13 0.716707 0.250986 0.169372
O O14 0.624838 0.000000 0.141267
O O15 0.500000 0.240939 0.000000
O O16 0.782743 0.500000 0.145328
O O17 0.650687 0.303590 0.938993
O O18 0.414733 0.500000 0.252101
#
# Coordination Sequence:
#
# PCOD8062388 Si02
#       7
#     4   4   4   4   4   4   4
#     4  10  20  35  55  81 112 148 188 227 272 327
#     4  10  21  36  55  79 111 149 190 233 273 319
#     4   9  18  34  56  82 110 144 187 233 275 319
#     4  11  22  36  56  81 111 145 186 230 277 331
#     4  11  22  35  55  85 117 147 179 218 270 330
#     4  10  19  35  60  85 109 139 182 232 276 319
#     4   8  15  29  52  82 109 137 175 223 274 318
#
# _framework density 18.686534000000002
#
# number of rings (size 3 to 8) (size 9 to 14) (size 15 to 20)
#    0.000    2.143    1.429    3.429    0.000    4.000 
#    0.000    3.571    0.000    4.286    0.000    4.000 
#    0.000    0.000    0.000    0.000    0.000    0.000 
#
# Total GULP energy -347195.512646 kJ/mol
# GULP energy per Si atom -12399.839737 kJ/mol
# Density = 1.864400 g / cm^3
# Si number density = 18.686534 Si / 1000 Ang^3
#
#
#
# Elastic Constant Matrix: (Units=GPa)
#
#
# Indices 1 2 3 4 5 6 
#
# 1 125.8188 32.9723 57.0451 0.0000 16.7981 0.0000
# 2 32.9723 50.9546 26.4691 0.0000 10.1453 0.0000
# 3 57.0451 26.4691 88.6821 0.0000 18.7665 0.0000
# 4 0.0000 0.0000 0.0000 16.6192 0.0000 2.2741
# 5 16.7981 10.1453 18.7665 0.0000 22.5688 0.0000
# 6 0.0000 0.0000 0.0000 2.2741 0.0000 16.4974
#
#
#
# Elastic Compliance Matrix: (Units=1/GPa)
#
#
# Indices 1 2 3 4 5 6 
#
# 1 0.012091 -0.004264 -0.006075 0.000000 -0.002031 0.000000
# 2 -0.004264 0.025345 -0.003741 0.000000 -0.005109 0.000000
# 3 -0.006075 -0.003741 0.018188 0.000000 -0.008921 0.000000
# 4 0.000000 0.000000 0.000000 0.061328 0.000000 -0.008454
# 5 -0.002031 -0.005109 -0.008921 0.000000 0.055535 0.000000
# 6 0.000000 0.000000 0.000000 -0.008454 0.000000 0.061781
#
#
# Mechanical properties :
#
#
# Convention : Reuss Voigt Hill
#
# Bulk Modulus (GPa) = 36.41045 55.38094 45.89569
# Shear Modulus (GPa) = 18.41060 21.06834 19.73947
#
# Velocity S-wave (km/s) = 3.14225 3.36141 3.25368
# Velocity P-wave (km/s) = 5.71770 6.69078 6.22329
#
# Compressibility (1/GPa) = 0.02746464
#
# Stress axis : x y z
#
# Youngs Moduli (GPa) = 82.70717 39.45571 54.98017
#
# Poissons Ratio (x) = 0.16823 0.33401
# Poissons Ratio (y) = 0.35264 0.20568
# Poissons Ratio (z) = 0.50245 0.14760
#
# Static dielectric constant tensor:
#      x y z
#    x 3.700740 0.000000 0.161150 
#    y 0.000000 3.219380 0.000000 
#    z 0.161150 0.000000 3.280030 
# 
# 
# High freq. dielectric constant tensor:
#      x y z
#    x 1.743170 0.000000 0.009410 
#    y 0.000000 1.706250 0.000000 
#    z 0.009410 0.000000 1.706940 
# 
# From -- ./inp_files/68578.got.cif
#   From: 2010.06.25/outbox.cif.g09.slc.cpg/sg10_35_cif.got.tgz:68578.got - 2010.06.27 22:07:45.
