data_PCOD8062311
_publ_section_title
;
Structure prediction by ZEFSAII (Michael W. Deem and Ramdas Pophale) SiO2 
 PCOD8062311
Probable space group: P 2/M
;
_chemical_formula_sum "Si O2"
_cell_formula_units_Z 32
_cell_length_a 28.876119
_cell_length_b 9.239881
_cell_length_c 12.421152
_cell_angle_alpha 90.000000
_cell_angle_beta 30.101647
_cell_angle_gamma 90.000000
_cell_volume 1662.144773
_symmetry_space_group_name_H-M "P 2/M"
_symmetry_group_IT_number 10
_symmetry_cell_setting 'monoclinic'
loop_
_space_group_symop_operation_xyz
x,y,z
-x,y,-z
-x,-y,-z
x,-y,z
loop_
_atom_site_type_symbol
_atom_site_label
_atom_site_fract_x
_atom_site_fract_y
_atom_site_fract_z
Si Si1 0.803697 0.166796 0.273296
Si Si2 0.348790 0.835498 0.009630
Si Si3 0.200600 0.829162 0.477546
Si Si4 0.947454 0.338470 0.495190
Si Si5 0.721167 0.330353 0.240802
Si Si6 0.003323 0.832977 0.794677
Si Si7 0.215040 0.164807 0.090575
Si Si8 0.487260 0.331566 0.403803
O O1 0.770989 0.213984 0.458206
O O2 0.750306 0.267955 0.297236
O O3 0.778284 0.000000 0.299495
O O4 0.914668 0.187194 0.049112
O O5 0.443281 0.745855 0.818756
O O6 0.371593 0.000000 0.996605
O O7 0.276980 0.766784 0.240815
O O8 0.309671 0.829050 0.966852
O O9 0.097041 0.771972 0.661185
O O10 0.197262 0.000000 0.471185
O O11 0.917942 0.500000 0.518482
O O12 0.859143 0.235475 0.680850
O O13 0.000000 0.345536 0.500000
O O14 0.015847 0.265261 0.271503
O O15 0.743325 0.500000 0.191843
O O16 0.614153 0.297523 0.436032
O O17 0.780011 0.253776 0.029450
O O18 0.014361 0.000000 0.738299
O O19 0.187160 0.000000 0.119228
O O20 0.500000 0.272672 0.500000
O O21 0.510833 0.500000 0.353915
#
# Coordination Sequence:
#
# PCOD8062311 Si02
#       8
#     4   4   4   4   4   4   4   4
#     4  10  21  37  61  86 113 152 194 236 284 337
#     4  10  20  35  59  88 114 141 181 238 287 331
#     4   9  18  37  60  86 116 148 191 239 285 331
#     4  11  23  35  49  76 116 158 192 229 281 337
#     4  11  23  39  58  82 118 153 186 235 288 343
#     4  10  19  35  58  84 112 148 195 240 280 331
#     4  11  21  35  57  84 113 146 186 232 285 341
#     4  10  21  38  59  83 112 151 190 227 282 347
#
# _framework density 19.252234999999999
#
# number of rings (size 3 to 8) (size 9 to 14) (size 15 to 20)
#    0.000    1.750    2.500    2.250    0.000    6.750 
#    0.000    1.875    0.000    5.250    0.000    0.000 
#    0.000    0.000    0.000    0.000    0.000    0.000 
#
# Total GULP energy -396823.684371 kJ/mol
# GULP energy per Si atom -12400.740137 kJ/mol
# Density = 1.920842 g / cm^3
# Si number density = 19.252235 Si / 1000 Ang^3
#
#
#
# Elastic Constant Matrix: (Units=GPa)
#
#
# Indices 1 2 3 4 5 6 
#
# 1 83.3497 38.4384 41.2348 0.0000 13.6927 0.0000
# 2 38.4384 87.3461 43.3406 0.0000 1.0878 0.0000
# 3 41.2348 43.3406 103.5043 0.0000 7.5170 0.0000
# 4 0.0000 0.0000 0.0000 12.5178 0.0000 -12.0084
# 5 13.6927 1.0878 7.5170 0.0000 29.8631 0.0000
# 6 0.0000 0.0000 0.0000 -12.0084 0.0000 21.5822
#
#
#
# Elastic Compliance Matrix: (Units=1/GPa)
#
#
# Indices 1 2 3 4 5 6 
#
# 1 0.017839 -0.005664 -0.004234 0.000000 -0.006907 0.000000
# 2 -0.005664 0.016280 -0.004794 0.000000 0.003210 0.000000
# 3 -0.004234 -0.004794 0.013447 0.000000 -0.001269 0.000000
# 4 0.000000 0.000000 0.000000 0.171341 0.000000 0.095335
# 5 -0.006907 0.003210 -0.001269 0.000000 0.036856 0.000000
# 6 0.000000 0.000000 0.000000 0.095335 0.000000 0.099379
#
#
# Mechanical properties :
#
#
# Convention : Reuss Voigt Hill
#
# Bulk Modulus (GPa) = 54.99273 57.80307 56.39790
# Shear Modulus (GPa) = 12.80130 22.87173 17.83652
#
# Velocity S-wave (km/s) = 2.58141 3.45048 3.04709
# Velocity P-wave (km/s) = 6.12464 6.77965 6.46046
#
# Compressibility (1/GPa) = 0.01818422
#
# Stress axis : x y z
#
# Youngs Moduli (GPa) = 56.05796 61.42624 74.36347
#
# Poissons Ratio (x) = 0.34789 0.31482
# Poissons Ratio (y) = 0.31749 0.35648
# Poissons Ratio (z) = 0.23732 0.29446
#
# Static dielectric constant tensor:
#      x y z
#    x 3.377060 0.000000 0.039620 
#    y 0.000000 3.482520 0.000000 
#    z 0.039620 0.000000 3.609490 
# 
# 
# High freq. dielectric constant tensor:
#      x y z
#    x 1.738790 0.000000 0.002400 
#    y 0.000000 1.735660 0.000000 
#    z 0.002400 0.000000 1.750650 
# 
# From -- ./inp_files/49863.got.cif
#   From: 2010.06.25/outbox.cif.g09.slc.cpg/sg10_25_cif.got.tgz:49863.got - 2010.06.27 22:07:45.
