data_PCOD8062573
_publ_section_title
;
Structure prediction by ZEFSAII (Michael W. Deem and Ramdas Pophale) SiO2 
 PCOD8062573
Probable space group: P 2/M
;
_chemical_formula_sum "Si O2"
_cell_formula_units_Z 32
_cell_length_a 16.237473
_cell_length_b 8.914941
_cell_length_c 14.947203
_cell_angle_alpha 90.000000
_cell_angle_beta 47.472048
_cell_angle_gamma 90.000000
_cell_volume 1594.532927
_symmetry_space_group_name_H-M "P 2/M"
_symmetry_group_IT_number 10
_symmetry_cell_setting 'monoclinic'
loop_
_space_group_symop_operation_xyz
x,y,z
-x,y,-z
-x,-y,-z
x,-y,z
loop_
_atom_site_type_symbol
_atom_site_label
_atom_site_fract_x
_atom_site_fract_y
_atom_site_fract_z
Si Si1 0.965364 0.333426 0.423388
Si Si2 0.006516 0.174260 0.889759
Si Si3 0.766993 0.326284 0.309520
Si Si4 0.392811 0.327177 0.409216
Si Si5 0.229684 0.825205 0.002256
Si Si6 0.183868 0.825656 0.228613
Si Si7 0.622340 0.177666 0.264995
Si Si8 0.253291 0.823269 0.371515
O O1 0.940184 0.500000 0.403458
O O2 0.855852 0.231568 0.494734
O O3 0.000000 0.344327 0.500000
O O4 0.067526 0.258840 0.295649
O O5 0.105995 0.271227 0.773516
O O6 0.891956 0.240955 0.932686
O O7 0.025913 0.000000 0.851197
O O8 0.000000 0.198535 0.000000
O O9 0.762566 0.500000 0.283613
O O10 0.707331 0.302020 0.448040
O O11 0.706909 0.224656 0.280135
O O12 0.417453 0.500000 0.373313
O O13 0.503323 0.253249 0.368811
O O14 0.361413 0.251139 0.337473
O O15 0.259376 0.794313 0.085032
O O16 0.220915 0.000000 0.987729
O O17 0.327426 0.762115 0.866686
O O18 0.248024 0.771464 0.271009
O O19 0.153941 0.000000 0.260985
O O20 0.606649 0.000000 0.278424
O O21 0.263812 0.000000 0.372505
#
# Coordination Sequence:
#
# PCOD8062573 Si02
#       8
#     4   4   4   4   4   4   4   4
#     4   9  17  30  49  75 111 150 183 226 284 337
#     4  10  19  36  60  88 120 153 190 234 285 341
#     4  11  24  40  59  86 120 153 188 235 291 346
#     4  11  25  42  59  83 117 153 192 241 295 340
#     4   9  19  36  59  87 119 152 188 237 288 337
#     4   9  18  34  56  83 114 151 193 237 283 337
#     4  11  22  41  65  87 112 149 196 237 284 345
#     4  10  20  35  56  82 111 148 198 243 282 334
#
# _framework density 20.068572
#
# number of rings (size 3 to 8) (size 9 to 14) (size 15 to 20)
#    0.000    2.000    1.250    2.250    1.750    5.750 
#    0.000    1.875    0.000    3.750    0.000    0.000 
#    0.000    0.000    0.000    0.000    0.000    0.000 
#
# Total GULP energy -396801.812884 kJ/mol
# GULP energy per Si atom -12400.056653 kJ/mol
# Density = 2.002289 g / cm^3
# Si number density = 20.068572 Si / 1000 Ang^3
#
#
#
# Elastic Constant Matrix: (Units=GPa)
#
#
# Indices 1 2 3 4 5 6 
#
# 1 61.2309 25.9928 26.2063 0.0000 3.9127 0.0000
# 2 25.9928 84.2314 38.0721 0.0000 0.5645 0.0000
# 3 26.2063 38.0721 80.9008 0.0000 -1.2707 0.0000
# 4 0.0000 0.0000 0.0000 19.6792 0.0000 0.0498
# 5 3.9127 0.5645 -1.2707 0.0000 31.2535 0.0000
# 6 0.0000 0.0000 0.0000 0.0498 0.0000 19.5602
#
#
#
# Elastic Compliance Matrix: (Units=1/GPa)
#
#
# Indices 1 2 3 4 5 6 
#
# 1 0.020246 -0.004124 -0.004659 0.000000 -0.002650 0.000000
# 2 -0.004124 0.015929 -0.006161 0.000000 -0.000022 0.000000
# 3 -0.004659 -0.006161 0.016791 0.000000 0.001377 0.000000
# 4 0.000000 0.000000 0.000000 0.050815 0.000000 -0.000129
# 5 -0.002650 -0.000022 0.001377 0.000000 0.032385 0.000000
# 6 0.000000 0.000000 0.000000 -0.000129 0.000000 0.051125
#
#
# Mechanical properties :
#
#
# Convention : Reuss Voigt Hill
#
# Bulk Modulus (GPa) = 43.33082 45.21172 44.27127
# Shear Modulus (GPa) = 22.23495 23.17137 22.70316
#
# Velocity S-wave (km/s) = 3.33220 3.40164 3.36710
# Velocity P-wave (km/s) = 6.03680 6.16488 6.10118
#
# Compressibility (1/GPa) = 0.02307826
#
# Stress axis : x y z
#
# Youngs Moduli (GPa) = 49.39352 62.77663 59.55570
#
# Poissons Ratio (x) = 0.25888 0.27747
# Poissons Ratio (y) = 0.20369 0.36692
# Poissons Ratio (z) = 0.23013 0.38676
#
# Static dielectric constant tensor:
#      x y z
#    x 3.619680 0.000000 0.060890 
#    y 0.000000 3.593770 0.000000 
#    z 0.060890 0.000000 3.693610 
# 
# 
# High freq. dielectric constant tensor:
#      x y z
#    x 1.783370 0.000000 0.008850 
#    y 0.000000 1.773510 0.000000 
#    z 0.008850 0.000000 1.775710 
# 
# From -- ./inp_files/78645.got.cif
#   From: 2010.06.25/outbox.cif.g09.slc.cpg/sg10_40_cif.got.tgz:78645.got - 2010.06.27 22:07:45.
