data_PCOD8062205
_publ_section_title
;
Structure prediction by ZEFSAII (Michael W. Deem and Ramdas Pophale) SiO2 
 PCOD8062205
Probable space group: P 2/M
;
_chemical_formula_sum "Si O2"
_cell_formula_units_Z 28
_cell_length_a 8.345366
_cell_length_b 19.008963
_cell_length_c 14.101669
_cell_angle_alpha 90.000000
_cell_angle_beta 40.383138
_cell_angle_gamma 90.000000
_cell_volume 1449.370655
_symmetry_space_group_name_H-M "P 2/M"
_symmetry_group_IT_number 10
_symmetry_cell_setting 'monoclinic'
loop_
_space_group_symop_operation_xyz
x,y,z
-x,y,-z
-x,-y,-z
x,-y,z
loop_
_atom_site_type_symbol
_atom_site_label
_atom_site_fract_x
_atom_site_fract_y
_atom_site_fract_z
Si Si1 0.246187 0.343753 0.337816
Si Si2 0.254766 0.582906 0.936354
Si Si3 0.374047 0.790100 0.406384
Si Si4 0.777163 0.081279 0.846528
Si Si5 0.879102 0.204095 0.284630
Si Si6 0.270045 0.075704 0.344180
Si Si7 0.233033 0.324266 0.125858
O O1 0.503303 0.387683 0.229597
O O2 0.300782 0.267634 0.360688
O O3 0.167824 0.343587 0.263180
O O4 0.000000 0.376767 0.500000
O O5 0.284192 0.500000 0.925601
O O6 0.237831 0.608911 0.052920
O O7 0.000000 0.605746 0.000000
O O8 0.166081 0.791184 0.581844
O O9 0.635990 0.779217 0.335788
O O10 0.405910 0.866318 0.344997
O O11 0.767076 0.104448 0.743333
O O12 0.985792 0.130178 0.802405
O O13 0.852091 0.000000 0.830739
O O14 0.500000 0.097992 0.000000
O O15 0.046892 0.266826 0.171385
O O16 0.000000 0.060342 0.500000
O O17 0.415979 0.000000 0.281373
O O18 0.500000 0.287667 0.000000
#
# Coordination Sequence:
#
# PCOD8062205 Si02
#       7
#     4   4   4   4   4   4   4
#     4  11  21  38  63  90 122 158 198 248 290 345
#     4  10  23  44  66  91 125 159 193 238 293 354
#     4  11  22  34  56  85 121 148 193 251 297 347
#     4  10  21  37  56  79 111 151 197 248 299 353
#     4  11  21  35  55  85 116 154 192 245 302 352
#     4  10  19  35  56  77 106 149 196 239 288 346
#     4  10  21  37  62  87 115 156 198 237 286 348
#
# _framework density 19.318729000000001
#
# number of rings (size 3 to 8) (size 9 to 14) (size 15 to 20)
#    0.000    1.571    2.857    2.571    0.000    4.571 
#    0.000    5.000    0.000    4.286    0.000    0.000 
#    0.000    0.000    0.000    0.000    0.000    0.000 
#
# Total GULP energy -346882.258659 kJ/mol
# GULP energy per Si atom -12388.652095 kJ/mol
# Density = 1.927476 g / cm^3
# Si number density = 19.318729 Si / 1000 Ang^3
#
#
#
# Elastic Constant Matrix: (Units=GPa)
#
#
# Indices 1 2 3 4 5 6 
#
# 1 83.1676 41.7723 47.1599 0.0000 -5.3447 0.0000
# 2 41.7723 98.4832 37.5677 0.0000 -11.4258 0.0000
# 3 47.1599 37.5677 118.0259 0.0000 -11.7532 0.0000
# 4 0.0000 0.0000 0.0000 25.2153 0.0000 9.9587
# 5 -5.3447 -11.4258 -11.7532 0.0000 32.3602 0.0000
# 6 0.0000 0.0000 0.0000 9.9587 0.0000 0.1351
#
#
#
# Elastic Compliance Matrix: (Units=1/GPa)
#
#
# Indices 1 2 3 4 5 6 
#
# 1 0.017873 -0.005618 -0.005454 0.000000 -0.001013 0.000000
# 2 -0.005618 0.013582 -0.001757 0.000000 0.003230 0.000000
# 3 -0.005454 -0.001757 0.011475 0.000000 0.002647 0.000000
# 4 0.000000 0.000000 0.000000 -0.001411 0.000000 0.103986
# 5 -0.001013 0.003230 0.002647 0.000000 0.032836 0.000000
# 6 0.000000 0.000000 0.000000 0.103986 0.000000 -0.263292
#
#
# Mechanical properties :
#
#
# Convention : Reuss Voigt Hill
#
# Bulk Modulus (GPa) = 57.89737 61.40850 59.65293
# Shear Modulus (GPa) = -31.74176 23.08723 -4.32727
#
# Velocity S-wave (km/s) = -4.05786 3.46073 -1.49826
# Velocity P-wave (km/s) = 2.84247 6.91555 5.28699
#
# Compressibility (1/GPa) = 0.01727194
#
# Stress axis : x y z
#
# Youngs Moduli (GPa) = 55.94884 73.62843 87.14725
#
# Poissons Ratio (x) = 0.41364 0.47533
# Poissons Ratio (y) = 0.31432 0.15309
# Poissons Ratio (z) = 0.30517 0.12934
#
# Static dielectric constant tensor:
#      x y z
#    x 3.399830 0.000000 -0.056010 
#    y 0.000000 3.515510 0.000000 
#    z -0.056010 0.000000 3.758100 
# 
# 
# High freq. dielectric constant tensor:
#      x y z
#    x 1.746720 0.000000 -0.003630 
#    y 0.000000 1.745500 0.000000 
#    z -0.003630 0.000000 1.764330 
# 
# From -- ./inp_files/62300.got.cif
#   From: 2010.06.25/outbox.cif.g09.slc.cpg/sg10_32_cif.got.tgz:62300.got - 2010.06.27 22:07:45.
