data_PCOD8062976
_publ_section_title
;
Structure prediction by ZEFSAII (Michael W. Deem and Ramdas Pophale) SiO2 
 PCOD8062976
Probable space group: P 2/M
;
_chemical_formula_sum "Si O2"
_cell_formula_units_Z 18
_cell_length_a 11.077280
_cell_length_b 16.467257
_cell_length_c 5.304530
_cell_angle_alpha 90.000000
_cell_angle_beta 81.212476
_cell_angle_gamma 90.000000
_cell_volume 956.253986
_symmetry_space_group_name_H-M "P 2/M"
_symmetry_group_IT_number 10
_symmetry_cell_setting 'monoclinic'
loop_
_space_group_symop_operation_xyz
x,y,z
-x,y,-z
-x,-y,-z
x,-y,z
loop_
_atom_site_type_symbol
_atom_site_label
_atom_site_fract_x
_atom_site_fract_y
_atom_site_fract_z
Si Si1 0.362986 0.596378 0.049445
Si Si2 0.776464 0.403571 0.404434
Si Si3 0.120163 0.840320 0.229868
Si Si4 0.856238 0.092749 0.277613
Si Si5 0.000000 0.307892 0.500000
O O1 0.368246 0.500000 0.042632
O O2 0.298068 0.626147 0.325869
O O3 0.500000 0.632225 0.000000
O O4 0.291085 0.627673 0.825786
O O5 0.792011 0.500000 0.397415
O O6 0.910296 0.364213 0.366406
O O7 0.200014 0.868641 0.447133
O O8 0.075427 0.747687 0.278090
O O9 0.002692 0.899522 0.248573
O O10 0.194049 0.854287 0.945568
O O11 0.815161 0.000000 0.260418
#
# Coordination Sequence:
#
# PCOD8062976 Si02
#       5
#     4   4   4   4   2
#     4   9  18  33  51  69  83 102 145 198 240 266
#     4  10  20  32  49  66  87 120 150 188 224 259
#     4   9  17  24  36  54  81 116 143 172 208 246
#     4   9  14  24  38  54  72 104 156 182 198 238
#     4  10  21  32  41  64  98 124 156 172 209 278
#
# _framework density 18.823450999999999
#
# number of rings (size 3 to 8) (size 9 to 14) (size 15 to 20)
#    0.000    2.889    0.000    4.333    0.000   10.667 
#    0.000    3.333    0.000    0.000    0.000    0.000 
#    0.000    0.000    0.000    0.000    0.000 1626.667 
#
# Total GULP energy -223046.085219 kJ/mol
# GULP energy per Si atom -12391.449179 kJ/mol
# Density = 1.878061 g / cm^3
# Si number density = 18.823451 Si / 1000 Ang^3
#
#
#
# Elastic Constant Matrix: (Units=GPa)
#
#
# Indices 1 2 3 4 5 6 
#
# 1 72.0762 31.4503 34.6006 0.0000 21.3090 0.0000
# 2 31.4503 57.9618 33.1353 0.0000 5.5148 0.0000
# 3 34.6006 33.1353 178.5126 0.0000 35.0271 0.0000
# 4 0.0000 0.0000 0.0000 7.8711 0.0000 3.1064
# 5 21.3090 5.5148 35.0271 0.0000 22.3679 0.0000
# 6 0.0000 0.0000 0.0000 3.1064 0.0000 1.2430
#
#
#
# Elastic Compliance Matrix: (Units=1/GPa)
#
#
# Indices 1 2 3 4 5 6 
#
# 1 0.025808 -0.012943 0.002307 0.000000 -0.025008 0.000000
# 2 -0.012943 0.025815 -0.004985 0.000000 0.013772 0.000000
# 3 0.002307 -0.004985 0.009051 0.000000 -0.015143 0.000000
# 4 0.000000 0.000000 0.000000 9.258960 0.000000-23.138977
# 5 -0.025008 0.013772 -0.015143 0.000000 0.088847 0.000000
# 6 0.000000 0.000000 0.000000-23.138977 0.000000 58.630898
#
#
# Mechanical properties :
#
#
# Convention : Reuss Voigt Hill
#
# Bulk Modulus (GPa) = 33.97696 56.32478 45.15087
# Shear Modulus (GPa) = 0.07344 20.25404 10.16374
#
# Velocity S-wave (km/s) = 0.19774 3.28380 2.32621
# Velocity P-wave (km/s) = 4.25930 6.66074 5.59049
#
# Compressibility (1/GPa) = 0.02943171
#
# Stress axis : x y z
#
# Youngs Moduli (GPa) = 38.74825 38.73676 110.48164
#
# Poissons Ratio (x) = 0.50136 -0.25489
# Poissons Ratio (y) = 0.50151 0.55080
# Poissons Ratio (z) = -0.08940 0.19312
#
# Static dielectric constant tensor:
#      x y z
#    x 2.981060 0.000000 0.432730 
#    y 0.000000 3.181950 0.000000 
#    z 0.432730 0.000000 4.689290 
# 
# 
# High freq. dielectric constant tensor:
#      x y z
#    x 1.653110 0.000000 0.028330 
#    y 0.000000 1.709700 0.000000 
#    z 0.028330 0.000000 1.758260 
# 
# From -- ./inp_files/6563.got.cif
#   From: 2010.06.25/outbox.cif.g09.slc.cpg/sg10_4_cif.got.tgz:6563.got - 2010.06.27 22:07:45.
