data_PCOD8062494
_publ_section_title
;
Structure prediction by ZEFSAII (Michael W. Deem and Ramdas Pophale) SiO2 
 PCOD8062494
Probable space group: P 2/M
;
_chemical_formula_sum "Si O2"
_cell_formula_units_Z 32
_cell_length_a 15.575212
_cell_length_b 22.880779
_cell_length_c 9.324600
_cell_angle_alpha 90.000000
_cell_angle_beta 30.725626
_cell_angle_gamma 90.000000
_cell_volume 1697.830042
_symmetry_space_group_name_H-M "P 2/M"
_symmetry_group_IT_number 10
_symmetry_cell_setting 'monoclinic'
loop_
_space_group_symop_operation_xyz
x,y,z
-x,y,-z
-x,-y,-z
x,-y,z
loop_
_atom_site_type_symbol
_atom_site_label
_atom_site_fract_x
_atom_site_fract_y
_atom_site_fract_z
Si Si1 0.340689 0.839939 0.821053
Si Si2 0.805700 0.817985 0.252298
Si Si3 0.834227 0.568691 0.326532
Si Si4 0.155142 0.063369 0.679885
Si Si5 0.164490 0.568381 0.342463
Si Si6 0.504347 0.627832 0.160579
Si Si7 0.488686 0.236602 0.183192
Si Si8 0.075143 0.935759 0.238242
O O1 0.500000 0.860228 0.500000
O O2 0.226085 0.804853 0.870448
O O3 0.387081 0.801600 0.894257
O O4 0.240072 0.896639 0.013542
O O5 0.741037 0.883843 0.393533
O O6 0.703894 0.772205 0.493956
O O7 0.000000 0.809032 0.000000
O O8 0.803931 0.500000 0.345485
O O9 0.860088 0.584549 0.455558
O O10 0.664138 0.602794 0.519664
O O11 0.000000 0.589407 0.000000
O O12 0.075320 0.088539 0.646593
O O13 0.253181 0.000000 0.518589
O O14 0.000000 0.048247 0.000000
O O15 0.185777 0.500000 0.290343
O O16 0.000000 0.592696 0.500000
O O17 0.324848 0.596975 0.031812
O O18 0.529932 0.696198 0.150601
O O19 0.500000 0.612038 0.000000
O O20 0.500000 0.218476 0.000000
O O21 0.000000 0.940936 0.500000
O O22 0.129126 0.000000 0.103768
#
# Coordination Sequence:
#
# PCOD8062494 Si02
#       8
#     4   4   4   4   4   4   4   4
#     4  10  21  37  54  76 108 138 173 217 271 321
#     4  10  19  36  58  80 100 137 180 220 263 325
#     4   9  17  31  55  85 113 141 177 221 270 321
#     4   9  16  30  55  81 104 131 171 216 265 326
#     4   9  17  32  56  83 110 141 178 220 268 325
#     4   9  18  36  55  75 107 147 186 222 265 317
#     4  10  23  38  53  74 107 144 183 227 265 311
#     4  10  20  33  54  84 110 132 169 220 270 326
#
# _framework density 18.847588999999999
#
# number of rings (size 3 to 8) (size 9 to 14) (size 15 to 20)
#    0.000    2.500    2.500    0.375    1.750    2.250 
#    0.000   10.625    0.000    3.750    0.000    0.000 
#    0.000    0.000    0.000    0.000    0.000    0.000 
#
# Total GULP energy -396419.068838 kJ/mol
# GULP energy per Si atom -12388.095901 kJ/mol
# Density = 1.880469 g / cm^3
# Si number density = 18.847589 Si / 1000 Ang^3
#
#
#
# Elastic Constant Matrix: (Units=GPa)
#
#
# Indices 1 2 3 4 5 6 
#
# 1 119.7770 40.2761 47.9289 0.0000 -4.4142 0.0000
# 2 40.2761 67.7146 44.7283 0.0000 -5.1105 0.0000
# 3 47.9289 44.7283 114.6528 0.0000 -11.8215 0.0000
# 4 0.0000 0.0000 0.0000 24.6837 0.0000 0.5828
# 5 -4.4142 -5.1105 -11.8215 0.0000 28.8990 0.0000
# 6 0.0000 0.0000 0.0000 0.5828 0.0000 13.0287
#
#
#
# Elastic Compliance Matrix: (Units=1/GPa)
#
#
# Indices 1 2 3 4 5 6 
#
# 1 0.011055 -0.004749 -0.002799 0.000000 -0.000296 0.000000
# 2 -0.004749 0.021938 -0.006523 0.000000 0.000486 0.000000
# 3 -0.002799 -0.006523 0.012814 0.000000 0.003661 0.000000
# 4 0.000000 0.000000 0.000000 0.040555 0.000000 -0.001814
# 5 -0.000296 0.000486 0.003661 0.000000 0.036141 0.000000
# 6 0.000000 0.000000 0.000000 -0.001814 0.000000 0.076835
#
#
# Mechanical properties :
#
#
# Convention : Reuss Voigt Hill
#
# Bulk Modulus (GPa) = 56.60964 63.11234 59.86099
# Shear Modulus (GPa) = 21.42528 24.60302 23.01415
#
# Velocity S-wave (km/s) = 3.37525 3.61691 3.49817
# Velocity P-wave (km/s) = 6.72982 7.14150 6.93871
#
# Compressibility (1/GPa) = 0.01766484
#
# Stress axis : x y z
#
# Youngs Moduli (GPa) = 90.45795 45.58343 78.03671
#
# Poissons Ratio (x) = 0.21646 0.21845
# Poissons Ratio (y) = 0.42955 0.50905
# Poissons Ratio (z) = 0.25322 0.29735
#
# Static dielectric constant tensor:
#      x y z
#    x 3.491700 0.000000 -0.033810 
#    y 0.000000 3.430670 0.000000 
#    z -0.033810 0.000000 3.434390 
# 
# 
# High freq. dielectric constant tensor:
#      x y z
#    x 1.731810 0.000000 0.000880 
#    y 0.000000 1.721090 0.000000 
#    z 0.000880 0.000000 1.719370 
# 
# From -- ./inp_files/30589.got.cif
#   From: 2010.06.25/outbox.cif.g09.slc.cpg/sg10_16_cif.got.tgz:30589.got - 2010.06.27 22:07:45.
