data_PCOD8062485
_publ_section_title
;
Structure prediction by ZEFSAII (Michael W. Deem and Ramdas Pophale) SiO2 
 PCOD8062485
Probable space group: P 2/M
;
_chemical_formula_sum "Si O2"
_cell_formula_units_Z 20
_cell_length_a 9.977394
_cell_length_b 12.550756
_cell_length_c 9.081745
_cell_angle_alpha 90.000000
_cell_angle_beta 115.783892
_cell_angle_gamma 90.000000
_cell_volume 1024.027501
_symmetry_space_group_name_H-M "P 2/M"
_symmetry_group_IT_number 10
_symmetry_cell_setting 'monoclinic'
loop_
_space_group_symop_operation_xyz
x,y,z
-x,y,-z
-x,-y,-z
x,-y,z
loop_
_atom_site_type_symbol
_atom_site_label
_atom_site_fract_x
_atom_site_fract_y
_atom_site_fract_z
Si Si1 0.389804 0.696360 0.252286
Si Si2 0.877298 0.623860 0.063927
Si Si3 0.437504 0.121085 0.807622
Si Si4 0.308732 0.381803 0.510505
Si Si5 0.139176 0.250284 0.650726
O O1 0.453329 0.813832 0.248135
O O2 0.529171 0.616626 0.335446
O O3 0.302838 0.697919 0.367036
O O4 0.286482 0.652540 0.073341
O O5 0.882696 0.500000 0.113000
O O6 0.910653 0.700506 0.217293
O O7 0.000000 0.650055 0.000000
O O8 0.269310 0.163984 0.727367
O O9 0.436848 0.000000 0.751331
O O10 0.500000 0.131404 0.000000
O O11 0.269380 0.500000 0.435149
O O12 0.188614 0.348694 0.572864
O O13 0.000000 0.195209 0.500000
#
# Coordination Sequence:
#
# PCOD8062485 Si02
#       5
#     4   4   4   4   4
#     4  10  19  36  57  86 113 151 197 240 285 339
#     4  11  22  35  56  84 120 160 197 232 279 346
#     4  10  21  41  66  86 109 148 196 250 300 340
#     4  10  20  34  57  85 124 160 188 232 286 342
#     4  11  23  38  57  88 121 155 193 239 288 344
#
# _framework density 19.530725
#
# number of rings (size 3 to 8) (size 9 to 14) (size 15 to 20)
#    0.000    1.600    2.000    4.200    0.000    3.600 
#    0.000   11.000    0.000    4.800    0.000    0.000 
#    0.000    0.000    0.000    0.000    0.000    0.000 
#
# Total GULP energy -247993.795130 kJ/mol
# GULP energy per Si atom -12399.689756 kJ/mol
# Density = 1.948627 g / cm^3
# Si number density = 19.530725 Si / 1000 Ang^3
#
#
#
# Elastic Constant Matrix: (Units=GPa)
#
#
# Indices 1 2 3 4 5 6 
#
# 1 86.1684 46.1608 40.2075 0.0000 -6.9542 0.0000
# 2 46.1608 134.6446 43.5693 0.0000 -11.2356 0.0000
# 3 40.2075 43.5693 114.8256 0.0000 9.6898 0.0000
# 4 0.0000 0.0000 0.0000 19.3590 0.0000 -1.0760
# 5 -6.9542 -11.2356 9.6898 0.0000 43.6860 0.0000
# 6 0.0000 0.0000 0.0000 -1.0760 0.0000 12.6420
#
#
#
# Elastic Compliance Matrix: (Units=1/GPa)
#
#
# Indices 1 2 3 4 5 6 
#
# 1 0.015876 -0.003839 -0.004313 0.000000 0.002497 0.000000
# 2 -0.003839 0.009784 -0.002577 0.000000 0.002477 0.000000
# 3 -0.004313 -0.002577 0.011527 0.000000 -0.003906 0.000000
# 4 0.000000 0.000000 0.000000 0.051901 0.000000 0.004417
# 5 0.002497 0.002477 -0.003906 0.000000 0.024791 0.000000
# 6 0.000000 0.000000 0.000000 0.004417 0.000000 0.079477
#
#
# Mechanical properties :
#
#
# Convention : Reuss Voigt Hill
#
# Bulk Modulus (GPa) = 63.58119 66.16820 64.87469
# Shear Modulus (GPa) = 22.72145 28.85081 25.78613
#
# Velocity S-wave (km/s) = 3.41452 3.84761 3.63751
# Velocity P-wave (km/s) = 6.94049 7.32744 7.13659
#
# Compressibility (1/GPa) = 0.01572792
#
# Stress axis : x y z
#
# Youngs Moduli (GPa) = 62.98943 102.21186 86.75552
#
# Poissons Ratio (x) = 0.39236 0.37419
# Poissons Ratio (y) = 0.24180 0.22358
# Poissons Ratio (z) = 0.27168 0.26341
#
# Static dielectric constant tensor:
#      x y z
#    x 3.639790 0.000000 0.084010 
#    y 0.000000 3.375190 0.000000 
#    z 0.084010 0.000000 3.739690 
# 
# 
# High freq. dielectric constant tensor:
#      x y z
#    x 1.766950 0.000000 0.005140 
#    y 0.000000 1.731010 0.000000 
#    z 0.005140 0.000000 1.776260 
# 
# From -- ./inp_files/24458.got.cif
#   From: 2010.06.25/outbox.cif.g09.slc.cpg/sg10_13_cif.got.tgz:24458.got - 2010.06.27 22:07:45.
