data_PCOD8062635
_publ_section_title
;
Structure prediction by ZEFSAII (Michael W. Deem and Ramdas Pophale) SiO2 
 PCOD8062635
Probable space group: P 2/M
;
_chemical_formula_sum "Si O2"
_cell_formula_units_Z 32
_cell_length_a 14.621944
_cell_length_b 22.763938
_cell_length_c 8.905415
_cell_angle_alpha 90.000000
_cell_angle_beta 31.679420
_cell_angle_gamma 90.000000
_cell_volume 1556.694128
_symmetry_space_group_name_H-M "P 2/M"
_symmetry_group_IT_number 10
_symmetry_cell_setting 'monoclinic'
loop_
_space_group_symop_operation_xyz
x,y,z
-x,y,-z
-x,-y,-z
x,-y,z
loop_
_atom_site_type_symbol
_atom_site_label
_atom_site_fract_x
_atom_site_fract_y
_atom_site_fract_z
Si Si1 0.677420 0.932403 0.663170
Si Si2 0.350388 0.669543 0.598064
Si Si3 0.989857 0.130473 0.690318
Si Si4 0.318449 0.931789 0.696584
Si Si5 0.178232 0.436681 0.676528
Si Si6 0.590521 0.285915 0.023118
Si Si7 0.869658 0.740438 0.866911
Si Si8 0.880962 0.632690 0.540078
O O1 0.672642 0.920857 0.492797
O O2 0.822925 0.888323 0.514631
O O3 0.727846 0.000000 0.626323
O O4 0.500000 0.916713 0.000000
O O5 0.500000 0.648900 0.500000
O O6 0.268147 0.608900 0.661331
O O7 0.223648 0.716001 0.854645
O O8 0.419809 0.704334 0.359190
O O9 0.965696 0.198777 0.761307
O O10 0.000000 0.115978 0.500000
O O11 0.839998 0.097367 0.992475
O O12 0.500000 0.904758 0.500000
O O13 0.303848 0.000000 0.756489
O O14 0.279223 0.500000 0.519669
O O15 0.139968 0.410267 0.567811
O O16 0.000000 0.452772 0.000000
O O17 0.732693 0.248064 0.919622
O O18 0.684763 0.349007 0.862612
O O19 0.500000 0.257547 0.000000
O O20 0.020464 0.693958 0.625684
O O21 0.000000 0.599771 0.500000
#
# Coordination Sequence:
#
# PCOD8062635 Si02
#       8
#     4   4   4   4   4   4   4   4
#     4  10  22  44  71  98 132 176 223 272 330 389
#     4  10  21  40  63  87 119 160 204 255 322 382
#     4  12  24  41  63  96 134 168 223 276 325 389
#     4  10  22  42  66  95 134 176 217 268 327 386
#     4  11  22  38  62  92 122 160 212 260 311 391
#     4  10  19  36  64  89 113 155 209 256 313 376
#     4  10  23  42  59  84 125 167 207 254 309 387
#     4  10  20  39  61  84 122 163 203 252 318 382
#
# _framework density 20.556384000000001
#
# number of rings (size 3 to 8) (size 9 to 14) (size 15 to 20)
#    0.000    1.625    2.500    2.625    0.000    5.000 
#    4.500    7.500    0.000    0.000    0.000    0.000 
#    0.000    0.000    0.000    0.000    0.000    0.000 
#
# Total GULP energy -396442.051633 kJ/mol
# GULP energy per Si atom -12388.814114 kJ/mol
# Density = 2.050960 g / cm^3
# Si number density = 20.556384 Si / 1000 Ang^3
#
#
#
# Elastic Constant Matrix: (Units=GPa)
#
#
# Indices 1 2 3 4 5 6 
#
# 1 130.5630 70.4189 55.5882 0.0000 4.9542 0.0000
# 2 70.4189 114.5753 57.9317 0.0000 -2.0017 0.0000
# 3 55.5882 57.9317 147.2334 0.0000 15.6101 0.0000
# 4 0.0000 0.0000 0.0000 2.2558 0.0000 3.1834
# 5 4.9542 -2.0017 15.6101 0.0000 37.9857 0.0000
# 6 0.0000 0.0000 0.0000 3.1834 0.0000 45.6381
#
#
#
# Elastic Compliance Matrix: (Units=1/GPa)
#
#
# Indices 1 2 3 4 5 6 
#
# 1 0.011965 -0.006429 -0.001868 0.000000 -0.001132 0.000000
# 2 -0.006429 0.014571 -0.003635 0.000000 0.003100 0.000000
# 3 -0.001868 -0.003635 0.009328 0.000000 -0.003781 0.000000
# 4 0.000000 0.000000 0.000000 0.491710 0.000000 -0.034299
# 5 -0.001132 0.003100 -0.003781 0.000000 0.028191 0.000000
# 6 0.000000 0.000000 0.000000 -0.034299 0.000000 0.024304
#
#
# Mechanical properties :
#
#
# Convention : Reuss Voigt Hill
#
# Bulk Modulus (GPa) = 83.32491 84.47213 83.89852
# Shear Modulus (GPa) = 8.22461 31.07145 19.64803
#
# Velocity S-wave (km/s) = 2.00242 3.89205 3.09497
# Velocity P-wave (km/s) = 6.78005 7.83451 7.32627
#
# Compressibility (1/GPa) = 0.01200121
#
# Stress axis : x y z
#
# Youngs Moduli (GPa) = 83.57869 68.62875 107.20283
#
# Poissons Ratio (x) = 0.44122 0.20022
# Poissons Ratio (y) = 0.53733 0.38965
# Poissons Ratio (z) = 0.15610 0.24944
#
# Static dielectric constant tensor:
#      x y z
#    x 4.216700 0.000000 0.133830 
#    y 0.000000 3.629240 0.000000 
#    z 0.133830 0.000000 4.049150 
# 
# 
# High freq. dielectric constant tensor:
#      x y z
#    x 1.816150 0.000000 0.007830 
#    y 0.000000 1.782260 0.000000 
#    z 0.007830 0.000000 1.825070 
# 
# From -- ./inp_files/30593.got.cif
#   From: 2010.06.25/outbox.cif.g09.slc.cpg/sg10_16_cif.got.tgz:30593.got - 2010.06.27 22:07:45.
