data_PCOD8062876
_publ_section_title
;
Structure prediction by ZEFSAII (Michael W. Deem and Ramdas Pophale) SiO2 
 PCOD8062876
Probable space group: P 2/M
;
_chemical_formula_sum "Si O2"
_cell_formula_units_Z 32
_cell_length_a 27.263255
_cell_length_b 13.199521
_cell_length_c 9.273254
_cell_angle_alpha 90.000000
_cell_angle_beta 31.750586
_cell_angle_gamma 90.000000
_cell_volume 1756.052702
_symmetry_space_group_name_H-M "P 2/M"
_symmetry_group_IT_number 10
_symmetry_cell_setting 'monoclinic'
loop_
_space_group_symop_operation_xyz
x,y,z
-x,y,-z
-x,-y,-z
x,-y,z
loop_
_atom_site_type_symbol
_atom_site_label
_atom_site_fract_x
_atom_site_fract_y
_atom_site_fract_z
Si Si1 0.733727 0.789896 0.495598
Si Si2 0.593403 0.385092 0.183930
Si Si3 0.593404 0.385092 0.849049
Si Si4 0.417748 0.115861 0.297436
Si Si5 0.417749 0.884141 0.613818
Si Si6 0.891930 0.883730 0.936163
Si Si7 0.891929 0.116270 0.604194
Si Si8 0.266275 0.210103 0.164227
O O1 0.682663 0.683965 0.582859
O O2 0.676484 0.878097 0.558782
O O3 0.736728 0.808053 0.658180
O O4 0.837325 0.801735 0.171532
O O5 0.500000 0.351553 0.500000
O O6 0.621229 0.500000 0.154548
O O7 0.570868 0.372972 0.072830
O O8 0.682662 0.316035 0.003827
O O9 0.621231 0.500000 0.739300
O O10 0.500000 0.351556 0.000000
O O11 0.409119 0.168077 0.477203
O O12 0.443754 0.000000 0.256653
O O13 0.500000 0.170054 0.000000
O O14 0.500000 0.829946 0.500000
O O15 0.443762 0.000000 0.524558
O O16 0.323517 0.878100 0.941200
O O17 0.861568 0.869949 0.846081
O O18 0.000001 0.857796 0.685715
O O19 0.872552 0.000000 0.032774
O O20 0.837323 0.198265 0.641851
O O21 0.872552 0.000000 0.604471
#
# Coordination Sequence:
#
# PCOD8062876 Si02
#       8
#     4   4   4   4   4   4   4   4
#     4  11  21  31  49  75  99 126 162 204 248 294
#     4   9  19  35  52  72 100 132 166 204 246 293
#     4   9  19  35  52  72 100 132 166 204 246 293
#     4  10  20  32  45  64  95 132 164 195 235 286
#     4  10  20  32  45  64  95 132 164 195 235 286
#     4   9  19  36  55  74  99 132 167 203 246 295
#     4   9  19  36  55  74  99 132 167 203 246 295
#     4  11  21  31  49  75  99 126 162 204 248 294
#
# _framework density 18.222687000000001
#
# number of rings (size 3 to 8) (size 9 to 14) (size 15 to 20)
#    0.000    2.250    0.000    3.750    0.000    9.500 
#    0.000    1.250    0.000    0.750    0.000    5.250 
#    0.000    0.000    0.000    0.000    0.000    0.000 
#
# Total GULP energy -396631.054078 kJ/mol
# GULP energy per Si atom -12394.720440 kJ/mol
# Density = 1.818121 g / cm^3
# Si number density = 18.222687 Si / 1000 Ang^3
#
#
#
# Elastic Constant Matrix: (Units=GPa)
#
#
# Indices 1 2 3 4 5 6 
#
# 1 126.3445 47.4477 53.5304 0.0000 -3.1156 0.0000
# 2 47.4477 80.7693 47.4026 0.0000 0.0449 0.0000
# 3 53.5304 47.4026 121.8175 0.0000 7.6935 0.0000
# 4 0.0000 0.0000 0.0000 24.9149 0.0000 -4.2253
# 5 -3.1156 0.0449 7.6935 0.0000 27.0172 0.0000
# 6 0.0000 0.0000 0.0000 -4.2253 0.0000 20.7338
#
#
#
# Elastic Compliance Matrix: (Units=1/GPa)
#
#
# Indices 1 2 3 4 5 6 
#
# 1 0.011060 -0.004620 -0.003201 0.000000 0.002195 0.000000
# 2 -0.004620 0.018060 -0.005053 0.000000 0.000876 0.000000
# 3 -0.003201 -0.005053 0.011817 0.000000 -0.003726 0.000000
# 4 0.000000 0.000000 0.000000 0.041573 0.000000 0.008472
# 5 0.002195 0.000876 -0.003726 0.000000 0.038326 0.000000
# 6 0.000000 0.000000 0.000000 0.008472 0.000000 0.049957
#
#
# Mechanical properties :
#
#
# Convention : Reuss Voigt Hill
#
# Bulk Modulus (GPa) = 65.83410 69.52142 67.67776
# Shear Modulus (GPa) = 24.80109 26.56990 25.68549
#
# Velocity S-wave (km/s) = 3.69318 3.82261 3.75845
# Velocity P-wave (km/s) = 7.37510 7.59717 7.48696
#
# Compressibility (1/GPa) = 0.01518970
#
# Stress axis : x y z
#
# Youngs Moduli (GPa) = 90.41451 55.37162 84.62264
#
# Poissons Ratio (x) = 0.25581 0.27089
# Poissons Ratio (y) = 0.41770 0.42758
# Poissons Ratio (z) = 0.28943 0.27978
#
# Static dielectric constant tensor:
#      x y z
#    x 3.536790 0.000000 0.136570 
#    y 0.000000 3.255990 0.000000 
#    z 0.136570 0.000000 3.401650 
# 
# 
# High freq. dielectric constant tensor:
#      x y z
#    x 1.710680 0.000000 0.010340 
#    y 0.000000 1.685280 0.000000 
#    z 0.010340 0.000000 1.700450 
# 
# From -- ./inp_files/37717.got.cif
#   From: 2010.06.25/outbox.cif.g09.slc.cpg/sg10_19_cif.got.tgz:37717.got - 2010.06.27 22:07:45.
