data_PCOD8062426
_publ_section_title
;
Structure prediction by ZEFSAII (Michael W. Deem and Ramdas Pophale) SiO2 
 PCOD8062426
Probable space group: P 2/M
;
_chemical_formula_sum "Si O2"
_cell_formula_units_Z 32
_cell_length_a 29.985226
_cell_length_b 9.001555
_cell_length_c 11.439401
_cell_angle_alpha 90.000000
_cell_angle_beta 28.605921
_cell_angle_gamma 90.000000
_cell_volume 1478.313344
_symmetry_space_group_name_H-M "P 2/M"
_symmetry_group_IT_number 10
_symmetry_cell_setting 'monoclinic'
loop_
_space_group_symop_operation_xyz
x,y,z
-x,y,-z
-x,-y,-z
x,-y,z
loop_
_atom_site_type_symbol
_atom_site_label
_atom_site_fract_x
_atom_site_fract_y
_atom_site_fract_z
Si Si1 0.568168 0.837236 0.953499
Si Si2 0.109705 0.327694 0.250096
Si Si3 0.397646 0.827391 0.724719
Si Si4 0.712656 0.673207 0.489759
Si Si5 0.795631 0.822291 0.747173
Si Si6 0.390021 0.171154 0.480339
Si Si7 0.952192 0.829443 0.223885
Si Si8 0.874699 0.170503 0.022357
O O1 0.650023 0.718336 0.745861
O O2 0.614123 0.000000 0.864306
O O3 0.500000 0.837628 0.000000
O O4 0.502419 0.798026 0.215526
O O5 0.136701 0.500000 0.192283
O O6 0.153999 0.246396 0.257552
O O7 0.149666 0.257639 0.039483
O O8 0.000000 0.301988 0.500000
O O9 0.500000 0.748797 0.500000
O O10 0.358059 0.798940 0.685738
O O11 0.412538 0.000000 0.716095
O O12 0.313928 0.770527 0.003496
O O13 0.731289 0.500000 0.450222
O O14 0.663683 0.718302 0.481077
O O15 0.810343 0.760309 0.273008
O O16 0.851344 0.767573 0.501174
O O17 0.802521 0.000000 0.743040
O O18 0.370844 0.000000 0.486490
O O19 0.019115 0.810841 0.181841
O O20 0.937813 0.000000 0.221848
O O21 0.000000 0.749334 0.000000
O O22 0.848122 0.000000 0.063620
#
# Coordination Sequence:
#
# PCOD8062426 Si02
#       8
#     4   4   4   4   4   4   4   4
#     4   8  15  29  48  71 101 139 179 218 268 326
#     4  11  22  35  56  87 121 149 182 236 295 352
#     4   9  18  33  54  84 112 138 181 237 286 331
#     4  11  21  32  50  79 113 144 183 229 281 339
#     4  10  19  35  61  87 115 153 193 235 291 350
#     4   9  17  32  53  77 109 144 183 230 281 339
#     4   9  19  36  56  83 113 145 191 241 280 329
#     4  11  21  35  56  81 115 149 186 233 283 340
#
# _framework density 21.64629
#
# number of rings (size 3 to 8) (size 9 to 14) (size 15 to 20)
#    0.000    2.250    1.250    3.375    0.000    3.750 
#    2.250    0.000    0.000    4.875    0.000    0.000 
#    0.000    0.000    0.000    0.000    0.000    0.000 
#
# Total GULP energy -396506.046504 kJ/mol
# GULP energy per Si atom -12390.813953 kJ/mol
# Density = 2.159702 g / cm^3
# Si number density = 21.646290 Si / 1000 Ang^3
#
#
#
# Elastic Constant Matrix: (Units=GPa)
#
#
# Indices 1 2 3 4 5 6 
#
# 1 33.3033 6.3992 32.1188 0.0000 6.3009 0.0000
# 2 6.3992 57.3764 32.8707 0.0000 -6.3897 0.0000
# 3 32.1188 32.8707 186.0994 0.0000 9.9507 0.0000
# 4 0.0000 0.0000 0.0000 23.0800 0.0000 -3.0683
# 5 6.3009 -6.3897 9.9507 0.0000 29.6813 0.0000
# 6 0.0000 0.0000 0.0000 -3.0683 0.0000 6.1985
#
#
#
# Elastic Compliance Matrix: (Units=1/GPa)
#
#
# Indices 1 2 3 4 5 6 
#
# 1 0.037095 -0.001510 -0.005801 0.000000 -0.006255 0.000000
# 2 -0.001510 0.020348 -0.003650 0.000000 0.005925 0.000000
# 3 -0.005801 -0.003650 0.007123 0.000000 -0.001942 0.000000
# 4 0.000000 0.000000 0.000000 0.046380 0.000000 0.022959
# 5 -0.006255 0.005925 -0.001942 0.000000 0.036946 0.000000
# 6 0.000000 0.000000 0.000000 0.022959 0.000000 0.172695
#
#
# Mechanical properties :
#
#
# Convention : Reuss Voigt Hill
#
# Bulk Modulus (GPa) = 23.45022 46.61739 35.03380
# Shear Modulus (GPa) = 14.01638 25.48464 19.75051
#
# Velocity S-wave (km/s) = 2.54740 3.43493 3.02391
# Velocity P-wave (km/s) = 4.41692 6.10855 5.33027
#
# Compressibility (1/GPa) = 0.04264353
#
# Stress axis : x y z
#
# Youngs Moduli (GPa) = 26.95751 49.14428 140.38497
#
# Poissons Ratio (x) = 0.07423 0.81438
# Poissons Ratio (y) = 0.04072 0.51244
# Poissons Ratio (z) = 0.15638 0.17939
#
# Static dielectric constant tensor:
#      x y z
#    x 3.560370 0.000000 0.138280 
#    y 0.000000 3.435680 0.000000 
#    z 0.138280 0.000000 4.745280 
# 
# 
# High freq. dielectric constant tensor:
#      x y z
#    x 1.820080 0.000000 0.005470 
#    y 0.000000 1.797100 0.000000 
#    z 0.005470 0.000000 1.886050 
# 
# From -- ./inp_files/58201.got.cif
#   From: 2010.06.25/outbox.cif.g09.slc.cpg/sg10_30_cif.got.tgz:58201.got - 2010.06.27 22:07:45.
