data_PCOD8062847
_publ_section_title
;
Structure prediction by ZEFSAII (Michael W. Deem and Ramdas Pophale) SiO2 
 PCOD8062847
Probable space group: P 2/M
;
_chemical_formula_sum "Si O2"
_cell_formula_units_Z 26
_cell_length_a 14.774283
_cell_length_b 12.003979
_cell_length_c 9.505483
_cell_angle_alpha 90.000000
_cell_angle_beta 51.659187
_cell_angle_gamma 90.000000
_cell_volume 1322.230752
_symmetry_space_group_name_H-M "P 2/M"
_symmetry_group_IT_number 10
_symmetry_cell_setting 'monoclinic'
loop_
_space_group_symop_operation_xyz
x,y,z
-x,y,-z
-x,-y,-z
x,-y,z
loop_
_atom_site_type_symbol
_atom_site_label
_atom_site_fract_x
_atom_site_fract_y
_atom_site_fract_z
Si Si1 0.860499 0.000000 0.330807
Si Si2 0.447513 0.127319 0.401732
Si Si3 0.879431 0.000000 0.840688
Si Si4 0.274485 0.000000 0.260455
Si Si5 0.597328 0.801168 0.001310
Si Si6 0.781270 0.773126 0.319393
Si Si7 0.800279 0.758935 0.985827
Si Si8 0.019104 0.626315 0.815367
O O1 0.759483 0.000000 0.544460
O O2 0.849965 0.109261 0.243754
O O3 0.984149 0.000000 0.284623
O O4 0.500000 0.161850 0.500000
O O5 0.541369 0.139953 0.190308
O O6 0.338785 0.209875 0.482584
O O7 0.403923 0.000000 0.449908
O O8 0.844208 0.000000 0.711403
O O9 0.823317 0.109016 0.964610
O O10 0.352299 0.107539 0.154154
O O11 0.701344 0.726031 0.965662
O O12 0.500000 0.736072 0.000000
O O13 0.759115 0.727686 0.182874
O O14 0.858794 0.686330 0.334568
O O15 0.915170 0.689464 0.835360
O O16 0.024244 0.500000 0.755709
O O17 0.000000 0.633713 0.000000
#
# Coordination Sequence:
#
# PCOD8062847 Si02
#       8
#     2   4   2   2   4   4   4   4
#     4  12  20  31  48  82 115 152 178 227 282 333
#     4  11  21  32  51  80 117 155 182 223 269 326
#     4  10  20  31  49  76 115 151 174 224 278 335
#     4  10  22  34  47  72 115 160 191 215 262 337
#     4  11  21  35  51  74 113 159 191 216 263 332
#     4  11  20  31  54  82 116 145 181 226 279 337
#     4  10  20  34  52  83 112 147 184 227 277 334
#     4   9  19  36  58  81 108 143 184 234 288 335
#
# _framework density 19.663737999999999
#
# number of rings (size 3 to 8) (size 9 to 14) (size 15 to 20)
#    0.000    1.538    4.615    1.846    0.000    0.615 
#    0.000    0.000    0.000    1.846    0.000   18.308 
#    0.000    0.000    0.000    0.000    0.000    0.000 
#
# Total GULP energy -322276.415585 kJ/mol
# GULP energy per Si atom -12395.246753 kJ/mol
# Density = 1.961898 g / cm^3
# Si number density = 19.663738 Si / 1000 Ang^3
#
#
#
# Elastic Constant Matrix: (Units=GPa)
#
#
# Indices 1 2 3 4 5 6 
#
# 1 169.4274 40.8901 28.1860 0.0000 -7.5044 0.0000
# 2 40.8901 78.2183 0.0954 0.0000 -10.1931 0.0000
# 3 28.1860 0.0954 60.0413 0.0000 -5.7384 0.0000
# 4 0.0000 0.0000 0.0000 11.3311 0.0000 -3.1892
# 5 -7.5044 -10.1931 -5.7384 0.0000 32.5103 0.0000
# 6 0.0000 0.0000 0.0000 -3.1892 0.0000 12.0556
#
#
#
# Elastic Compliance Matrix: (Units=1/GPa)
#
#
# Indices 1 2 3 4 5 6 
#
# 1 0.007415 -0.003888 -0.003487 0.000000 -0.000123 0.000000
# 2 -0.003888 0.015377 0.002213 0.000000 0.004314 0.000000
# 3 -0.003487 0.002213 0.018591 0.000000 0.003171 0.000000
# 4 0.000000 0.000000 0.000000 0.095352 0.000000 0.025225
# 5 -0.000123 0.004314 0.003171 0.000000 0.032644 0.000000
# 6 0.000000 0.000000 0.000000 0.025225 0.000000 0.089622
#
#
# Mechanical properties :
#
#
# Convention : Reuss Voigt Hill
#
# Bulk Modulus (GPa) = 32.19531 49.55886 40.87709
# Shear Modulus (GPa) = 17.87769 27.08043 22.47906
#
# Velocity S-wave (km/s) = 3.01852 3.71506 3.38475
# Velocity P-wave (km/s) = 5.34388 6.60758 6.00904
#
# Compressibility (1/GPa) = 0.03106043
#
# Stress axis : x y z
#
# Youngs Moduli (GPa) = 134.85803 65.03269 53.78808
#
# Poissons Ratio (x) = 0.25286 0.18754
# Poissons Ratio (y) = 0.52435 -0.11904
# Poissons Ratio (z) = 0.47019 -0.14393
#
# Static dielectric constant tensor:
#      x y z
#    x 4.081440 0.000000 -0.058010 
#    y 0.000000 3.177650 0.000000 
#    z -0.058010 0.000000 3.281010 
# 
# 
# High freq. dielectric constant tensor:
#      x y z
#    x 1.799110 0.000000 -0.007400 
#    y 0.000000 1.701150 0.000000 
#    z -0.007400 0.000000 1.745810 
# 
# From -- ./inp_files/28162.got.cif
#   From: 2010.06.25/outbox.cif.g09.slc.cpg/sg10_15_cif.got.tgz:28162.got - 2010.06.27 22:07:45.
