data_PCOD8062737
_publ_section_title
;
Structure prediction by ZEFSAII (Michael W. Deem and Ramdas Pophale) SiO2 
 PCOD8062737
Probable space group: P 2/M
;
_chemical_formula_sum "Si O2"
_cell_formula_units_Z 24
_cell_length_a 22.364216
_cell_length_b 8.575124
_cell_length_c 9.837263
_cell_angle_alpha 90.000000
_cell_angle_beta 39.588281
_cell_angle_gamma 90.000000
_cell_volume 1202.235025
_symmetry_space_group_name_H-M "P 2/M"
_symmetry_group_IT_number 10
_symmetry_cell_setting 'monoclinic'
loop_
_space_group_symop_operation_xyz
x,y,z
-x,y,-z
-x,-y,-z
x,-y,z
loop_
_atom_site_type_symbol
_atom_site_label
_atom_site_fract_x
_atom_site_fract_y
_atom_site_fract_z
Si Si1 0.460788 0.819789 0.921994
Si Si2 0.919386 0.315378 0.971292
Si Si3 0.261970 0.317620 0.223359
Si Si4 0.766046 0.315185 0.029551
Si Si5 0.115006 0.182758 0.679735
Si Si6 0.426402 0.679789 0.508984
O O1 0.543103 0.783611 0.671653
O O2 0.430866 0.000000 0.965465
O O3 0.500000 0.775955 0.000000
O O4 0.372284 0.711336 0.044451
O O5 0.920494 0.500000 0.980799
O O6 0.857305 0.258556 0.952363
O O7 0.874197 0.249241 0.187879
O O8 0.024629 0.255502 0.763281
O O9 0.240991 0.500000 0.277715
O O10 0.207766 0.222902 0.433796
O O11 0.227706 0.254682 0.136238
O O12 0.757837 0.500000 0.039915
O O13 0.672871 0.251216 0.266528
O O14 0.100704 0.000000 0.714736
O O15 0.500000 0.699121 0.500000
O O16 0.418238 0.500000 0.477295
#
# Coordination Sequence:
#
# PCOD8062737 Si02
#       6
#     4   4   4   4   4   4
#     4  11  25  41  56  86 125 158 194 240 292 347
#     4  10  20  39  64  90 115 153 201 241 289 352
#     4  11  22  41  64  87 115 154 198 244 292 346
#     4   9  20  37  61  91 117 146 197 252 290 335
#     4  11  23  40  59  87 124 156 190 242 296 348
#     4  10  19  38  63  87 116 154 198 242 285 342
#
# _framework density 19.962817999999999
#
# number of rings (size 3 to 8) (size 9 to 14) (size 15 to 20)
#    0.000    1.667    1.667    4.000    2.333    2.333 
#    0.000    7.500    0.000    0.000    0.000    0.000 
#    0.000    0.000    0.000    0.000    0.000    0.000 
#
# Total GULP energy -297704.412743 kJ/mol
# GULP energy per Si atom -12404.350531 kJ/mol
# Density = 1.991738 g / cm^3
# Si number density = 19.962818 Si / 1000 Ang^3
#
#
#
# Elastic Constant Matrix: (Units=GPa)
#
#
# Indices 1 2 3 4 5 6 
#
# 1 105.2599 32.7191 11.9758 0.0000 14.1062 0.0000
# 2 32.7191 72.0884 16.3399 0.0000 7.0485 0.0000
# 3 11.9758 16.3399 84.7006 0.0000 12.8811 0.0000
# 4 0.0000 0.0000 0.0000 326.7376 0.0000 -56.4064
# 5 14.1062 7.0485 12.8811 0.0000 27.6880 0.0000
# 6 0.0000 0.0000 0.0000 -56.4064 0.0000 21.6596
#
#
#
# Elastic Compliance Matrix: (Units=1/GPa)
#
#
# Indices 1 2 3 4 5 6 
#
# 1 0.011627 -0.004818 0.000000 0.000000 -0.004697 0.000000
# 2 -0.004818 0.016675 -0.002436 0.000000 -0.000657 0.000000
# 3 0.000000 -0.002436 0.013109 0.000000 -0.005479 0.000000
# 4 0.000000 0.000000 0.000000 0.005560 0.000000 0.014481
# 5 -0.004697 -0.000657 -0.005479 0.000000 0.041226 0.000000
# 6 0.000000 0.000000 0.000000 0.014481 0.000000 0.083880
#
#
# Mechanical properties :
#
#
# Convention : Reuss Voigt Hill
#
# Bulk Modulus (GPa) = 37.16927 42.67983 39.92455
# Shear Modulus (GPa) = 25.56843 88.61798 57.09320
#
# Velocity S-wave (km/s) = 3.58271 6.66992 5.35368
# Velocity P-wave (km/s) = 5.98115 8.98573 7.63274
#
# Compressibility (1/GPa) = 0.02690395
#
# Stress axis : x y z
#
# Youngs Moduli (GPa) = 86.00326 59.97001 76.28127
#
# Poissons Ratio (x) = 0.28894 0.00001
# Poissons Ratio (y) = 0.41437 0.18580
# Poissons Ratio (z) = 0.00002 0.14607
#
# Static dielectric constant tensor:
#      x y z
#    x 3.771930 0.000000 0.039410 
#    y 0.000000 3.446860 0.000000 
#    z 0.039410 0.000000 3.727570 
# 
# 
# High freq. dielectric constant tensor:
#      x y z
#    x 1.784920 0.000000 0.001670 
#    y 0.000000 1.766930 0.000000 
#    z 0.001670 0.000000 1.786380 
# 
# From -- ./inp_files/33727.got.cif
#   From: 2010.06.25/outbox.cif.g09.slc.cpg/sg10_17_cif.got.tgz:33727.got - 2010.06.27 22:07:45.
