data_PCOD8062105
_publ_section_title
;
Structure prediction by ZEFSAII (Michael W. Deem and Ramdas Pophale) SiO2 
 PCOD8062105
Probable space group: P 2/M
;
_chemical_formula_sum "Si O2"
_cell_formula_units_Z 32
_cell_length_a 12.313941
_cell_length_b 8.691027
_cell_length_c 15.109329
_cell_angle_alpha 90.000000
_cell_angle_beta 87.107387
_cell_angle_gamma 90.000000
_cell_volume 1614.952101
_symmetry_space_group_name_H-M "P 2/M"
_symmetry_group_IT_number 10
_symmetry_cell_setting 'monoclinic'
loop_
_space_group_symop_operation_xyz
x,y,z
-x,y,-z
-x,-y,-z
x,-y,z
loop_
_atom_site_type_symbol
_atom_site_label
_atom_site_fract_x
_atom_site_fract_y
_atom_site_fract_z
Si Si1 0.893193 0.318394 0.264347
Si Si2 0.542851 0.178136 0.668875
Si Si3 0.663946 0.317189 0.022601
Si Si4 0.097346 0.682136 0.936438
Si Si5 0.951539 0.818201 0.595733
Si Si6 0.265692 0.680212 0.442817
Si Si7 0.464775 0.180204 0.126740
Si Si8 0.298749 0.180880 0.630835
O O1 0.889106 0.500000 0.275222
O O2 0.924341 0.268601 0.163692
O O3 0.774139 0.250779 0.288374
O O4 0.981303 0.250579 0.326699
O O5 0.620195 0.283998 0.607569
O O6 0.561560 0.214648 0.770623
O O7 0.422002 0.224508 0.646097
O O8 0.565983 0.000000 0.646026
O O9 0.656193 0.500000 0.030685
O O10 0.785783 0.255552 0.035076
O O11 0.584073 0.243900 0.098724
O O12 0.627732 0.264847 0.926357
O O13 0.098268 0.500000 0.945877
O O14 0.000000 0.752821 0.000000
O O15 0.829043 0.757714 0.611063
O O16 0.000000 0.761610 0.500000
O O17 0.954168 0.000000 0.603072
O O18 0.246598 0.500000 0.448389
O O19 0.260468 0.747903 0.540736
O O20 0.462952 0.000000 0.105718
O O21 0.279705 0.000000 0.627019
#
# Coordination Sequence:
#
# PCOD8062105 Si02
#       8
#     4   4   4   4   4   4   4   4
#     4  11  22  37  63  93 118 152 202 254 296 345
#     4  10  23  40  58  83 119 159 197 238 294 361
#     4  10  19  34  59  86 115 152 195 240 291 352
#     4   9  20  38  58  85 122 157 190 237 298 353
#     4  11  23  41  64  86 117 159 197 241 295 354
#     4  12  25  39  60  88 118 152 194 247 296 347
#     4  10  20  36  58  84 115 152 194 242 291 344
#     4  11  22  39  61  84 117 159 197 238 294 357
#
# _framework density 19.814830000000001
#
# number of rings (size 3 to 8) (size 9 to 14) (size 15 to 20)
#    0.000    1.500    1.250    4.875    0.000    5.000 
#    0.000    3.125    0.000    5.250    0.000    0.000 
#    0.000    0.000    0.000    0.000    0.000    0.000 
#
# Total GULP energy -396948.717650 kJ/mol
# GULP energy per Si atom -12404.647427 kJ/mol
# Density = 1.976973 g / cm^3
# Si number density = 19.814830 Si / 1000 Ang^3
#
#
#
# Elastic Constant Matrix: (Units=GPa)
#
#
# Indices 1 2 3 4 5 6 
#
# 1 137.6232 38.7406 67.8188 0.0000 3.8046 0.0000
# 2 38.7406 68.0966 31.8618 0.0000 -3.6513 0.0000
# 3 67.8188 31.8618 111.2044 0.0000 -4.5400 0.0000
# 4 0.0000 0.0000 0.0000 24.7208 0.0000 -3.3850
# 5 3.8046 -3.6513 -4.5400 0.0000 33.3617 0.0000
# 6 0.0000 0.0000 0.0000 -3.3850 0.0000 28.8000
#
#
#
# Elastic Compliance Matrix: (Units=1/GPa)
#
#
# Indices 1 2 3 4 5 6 
#
# 1 0.011324 -0.003808 -0.005917 0.000000 -0.002513 0.000000
# 2 -0.003808 0.018287 -0.002833 0.000000 0.002050 0.000000
# 3 -0.005917 -0.002833 0.013503 0.000000 0.002202 0.000000
# 4 0.000000 0.000000 0.000000 0.041114 0.000000 0.004832
# 5 -0.002513 0.002050 0.002202 0.000000 0.030785 0.000000
# 6 0.000000 0.000000 0.000000 0.004832 0.000000 0.035290
#
#
# Mechanical properties :
#
#
# Convention : Reuss Voigt Hill
#
# Bulk Modulus (GPa) = 55.56826 65.97405 60.77115
# Shear Modulus (GPa) = 27.56047 29.27669 28.41858
#
# Velocity S-wave (km/s) = 3.73352 3.84801 3.79120
# Velocity P-wave (km/s) = 6.83303 7.28770 7.06402
#
# Compressibility (1/GPa) = 0.01799589
#
# Stress axis : x y z
#
# Youngs Moduli (GPa) = 88.31046 54.68311 74.05815
#
# Poissons Ratio (x) = 0.20824 0.43823
# Poissons Ratio (y) = 0.33630 0.20984
# Poissons Ratio (z) = 0.52256 0.15494
#
# Static dielectric constant tensor:
#      x y z
#    x 3.802610 0.000000 -0.020780 
#    y 0.000000 3.552410 0.000000 
#    z -0.020780 0.000000 3.851040 
# 
# 
# High freq. dielectric constant tensor:
#      x y z
#    x 1.783340 0.000000 0.005820 
#    y 0.000000 1.770390 0.000000 
#    z 0.005820 0.000000 1.778760 
# 
# From -- ./inp_files/63838.got.cif
#   From: 2010.06.25/outbox.cif.g09.slc.cpg/sg10_32_cif.got.tgz:63838.got - 2010.06.27 22:07:45.
