data_PCOD8062076
_publ_section_title
;
Structure prediction by ZEFSAII (Michael W. Deem and Ramdas Pophale) SiO2 
 PCOD8062076
Probable space group: P 2/M
;
_chemical_formula_sum "Si O2"
_cell_formula_units_Z 32
_cell_length_a 9.447728
_cell_length_b 14.156648
_cell_length_c 24.974076
_cell_angle_alpha 90.000000
_cell_angle_beta 151.707526
_cell_angle_gamma 90.000000
_cell_volume 1583.180513
_symmetry_space_group_name_H-M "P 2/M"
_symmetry_group_IT_number 10
_symmetry_cell_setting 'monoclinic'
loop_
_space_group_symop_operation_xyz
x,y,z
-x,y,-z
-x,-y,-z
x,-y,z
loop_
_atom_site_type_symbol
_atom_site_label
_atom_site_fract_x
_atom_site_fract_y
_atom_site_fract_z
Si Si1 0.403203 0.238780 0.024691
Si Si2 0.224724 0.723416 0.222001
Si Si3 0.152316 0.296429 0.604209
Si Si4 0.170054 0.391177 0.403350
Si Si5 0.877878 0.608761 0.192743
Si Si6 0.989346 0.106020 0.588382
Si Si7 0.781504 0.108127 0.217479
Si Si8 0.655071 0.106889 0.665884
O O1 0.559727 0.340971 0.079828
O O2 0.499885 0.171824 0.105983
O O3 0.500000 0.191255 0.000000
O O4 0.047673 0.254247 0.908967
O O5 0.496218 0.675345 0.279161
O O6 0.361080 0.820666 0.290526
O O7 0.126487 0.654179 0.236990
O O8 0.000000 0.338131 0.500000
O O9 0.981401 0.334642 0.598978
O O10 0.129234 0.182164 0.594931
O O11 0.500000 0.351407 0.500000
O O12 0.192994 0.500000 0.428758
O O13 0.970246 0.377693 0.284687
O O14 0.840983 0.500000 0.164775
O O15 0.630249 0.114942 0.468218
O O16 0.117721 0.130672 0.689265
O O17 0.085099 0.000000 0.602418
O O18 0.056077 0.136186 0.271535
O O19 0.685662 0.000000 0.178850
O O20 0.683976 0.000000 0.697845
#
# Coordination Sequence:
#
# PCOD8062076 Si02
#       8
#     4   4   4   4   4   4   4   4
#     4  10  20  36  57  85 124 156 202 248 293 357
#     4  11  23  38  57  95 123 155 200 245 303 352
#     4  12  24  38  62  90 122 160 194 245 308 359
#     4  10  23  42  65  91 118 154 198 247 303 363
#     4  10  21  41  65  87 116 158 202 244 296 358
#     4  10  22  37  56  84 121 161 205 247 292 358
#     4  10  19  34  58  88 118 159 207 255 296 338
#     4  10  19  34  58  87 121 156 199 249 299 344
#
# _framework density 20.212477
#
# number of rings (size 3 to 8) (size 9 to 14) (size 15 to 20)
#    0.000    1.625    3.750    1.875    0.000    6.000 
#    0.000    2.500    0.000    3.000    0.000    0.000 
#    0.000    0.000    0.000    0.000    0.000    0.000 
#
# Total GULP energy -396799.372339 kJ/mol
# GULP energy per Si atom -12399.980386 kJ/mol
# Density = 2.016647 g / cm^3
# Si number density = 20.212477 Si / 1000 Ang^3
#
#
#
# Elastic Constant Matrix: (Units=GPa)
#
#
# Indices 1 2 3 4 5 6 
#
# 1 94.4052 40.5179 54.4894 0.0000 15.7163 0.0000
# 2 40.5179 92.2245 46.5955 0.0000 -2.5376 0.0000
# 3 54.4894 46.5955 148.6636 0.0000 11.1528 0.0000
# 4 0.0000 0.0000 0.0000 29.5012 0.0000 -1.8882
# 5 15.7163 -2.5376 11.1528 0.0000 31.4718 0.0000
# 6 0.0000 0.0000 0.0000 -1.8882 0.0000 17.4122
#
#
#
# Elastic Compliance Matrix: (Units=1/GPa)
#
#
# Indices 1 2 3 4 5 6 
#
# 1 0.016298 -0.005486 -0.003709 0.000000 -0.007267 0.000000
# 2 -0.005486 0.014930 -0.003046 0.000000 0.005023 0.000000
# 3 -0.003709 -0.003046 0.009164 0.000000 -0.001641 0.000000
# 4 0.000000 0.000000 0.000000 0.034134 0.000000 0.003701
# 5 -0.007267 0.005023 -0.001641 0.000000 0.036390 0.000000
# 6 0.000000 0.000000 0.000000 0.003701 0.000000 0.057832
#
#
# Mechanical properties :
#
#
# Convention : Reuss Voigt Hill
#
# Bulk Modulus (GPa) = 62.85216 68.72208 65.78712
# Shear Modulus (GPa) = 25.18475 28.58974 26.88724
#
# Velocity S-wave (km/s) = 3.53370 3.76501 3.65119
# Velocity P-wave (km/s) = 6.91467 7.27833 7.09883
#
# Compressibility (1/GPa) = 0.01591035
#
# Stress axis : x y z
#
# Youngs Moduli (GPa) = 61.35799 66.97739 109.12676
#
# Poissons Ratio (x) = 0.36746 0.40474
# Poissons Ratio (y) = 0.33663 0.33235
# Poissons Ratio (z) = 0.22757 0.20398
#
# Static dielectric constant tensor:
#      x y z
#    x 3.434570 0.000000 -0.040150 
#    y 0.000000 3.761250 0.000000 
#    z -0.040150 0.000000 3.768400 
# 
# 
# High freq. dielectric constant tensor:
#      x y z
#    x 1.768060 0.000000 -0.004560 
#    y 0.000000 1.791130 0.000000 
#    z -0.004560 0.000000 1.796460 
# 
# From -- ./inp_files/76994.got.cif
#   From: 2010.06.25/outbox.cif.g09.slc.cpg/sg10_39_cif.got.tgz:76994.got - 2010.06.27 22:07:45.
