data_PCOD8062648
_publ_section_title
;
Structure prediction by ZEFSAII (Michael W. Deem and Ramdas Pophale) SiO2 
 PCOD8062648
Probable space group: P 2/M
;
_chemical_formula_sum "Si O2"
_cell_formula_units_Z 26
_cell_length_a 18.243031
_cell_length_b 12.330903
_cell_length_c 7.629381
_cell_angle_alpha 90.000000
_cell_angle_beta 132.930195
_cell_angle_gamma 90.000000
_cell_volume 1256.612711
_symmetry_space_group_name_H-M "P 2/M"
_symmetry_group_IT_number 10
_symmetry_cell_setting 'monoclinic'
loop_
_space_group_symop_operation_xyz
x,y,z
-x,y,-z
-x,-y,-z
x,-y,z
loop_
_atom_site_type_symbol
_atom_site_label
_atom_site_fract_x
_atom_site_fract_y
_atom_site_fract_z
Si Si1 0.855779 0.000000 0.910381
Si Si2 0.924312 0.378118 0.028248
Si Si3 0.271967 0.000000 0.617244
Si Si4 0.616393 0.777885 0.207924
Si Si5 0.309316 0.771301 0.041213
Si Si6 0.084692 0.183947 0.765186
Si Si7 0.693769 0.373758 0.631810
Si Si8 0.309821 0.000000 0.072144
O O1 0.830980 0.000000 0.663312
O O2 0.755449 0.000000 0.860468
O O3 0.915602 0.108416 0.061650
O O4 0.941607 0.500000 0.120747
O O5 0.948426 0.304122 0.233528
O O6 0.810789 0.360175 0.777900
O O7 0.000000 0.345798 0.000000
O O8 0.332702 0.107883 0.660457
O O9 0.248055 0.000000 0.785201
O O10 0.660854 0.726310 0.100594
O O11 0.632422 0.688363 0.383752
O O12 0.500000 0.800422 0.000000
O O13 0.193176 0.809693 0.850345
O O14 0.332292 0.680101 0.222603
O O15 0.371529 0.885558 0.175496
O O16 0.000000 0.136434 0.500000
O O17 0.661982 0.500000 0.586568
#
# Coordination Sequence:
#
# PCOD8062648 Si02
#       8
#     2   4   2   4   4   4   4   2
#     4  10  19  37  54  80 122 158 185 232 284 345
#     4   9  19  36  57  83 113 147 195 242 288 342
#     4  10  19  37  63  84 117 150 190 246 296 343
#     4  11  23  38  62  91 116 152 198 244 296 346
#     4   9  20  38  58  83 118 151 192 241 289 347
#     4  10  20  34  56  83 115 154 192 234 288 346
#     4  10  22  40  60  84 118 158 195 239 293 349
#     4   8  16  32  58  83 104 146 190 233 288 339
#
# _framework density 20.690543000000002
#
# number of rings (size 3 to 8) (size 9 to 14) (size 15 to 20)
#    0.000    2.308    0.000    3.231    2.154    1.846 
#    2.769    1.154    0.000    8.308    0.000    0.000 
#    0.000    0.000    0.000    0.000    0.000    0.000 
#
# Total GULP energy -322217.933756 kJ/mol
# GULP energy per Si atom -12392.997452 kJ/mol
# Density = 2.064345 g / cm^3
# Si number density = 20.690543 Si / 1000 Ang^3
#
#
#
# Elastic Constant Matrix: (Units=GPa)
#
#
# Indices 1 2 3 4 5 6 
#
# 1 75.2293 36.9959 31.0137 0.0000 -15.3184 0.0000
# 2 36.9959 128.1039 48.2962 0.0000 -14.4247 0.0000
# 3 31.0137 48.2962 77.5924 0.0000 -12.3262 0.0000
# 4 0.0000 0.0000 0.0000 24.1558 0.0000 -10.2207
# 5 -15.3184 -14.4247 -12.3262 0.0000 27.1163 0.0000
# 6 0.0000 0.0000 0.0000 -10.2207 0.0000 8.6437
#
#
#
# Elastic Compliance Matrix: (Units=1/GPa)
#
#
# Indices 1 2 3 4 5 6 
#
# 1 0.017783 -0.002754 -0.004344 0.000000 0.006606 0.000000
# 2 -0.002754 0.010818 -0.005352 0.000000 0.001766 0.000000
# 3 -0.004344 -0.005352 0.018446 0.000000 0.003083 0.000000
# 4 0.000000 0.000000 0.000000 0.082847 0.000000 0.097961
# 5 0.006606 0.001766 0.003083 0.000000 0.042951 0.000000
# 6 0.000000 0.000000 0.000000 0.097961 0.000000 0.231523
#
#
# Mechanical properties :
#
#
# Convention : Reuss Voigt Hill
#
# Bulk Modulus (GPa) = 45.15544 57.05970 51.10757
# Shear Modulus (GPa) = 11.45079 22.95782 17.20430
#
# Velocity S-wave (km/s) = 2.35506 3.33465 2.88671
# Velocity P-wave (km/s) = 5.40987 6.51645 5.98877
#
# Compressibility (1/GPa) = 0.02214572
#
# Stress axis : x y z
#
# Youngs Moduli (GPa) = 56.23295 92.43644 54.21363
#
# Poissons Ratio (x) = 0.25457 0.23552
# Poissons Ratio (y) = 0.15487 0.29017
# Poissons Ratio (z) = 0.24429 0.49475
#
# Static dielectric constant tensor:
#      x y z
#    x 3.604030 0.000000 -0.104260 
#    y 0.000000 4.049040 0.000000 
#    z -0.104260 0.000000 3.465460 
# 
# 
# High freq. dielectric constant tensor:
#      x y z
#    x 1.798530 0.000000 -0.014330 
#    y 0.000000 1.826250 0.000000 
#    z -0.014330 0.000000 1.784480 
# 
# From -- ./inp_files/34938.got.cif
#   From: 2010.06.25/outbox.cif.g09.slc.cpg/sg10_18_cif.got.tgz:34938.got - 2010.06.27 22:07:45.
