data_PCOD8062237
_publ_section_title
;
Structure prediction by ZEFSAII (Michael W. Deem and Ramdas Pophale) SiO2 
 PCOD8062237
Probable space group: P 2/M
;
_chemical_formula_sum "Si O2"
_cell_formula_units_Z 28
_cell_length_a 10.352975
_cell_length_b 8.830631
_cell_length_c 30.579298
_cell_angle_alpha 90.000000
_cell_angle_beta 33.654776
_cell_angle_gamma 90.000000
_cell_volume 1549.320288
_symmetry_space_group_name_H-M "P 2/M"
_symmetry_group_IT_number 10
_symmetry_cell_setting 'monoclinic'
loop_
_space_group_symop_operation_xyz
x,y,z
-x,y,-z
-x,-y,-z
x,-y,z
loop_
_atom_site_type_symbol
_atom_site_label
_atom_site_fract_x
_atom_site_fract_y
_atom_site_fract_z
Si Si1 0.939863 0.177076 0.415011
Si Si2 0.141449 0.833720 0.004821
Si Si3 0.427894 0.819154 0.165406
Si Si4 0.296166 0.180601 0.827655
Si Si5 0.507320 0.177449 0.401328
Si Si6 0.045576 0.678460 0.683604
Si Si7 0.393277 0.820250 0.337181
O O1 0.697775 0.210264 0.506942
O O2 0.940546 0.263890 0.369543
O O3 0.147816 0.238624 0.387205
O O4 0.973294 0.000000 0.395383
O O5 0.965242 0.750613 0.089052
O O6 0.199456 0.000000 0.007062
O O7 0.390648 0.755799 0.923105
O O8 0.000000 0.850121 0.000000
O O9 0.519735 0.768283 0.187265
O O10 0.178269 0.744414 0.227988
O O11 0.407882 0.000000 0.168079
O O12 0.393501 0.237317 0.753600
O O13 0.274799 0.000000 0.835385
O O14 0.730794 0.269944 0.352645
O O15 0.429950 0.240480 0.375717
O O16 0.568061 0.000000 0.382583
O O17 0.030780 0.500000 0.687508
O O18 0.385527 0.000000 0.340077
#
# Coordination Sequence:
#
# PCOD8062237 Si02
#       7
#     4   4   4   4   4   4   4
#     4  10  19  35  57  78  98 125 165 211 255 298
#     4   7  11  19  39  74 105 125 149 193 250 297
#     4   9  15  28  50  74 100 129 164 203 247 293
#     4   8  12  22  46  79 106 123 151 200 253 295
#     4  10  21  35  53  76 101 131 167 205 250 301
#     4  12  24  35  49  71 102 137 173 208 246 292
#     4   9  16  29  53  82 105 125 157 206 254 298
#
# _framework density 18.072441999999999
#
# number of rings (size 3 to 8) (size 9 to 14) (size 15 to 20)
#    0.000    2.714    1.429    3.857    0.000    4.000 
#    0.000    0.714    0.000    6.429    0.000    6.000 
#    0.000    0.000    0.000    0.000    0.000    0.000 
#
# Total GULP energy -346932.738898 kJ/mol
# GULP energy per Si atom -12390.454961 kJ/mol
# Density = 1.803131 g / cm^3
# Si number density = 18.072442 Si / 1000 Ang^3
#
#
#
# Elastic Constant Matrix: (Units=GPa)
#
#
# Indices 1 2 3 4 5 6 
#
# 1 78.7348 19.5218 33.8999 0.0000 -20.6822 0.0000
# 2 19.5218 36.5310 31.5444 0.0000 -8.4101 0.0000
# 3 33.8999 31.5444 129.5819 0.0000 -24.6791 0.0000
# 4 0.0000 0.0000 0.0000 0.1270 0.0000 2.3422
# 5 -20.6822 -8.4101 -24.6791 0.0000 13.8661 0.0000
# 6 0.0000 0.0000 0.0000 2.3422 0.0000 -4.1910
#
#
#
# Elastic Compliance Matrix: (Units=1/GPa)
#
#
# Indices 1 2 3 4 5 6 
#
# 1 0.021847 -0.005837 0.001872 0.000000 0.032378 0.000000
# 2 -0.005837 0.036993 -0.007357 0.000000 0.000636 0.000000
# 3 0.001872 -0.007357 0.013162 0.000000 0.021755 0.000000
# 4 0.000000 0.000000 0.000000 0.696371 0.000000 0.389182
# 5 0.032378 0.000636 0.021755 0.000000 0.159518 0.000000
# 6 0.000000 0.000000 0.000000 0.389182 0.000000 -0.021103
#
#
# Mechanical properties :
#
#
# Convention : Reuss Voigt Hill
#
# Bulk Modulus (GPa) = 20.26065 46.08665 33.17365
# Shear Modulus (GPa) = 5.28606 12.61920 8.95263
#
# Velocity S-wave (km/s) = 1.71210 2.64532 2.22812
# Velocity P-wave (km/s) = 3.89147 5.90650 5.00151
#
# Compressibility (1/GPa) = 0.04935675
#
# Stress axis : x y z
#
# Youngs Moduli (GPa) = 45.77212 27.03242 75.97839
#
# Poissons Ratio (x) = 0.15780 -0.14223
# Poissons Ratio (y) = 0.26719 0.55897
# Poissons Ratio (z) = -0.08569 0.19888
#
# Static dielectric constant tensor:
#      x y z
#    x 3.221850 0.000000 0.009780 
#    y 0.000000 2.812350 0.000000 
#    z 0.009780 0.000000 3.914500 
# 
# 
# High freq. dielectric constant tensor:
#      x y z
#    x 1.668700 0.000000 -0.004020 
#    y 0.000000 1.640160 0.000000 
#    z -0.004020 0.000000 1.730760 
# 
# From -- ./inp_files/94489.got.cif
#   From: 2010.06.25/outbox.cif.g09.slc.cpg/sg10_48_cif.got.tgz:94489.got - 2010.06.27 22:07:45.
