data_PCOD8062150
_publ_section_title
;
Structure prediction by ZEFSAII (Michael W. Deem and Ramdas Pophale) SiO2 
 PCOD8062150
Probable space group: P 2/M
;
_chemical_formula_sum "Si O2"
_cell_formula_units_Z 32
_cell_length_a 21.849723
_cell_length_b 9.015221
_cell_length_c 12.080319
_cell_angle_alpha 90.000000
_cell_angle_beta 133.734205
_cell_angle_gamma 90.000000
_cell_volume 1719.378003
_symmetry_space_group_name_H-M "P 2/M"
_symmetry_group_IT_number 10
_symmetry_cell_setting 'monoclinic'
loop_
_space_group_symop_operation_xyz
x,y,z
-x,y,-z
-x,-y,-z
x,-y,z
loop_
_atom_site_type_symbol
_atom_site_label
_atom_site_fract_x
_atom_site_fract_y
_atom_site_fract_z
Si Si1 0.878879 0.326656 0.110027
Si Si2 0.779346 0.828438 0.370748
Si Si3 0.582722 0.824784 0.736157
Si Si4 0.734691 0.176018 0.072139
Si Si5 0.393885 0.175819 0.482616
Si Si6 0.094079 0.325246 0.103804
Si Si7 0.751412 0.324080 0.558768
Si Si8 0.023420 0.829572 0.405493
O O1 0.868349 0.500000 0.118484
O O2 0.812468 0.240241 0.101254
O O3 0.973512 0.276766 0.259815
O O4 0.866140 0.285356 0.965597
O O5 0.738156 0.772913 0.204053
O O6 0.739673 0.733125 0.419583
O O7 0.878674 0.799796 0.490989
O O8 0.757979 0.000000 0.365158
O O9 0.613292 0.770538 0.653676
O O10 0.486894 0.775240 0.643249
O O11 0.584674 0.000000 0.735776
O O12 0.646769 0.764194 0.909952
O O13 0.743329 0.000000 0.075742
O O14 0.325595 0.263787 0.466282
O O15 0.379472 0.000000 0.477026
O O16 0.084957 0.500000 0.105859
O O17 0.159610 0.264565 0.278240
O O18 0.000000 0.253359 0.000000
O O19 0.748252 0.500000 0.556427
O O20 0.000000 0.783415 0.500000
O O21 0.998374 0.000000 0.351782
#
# Coordination Sequence:
#
# PCOD8062150 Si02
#       8
#     4   4   4   4   4   4   4   4
#     4  11  21  32  52  80 106 136 175 218 264 315
#     4  10  21  36  54  74 102 140 180 221 262 306
#     4   8  16  32  59  86 107 134 172 218 265 315
#     4  10  19  35  55  77 105 138 173 216 268 314
#     4   9  17  34  58  85 110 134 171 218 264 315
#     4   9  19  35  51  71 104 140 173 213 258 306
#     4  11  22  36  55  77 106 144 180 213 262 320
#     4  10  19  35  53  73 103 140 177 219 264 304
#
# _framework density 18.611383
#
# number of rings (size 3 to 8) (size 9 to 14) (size 15 to 20)
#    0.000    2.250    1.250    3.000    0.000    2.250 
#    0.000    4.375    0.000    8.250    0.000    0.000 
#    0.000    0.000    0.000    0.000    0.000    0.000 
#
# Total GULP energy -396775.281838 kJ/mol
# GULP energy per Si atom -12399.227557 kJ/mol
# Density = 1.856902 g / cm^3
# Si number density = 18.611383 Si / 1000 Ang^3
#
#
#
# Elastic Constant Matrix: (Units=GPa)
#
#
# Indices 1 2 3 4 5 6 
#
# 1 125.7408 35.5530 69.1112 0.0000 -1.4788 0.0000
# 2 35.5530 36.5212 34.8490 0.0000 -3.4585 0.0000
# 3 69.1112 34.8490 156.3657 0.0000 -2.9256 0.0000
# 4 0.0000 0.0000 0.0000 11.3461 0.0000 5.6308
# 5 -1.4788 -3.4585 -2.9256 0.0000 25.9208 0.0000
# 6 0.0000 0.0000 0.0000 5.6308 0.0000 17.8367
#
#
#
# Elastic Compliance Matrix: (Units=1/GPa)
#
#
# Indices 1 2 3 4 5 6 
#
# 1 0.012353 -0.008741 -0.003528 0.000000 -0.000860 0.000000
# 2 -0.008741 0.041334 -0.005266 0.000000 0.004422 0.000000
# 3 -0.003528 -0.005266 0.009131 0.000000 0.000127 0.000000
# 4 0.000000 0.000000 0.000000 0.104510 0.000000 -0.032993
# 5 -0.000860 0.004422 0.000127 0.000000 0.039134 0.000000
# 6 0.000000 0.000000 0.000000 -0.032993 0.000000 0.066480
#
#
# Mechanical properties :
#
#
# Convention : Reuss Voigt Hill
#
# Bulk Modulus (GPa) = 36.03821 66.40601 51.22211
# Shear Modulus (GPa) = 15.75992 22.96169 19.36080
#
# Velocity S-wave (km/s) = 2.91312 3.51628 3.22882
# Velocity P-wave (km/s) = 5.54262 7.22796 6.44065
#
# Compressibility (1/GPa) = 0.02774833
#
# Stress axis : x y z
#
# Youngs Moduli (GPa) = 80.95011 24.19315 109.52188
#
# Poissons Ratio (x) = 0.21147 0.38639
# Poissons Ratio (y) = 0.70756 0.57675
# Poissons Ratio (z) = 0.28559 0.12740
#
# Static dielectric constant tensor:
#      x y z
#    x 3.320280 0.000000 0.035840 
#    y 0.000000 3.116700 0.000000 
#    z 0.035840 0.000000 4.012130 
# 
# 
# High freq. dielectric constant tensor:
#      x y z
#    x 1.721410 0.000000 -0.001830 
#    y 0.000000 1.693580 0.000000 
#    z -0.001830 0.000000 1.731980 
# 
# From -- ./inp_files/55343.got.cif
#   From: 2010.06.25/outbox.cif.g09.slc.cpg/sg10_28_cif.got.tgz:55343.got - 2010.06.27 22:07:45.
