data_PCOD8062176
_publ_section_title
;
Structure prediction by ZEFSAII (Michael W. Deem and Ramdas Pophale) SiO2 
 PCOD8062176
Probable space group: P 2/M
;
_chemical_formula_sum "Si O2"
_cell_formula_units_Z 28
_cell_length_a 13.797783
_cell_length_b 9.173723
_cell_length_c 16.564250
_cell_angle_alpha 90.000000
_cell_angle_beta 137.939548
_cell_angle_gamma 90.000000
_cell_volume 1404.578344
_symmetry_space_group_name_H-M "P 2/M"
_symmetry_group_IT_number 10
_symmetry_cell_setting 'monoclinic'
loop_
_space_group_symop_operation_xyz
x,y,z
-x,y,-z
-x,-y,-z
x,-y,z
loop_
_atom_site_type_symbol
_atom_site_label
_atom_site_fract_x
_atom_site_fract_y
_atom_site_fract_z
Si Si1 0.422485 0.671401 0.838835
Si Si2 0.973189 0.666721 0.574424
Si Si3 0.307548 0.838164 0.037675
Si Si4 0.649109 0.666787 0.378985
Si Si5 0.420703 0.325753 0.366325
Si Si6 0.166912 0.827985 0.118817
Si Si7 0.794381 0.837964 0.192134
O O1 0.406624 0.500000 0.843070
O O2 0.587515 0.715698 0.932169
O O3 0.350398 0.730130 0.711241
O O4 0.347721 0.749967 0.867786
O O5 0.026257 0.500000 0.612296
O O6 0.812159 0.685251 0.509952
O O7 0.000000 0.721904 0.500000
O O8 0.061349 0.764599 0.688874
O O9 0.243876 0.787257 0.082810
O O10 0.378609 0.000000 0.090126
O O11 0.186671 0.843603 0.893036
O O12 0.602654 0.500000 0.343899
O O13 0.532010 0.737149 0.367131
O O14 0.500000 0.281074 0.500000
O O15 0.399419 0.500000 0.351298
O O16 0.261446 0.252886 0.248726
O O17 0.168022 0.000000 0.138832
O O18 0.000000 0.775318 0.000000
O O19 0.780522 0.000000 0.219383
#
# Coordination Sequence:
#
# PCOD8062176 Si02
#       7
#     4   4   4   4   4   4   4
#     4  11  20  35  59  83 109 147 194 233 275 337
#     4  10  19  35  55  76 108 149 190 231 277 332
#     4  10  22  39  56  80 116 153 188 236 291 339
#     4   9  18  34  56  81 110 144 181 230 284 334
#     4  10  21  39  63  91 120 150 192 248 305 357
#     4  10  22  41  64  88 118 158 201 244 296 357
#     4  11  23  36  52  81 120 153 188 235 286 339
#
# _framework density 19.934806999999999
#
# number of rings (size 3 to 8) (size 9 to 14) (size 15 to 20)
#    0.000    1.857    2.857    1.286    0.000    4.857 
#    0.000    0.714    0.000    0.000    0.000    0.000 
#    0.000    0.000    0.000    0.000    0.000    0.000 
#
# Total GULP energy -346881.155862 kJ/mol
# GULP energy per Si atom -12388.612709 kJ/mol
# Density = 1.988943 g / cm^3
# Si number density = 19.934807 Si / 1000 Ang^3
#
#
#
# Elastic Constant Matrix: (Units=GPa)
#
#
# Indices 1 2 3 4 5 6 
#
# 1 66.0684 18.2190 42.0663 0.0000 -0.0506 0.0000
# 2 18.2190 64.6716 51.5439 0.0000 2.1441 0.0000
# 3 42.0663 51.5439 132.8482 0.0000 1.4042 0.0000
# 4 0.0000 0.0000 0.0000 35.8915 0.0000 5.9440
# 5 -0.0506 2.1441 1.4042 0.0000 26.0028 0.0000
# 6 0.0000 0.0000 0.0000 5.9440 0.0000 23.3965
#
#
#
# Elastic Compliance Matrix: (Units=1/GPa)
#
#
# Indices 1 2 3 4 5 6 
#
# 1 0.018991 -0.000821 -0.005699 0.000000 0.000412 0.000000
# 2 -0.000821 0.022470 -0.008443 0.000000 -0.001398 0.000000
# 3 -0.005699 -0.008443 0.012608 0.000000 0.000004 0.000000
# 4 0.000000 0.000000 0.000000 0.029086 0.000000 -0.007389
# 5 0.000412 -0.001398 0.000004 0.000000 0.038573 0.000000
# 6 0.000000 0.000000 0.000000 -0.007389 0.000000 0.044619
#
#
# Mechanical properties :
#
#
# Convention : Reuss Voigt Hill
#
# Bulk Modulus (GPa) = 41.42280 54.13851 47.78066
# Shear Modulus (GPa) = 24.47122 27.17542 25.82332
#
# Velocity S-wave (km/s) = 3.50746 3.69618 3.60306
# Velocity P-wave (km/s) = 6.10142 6.74036 6.42883
#
# Compressibility (1/GPa) = 0.02414129
#
# Stress axis : x y z
#
# Youngs Moduli (GPa) = 52.65525 44.50415 79.31548
#
# Poissons Ratio (x) = 0.03656 0.45204
# Poissons Ratio (y) = 0.04326 0.66967
# Poissons Ratio (z) = 0.30010 0.37576
#
# Static dielectric constant tensor:
#      x y z
#    x 3.670550 0.000000 -0.128960 
#    y 0.000000 3.537260 0.000000 
#    z -0.128960 0.000000 3.844820 
# 
# 
# High freq. dielectric constant tensor:
#      x y z
#    x 1.769450 0.000000 -0.004120 
#    y 0.000000 1.758350 0.000000 
#    z -0.004120 0.000000 1.788560 
# 
# From -- ./inp_files/77792.got.cif
#   From: 2010.06.25/outbox.cif.g09.slc.cpg/sg10_39_cif.got.tgz:77792.got - 2010.06.27 22:07:45.
