data_PCOD8062317
_publ_section_title
;
Structure prediction by ZEFSAII (Michael W. Deem and Ramdas Pophale) SiO2 
 PCOD8062317
Probable space group: P 2/M
;
_chemical_formula_sum "Si O2"
_cell_formula_units_Z 28
_cell_length_a 19.095443
_cell_length_b 17.769845
_cell_length_c 10.848016
_cell_angle_alpha 90.000000
_cell_angle_beta 156.373735
_cell_angle_gamma 90.000000
_cell_volume 1475.223703
_symmetry_space_group_name_H-M "P 2/M"
_symmetry_group_IT_number 10
_symmetry_cell_setting 'monoclinic'
loop_
_space_group_symop_operation_xyz
x,y,z
-x,y,-z
-x,-y,-z
x,-y,z
loop_
_atom_site_type_symbol
_atom_site_label
_atom_site_fract_x
_atom_site_fract_y
_atom_site_fract_z
Si Si1 0.486549 0.641631 0.124587
Si Si2 0.988538 0.780945 0.778760
Si Si3 0.509373 0.914189 0.872181
Si Si4 0.082392 0.640479 0.500083
Si Si5 0.909050 0.913616 0.480614
Si Si6 0.990882 0.500000 0.781859
Si Si7 0.286674 0.779998 0.449020
Si Si8 0.288758 0.500000 0.462226
O O1 0.561227 0.718503 0.301166
O O2 0.593090 0.573484 0.355381
O O3 0.500000 0.641411 0.000000
O O4 0.288863 0.632599 0.848081
O O5 0.968445 0.720093 0.639786
O O6 0.985246 0.863693 0.714034
O O7 0.830435 0.771256 0.618584
O O8 0.172541 0.768868 0.142841
O O9 0.374181 0.862054 0.581026
O O10 0.449311 0.000000 0.755455
O O11 0.500000 0.891681 0.000000
O O12 0.702713 0.900132 0.132192
O O13 0.003011 0.574450 0.289598
O O14 0.000000 0.634071 0.500000
O O15 0.000000 0.890562 0.500000
O O16 0.948600 0.000000 0.579663
O O17 0.813680 0.500000 0.574372
O O18 0.159422 0.500000 0.139224
#
# Coordination Sequence:
#
# PCOD8062317 Si02
#       8
#     4   4   4   4   4   2   4   2
#     4  12  21  39  63  88 115 152 201 235 272 344
#     4  11  22  38  58  87 119 150 190 241 295 337
#     4  10  19  35  58  85 115 148 194 239 282 341
#     4  12  25  41  61  87 120 156 193 234 286 343
#     4  10  21  38  59  83 115 155 193 232 285 350
#     4  11  22  41  62  91 124 149 186 242 293 331
#     4  11  22  36  60  89 116 147 192 247 292 331
#     4  11  22  38  66  94 116 148 195 240 285 337
#
# _framework density 18.980174000000002
#
# number of rings (size 3 to 8) (size 9 to 14) (size 15 to 20)
#    0.000    1.000    4.286    3.429    0.000    2.857 
#    0.000    7.143    0.000    2.571    0.000    0.000 
#    0.000    0.000    0.000    0.000    0.000    0.000 
#
# Total GULP energy -347380.972743 kJ/mol
# GULP energy per Si atom -12406.463312 kJ/mol
# Density = 1.893697 g / cm^3
# Si number density = 18.980174 Si / 1000 Ang^3
#
#
#
# Elastic Constant Matrix: (Units=GPa)
#
#
# Indices 1 2 3 4 5 6 
#
# 1 106.9296 29.7024 53.9242 0.0000 6.6446 0.0000
# 2 29.7024 111.9916 49.5773 0.0000 -9.4703 0.0000
# 3 53.9242 49.5773 107.3145 0.0000 4.1509 0.0000
# 4 0.0000 0.0000 0.0000 26.0685 0.0000 -4.6634
# 5 6.6446 -9.4703 4.1509 0.0000 25.2447 0.0000
# 6 0.0000 0.0000 0.0000 -4.6634 0.0000 3.9790
#
#
#
# Elastic Compliance Matrix: (Units=1/GPa)
#
#
# Indices 1 2 3 4 5 6 
#
# 1 0.012748 -0.001042 -0.005816 0.000000 -0.002790 0.000000
# 2 -0.001042 0.012002 -0.005239 0.000000 0.005638 0.000000
# 3 -0.005816 -0.005239 0.014772 0.000000 -0.002863 0.000000
# 4 0.000000 0.000000 0.000000 0.048537 0.000000 0.056885
# 5 -0.002790 0.005638 -0.002863 0.000000 0.042933 0.000000
# 6 0.000000 0.000000 0.000000 0.056885 0.000000 0.317986
#
#
# Mechanical properties :
#
#
# Convention : Reuss Voigt Hill
#
# Bulk Modulus (GPa) = 65.24495 65.84929 65.54712
# Shear Modulus (GPa) = 10.45412 23.92722 17.19067
#
# Velocity S-wave (km/s) = 2.34944 3.55441 3.01278
# Velocity P-wave (km/s) = 6.46605 7.18430 6.83461
#
# Compressibility (1/GPa) = 0.01532686
#
# Stress axis : x y z
#
# Youngs Moduli (GPa) = 78.44400 83.32206 67.69516
#
# Poissons Ratio (x) = 0.08683 0.39374
# Poissons Ratio (y) = 0.08175 0.35465
# Poissons Ratio (z) = 0.45626 0.43652
#
# Static dielectric constant tensor:
#      x y z
#    x 3.325520 0.000000 -0.055550 
#    y 0.000000 3.701050 0.000000 
#    z -0.055550 0.000000 3.058570 
# 
# 
# High freq. dielectric constant tensor:
#      x y z
#    x 1.723610 0.000000 0.006310 
#    y 0.000000 1.757990 0.000000 
#    z 0.006310 0.000000 1.742730 
# 
# From -- ./inp_files/56124.got.cif
#   From: 2010.06.25/outbox.cif.g09.slc.cpg/sg10_29_cif.got.tgz:56124.got - 2010.06.27 22:07:45.
