data_PCOD8062483
_publ_section_title
;
Structure prediction by ZEFSAII (Michael W. Deem and Ramdas Pophale) SiO2 
 PCOD8062483
Probable space group: P 2/M
;
_chemical_formula_sum "Si O2"
_cell_formula_units_Z 28
_cell_length_a 17.048479
_cell_length_b 12.746802
_cell_length_c 19.532061
_cell_angle_alpha 90.000000
_cell_angle_beta 160.055922
_cell_angle_gamma 90.000000
_cell_volume 1447.838961
_symmetry_space_group_name_H-M "P 2/M"
_symmetry_group_IT_number 10
_symmetry_cell_setting 'monoclinic'
loop_
_space_group_symop_operation_xyz
x,y,z
-x,y,-z
-x,-y,-z
x,-y,z
loop_
_atom_site_type_symbol
_atom_site_label
_atom_site_fract_x
_atom_site_fract_y
_atom_site_fract_z
Si Si1 0.416096 0.381401 0.855314
Si Si2 0.228929 0.221309 0.155590
Si Si3 0.000000 0.226448 0.500000
Si Si4 0.988226 0.118405 0.634227
Si Si5 0.500000 0.686359 0.500000
Si Si6 0.989930 0.380825 0.860897
Si Si7 0.222071 0.272348 0.930376
Si Si8 0.462659 0.884250 0.225303
O O1 0.323562 0.500000 0.771870
O O2 0.220330 0.300160 0.674543
O O3 0.500000 0.357388 0.000000
O O4 0.631282 0.367250 0.980916
O O5 0.417543 0.243676 0.368560
O O6 0.344257 0.137734 0.200652
O O7 0.000000 0.168928 0.000000
O O8 0.145368 0.326527 0.047092
O O9 0.005308 0.150244 0.569212
O O10 0.126795 0.202607 0.791145
O O11 0.734220 0.121210 0.456358
O O12 0.088581 0.000000 0.723662
O O13 0.281252 0.617902 0.344211
O O14 0.076261 0.500000 0.926175
O O15 0.025036 0.321522 0.817150
O O16 0.392131 0.200038 0.112224
O O17 0.384706 0.000000 0.137301
#
# Coordination Sequence:
#
# PCOD8062483 Si02
#       8
#     4   4   2   4   2   4   4   4
#     4  11  23  40  62  86 117 155 194 236 291 345
#     4   9  20  36  56  82 113 146 187 236 283 340
#     4  12  22  42  60  88 118 152 192 246 288 348
#     4  11  23  38  60  88 116 153 195 241 293 345
#     4  10  19  36  57  80 116 154 183 230 287 338
#     4  10  21  35  56  84 114 149 190 233 282 339
#     4  11  21  40  60  84 117 152 194 241 287 342
#     4  10  21  38  59  83 115 151 190 239 292 341
#
# _framework density 19.339168000000001
#
# number of rings (size 3 to 8) (size 9 to 14) (size 15 to 20)
#    0.000    1.571    2.857    2.357    0.000    3.429 
#    0.000    1.071    0.000    0.000    0.000    0.000 
#    0.000    0.000    0.000    0.000    0.000    0.000 
#
# Total GULP energy -347200.942112 kJ/mol
# GULP energy per Si atom -12400.033647 kJ/mol
# Density = 1.929515 g / cm^3
# Si number density = 19.339168 Si / 1000 Ang^3
#
#
#
# Elastic Constant Matrix: (Units=GPa)
#
#
# Indices 1 2 3 4 5 6 
#
# 1 117.7200 29.1053 30.5629 0.0000 3.5750 0.0000
# 2 29.1053 76.5333 23.6584 0.0000 7.3868 0.0000
# 3 30.5629 23.6584 71.4041 0.0000 -0.4724 0.0000
# 4 0.0000 0.0000 0.0000 9.3495 0.0000 -8.1197
# 5 3.5750 7.3868 -0.4724 0.0000 33.5232 0.0000
# 6 0.0000 0.0000 0.0000 -8.1197 0.0000 30.8528
#
#
#
# Elastic Compliance Matrix: (Units=1/GPa)
#
#
# Indices 1 2 3 4 5 6 
#
# 1 0.010070 -0.002725 -0.003411 0.000000 -0.000522 0.000000
# 2 -0.002725 0.015663 -0.004045 0.000000 -0.003218 0.000000
# 3 -0.003411 -0.004045 0.016815 0.000000 0.001492 0.000000
# 4 0.000000 0.000000 0.000000 0.138646 0.000000 0.036488
# 5 -0.000522 -0.003218 0.001492 0.000000 0.030616 0.000000
# 6 0.000000 0.000000 0.000000 0.036488 0.000000 0.042015
#
#
# Mechanical properties :
#
#
# Convention : Reuss Voigt Hill
#
# Bulk Modulus (GPa) = 45.07104 48.03450 46.55277
# Shear Modulus (GPa) = 17.75688 26.90047 22.32867
#
# Velocity S-wave (km/s) = 3.03344 3.73364 3.40160
# Velocity P-wave (km/s) = 5.96868 6.59383 6.28903
#
# Compressibility (1/GPa) = 0.02218720
#
# Stress axis : x y z
#
# Youngs Moduli (GPa) = 99.30711 63.84326 59.47167
#
# Poissons Ratio (x) = 0.17396 0.20284
# Poissons Ratio (y) = 0.27059 0.24055
# Poissons Ratio (z) = 0.33871 0.25823
#
# Static dielectric constant tensor:
#      x y z
#    x 3.746750 0.000000 0.067590 
#    y 0.000000 3.496990 0.000000 
#    z 0.067590 0.000000 3.459530 
# 
# 
# High freq. dielectric constant tensor:
#      x y z
#    x 1.771900 0.000000 0.005710 
#    y 0.000000 1.750070 0.000000 
#    z 0.005710 0.000000 1.748660 
# 
# From -- ./inp_files/79548.got.cif
#   From: 2010.06.25/outbox.cif.g09.slc.cpg/sg10_40_cif.got.tgz:79548.got - 2010.06.27 22:07:45.
