data_PCOD8062009
_publ_section_title
;
Structure prediction by ZEFSAII (Michael W. Deem and Ramdas Pophale) SiO2 
 PCOD8062009
Probable space group: P 2/M
;
_chemical_formula_sum "Si O2"
_cell_formula_units_Z 28
_cell_length_a 15.107770
_cell_length_b 8.668873
_cell_length_c 21.810141
_cell_angle_alpha 90.000000
_cell_angle_beta 27.686080
_cell_angle_gamma 90.000000
_cell_volume 1327.167850
_symmetry_space_group_name_H-M "P 2/M"
_symmetry_group_IT_number 10
_symmetry_cell_setting 'monoclinic'
loop_
_space_group_symop_operation_xyz
x,y,z
-x,y,-z
-x,-y,-z
x,-y,z
loop_
_atom_site_type_symbol
_atom_site_label
_atom_site_fract_x
_atom_site_fract_y
_atom_site_fract_z
Si Si1 0.795991 0.171006 0.602262
Si Si2 0.485508 0.182996 0.578419
Si Si3 0.583245 0.322323 0.156698
Si Si4 0.243579 0.677586 0.187778
Si Si5 0.419179 0.178424 0.963173
Si Si6 0.785192 0.182749 0.147675
Si Si7 0.849123 0.170245 0.429182
O O1 0.642345 0.298934 0.714666
O O2 0.779509 0.151701 0.540336
O O3 0.000000 0.231982 0.500000
O O4 0.752251 0.000000 0.658152
O O5 0.500000 0.251395 0.500000
O O6 0.297129 0.234768 0.734293
O O7 0.676084 0.240180 0.495564
O O8 0.481670 0.000000 0.577582
O O9 0.638894 0.500000 0.117033
O O10 0.674316 0.225267 0.044627
O O11 0.648888 0.256314 0.180900
O O12 0.278662 0.500000 0.182472
O O13 0.353078 0.783318 0.171348
O O14 0.020887 0.710798 0.322705
O O15 0.320948 0.714004 0.073144
O O16 0.379823 0.000000 0.000902
O O17 0.773239 0.000000 0.148902
O O18 0.000000 0.240327 0.000000
O O19 0.909234 0.000000 0.367024
#
# Coordination Sequence:
#
# PCOD8062009 Si02
#       7
#     4   4   4   4   4   4   4
#     4  10  20  35  58  87 119 158 204 250 297 362
#     4   9  18  35  60  89 119 153 204 266 317 367
#     4  12  24  38  59  88 124 159 199 254 320 376
#     4  11  22  37  57  87 126 159 199 251 310 368
#     4  11  22  39  61  84 117 163 212 249 298 368
#     4  10  21  40  65  91 119 160 215 269 320 381
#     4  10  19  34  57  84 118 158 202 248 303 367
#
# _framework density 21.097559
#
# number of rings (size 3 to 8) (size 9 to 14) (size 15 to 20)
#    0.000    1.571    1.429    5.571    0.000    3.429 
#    0.000    2.857    0.000    1.714    0.000    0.000 
#    0.000    0.000    0.000    0.000    0.000    0.000 
#
# Total GULP energy -347029.446317 kJ/mol
# GULP energy per Si atom -12393.908797 kJ/mol
# Density = 2.104954 g / cm^3
# Si number density = 21.097559 Si / 1000 Ang^3
#
#
#
# Elastic Constant Matrix: (Units=GPa)
#
#
# Indices 1 2 3 4 5 6 
#
# 1 108.1695 14.4564 29.4029 0.0000 21.8914 0.0000
# 2 14.4564 64.8432 19.5318 0.0000 1.8832 0.0000
# 3 29.4029 19.5318 84.5368 0.0000 6.2642 0.0000
# 4 0.0000 0.0000 0.0000 23.3437 0.0000 0.9803
# 5 21.8914 1.8832 6.2642 0.0000 27.9462 0.0000
# 6 0.0000 0.0000 0.0000 0.9803 0.0000 20.3469
#
#
#
# Elastic Compliance Matrix: (Units=1/GPa)
#
#
# Indices 1 2 3 4 5 6 
#
# 1 0.012062 -0.001470 -0.003216 0.000000 -0.008628 0.000000
# 2 -0.001470 0.016756 -0.003419 0.000000 0.000788 0.000000
# 3 -0.003216 -0.003419 0.013763 0.000000 -0.000335 0.000000
# 4 0.000000 0.000000 0.000000 0.042925 0.000000 -0.002068
# 5 -0.008628 0.000788 -0.000335 0.000000 0.042564 0.000000
# 6 0.000000 0.000000 0.000000 -0.002068 0.000000 0.049247
#
#
# Mechanical properties :
#
#
# Convention : Reuss Voigt Hill
#
# Bulk Modulus (GPa) = 37.92014 42.70353 40.31183
# Shear Modulus (GPa) = 24.71377 27.27125 25.99251
#
# Velocity S-wave (km/s) = 3.42629 3.59921 3.51382
# Velocity P-wave (km/s) = 5.80219 6.12841 5.96753
#
# Compressibility (1/GPa) = 0.02637121
#
# Stress axis : x y z
#
# Youngs Moduli (GPa) = 82.90749 59.67882 72.66111
#
# Poissons Ratio (x) = 0.08771 0.23370
# Poissons Ratio (y) = 0.12185 0.24841
# Poissons Ratio (z) = 0.26665 0.20403
#
# Static dielectric constant tensor:
#      x y z
#    x 4.005290 0.000000 0.113990 
#    y 0.000000 3.520980 0.000000 
#    z 0.113990 0.000000 4.151400 
# 
# 
# High freq. dielectric constant tensor:
#      x y z
#    x 1.831090 0.000000 0.012250 
#    y 0.000000 1.798610 0.000000 
#    z 0.012250 0.000000 1.825840 
# 
# From -- ./inp_files/84918.got.cif
#   From: 2010.06.25/outbox.cif.g09.slc.cpg/sg10_43_cif.got.tgz:84918.got - 2010.06.27 22:07:45.
