data_PCOD8062914
_publ_section_title
;
Structure prediction by ZEFSAII (Michael W. Deem and Ramdas Pophale) SiO2 
 PCOD8062914
Probable space group: P 2/M
;
_chemical_formula_sum "Si O2"
_cell_formula_units_Z 28
_cell_length_a 13.833430
_cell_length_b 8.887907
_cell_length_c 32.873683
_cell_angle_alpha 90.000000
_cell_angle_beta 155.188203
_cell_angle_gamma 90.000000
_cell_volume 1696.108247
_symmetry_space_group_name_H-M "P 2/M"
_symmetry_group_IT_number 10
_symmetry_cell_setting 'monoclinic'
loop_
_space_group_symop_operation_xyz
x,y,z
-x,y,-z
-x,-y,-z
x,-y,z
loop_
_atom_site_type_symbol
_atom_site_label
_atom_site_fract_x
_atom_site_fract_y
_atom_site_fract_z
Si Si1 0.920583 0.165577 0.515862
Si Si2 0.679082 0.322649 0.977869
Si Si3 0.583492 0.823292 0.280729
Si Si4 0.479971 0.323225 0.326140
Si Si5 0.298290 0.334568 0.890505
Si Si6 0.745981 0.825423 0.918368
Si Si7 0.985212 0.177118 0.829929
O O1 0.710129 0.281621 0.439682
O O2 0.000000 0.155759 0.500000
O O3 0.149520 0.217881 0.627914
O O4 0.838723 0.000000 0.499323
O O5 0.721033 0.500000 0.998798
O O6 0.422952 0.278736 0.896627
O O7 0.690152 0.275815 0.935580
O O8 0.877578 0.239387 0.078870
O O9 0.492064 0.732150 0.284438
O O10 0.431854 0.777107 0.184385
O O11 0.560049 0.000000 0.282131
O O12 0.445795 0.500000 0.313537
O O13 0.268294 0.245812 0.267977
O O14 0.185198 0.500000 0.841400
O O15 0.106047 0.219126 0.833122
O O16 0.500000 0.347231 0.000000
O O17 0.720287 0.000000 0.920307
O O18 0.000000 0.788356 0.000000
O O19 0.969939 0.000000 0.828245
#
# Coordination Sequence:
#
# PCOD8062914 Si02
#       7
#     4   4   4   4   4   4   4
#     4   8  15  29  46  63  88 121 154 188 229 274
#     4  10  20  33  48  67  94 125 154 188 228 269
#     4   9  18  32  47  65  93 127 159 192 227 264
#     4  11  20  29  45  69  95 120 150 191 235 277
#     4   8  16  31  47  65  91 119 148 185 229 272
#     4  10  20  32  47  68  94 126 162 193 219 257
#     4  11  20  30  47  69  93 121 153 188 228 275
#
# _framework density 16.508379999999999
#
# number of rings (size 3 to 8) (size 9 to 14) (size 15 to 20)
#    0.000    2.429    0.000    5.571    0.000    7.714 
#    0.000    0.000    0.000    0.000    0.000    1.000 
#    0.000    8.000    0.000    0.000    0.000    0.000 
#
# Total GULP energy -347105.390162 kJ/mol
# GULP energy per Si atom -12396.621077 kJ/mol
# Density = 1.647081 g / cm^3
# Si number density = 16.508380 Si / 1000 Ang^3
#
#
#
# Elastic Constant Matrix: (Units=GPa)
#
#
# Indices 1 2 3 4 5 6 
#
# 1 87.3490 47.1646 47.9137 0.0000 15.7962 0.0000
# 2 47.1646 105.4372 47.5483 0.0000 16.0678 0.0000
# 3 47.9137 47.5483 116.6523 0.0000 12.9002 0.0000
# 4 0.0000 0.0000 0.0000 16.8885 0.0000 8.1430
# 5 15.7962 16.0678 12.9002 0.0000 21.3546 0.0000
# 6 0.0000 0.0000 0.0000 8.1430 0.0000 22.7320
#
#
#
# Elastic Compliance Matrix: (Units=1/GPa)
#
#
# Indices 1 2 3 4 5 6 
#
# 1 0.017814 -0.004874 -0.004585 0.000000 -0.006740 0.000000
# 2 -0.004874 0.013803 -0.003080 0.000000 -0.004920 0.000000
# 3 -0.004585 -0.003080 0.011873 0.000000 -0.001463 0.000000
# 4 0.000000 0.000000 0.000000 0.071574 0.000000 -0.025639
# 5 -0.006740 -0.004920 -0.001463 0.000000 0.056400 0.000000
# 6 0.000000 0.000000 0.000000 -0.025639 0.000000 0.053175
#
#
# Mechanical properties :
#
#
# Convention : Reuss Voigt Hill
#
# Bulk Modulus (GPa) = 54.31202 66.07684 60.19443
# Shear Modulus (GPa) = 19.54235 23.31582 21.42908
#
# Velocity S-wave (km/s) = 3.44435 3.76222 3.60679
# Velocity P-wave (km/s) = 6.98492 7.68020 7.34080
#
# Compressibility (1/GPa) = 0.01841213
#
# Stress axis : x y z
#
# Youngs Moduli (GPa) = 56.13631 72.44591 84.22409
#
# Poissons Ratio (x) = 0.35309 0.38616
# Poissons Ratio (y) = 0.27360 0.25945
# Poissons Ratio (z) = 0.25738 0.22316
#
# Static dielectric constant tensor:
#      x y z
#    x 3.138530 0.000000 0.203570 
#    y 0.000000 3.099680 0.000000 
#    z 0.203570 0.000000 3.323010 
# 
# 
# High freq. dielectric constant tensor:
#      x y z
#    x 1.611940 0.000000 0.021950 
#    y 0.000000 1.638900 0.000000 
#    z 0.021950 0.000000 1.623530 
# 
# From -- ./inp_files/66427.got.cif
#   From: 2010.06.25/outbox.cif.g09.slc.cpg/sg10_34_cif.got.tgz:66427.got - 2010.06.27 22:07:45.
