data_PCOD8062963
_publ_section_title
;
Structure prediction by ZEFSAII (Michael W. Deem and Ramdas Pophale) SiO2 
 PCOD8062963
Probable space group: P 2/M
;
_chemical_formula_sum "Si O2"
_cell_formula_units_Z 28
_cell_length_a 18.572888
_cell_length_b 9.086737
_cell_length_c 18.359282
_cell_angle_alpha 90.000000
_cell_angle_beta 148.823457
_cell_angle_gamma 90.000000
_cell_volume 1603.990437
_symmetry_space_group_name_H-M "P 2/M"
_symmetry_group_IT_number 10
_symmetry_cell_setting 'monoclinic'
loop_
_space_group_symop_operation_xyz
x,y,z
-x,y,-z
-x,-y,-z
x,-y,z
loop_
_atom_site_type_symbol
_atom_site_label
_atom_site_fract_x
_atom_site_fract_y
_atom_site_fract_z
Si Si1 0.430742 0.328973 0.369019
Si Si2 0.770393 0.674055 0.424186
Si Si3 0.872617 0.328589 0.938726
Si Si4 0.846041 0.338119 0.335626
Si Si5 0.491674 0.675085 0.262625
Si Si6 0.051224 0.829347 0.705814
Si Si7 0.786904 0.171849 0.006967
O O1 0.500000 0.251552 0.500000
O O2 0.465896 0.500000 0.402280
O O3 0.266179 0.299413 0.228162
O O4 0.495743 0.267922 0.349899
O O5 0.792813 0.500000 0.451124
O O6 0.752734 0.717487 0.323260
O O7 0.632427 0.727831 0.345881
O O8 0.902788 0.749955 0.575611
O O9 0.886831 0.500000 0.971762
O O10 0.870790 0.236514 0.011188
O O11 0.000000 0.273473 0.000000
O O12 0.796450 0.500000 0.266434
O O13 0.842140 0.228005 0.264130
O O14 0.000000 0.348998 0.500000
O O15 0.471137 0.500000 0.240883
O O16 0.360929 0.748842 0.109373
O O17 0.026205 0.000000 0.669991
O O18 0.119578 0.796318 0.842154
O O19 0.760744 0.000000 0.972124
#
# Coordination Sequence:
#
# PCOD8062963 Si02
#       7
#     4   4   4   4   4   4   4
#     4   8  14  26  45  69  94 117 146 189 235 277
#     4   9  18  32  51  75  98 123 161 207 252 294
#     4   9  18  32  51  73  94 122 162 201 239 285
#     4   8  15  29  48  70  96 124 158 203 250 291
#     4   9  18  33  52  72  96 128 163 199 243 292
#     4  10  20  32  48  72  99 130 167 200 237 290
#     4  10  21  35  49  69 101 136 165 196 238 288
#
# _framework density 17.456462999999999
#
# number of rings (size 3 to 8) (size 9 to 14) (size 15 to 20)
#    0.000    3.000    0.000    2.571    0.000    6.857 
#    0.000    3.571    0.000   11.143    0.000    0.000 
#    0.000    0.000    0.000    0.000    0.000    0.000 
#
# Total GULP energy -347090.074359 kJ/mol
# GULP energy per Si atom -12396.074084 kJ/mol
# Density = 1.741673 g / cm^3
# Si number density = 17.456463 Si / 1000 Ang^3
#
#
#
# Elastic Constant Matrix: (Units=GPa)
#
#
# Indices 1 2 3 4 5 6 
#
# 1 148.7585 48.1556 75.4038 0.0000 16.3801 0.0000
# 2 48.1556 60.4349 48.6370 0.0000 -4.8084 0.0000
# 3 75.4038 48.6370 87.9626 0.0000 0.2253 0.0000
# 4 0.0000 0.0000 0.0000 20.5220 0.0000 -7.4523
# 5 16.3801 -4.8084 0.2253 0.0000 26.9634 0.0000
# 6 0.0000 0.0000 0.0000 -7.4523 0.0000 16.4707
#
#
#
# Elastic Compliance Matrix: (Units=1/GPa)
#
#
# Indices 1 2 3 4 5 6 
#
# 1 0.013951 -0.004028 -0.009708 0.000000 -0.009112 0.000000
# 2 -0.004028 0.031801 -0.014152 0.000000 0.008236 0.000000
# 3 -0.009708 -0.014152 0.027507 0.000000 0.003144 0.000000
# 4 0.000000 0.000000 0.000000 0.058309 0.000000 0.026382
# 5 -0.009112 0.008236 0.003144 0.000000 0.044065 0.000000
# 6 0.000000 0.000000 0.000000 0.026382 0.000000 0.072650
#
#
# Mechanical properties :
#
#
# Convention : Reuss Voigt Hill
#
# Bulk Modulus (GPa) = 57.19903 71.28319 64.24111
# Shear Modulus (GPa) = 16.13494 21.12186 18.62840
#
# Velocity S-wave (km/s) = 3.04352 3.48224 3.27025
# Velocity P-wave (km/s) = 6.72224 7.55589 7.15122
#
# Compressibility (1/GPa) = 0.01748281
#
# Stress axis : x y z
#
# Youngs Moduli (GPa) = 71.68165 31.44583 36.35385
#
# Poissons Ratio (x) = 0.12667 0.35293
# Poissons Ratio (y) = 0.28874 0.51447
# Poissons Ratio (z) = 0.69590 0.44501
#
# Static dielectric constant tensor:
#      x y z
#    x 3.729190 0.000000 -0.045600 
#    y 0.000000 3.094160 0.000000 
#    z -0.045600 0.000000 3.115140 
# 
# 
# High freq. dielectric constant tensor:
#      x y z
#    x 1.685870 0.000000 -0.003920 
#    y 0.000000 1.656060 0.000000 
#    z -0.003920 0.000000 1.657350 
# 
# From -- ./inp_files/78795.got.cif
#   From: 2010.06.25/outbox.cif.g09.slc.cpg/sg10_40_cif.got.tgz:78795.got - 2010.06.27 22:07:45.
