data_PCOD8062001
_publ_section_title
;
Structure prediction by ZEFSAII (Michael W. Deem and Ramdas Pophale) SiO2 
 PCOD8062001
Probable space group: P 2/M
;
_chemical_formula_sum "Si O2"
_cell_formula_units_Z 24
_cell_length_a 15.005316
_cell_length_b 9.064193
_cell_length_c 14.782743
_cell_angle_alpha 90.000000
_cell_angle_beta 40.026298
_cell_angle_gamma 90.000000
_cell_volume 1293.106401
_symmetry_space_group_name_H-M "P 2/M"
_symmetry_group_IT_number 10
_symmetry_cell_setting 'monoclinic'
loop_
_space_group_symop_operation_xyz
x,y,z
-x,y,-z
-x,-y,-z
x,-y,z
loop_
_atom_site_type_symbol
_atom_site_label
_atom_site_fract_x
_atom_site_fract_y
_atom_site_fract_z
Si Si1 0.625226 0.173484 0.675504
Si Si2 0.643441 0.672407 0.846508
Si Si3 0.138286 0.174659 0.645617
Si Si4 0.138656 0.826924 0.848059
Si Si5 0.684283 0.826931 0.123644
Si Si6 0.857606 0.326646 0.835550
O O1 0.676769 0.247830 0.727142
O O2 0.727193 0.220666 0.515854
O O3 0.471978 0.229328 0.768210
O O4 0.625882 0.000000 0.690191
O O5 0.630086 0.500000 0.837209
O O6 0.767155 0.710631 0.818025
O O7 0.500000 0.733185 0.000000
O O8 0.162389 0.235528 0.728783
O O9 0.006437 0.253849 0.703924
O O10 0.113311 0.000000 0.662386
O O11 0.271086 0.791081 0.807924
O O12 0.115916 0.000000 0.856711
O O13 0.000000 0.756542 0.000000
O O14 0.699653 0.000000 0.090795
O O15 0.786506 0.740559 0.978832
O O16 0.873431 0.500000 0.837746
#
# Coordination Sequence:
#
# PCOD8062001 Si02
#       6
#     4   4   4   4   4   4
#     4  10  22  36  56  86 114 143 180 229 279 320
#     4  10  21  38  58  79 108 147 186 225 272 329
#     4  10  21  38  56  81 117 147 179 225 276 326
#     4   9  16  30  56  83 108 146 184 217 268 328
#     4  10  19  34  57  84 111 143 183 225 271 325
#     4  11  22  36  57  83 107 143 189 228 272 324
#
# _framework density 18.559958000000002
#
# number of rings (size 3 to 8) (size 9 to 14) (size 15 to 20)
#    0.000    2.000    3.333    0.500    0.000    3.667 
#    0.000    8.333    0.000    0.000    0.000    3.500 
#    0.000    0.000    0.000    0.000    0.000    0.000 
#
# Total GULP energy -297647.566742 kJ/mol
# GULP energy per Si atom -12401.981948 kJ/mol
# Density = 1.851771 g / cm^3
# Si number density = 18.559958 Si / 1000 Ang^3
#
#
#
# Elastic Constant Matrix: (Units=GPa)
#
#
# Indices 1 2 3 4 5 6 
#
# 1 110.9808 24.7574 39.2708 0.0000 6.3423 0.0000
# 2 24.7574 27.0098 18.7323 0.0000 0.7950 0.0000
# 3 39.2708 18.7323 88.1408 0.0000 9.8150 0.0000
# 4 0.0000 0.0000 0.0000 12.1225 0.0000 -10.3569
# 5 6.3423 0.7950 9.8150 0.0000 36.3959 0.0000
# 6 0.0000 0.0000 0.0000 -10.3569 0.0000 12.4729
#
#
#
# Elastic Compliance Matrix: (Units=1/GPa)
#
#
# Indices 1 2 3 4 5 6 
#
# 1 0.012262 -0.008795 -0.003482 0.000000 -0.001006 0.000000
# 2 -0.008795 0.049821 -0.006927 0.000000 0.002313 0.000000
# 3 -0.003482 -0.006927 0.014727 0.000000 -0.003213 0.000000
# 4 0.000000 0.000000 0.000000 0.283884 0.000000 0.235726
# 5 -0.001006 0.002313 -0.003213 0.000000 0.028467 0.000000
# 6 0.000000 0.000000 0.000000 0.235726 0.000000 0.275911
#
#
# Mechanical properties :
#
#
# Convention : Reuss Voigt Hill
#
# Bulk Modulus (GPa) = 26.04060 43.51693 34.77877
# Shear Modulus (GPa) = 6.98049 21.75633 14.36841
#
# Velocity S-wave (km/s) = 1.94145 3.42748 2.78539
# Velocity P-wave (km/s) = 4.36882 6.25788 5.39665
#
# Compressibility (1/GPa) = 0.03840157
#
# Stress axis : x y z
#
# Youngs Moduli (GPa) = 81.55147 20.07171 67.90231
#
# Poissons Ratio (x) = 0.17653 0.23645
# Poissons Ratio (y) = 0.71724 0.47038
# Poissons Ratio (z) = 0.28398 0.13904
#
# Static dielectric constant tensor:
#      x y z
#    x 3.619900 0.000000 -0.019860 
#    y 0.000000 3.192470 0.000000 
#    z -0.019860 0.000000 3.474450 
# 
# 
# High freq. dielectric constant tensor:
#      x y z
#    x 1.736470 0.000000 -0.000280 
#    y 0.000000 1.693680 0.000000 
#    z -0.000280 0.000000 1.719150 
# 
# From -- ./inp_files/27000.got.cif
#   From: 2010.06.25/outbox.cif.g09.slc.cpg/sg10_14_cif.got.tgz:27000.got - 2010.06.27 22:07:45.
