data_PCOD8062406
_publ_section_title
;
Structure prediction by ZEFSAII (Michael W. Deem and Ramdas Pophale) SiO2 
 PCOD8062406
Probable space group: P 2/M
;
_chemical_formula_sum "Si O2"
_cell_formula_units_Z 32
_cell_length_a 15.256150
_cell_length_b 8.935729
_cell_length_c 22.685247
_cell_angle_alpha 90.000000
_cell_angle_beta 31.537292
_cell_angle_gamma 90.000000
_cell_volume 1617.575236
_symmetry_space_group_name_H-M "P 2/M"
_symmetry_group_IT_number 10
_symmetry_cell_setting 'monoclinic'
loop_
_space_group_symop_operation_xyz
x,y,z
-x,y,-z
-x,-y,-z
x,-y,z
loop_
_atom_site_type_symbol
_atom_site_label
_atom_site_fract_x
_atom_site_fract_y
_atom_site_fract_z
Si Si1 0.117642 0.321754 0.279498
Si Si2 0.832474 0.324033 0.129141
Si Si3 0.073314 0.828155 0.808468
Si Si4 0.549996 0.323125 0.847981
Si Si5 0.770991 0.178712 0.502308
Si Si6 0.792955 0.323448 0.903118
Si Si7 0.489233 0.677121 0.262833
Si Si8 0.343898 0.827571 0.556399
O O1 0.098425 0.500000 0.294274
O O2 0.275937 0.261253 0.226044
O O3 0.143924 0.269253 0.196898
O O4 0.957385 0.244021 0.400333
O O5 0.837234 0.500000 0.136824
O O6 0.824666 0.245218 0.196737
O O7 0.669284 0.275362 0.185853
O O8 0.000000 0.269184 0.000000
O O9 0.178190 0.806330 0.689126
O O10 0.897369 0.748460 0.896859
O O11 0.041746 0.000000 0.841961
O O12 0.558539 0.500000 0.842782
O O13 0.517722 0.265853 0.800314
O O14 0.398803 0.271678 0.977386
O O15 0.660667 0.237935 0.618984
O O16 0.687755 0.242523 0.489751
O O17 0.780942 0.000000 0.497488
O O18 0.811123 0.500000 0.899200
O O19 0.461227 0.500000 0.284574
O O20 0.500000 0.747301 0.500000
O O21 0.390864 0.000000 0.520026
#
# Coordination Sequence:
#
# PCOD8062406 Si02
#       8
#     4   4   4   4   4   4   4   4
#     4  10  20  36  61  89 115 146 193 241 286 344
#     4  10  21  38  59  84 116 153 191 237 290 338
#     4  11  21  34  55  83 115 150 189 228 281 344
#     4   9  19  37  61  86 112 150 192 238 292 344
#     4  11  22  38  58  80 117 156 191 236 289 342
#     4  10  19  35  60  88 118 148 187 238 292 346
#     4  10  21  38  59  83 114 151 196 240 283 338
#     4   9  18  33  52  74 103 143 184 223 272 329
#
# _framework density 19.782696000000001
#
# number of rings (size 3 to 8) (size 9 to 14) (size 15 to 20)
#    0.000    2.000    1.250    2.625    0.000    5.750 
#    0.000    5.625    0.000    4.500    0.000    0.000 
#    0.000    0.000    0.000    0.000    0.000    0.000 
#
# Total GULP energy -396837.587378 kJ/mol
# GULP energy per Si atom -12401.174606 kJ/mol
# Density = 1.973767 g / cm^3
# Si number density = 19.782696 Si / 1000 Ang^3
#
#
#
# Elastic Constant Matrix: (Units=GPa)
#
#
# Indices 1 2 3 4 5 6 
#
# 1 130.0289 31.9440 49.4829 0.0000 -16.9104 0.0000
# 2 31.9440 37.2995 34.2882 0.0000 -2.3889 0.0000
# 3 49.4829 34.2882 126.0260 0.0000 -16.4749 0.0000
# 4 0.0000 0.0000 0.0000 17.1556 0.0000 1.7651
# 5 -16.9104 -2.3889 -16.4749 0.0000 38.9589 0.0000
# 6 0.0000 0.0000 0.0000 1.7651 0.0000 17.5228
#
#
#
# Elastic Compliance Matrix: (Units=1/GPa)
#
#
# Indices 1 2 3 4 5 6 
#
# 1 0.010574 -0.007242 -0.001735 0.000000 0.003412 0.000000
# 2 -0.007242 0.040864 -0.008847 0.000000 -0.004379 0.000000
# 3 -0.001735 -0.008847 0.011489 0.000000 0.003563 0.000000
# 4 0.000000 0.000000 0.000000 0.058900 0.000000 -0.005933
# 5 0.003412 -0.004379 0.003563 0.000000 0.028387 0.000000
# 6 0.000000 0.000000 0.000000 -0.005933 0.000000 0.057666
#
#
# Mechanical properties :
#
#
# Convention : Reuss Voigt Hill
#
# Bulk Modulus (GPa) = 36.65864 58.30939 47.48402
# Shear Modulus (GPa) = 19.79238 26.57007 23.18122
#
# Velocity S-wave (km/s) = 3.16648 3.66880 3.42686
# Velocity P-wave (km/s) = 5.65152 6.89099 6.30180
#
# Compressibility (1/GPa) = 0.02727870
#
# Stress axis : x y z
#
# Youngs Moduli (GPa) = 94.57342 24.47112 87.03930
#
# Poissons Ratio (x) = 0.17722 0.15105
# Poissons Ratio (y) = 0.68488 0.77005
# Poissons Ratio (z) = 0.16412 0.21650
#
# Static dielectric constant tensor:
#      x y z
#    x 3.835780 0.000000 -0.091230 
#    y 0.000000 3.241700 0.000000 
#    z -0.091230 0.000000 3.652510 
# 
# 
# High freq. dielectric constant tensor:
#      x y z
#    x 1.783420 0.000000 -0.005180 
#    y 0.000000 1.736630 0.000000 
#    z -0.005180 0.000000 1.781890 
# 
# From -- ./inp_files/71509.got.cif
#   From: 2010.06.25/outbox.cif.g09.slc.cpg/sg10_36_cif.got.tgz:71509.got - 2010.06.27 22:07:45.
