data_PCOD8062663
_publ_section_title
;
Structure prediction by ZEFSAII (Michael W. Deem and Ramdas Pophale) SiO2 
 PCOD8062663
Probable space group: P 2/M
;
_chemical_formula_sum "Si O2"
_cell_formula_units_Z 32
_cell_length_a 26.807742
_cell_length_b 8.974418
_cell_length_c 20.934077
_cell_angle_alpha 90.000000
_cell_angle_beta 18.651506
_cell_angle_gamma 90.000000
_cell_volume 1610.697492
_symmetry_space_group_name_H-M "P 2/M"
_symmetry_group_IT_number 10
_symmetry_cell_setting 'monoclinic'
loop_
_space_group_symop_operation_xyz
x,y,z
-x,y,-z
-x,-y,-z
x,-y,z
loop_
_atom_site_type_symbol
_atom_site_label
_atom_site_fract_x
_atom_site_fract_y
_atom_site_fract_z
Si Si1 0.531240 0.175495 0.532612
Si Si2 0.153368 0.824231 0.187719
Si Si3 0.840164 0.175354 0.229840
Si Si4 0.293934 0.676504 0.363246
Si Si5 0.075991 0.676858 0.742025
Si Si6 0.798828 0.825273 0.014739
Si Si7 0.846933 0.323703 0.597249
Si Si8 0.638922 0.323725 0.969450
O O1 0.500000 0.244159 0.500000
O O2 0.691444 0.237071 0.369865
O O3 0.382854 0.217622 0.756448
O O4 0.551698 0.000000 0.501028
O O5 0.310392 0.758903 0.027574
O O6 0.014208 0.753542 0.397586
O O7 0.151286 0.000000 0.196851
O O8 0.147497 0.775103 0.120879
O O9 0.842961 0.259962 0.293389
O O10 0.824686 0.000000 0.261513
O O11 0.000000 0.214387 0.000000
O O12 0.295873 0.500000 0.359402
O O13 0.180021 0.734429 0.556711
O O14 0.238302 0.737420 0.362494
O O15 0.466766 0.737178 0.164777
O O16 0.068050 0.500000 0.756149
O O17 0.901873 0.740385 0.942697
O O18 0.823168 0.000000 0.996724
O O19 0.872849 0.500000 0.563877
O O20 0.747112 0.275255 0.779187
O O21 0.643194 0.500000 0.975076
#
# Coordination Sequence:
#
# PCOD8062663 Si02
#       8
#     4   4   4   4   4   4   4   4
#     4   9  18  35  61  88 113 144 188 233 268 316
#     4  11  23  36  53  81 117 151 185 233 288 340
#     4  10  21  38  63  91 118 152 190 229 274 329
#     4   9  19  36  57  83 111 143 188 238 287 334
#     4  11  22  37  59  86 117 151 186 235 287 333
#     4  10  21  38  58  81 111 152 194 230 276 336
#     4  10  19  37  61  81 105 145 195 238 281 338
#     4  10  21  36  58  82 107 145 192 239 284 340
#
# _framework density 19.867170000000002
#
# number of rings (size 3 to 8) (size 9 to 14) (size 15 to 20)
#    0.000    2.000    1.250    2.250    1.750    6.250 
#    0.000    1.875    0.000    3.000    0.000    0.000 
#    0.000    0.000    0.000    0.000    0.000    0.000 
#
# Total GULP energy -396865.281140 kJ/mol
# GULP energy per Si atom -12402.040036 kJ/mol
# Density = 1.982195 g / cm^3
# Si number density = 19.867170 Si / 1000 Ang^3
#
#
#
# Elastic Constant Matrix: (Units=GPa)
#
#
# Indices 1 2 3 4 5 6 
#
# 1 139.6139 33.9611 48.1765 0.0000 -17.4018 0.0000
# 2 33.9611 35.0222 26.7224 0.0000 0.6991 0.0000
# 3 48.1765 26.7224 114.9780 0.0000 -16.8232 0.0000
# 4 0.0000 0.0000 0.0000 17.6838 0.0000 -0.4625
# 5 -17.4018 0.6991 -16.8232 0.0000 36.7160 0.0000
# 6 0.0000 0.0000 0.0000 -0.4625 0.0000 33.0015
#
#
#
# Elastic Compliance Matrix: (Units=1/GPa)
#
#
# Indices 1 2 3 4 5 6 
#
# 1 0.010460 -0.008964 -0.001661 0.000000 0.004368 0.000000
# 2 -0.008964 0.043153 -0.007519 0.000000 -0.008515 0.000000
# 3 -0.001661 -0.007519 0.011840 0.000000 0.004781 0.000000
# 4 0.000000 0.000000 0.000000 0.056570 0.000000 0.000793
# 5 0.004368 -0.008515 0.004781 0.000000 0.031659 0.000000
# 6 0.000000 0.000000 0.000000 0.000793 0.000000 0.030313
#
#
# Mechanical properties :
#
#
# Convention : Reuss Voigt Hill
#
# Bulk Modulus (GPa) = 34.28634 56.37046 45.32840
# Shear Modulus (GPa) = 21.73874 29.53053 25.63464
#
# Velocity S-wave (km/s) = 3.31146 3.85957 3.59597
# Velocity P-wave (km/s) = 5.64945 6.94960 6.33298
#
# Compressibility (1/GPa) = 0.02916613
#
# Stress axis : x y z
#
# Youngs Moduli (GPa) = 95.59832 23.17355 84.45696
#
# Poissons Ratio (x) = 0.20772 0.14026
# Poissons Ratio (y) = 0.85690 0.63506
# Poissons Ratio (z) = 0.15876 0.17425
#
# Static dielectric constant tensor:
#      x y z
#    x 3.842780 0.000000 -0.077480 
#    y 0.000000 3.209080 0.000000 
#    z -0.077480 0.000000 3.749660 
# 
# 
# High freq. dielectric constant tensor:
#      x y z
#    x 1.790790 0.000000 -0.005320 
#    y 0.000000 1.737760 0.000000 
#    z -0.005320 0.000000 1.785370 
# 
# From -- ./inp_files/86896.got.cif
#   From: 2010.06.25/outbox.cif.g09.slc.cpg/sg10_44_cif.got.tgz:86896.got - 2010.06.27 22:07:45.
