data_PCOD8062671
_publ_section_title
;
Structure prediction by ZEFSAII (Michael W. Deem and Ramdas Pophale) SiO2 
 PCOD8062671
Probable space group: P 2/M
;
_chemical_formula_sum "Si O2"
_cell_formula_units_Z 24
_cell_length_a 26.940001
_cell_length_b 7.488303
_cell_length_c 20.255513
_cell_angle_alpha 90.000000
_cell_angle_beta 18.128895
_cell_angle_gamma 90.000000
_cell_volume 1271.458211
_symmetry_space_group_name_H-M "P 2/M"
_symmetry_group_IT_number 10
_symmetry_cell_setting 'monoclinic'
loop_
_space_group_symop_operation_xyz
x,y,z
-x,y,-z
-x,-y,-z
x,-y,z
loop_
_atom_site_type_symbol
_atom_site_label
_atom_site_fract_x
_atom_site_fract_y
_atom_site_fract_z
Si Si1 0.780511 0.798580 0.408633
Si Si2 0.822284 0.500000 0.250275
Si Si3 0.952186 0.793576 0.322125
Si Si4 0.488567 0.500000 0.436290
Si Si5 0.395349 0.500000 0.032473
Si Si6 0.254509 0.500000 0.351045
Si Si7 0.317741 0.791870 0.884399
Si Si8 0.577560 0.202673 0.102478
O O1 0.795142 0.676003 0.327022
O O2 0.913662 0.749639 0.294506
O O3 0.611852 0.771774 0.657235
O O4 0.800192 0.000000 0.357817
O O5 0.697837 0.500000 0.347439
O O6 0.000000 0.500000 0.000000
O O7 0.844064 0.676994 0.507102
O O8 0.915712 0.000000 0.384664
O O9 0.135570 0.744620 0.100120
O O10 0.500000 0.500000 0.500000
O O11 0.571181 0.677930 0.304058
O O12 0.579362 0.500000 0.820569
O O13 0.352874 0.325813 0.043087
O O14 0.279664 0.500000 0.241045
O O15 0.351786 0.737214 0.916639
O O16 0.356861 0.000000 0.822654
O O17 0.626603 0.000000 0.024137
#
# Coordination Sequence:
#
# PCOD8062671 Si02
#       8
#     4   2   4   2   2   2   4   4
#     4  10  20  38  63  83 109 151 198 239 275 326
#     4  12  26  39  57  87 122 151 183 235 287 336
#     4  10  21  38  61  87 112 148 195 239 281 331
#     4  12  26  40  58  86 119 154 186 226 290 351
#     4  11  22  34  55  87 121 153 187 232 288 341
#     4  11  22  35  54  86 124 153 182 235 292 339
#     4  10  22  41  64  85 111 149 194 239 280 332
#     4  10  19  37  62  84 107 149 200 238 274 328
#
# _framework density 18.875964
#
# number of rings (size 3 to 8) (size 9 to 14) (size 15 to 20)
#    0.000    1.500    3.333    2.000    2.333    1.333 
#    0.000    3.333    0.000    3.000    0.000    0.000 
#    0.000    0.000    0.000    0.000    0.000    0.000 
#
# Total GULP energy -297699.467749 kJ/mol
# GULP energy per Si atom -12404.144490 kJ/mol
# Density = 1.883300 g / cm^3
# Si number density = 18.875964 Si / 1000 Ang^3
#
#
#
# Elastic Constant Matrix: (Units=GPa)
#
#
# Indices 1 2 3 4 5 6 
#
# 1 156.0055 67.9557 63.0559 0.0000 -0.8272 0.0000
# 2 67.9557 115.3645 49.7337 0.0000 16.2829 0.0000
# 3 63.0559 49.7337 89.6156 0.0000 -5.7450 0.0000
# 4 0.0000 0.0000 0.0000 -9.9387 0.0000 -14.1207
# 5 -0.8272 16.2829 -5.7450 0.0000 36.8181 0.0000
# 6 0.0000 0.0000 0.0000 -14.1207 0.0000 9.6052
#
#
#
# Elastic Compliance Matrix: (Units=1/GPa)
#
#
# Indices 1 2 3 4 5 6 
#
# 1 0.010128 -0.004090 -0.004774 0.000000 0.001292 0.000000
# 2 -0.004090 0.014578 -0.005688 0.000000 -0.007427 0.000000
# 3 -0.004774 -0.005688 0.018009 0.000000 0.005219 0.000000
# 4 0.000000 0.000000 0.000000 -0.032576 0.000000 -0.047890
# 5 0.001292 -0.007427 0.005219 0.000000 0.031288 0.000000
# 6 0.000000 0.000000 0.000000 -0.047890 0.000000 0.033707
#
#
# Mechanical properties :
#
#
# Convention : Reuss Voigt Hill
#
# Bulk Modulus (GPa) = 73.47244 80.27513 76.87378
# Shear Modulus (GPa) = 45.96615 19.31296 32.63955
#
# Velocity S-wave (km/s) = 4.94010 3.20214 4.16283
# Velocity P-wave (km/s) = 8.45859 7.50278 7.99498
#
# Compressibility (1/GPa) = 0.01361055
#
# Stress axis : x y z
#
# Youngs Moduli (GPa) = 98.73562 68.59600 55.52792
#
# Poissons Ratio (x) = 0.28058 0.26506
# Poissons Ratio (y) = 0.40387 0.31586
# Poissons Ratio (z) = 0.47132 0.39020
#
# Static dielectric constant tensor:
#      x y z
#    x 3.564970 0.000000 -0.233480 
#    y 0.000000 3.657750 0.000000 
#    z -0.233480 0.000000 3.402720 
# 
# 
# High freq. dielectric constant tensor:
#      x y z
#    x 1.742180 0.000000 -0.018530 
#    y 0.000000 1.750630 0.000000 
#    z -0.018530 0.000000 1.715640 
# 
# From -- ./inp_files/80109.got.cif
#   From: 2010.06.25/outbox.cif.g09.slc.cpg/sg10_41_cif.got.tgz:80109.got - 2010.06.27 22:07:45.
