data_PCOD8063511
_publ_section_title
;
Structure prediction by ZEFSAII (Michael W. Deem and Ramdas Pophale) SiO2 
 PCOD8063511
Probable space group: P 2/M
;
_chemical_formula_sum "Si O2"
_cell_formula_units_Z 20
_cell_length_a 12.731765
_cell_length_b 8.928001
_cell_length_c 10.430884
_cell_angle_alpha 90.000000
_cell_angle_beta 75.271480
_cell_angle_gamma 90.000000
_cell_volume 1146.710789
_symmetry_space_group_name_H-M "P 2/M"
_symmetry_group_IT_number 10
_symmetry_cell_setting 'monoclinic'
loop_
_space_group_symop_operation_xyz
x,y,z
-x,y,-z
-x,-y,-z
x,-y,z
loop_
_atom_site_type_symbol
_atom_site_label
_atom_site_fract_x
_atom_site_fract_y
_atom_site_fract_z
Si Si1 0.767419 0.676541 0.692936
Si Si2 0.784064 0.823644 0.414138
Si Si3 0.019314 0.834142 0.343080
Si Si4 0.433406 0.176585 0.640477
Si Si5 0.443836 0.822598 0.148966
O O1 0.758479 0.500000 0.693660
O O2 0.755939 0.737861 0.553062
O O3 0.882946 0.722248 0.721120
O O4 0.673020 0.744691 0.809742
O O5 0.693828 0.781226 0.335868
O O6 0.903094 0.779618 0.320573
O O7 0.781273 0.000000 0.448690
O O8 0.000000 0.839412 0.500000
O O9 0.049523 0.000000 0.282594
O O10 0.500000 0.245464 0.500000
O O11 0.480261 0.239840 0.759186
O O12 0.449161 0.000000 0.636192
O O13 0.427014 0.000000 0.162428
O O14 0.500000 0.774068 0.000000
#
# Coordination Sequence:
#
# PCOD8063511 Si02
#       5
#     4   4   4   4   4
#     4  11  20  29  45  69 100 130 159 196 238 284
#     4   9  16  29  49  72  97 125 158 197 242 283
#     4   8  15  27  45  68  94 124 159 198 238 281
#     4   9  15  27  51  75  96 121 154 200 243 279
#     4  10  20  34  52  72  95 127 164 197 235 286
#
# _framework density 17.441188
#
# number of rings (size 3 to 8) (size 9 to 14) (size 15 to 20)
#    0.000    2.600    2.000    3.000    0.000    4.000 
#    0.000    2.000    0.000    1.200    0.000    8.400 
#    0.000    0.000    0.000    0.000    0.000    0.000 
#
# Total GULP energy -247883.993794 kJ/mol
# GULP energy per Si atom -12394.199690 kJ/mol
# Density = 1.740149 g / cm^3
# Si number density = 17.441188 Si / 1000 Ang^3
#
#
#
# Elastic Constant Matrix: (Units=GPa)
#
#
# Indices 1 2 3 4 5 6 
#
# 1 167.2294 37.1860 66.3956 0.0000 -17.9398 0.0000
# 2 37.1860 60.2042 34.7939 0.0000 -14.2313 0.0000
# 3 66.3956 34.7939 91.7292 0.0000 -7.1719 0.0000
# 4 0.0000 0.0000 0.0000 7.0109 0.0000 -1.6703
# 5 -17.9398 -14.2313 -7.1719 0.0000 24.1452 0.0000
# 6 0.0000 0.0000 0.0000 -1.6703 0.0000 6.3175
#
#
#
# Elastic Compliance Matrix: (Units=1/GPa)
#
#
# Indices 1 2 3 4 5 6 
#
# 1 0.008971 -0.001253 -0.005687 0.000000 0.004238 0.000000
# 2 -0.001253 0.024336 -0.007449 0.000000 0.011201 0.000000
# 3 -0.005687 -0.007449 0.017578 0.000000 -0.003394 0.000000
# 4 0.000000 0.000000 0.000000 0.152223 0.000000 0.040245
# 5 0.004238 0.011201 -0.003394 0.000000 0.050159 0.000000
# 6 0.000000 0.000000 0.000000 0.040245 0.000000 0.168930
#
#
# Mechanical properties :
#
#
# Convention : Reuss Voigt Hill
#
# Bulk Modulus (GPa) = 45.23066 66.21265 55.72166
# Shear Modulus (GPa) = 10.90889 19.54721 15.22805
#
# Velocity S-wave (km/s) = 2.50365 3.35139 2.95805
# Velocity P-wave (km/s) = 5.86065 7.28159 6.60942
#
# Compressibility (1/GPa) = 0.02210889
#
# Stress axis : x y z
#
# Youngs Moduli (GPa) = 111.47264 41.09079 56.88978
#
# Poissons Ratio (x) = 0.05147 0.32352
# Poissons Ratio (y) = 0.13963 0.42375
# Poissons Ratio (z) = 0.63392 0.30607
#
# Static dielectric constant tensor:
#      x y z
#    x 3.877370 0.000000 -0.090300 
#    y 0.000000 2.922220 0.000000 
#    z -0.090300 0.000000 2.903160 
# 
# 
# High freq. dielectric constant tensor:
#      x y z
#    x 1.698120 0.000000 -0.015240 
#    y 0.000000 1.641950 0.000000 
#    z -0.015240 0.000000 1.621970 
# 
# From -- ./inp_files/31332.got.cif
#   From: 2010.06.25/outbox.cif.g09.slc.cpg/sg10_16_cif.got.tgz:31332.got - 2010.06.27 22:07:45.
