data_PCOD8063794
_publ_section_title
;
Structure prediction by ZEFSAII (Michael W. Deem and Ramdas Pophale) SiO2 
 PCOD8063794
Probable space group: P 2/M
;
_chemical_formula_sum "Si O2"
_cell_formula_units_Z 20
_cell_length_a 27.148942
_cell_length_b 8.925157
_cell_length_c 9.613918
_cell_angle_alpha 90.000000
_cell_angle_beta 152.248147
_cell_angle_gamma 90.000000
_cell_volume 1084.731865
_symmetry_space_group_name_H-M "P 2/M"
_symmetry_group_IT_number 10
_symmetry_cell_setting 'monoclinic'
loop_
_space_group_symop_operation_xyz
x,y,z
-x,y,-z
-x,-y,-z
x,-y,z
loop_
_atom_site_type_symbol
_atom_site_label
_atom_site_fract_x
_atom_site_fract_y
_atom_site_fract_z
Si Si1 0.408470 0.672400 0.362930
Si Si2 0.184989 0.174075 0.103863
Si Si3 0.403474 0.672984 0.668104
Si Si4 0.174153 0.321944 0.789062
Si Si5 0.006983 0.826548 0.177472
O O1 0.500000 0.753384 0.500000
O O2 0.403331 0.500000 0.305739
O O3 0.439808 0.693250 0.600868
O O4 0.291560 0.739907 0.044052
O O5 0.297787 0.235205 0.436539
O O6 0.194755 0.000000 0.093166
O O7 0.141012 0.255403 0.855885
O O8 0.104855 0.205029 0.029421
O O9 0.380021 0.500000 0.645237
O O10 0.500000 0.736994 0.000000
O O11 0.173969 0.500000 0.804716
O O12 0.096203 0.272173 0.473422
O O13 0.039416 0.000000 0.271215
O O14 0.000000 0.776023 0.000000
#
# Coordination Sequence:
#
# PCOD8063794 Si02
#       5
#     4   4   4   4   4
#     4   8  15  29  48  71  99 129 161 199 247 299
#     4  10  20  35  55  75 100 139 177 208 251 307
#     4   9  18  32  51  75 102 132 167 210 255 296
#     4  10  20  34  55  80 103 132 172 215 256 302
#     4  10  22  38  53  73 104 138 171 211 259 307
#
# _framework density 18.437736000000001
#
# number of rings (size 3 to 8) (size 9 to 14) (size 15 to 20)
#    0.000    2.600    0.000    3.000    0.000    6.400 
#    0.000    2.000    0.000   15.000    0.000    0.000 
#    0.000    0.000    0.000    0.000    0.000    0.000 
#
# Total GULP energy -247987.339040 kJ/mol
# GULP energy per Si atom -12399.366952 kJ/mol
# Density = 1.839577 g / cm^3
# Si number density = 18.437736 Si / 1000 Ang^3
#
#
#
# Elastic Constant Matrix: (Units=GPa)
#
#
# Indices 1 2 3 4 5 6 
#
# 1 136.6165 46.1575 64.8620 0.0000 5.6853 0.0000
# 2 46.1575 66.5742 49.4866 0.0000 0.2529 0.0000
# 3 64.8620 49.4866 144.3945 0.0000 -7.7433 0.0000
# 4 0.0000 0.0000 0.0000 28.0966 0.0000 0.2900
# 5 5.6853 0.2529 -7.7433 0.0000 21.7892 0.0000
# 6 0.0000 0.0000 0.0000 0.2900 0.0000 20.5090
#
#
#
# Elastic Compliance Matrix: (Units=1/GPa)
#
#
# Indices 1 2 3 4 5 6 
#
# 1 0.010741 -0.004950 -0.003339 0.000000 -0.003932 0.000000
# 2 -0.004950 0.022598 -0.005572 0.000000 -0.000951 0.000000
# 3 -0.003339 -0.005572 0.010587 0.000000 0.004698 0.000000
# 4 0.000000 0.000000 0.000000 0.035597 0.000000 -0.000503
# 5 -0.003932 -0.000951 0.004698 0.000000 0.048601 0.000000
# 6 0.000000 0.000000 0.000000 -0.000503 0.000000 0.048766
#
#
# Mechanical properties :
#
#
# Convention : Reuss Voigt Hill
#
# Bulk Modulus (GPa) = 61.71501 74.28860 68.00180
# Shear Modulus (GPa) = 23.80778 26.55091 25.17934
#
# Velocity S-wave (km/s) = 3.59730 3.79889 3.69947
# Velocity P-wave (km/s) = 7.12733 7.72147 7.43034
#
# Compressibility (1/GPa) = 0.01620351
#
# Stress axis : x y z
#
# Youngs Moduli (GPa) = 93.09910 44.25074 94.45337
#
# Poissons Ratio (x) = 0.21904 0.31542
# Poissons Ratio (y) = 0.46084 0.52633
# Poissons Ratio (z) = 0.31089 0.24658
#
# Static dielectric constant tensor:
#      x y z
#    x 3.546370 0.000000 0.140660 
#    y 0.000000 3.222220 0.000000 
#    z 0.140660 0.000000 3.498500 
# 
# 
# High freq. dielectric constant tensor:
#      x y z
#    x 1.717740 0.000000 0.007050 
#    y 0.000000 1.695580 0.000000 
#    z 0.007050 0.000000 1.721390 
# 
# From -- ./inp_files/26907.got.cif
#   From: 2010.06.25/outbox.cif.g09.slc.cpg/sg10_14_cif.got.tgz:26907.got - 2010.06.27 22:07:45.
