data_PCOD8063363
_publ_section_title
;
Structure prediction by ZEFSAII (Michael W. Deem and Ramdas Pophale) SiO2 
 PCOD8063363
Probable space group: P 2/M
;
_chemical_formula_sum "Si O2"
_cell_formula_units_Z 30
_cell_length_a 12.072545
_cell_length_b 13.093840
_cell_length_c 19.877288
_cell_angle_alpha 90.000000
_cell_angle_beta 147.910988
_cell_angle_gamma 90.000000
_cell_volume 1669.208478
_symmetry_space_group_name_H-M "P 2/M"
_symmetry_group_IT_number 10
_symmetry_cell_setting 'monoclinic'
loop_
_space_group_symop_operation_xyz
x,y,z
-x,y,-z
-x,-y,-z
x,-y,z
loop_
_atom_site_type_symbol
_atom_site_label
_atom_site_fract_x
_atom_site_fract_y
_atom_site_fract_z
Si Si1 0.239999 0.790523 0.113886
Si Si2 0.820782 0.115047 0.057449
Si Si3 0.296004 0.685563 0.937540
Si Si4 0.306421 0.883558 0.288496
Si Si5 0.500000 0.747201 0.500000
Si Si6 0.076845 0.379002 0.610256
Si Si7 0.110933 0.380600 0.349284
Si Si8 0.546422 0.616451 0.844738
O O1 0.334859 0.849419 0.226099
O O2 0.365811 0.684919 0.170741
O O3 0.265920 0.862118 0.061825
O O4 0.000000 0.761341 0.000000
O O5 0.722219 0.192298 0.060984
O O6 0.068316 0.129000 0.188163
O O7 0.755917 0.000000 0.043659
O O8 0.095630 0.638514 0.799659
O O9 0.500000 0.659472 0.000000
O O10 0.308026 0.629434 0.015442
O O11 0.452573 0.816518 0.411199
O O12 0.380634 0.000000 0.332886
O O13 0.696494 0.677444 0.584051
O O14 0.060768 0.500000 0.599810
O O15 0.933185 0.339239 0.597653
O O16 0.000000 0.331388 0.500000
O O17 0.314929 0.345495 0.744911
O O18 0.164072 0.500000 0.376806
O O19 0.546843 0.500000 0.819461
#
# Coordination Sequence:
#
# PCOD8063363 Si02
#       8
#     4   4   4   4   2   4   4   4
#     4   9  19  34  54  81 110 141 182 226 283 339
#     4   9  18  35  57  81 109 140 184 236 282 331
#     4  11  20  35  57  83 112 146 187 231 279 332
#     4  10  20  37  59  80 107 144 189 234 278 334
#     4  12  24  38  56  86 116 150 188 230 286 342
#     4   9  19  35  54  77 104 147 198 228 263 320
#     4  11  23  39  57  81 117 155 189 230 278 337
#     4  10  20  33  53  81 112 147 186 229 275 328
#
# _framework density 17.97259
#
# number of rings (size 3 to 8) (size 9 to 14) (size 15 to 20)
#    0.000    2.000    2.667    1.200    1.867    2.667 
#    0.000    0.667    0.000    0.000    0.000    0.933 
#    0.000    0.000    0.000    0.000    0.000    0.000 
#
# Total GULP energy -372034.482230 kJ/mol
# GULP energy per Si atom -12401.149408 kJ/mol
# Density = 1.793168 g / cm^3
# Si number density = 17.972590 Si / 1000 Ang^3
#
#
#
# Elastic Constant Matrix: (Units=GPa)
#
#
# Indices 1 2 3 4 5 6 
#
# 1 74.9471 27.0333 33.9452 0.0000 1.6738 0.0000
# 2 27.0333 90.2792 27.5211 0.0000 7.7714 0.0000
# 3 33.9452 27.5211 93.3676 0.0000 -5.8292 0.0000
# 4 0.0000 0.0000 0.0000 -1.8718 0.0000 -8.7107
# 5 1.6738 7.7714 -5.8292 0.0000 29.7370 0.0000
# 6 0.0000 0.0000 0.0000 -8.7107 0.0000 21.0782
#
#
#
# Elastic Compliance Matrix: (Units=1/GPa)
#
#
# Indices 1 2 3 4 5 6 
#
# 1 0.016961 -0.003388 -0.005236 0.000000 -0.001096 0.000000
# 2 -0.003388 0.013319 -0.002935 0.000000 -0.003865 0.000000
# 3 -0.005236 -0.002935 0.013713 0.000000 0.003750 0.000000
# 4 0.000000 0.000000 0.000000 -0.182763 0.000000 -0.075528
# 5 -0.001096 -0.003865 0.003750 0.000000 0.035435 0.000000
# 6 0.000000 0.000000 0.000000 -0.075528 0.000000 0.016230
#
#
# Mechanical properties :
#
#
# Convention : Reuss Voigt Hill
#
# Bulk Modulus (GPa) = 47.90706 48.39922 48.15314
# Shear Modulus (GPa) = -87.67675 21.12830 -33.27422
#
# Velocity S-wave (km/s) = -6.99210 3.43240 -4.30744
# Velocity P-wave (km/s) = 6.20262 6.53425 1.45326
#
# Compressibility (1/GPa) = 0.02087375
#
# Stress axis : x y z
#
# Youngs Moduli (GPa) = 58.95912 75.08119 72.92162
#
# Poissons Ratio (x) = 0.25440 0.38182
# Poissons Ratio (y) = 0.19977 0.21405
# Poissons Ratio (z) = 0.30871 0.22039
#
# Static dielectric constant tensor:
#      x y z
#    x 3.384480 0.000000 -0.087700 
#    y 0.000000 3.274460 0.000000 
#    z -0.087700 0.000000 3.329440 
# 
# 
# High freq. dielectric constant tensor:
#      x y z
#    x 1.693420 0.000000 -0.008330 
#    y 0.000000 1.685830 0.000000 
#    z -0.008330 0.000000 1.695960 
# 
# From -- ./inp_files/46768.got.cif
#   From: 2010.06.25/outbox.cif.g09.slc.cpg/sg10_24_cif.got.tgz:46768.got - 2010.06.27 22:07:45.
