data_PCOD8063674
_publ_section_title
;
Structure prediction by ZEFSAII (Michael W. Deem and Ramdas Pophale) SiO2 
 PCOD8063674
Probable space group: P 2/M
;
_chemical_formula_sum "Si O2"
_cell_formula_units_Z 32
_cell_length_a 21.977531
_cell_length_b 8.994012
_cell_length_c 14.316887
_cell_angle_alpha 90.000000
_cell_angle_beta 31.591320
_cell_angle_gamma 90.000000
_cell_volume 1482.496249
_symmetry_space_group_name_H-M "P 2/M"
_symmetry_group_IT_number 10
_symmetry_cell_setting 'monoclinic'
loop_
_space_group_symop_operation_xyz
x,y,z
-x,y,-z
-x,-y,-z
x,-y,z
loop_
_atom_site_type_symbol
_atom_site_label
_atom_site_fract_x
_atom_site_fract_y
_atom_site_fract_z
Si Si1 0.094173 0.830666 0.749035
Si Si2 0.089435 0.671971 0.254361
Si Si3 0.390518 0.172632 0.087245
Si Si4 0.858412 0.827878 0.528428
Si Si5 0.711979 0.825907 0.357509
Si Si6 0.317805 0.172694 0.981356
Si Si7 0.869503 0.670349 0.017010
Si Si8 0.515338 0.675468 0.372401
O O1 0.133656 0.806372 0.592153
O O2 0.200057 0.783642 0.675596
O O3 0.055833 0.000000 0.817698
O O4 0.984805 0.728561 0.918233
O O5 0.091365 0.500000 0.281251
O O6 0.962222 0.738147 0.444462
O O7 0.191114 0.761478 0.174756
O O8 0.116591 0.696010 0.110305
O O9 0.266534 0.241303 0.280418
O O10 0.386694 0.000000 0.119470
O O11 0.500000 0.246084 0.000000
O O12 0.402829 0.195626 0.959502
O O13 0.869357 0.000000 0.544097
O O14 0.758988 0.763070 0.197507
O O15 0.593138 0.744587 0.540999
O O16 0.688774 0.000000 0.378926
O O17 0.368247 0.257804 0.825349
O O18 0.303672 0.000000 0.975204
O O19 0.847891 0.500000 0.071280
O O20 0.500000 0.723283 0.500000
O O21 0.520895 0.500000 0.353286
#
# Coordination Sequence:
#
# PCOD8063674 Si02
#       8
#     4   4   4   4   4   4   4   4
#     4   9  19  33  53  82 114 149 192 244 294 347
#     4  10  21  38  59  84 120 159 197 244 299 357
#     4   9  20  38  64  93 123 157 196 247 302 356
#     4   9  18  36  62  88 116 154 198 243 293 351
#     4  11  22  34  54  83 113 148 196 249 298 351
#     4  11  23  39  64  94 120 153 202 252 300 355
#     4  10  20  34  53  79 114 158 198 238 295 357
#     4  11  25  43  60  82 116 158 200 242 297 359
#
# _framework density 21.585214000000001
#
# number of rings (size 3 to 8) (size 9 to 14) (size 15 to 20)
#    0.000    2.000    0.000    3.000    1.750    8.500 
#    0.000    3.750    0.000    1.875    0.000    0.000 
#    0.000    0.000    0.000    0.000    0.000    0.000 
#
# Total GULP energy -396867.186735 kJ/mol
# GULP energy per Si atom -12402.099585 kJ/mol
# Density = 2.153608 g / cm^3
# Si number density = 21.585214 Si / 1000 Ang^3
#
#
#
# Elastic Constant Matrix: (Units=GPa)
#
#
# Indices 1 2 3 4 5 6 
#
# 1 84.8601 37.3971 27.6495 0.0000 -25.9795 0.0000
# 2 37.3971 84.0490 35.6427 0.0000 -11.7204 0.0000
# 3 27.6495 35.6427 114.9257 0.0000 -26.9522 0.0000
# 4 0.0000 0.0000 0.0000 23.5206 0.0000 -2.4897
# 5 -25.9795 -11.7204 -26.9522 0.0000 31.9184 0.0000
# 6 0.0000 0.0000 0.0000 -2.4897 0.0000 17.0862
#
#
#
# Elastic Compliance Matrix: (Units=1/GPa)
#
#
# Indices 1 2 3 4 5 6 
#
# 1 0.018569 -0.006721 0.000727 0.000000 0.013259 0.000000
# 2 -0.006721 0.016216 -0.004113 0.000000 -0.002989 0.000000
# 3 0.000727 -0.004113 0.011954 0.000000 0.009175 0.000000
# 4 0.000000 0.000000 0.000000 0.043182 0.000000 0.006292
# 5 0.013259 -0.002989 0.009175 0.000000 0.048772 0.000000
# 6 0.000000 0.000000 0.000000 0.006292 0.000000 0.059444
#
#
# Mechanical properties :
#
#
# Convention : Reuss Voigt Hill
#
# Bulk Modulus (GPa) = 37.70341 53.91260 45.80800
# Shear Modulus (GPa) = 22.00786 26.71474 24.36130
#
# Velocity S-wave (km/s) = 3.19655 3.52183 3.36312
# Velocity P-wave (km/s) = 5.57934 6.44737 6.02900
#
# Compressibility (1/GPa) = 0.02652280
#
# Stress axis : x y z
#
# Youngs Moduli (GPa) = 53.85463 61.66833 83.65543
#
# Poissons Ratio (x) = 0.41448 -0.06079
# Poissons Ratio (y) = 0.36197 0.34409
# Poissons Ratio (z) = -0.03914 0.25365
#
# Static dielectric constant tensor:
#      x y z
#    x 3.945540 0.000000 -0.198920 
#    y 0.000000 3.691420 0.000000 
#    z -0.198920 0.000000 4.022430 
# 
# 
# High freq. dielectric constant tensor:
#      x y z
#    x 1.853760 0.000000 -0.006400 
#    y 0.000000 1.827710 0.000000 
#    z -0.006400 0.000000 1.855630 
# 
# From -- ./inp_files/71520.got.cif
#   From: 2010.06.25/outbox.cif.g09.slc.cpg/sg10_36_cif.got.tgz:71520.got - 2010.06.27 22:07:45.
