data_PCOD8063625
_publ_section_title
;
Structure prediction by ZEFSAII (Michael W. Deem and Ramdas Pophale) SiO2 
 PCOD8063625
Probable space group: P 2/M
;
_chemical_formula_sum "Si O2"
_cell_formula_units_Z 32
_cell_length_a 15.628589
_cell_length_b 8.907370
_cell_length_c 25.137468
_cell_angle_alpha 90.000000
_cell_angle_beta 30.657048
_cell_angle_gamma 90.000000
_cell_volume 1784.326223
_symmetry_space_group_name_H-M "P 2/M"
_symmetry_group_IT_number 10
_symmetry_cell_setting 'monoclinic'
loop_
_space_group_symop_operation_xyz
x,y,z
-x,y,-z
-x,-y,-z
x,-y,z
loop_
_atom_site_type_symbol
_atom_site_label
_atom_site_fract_x
_atom_site_fract_y
_atom_site_fract_z
Si Si1 0.079560 0.825433 0.814223
Si Si2 0.580990 0.177887 0.310784
Si Si3 0.326099 0.676433 0.066532
Si Si4 0.744606 0.676135 0.014744
Si Si5 0.988955 0.824091 0.269775
Si Si6 0.759442 0.678380 0.480288
Si Si7 0.525067 0.677333 0.230308
Si Si8 0.845798 0.323442 0.550241
O O1 0.254212 0.771249 0.745396
O O2 0.078454 0.784072 0.752667
O O3 0.051135 0.000000 0.838327
O O4 0.928099 0.744317 0.925712
O O5 0.425559 0.251805 0.424775
O O6 0.600695 0.237384 0.240411
O O7 0.557769 0.000000 0.322893
O O8 0.292858 0.500000 0.091609
O O9 0.178787 0.765878 0.175120
O O10 0.500000 0.726121 0.000000
O O11 0.331739 0.722911 0.001487
O O12 0.763270 0.500000 0.009053
O O13 0.620205 0.735514 0.127013
O O14 0.870843 0.736028 0.372870
O O15 0.982087 0.000000 0.285677
O O16 0.742720 0.500000 0.487071
O O17 0.844121 0.733267 0.490238
O O18 0.546527 0.500000 0.228390
O O19 0.329208 0.719211 0.327754
O O20 0.871671 0.500000 0.536189
O O21 0.000000 0.247079 0.500000
#
# Coordination Sequence:
#
# PCOD8063625 Si02
#       8
#     4   4   4   4   4   4   4   4
#     4   9  20  36  52  71  97 131 168 205 245 295
#     4  10  20  35  53  72  97 130 167 205 247 295
#     4   9  18  33  53  77 103 132 169 209 246 289
#     4   9  18  32  51  74 101 132 165 206 250 292
#     4  10  20  35  53  73 101 134 167 204 248 297
#     4  10  20  34  53  77 102 128 163 206 249 294
#     4   9  18  32  49  73 102 129 162 203 248 294
#     4   8  15  29  50  73  97 127 161 197 238 287
#
# _framework density 17.933941000000001
#
# number of rings (size 3 to 8) (size 9 to 14) (size 15 to 20)
#    0.000    2.750    0.000    1.875    0.000    4.250 
#    0.000    8.750    0.000   12.375    0.000    0.000 
#    0.000    0.000    0.000    0.000    0.000    0.000 
#
# Total GULP energy -396805.874083 kJ/mol
# GULP energy per Si atom -12400.183565 kJ/mol
# Density = 1.789312 g / cm^3
# Si number density = 17.933941 Si / 1000 Ang^3
#
#
#
# Elastic Constant Matrix: (Units=GPa)
#
#
# Indices 1 2 3 4 5 6 
#
# 1 111.7457 32.9918 84.9054 0.0000 -25.8233 0.0000
# 2 32.9918 46.2655 44.6345 0.0000 -4.1235 0.0000
# 3 84.9054 44.6345 162.5782 0.0000 0.1305 0.0000
# 4 0.0000 0.0000 0.0000 23.3235 0.0000 0.0904
# 5 -25.8233 -4.1235 0.1305 0.0000 31.5754 0.0000
# 6 0.0000 0.0000 0.0000 0.0904 0.0000 23.2857
#
#
#
# Elastic Compliance Matrix: (Units=1/GPa)
#
#
# Indices 1 2 3 4 5 6 
#
# 1 0.022223 -0.004165 -0.010477 0.000000 0.017674 0.000000
# 2 -0.004165 0.030664 -0.006244 0.000000 0.000624 0.000000
# 3 -0.010477 -0.006244 0.013344 0.000000 -0.009439 0.000000
# 4 0.000000 0.000000 0.000000 0.042876 0.000000 -0.000166
# 5 0.017674 0.000624 -0.009439 0.000000 0.046245 0.000000
# 6 0.000000 0.000000 0.000000 -0.000166 0.000000 0.042945
#
#
# Mechanical properties :
#
#
# Convention : Reuss Voigt Hill
#
# Bulk Modulus (GPa) = 40.88279 71.73921 56.31100
# Shear Modulus (GPa) = 20.14333 26.17409 23.15871
#
# Velocity S-wave (km/s) = 3.35505 3.82445 3.59741
# Velocity P-wave (km/s) = 6.15258 7.71950 6.98015
#
# Compressibility (1/GPa) = 0.02446017
#
# Stress axis : x y z
#
# Youngs Moduli (GPa) = 44.99845 32.61189 74.93979
#
# Poissons Ratio (x) = 0.13582 0.78512
# Poissons Ratio (y) = 0.18740 0.46792
# Poissons Ratio (z) = 0.47143 0.20363
#
# Static dielectric constant tensor:
#      x y z
#    x 3.520100 0.000000 -0.057970 
#    y 0.000000 3.182830 0.000000 
#    z -0.057970 0.000000 3.450630 
# 
# 
# High freq. dielectric constant tensor:
#      x y z
#    x 1.694140 0.000000 -0.002400 
#    y 0.000000 1.682810 0.000000 
#    z -0.002400 0.000000 1.701440 
# 
# From -- ./inp_files/66587.got.cif
#   From: 2010.06.25/outbox.cif.g09.slc.cpg/sg10_34_cif.got.tgz:66587.got - 2010.06.27 22:07:45.
