data_PCOD8063648
_publ_section_title
;
Structure prediction by ZEFSAII (Michael W. Deem and Ramdas Pophale) SiO2 
 PCOD8063648
Probable space group: P 2/M
;
_chemical_formula_sum "Si O2"
_cell_formula_units_Z 32
_cell_length_a 16.499445
_cell_length_b 8.731814
_cell_length_c 25.300113
_cell_angle_alpha 90.000000
_cell_angle_beta 153.220055
_cell_angle_gamma 90.000000
_cell_volume 1642.304971
_symmetry_space_group_name_H-M "P 2/M"
_symmetry_group_IT_number 10
_symmetry_cell_setting 'monoclinic'
loop_
_space_group_symop_operation_xyz
x,y,z
-x,y,-z
-x,-y,-z
x,-y,z
loop_
_atom_site_type_symbol
_atom_site_label
_atom_site_fract_x
_atom_site_fract_y
_atom_site_fract_z
Si Si1 0.807079 0.325808 0.802102
Si Si2 0.545856 0.680719 0.223832
Si Si3 0.894351 0.822010 0.385141
Si Si4 0.320994 0.169128 0.368730
Si Si5 0.088492 0.680082 0.400160
Si Si6 0.840790 0.318753 0.044948
Si Si7 0.969919 0.170028 0.225831
Si Si8 0.533689 0.682460 0.337092
O O1 0.833206 0.500000 0.834515
O O2 0.715551 0.307776 0.692046
O O3 0.662291 0.248918 0.758317
O O4 0.007486 0.252827 0.908850
O O5 0.578716 0.500000 0.237369
O O6 0.687821 0.772240 0.271334
O O7 0.565018 0.735659 0.295431
O O8 0.350483 0.729028 0.089201
O O9 0.000000 0.783942 0.500000
O O10 0.980542 0.721322 0.389708
O O11 0.905404 0.000000 0.376483
O O12 0.500000 0.221432 0.500000
O O13 0.175842 0.161124 0.329903
O O14 0.334831 0.000000 0.349297
O O15 0.092819 0.500000 0.395555
O O16 0.296418 0.740404 0.528339
O O17 0.974016 0.746609 0.284675
O O18 0.866669 0.500000 0.063757
O O19 0.857670 0.254004 0.114243
O O20 0.887464 0.000000 0.185061
O O21 0.521725 0.500000 0.333843
#
# Coordination Sequence:
#
# PCOD8063648 Si02
#       8
#     4   4   4   4   4   4   4   4
#     4   9  17  30  48  75 109 144 183 224 265 313
#     4  10  20  37  59  82 110 146 186 227 274 328
#     4  11  23  39  59  85 113 141 177 222 277 335
#     4   9  17  29  45  68 101 143 186 225 269 318
#     4  11  21  35  58  85 114 144 180 227 277 331
#     4   9  19  35  56  80 110 150 192 228 265 317
#     4  10  20  34  53  77 110 148 185 228 275 323
#     4   9  18  31  52  83 114 144 181 226 277 324
#
# _framework density 19.48481
#
# number of rings (size 3 to 8) (size 9 to 14) (size 15 to 20)
#    0.000    2.250    1.250    1.875    0.000    2.250 
#    0.000    4.375    0.000    3.750    0.000    4.375 
#    0.000    0.000    0.000    0.000    0.000    0.000 
#
# Total GULP energy -396455.160241 kJ/mol
# GULP energy per Si atom -12389.223758 kJ/mol
# Density = 1.944046 g / cm^3
# Si number density = 19.484810 Si / 1000 Ang^3
#
#
#
# Elastic Constant Matrix: (Units=GPa)
#
#
# Indices 1 2 3 4 5 6 
#
# 1 84.7670 14.5095 32.5993 0.0000 3.6087 0.0000
# 2 14.5095 33.8512 18.3547 0.0000 -1.5551 0.0000
# 3 32.5993 18.3547 100.8377 0.0000 12.3481 0.0000
# 4 0.0000 0.0000 0.0000 16.5640 0.0000 -0.2377
# 5 3.6087 -1.5551 12.3481 0.0000 28.3005 0.0000
# 6 0.0000 0.0000 0.0000 -0.2377 0.0000 18.8831
#
#
#
# Elastic Compliance Matrix: (Units=1/GPa)
#
#
# Indices 1 2 3 4 5 6 
#
# 1 0.013928 -0.003960 -0.003737 0.000000 -0.000363 0.000000
# 2 -0.003960 0.034492 -0.005591 0.000000 0.004840 0.000000
# 3 -0.003737 -0.005591 0.012806 0.000000 -0.005418 0.000000
# 4 0.000000 0.000000 0.000000 0.060383 0.000000 0.000760
# 5 -0.000363 0.004840 -0.005418 0.000000 0.038011 0.000000
# 6 0.000000 0.000000 0.000000 0.000760 0.000000 0.052967
#
#
# Mechanical properties :
#
#
# Convention : Reuss Voigt Hill
#
# Bulk Modulus (GPa) = 28.86013 38.93143 33.89578
# Shear Modulus (GPa) = 19.94311 23.01569 21.47940
#
# Velocity S-wave (km/s) = 3.20272 3.44060 3.32379
# Velocity P-wave (km/s) = 5.34044 5.98393 5.67132
#
# Compressibility (1/GPa) = 0.03464987
#
# Stress axis : x y z
#
# Youngs Moduli (GPa) = 71.79987 28.99218 78.08657
#
# Poissons Ratio (x) = 0.11481 0.29184
# Poissons Ratio (y) = 0.28432 0.43656
# Poissons Ratio (z) = 0.26834 0.16209
#
# Static dielectric constant tensor:
#      x y z
#    x 3.579920 0.000000 0.150800 
#    y 0.000000 3.414950 0.000000 
#    z 0.150800 0.000000 3.529500 
# 
# 
# High freq. dielectric constant tensor:
#      x y z
#    x 1.756810 0.000000 0.006480 
#    y 0.000000 1.737040 0.000000 
#    z 0.006480 0.000000 1.756710 
# 
# From -- ./inp_files/89509.got.cif
#   From: 2010.06.25/outbox.cif.g09.slc.cpg/sg10_45_cif.got.tgz:89509.got - 2010.06.27 22:07:45.
