data_PCOD8063199
_publ_section_title
;
Structure prediction by ZEFSAII (Michael W. Deem and Ramdas Pophale) SiO2 
 PCOD8063199
Probable space group: P 2/M
;
_chemical_formula_sum "Si O2"
_cell_formula_units_Z 32
_cell_length_a 23.696156
_cell_length_b 13.656645
_cell_length_c 11.959039
_cell_angle_alpha 90.000000
_cell_angle_beta 28.176186
_cell_angle_gamma 90.000000
_cell_volume 1827.384181
_symmetry_space_group_name_H-M "P 2/M"
_symmetry_group_IT_number 10
_symmetry_cell_setting 'monoclinic'
loop_
_space_group_symop_operation_xyz
x,y,z
-x,y,-z
-x,-y,-z
x,-y,z
loop_
_atom_site_type_symbol
_atom_site_label
_atom_site_fract_x
_atom_site_fract_y
_atom_site_fract_z
Si Si1 0.515194 0.264000 0.845259
Si Si2 0.903961 0.609346 0.311763
Si Si3 0.288237 0.387729 0.166527
Si Si4 0.132440 0.612570 0.026970
Si Si5 0.742057 0.612673 0.410835
Si Si6 0.689304 0.886882 0.133312
Si Si7 0.858734 0.276988 0.766385
Si Si8 0.454447 0.113512 0.401808
O O1 0.624201 0.337439 0.659571
O O2 0.550920 0.173090 0.704210
O O3 0.500000 0.226881 0.000000
O O4 0.404877 0.322525 0.984322
O O5 0.953749 0.500000 0.203980
O O6 0.784695 0.609197 0.592734
O O7 0.861035 0.654726 0.267640
O O8 0.013365 0.664584 0.182237
O O9 0.320786 0.500000 0.072773
O O10 0.204773 0.335123 0.221648
O O11 0.106005 0.500000 0.102247
O O12 0.171790 0.662739 0.070549
O O13 0.241634 0.625644 0.750028
O O14 0.729913 0.500000 0.466841
O O15 0.651988 0.856767 0.325715
O O16 0.579202 0.865531 0.244144
O O17 0.725375 0.000000 0.068023
O O18 0.802930 0.829562 0.885820
O O19 0.000000 0.267062 0.500000
O O20 0.442174 0.000000 0.391294
#
# Coordination Sequence:
#
# PCOD8063199 Si02
#       8
#     4   4   4   4   4   4   4   4
#     4  12  22  34  55  80 109 139 177 220 268 316
#     4   9  17  32  51  70 100 142 184 218 250 296
#     4  11  22  35  50  75 113 149 179 215 260 311
#     4  10  20  33  50  75 106 142 183 222 258 304
#     4  10  20  33  50  75 106 142 183 222 258 304
#     4   9  19  38  61  80 102 134 172 217 268 323
#     4  12  22  34  55  80 109 139 177 220 268 316
#     4   9  19  38  61  80 102 134 172 217 268 323
#
# _framework density 17.511369999999999
#
# number of rings (size 3 to 8) (size 9 to 14) (size 15 to 20)
#    0.000    1.750    3.750    2.625    0.000    3.000 
#    0.000    0.000    0.000    3.000    0.000    0.000 
#    0.000    6.000    0.000    0.000    0.000    0.000 
#
# Total GULP energy -396595.218588 kJ/mol
# GULP energy per Si atom -12393.600581 kJ/mol
# Density = 1.747151 g / cm^3
# Si number density = 17.511370 Si / 1000 Ang^3
#
#
#
# Elastic Constant Matrix: (Units=GPa)
#
#
# Indices 1 2 3 4 5 6 
#
# 1 94.0851 35.6675 19.8316 0.0000 9.9937 0.0000
# 2 35.6675 65.5873 26.6517 0.0000 8.8937 0.0000
# 3 19.8316 26.6517 35.4203 0.0000 8.9319 0.0000
# 4 0.0000 0.0000 0.0000 28.2832 0.0000 3.5648
# 5 9.9937 8.8937 8.9319 0.0000 30.0111 0.0000
# 6 0.0000 0.0000 0.0000 3.5648 0.0000 20.1129
#
#
#
# Elastic Compliance Matrix: (Units=1/GPa)
#
#
# Indices 1 2 3 4 5 6 
#
# 1 0.013708 -0.006151 -0.002547 0.000000 -0.001984 0.000000
# 2 -0.006151 0.024804 -0.015009 0.000000 -0.000835 0.000000
# 3 -0.002547 -0.015009 0.042831 0.000000 -0.007451 0.000000
# 4 0.000000 0.000000 0.000000 0.036165 0.000000 -0.006410
# 5 -0.001984 -0.000835 -0.007451 0.000000 0.036447 0.000000
# 6 0.000000 0.000000 0.000000 -0.006410 0.000000 0.050855
#
#
# Mechanical properties :
#
#
# Convention : Reuss Voigt Hill
#
# Bulk Modulus (GPa) = 29.47270 39.93271 34.70271
# Shear Modulus (GPa) = 18.97297 23.21088 21.09192
#
# Velocity S-wave (km/s) = 3.29517 3.64466 3.47431
# Velocity P-wave (km/s) = 5.59863 6.36905 5.99623
#
# Compressibility (1/GPa) = 0.03392971
#
# Stress axis : x y z
#
# Youngs Moduli (GPa) = 72.95034 40.31594 23.34769
#
# Poissons Ratio (x) = 0.24797 0.05946
# Poissons Ratio (y) = 0.44870 0.35043
# Poissons Ratio (z) = 0.18577 0.60511
#
# Static dielectric constant tensor:
#      x y z
#    x 3.363750 0.000000 0.041930 
#    y 0.000000 3.037720 0.000000 
#    z 0.041930 0.000000 3.302740 
# 
# 
# High freq. dielectric constant tensor:
#      x y z
#    x 1.688390 0.000000 0.006580 
#    y 0.000000 1.644530 0.000000 
#    z 0.006580 0.000000 1.683930 
# 
# From -- ./inp_files/46971.got.cif
#   From: 2010.06.25/outbox.cif.g09.slc.cpg/sg10_24_cif.got.tgz:46971.got - 2010.06.27 22:07:45.
