data_PCOD8063655
_publ_section_title
;
Structure prediction by ZEFSAII (Michael W. Deem and Ramdas Pophale) SiO2 
 PCOD8063655
Probable space group: P 2/M
;
_chemical_formula_sum "Si O2"
_cell_formula_units_Z 32
_cell_length_a 25.249112
_cell_length_b 9.166660
_cell_length_c 24.056662
_cell_angle_alpha 90.000000
_cell_angle_beta 162.398516
_cell_angle_gamma 90.000000
_cell_volume 1683.707318
_symmetry_space_group_name_H-M "P 2/M"
_symmetry_group_IT_number 10
_symmetry_cell_setting 'monoclinic'
loop_
_space_group_symop_operation_xyz
x,y,z
-x,y,-z
-x,-y,-z
x,-y,z
loop_
_atom_site_type_symbol
_atom_site_label
_atom_site_fract_x
_atom_site_fract_y
_atom_site_fract_z
Si Si1 0.238041 0.327978 0.369438
Si Si2 0.057102 0.666338 0.723030
Si Si3 0.046274 0.166746 0.485958
Si Si4 0.444858 0.333540 0.110897
Si Si5 0.453252 0.166765 0.892898
Si Si6 0.249118 0.673381 0.506091
Si Si7 0.060594 0.827829 0.998634
Si Si8 0.574795 0.670335 0.634421
O O1 0.197732 0.500000 0.325157
O O2 0.247872 0.268036 0.442170
O O3 0.425237 0.291838 0.529442
O O4 0.080239 0.242736 0.183072
O O5 0.005126 0.500000 0.658461
O O6 0.057614 0.748839 0.665195
O O7 0.922040 0.732747 0.632695
O O8 0.251002 0.678765 0.943079
O O9 0.249683 0.182845 0.676834
O O10 0.000000 0.233783 0.500000
O O11 0.982640 0.000000 0.420750
O O12 0.496988 0.500000 0.150686
O O13 0.443478 0.251722 0.051006
O O14 0.580197 0.265701 0.290776
O O15 0.516873 0.000000 0.954799
O O16 0.500000 0.233527 0.000000
O O17 0.252573 0.500000 0.507183
O O18 0.251752 0.761318 0.177800
O O19 0.068818 0.000000 0.996539
O O20 0.000000 0.789151 0.000000
O O21 0.500000 0.717928 0.500000
O O22 0.624691 0.500000 0.684986
#
# Coordination Sequence:
#
# PCOD8063655 Si02
#       8
#     4   4   4   4   4   4   4   4
#     4  10  21  38  62  88 115 152 197 245 288 337
#     4  10  20  35  57  82 108 142 181 225 278 335
#     4  10  20  34  53  78 108 142 181 227 277 332
#     4  10  20  35  56  80 107 140 180 224 275 330
#     4  10  20  34  53  78 107 140 179 223 275 331
#     4   9  19  37  58  82 112 145 185 232 279 329
#     4  11  23  37  57  86 122 161 193 233 293 351
#     4  10  20  35  59  90 119 151 197 246 289 339
#
# _framework density 19.005679000000001
#
# number of rings (size 3 to 8) (size 9 to 14) (size 15 to 20)
#    0.000    2.000    2.500    1.125    0.000    4.250 
#    0.000    5.000    0.000    1.500    0.000    0.000 
#    0.000    0.000    0.000    0.000    0.000    0.000 
#
# Total GULP energy -396844.374063 kJ/mol
# GULP energy per Si atom -12401.386689 kJ/mol
# Density = 1.896242 g / cm^3
# Si number density = 19.005679 Si / 1000 Ang^3
#
#
#
# Elastic Constant Matrix: (Units=GPa)
#
#
# Indices 1 2 3 4 5 6 
#
# 1 156.5775 40.8910 73.9421 0.0000 -7.4201 0.0000
# 2 40.8910 53.2589 47.1382 0.0000 -2.2444 0.0000
# 3 73.9421 47.1382 144.2968 0.0000 -1.6931 0.0000
# 4 0.0000 0.0000 0.0000 17.8804 0.0000 1.7925
# 5 -7.4201 -2.2444 -1.6931 0.0000 32.6860 0.0000
# 6 0.0000 0.0000 0.0000 1.7925 0.0000 14.9539
#
#
#
# Elastic Compliance Matrix: (Units=1/GPa)
#
#
# Indices 1 2 3 4 5 6 
#
# 1 0.009070 -0.003937 -0.003343 0.000000 0.001615 0.000000
# 2 -0.003937 0.028183 -0.007181 0.000000 0.000669 0.000000
# 3 -0.003343 -0.007181 0.010981 0.000000 -0.000683 0.000000
# 4 0.000000 0.000000 0.000000 0.056607 0.000000 -0.006785
# 5 0.001615 0.000669 -0.000683 0.000000 0.030971 0.000000
# 6 0.000000 0.000000 0.000000 -0.006785 0.000000 0.067686
#
#
# Mechanical properties :
#
#
# Convention : Reuss Voigt Hill
#
# Bulk Modulus (GPa) = 51.78148 75.34179 63.56163
# Shear Modulus (GPa) = 20.93292 25.91485 23.42389
#
# Velocity S-wave (km/s) = 3.32234 3.69661 3.51446
# Velocity P-wave (km/s) = 6.48241 7.61234 7.06998
#
# Compressibility (1/GPa) = 0.01931192
#
# Stress axis : x y z
#
# Youngs Moduli (GPa) = 110.25527 35.48192 91.06667
#
# Poissons Ratio (x) = 0.13970 0.30440
# Poissons Ratio (y) = 0.43409 0.65399
# Poissons Ratio (z) = 0.36853 0.25481
#
# Static dielectric constant tensor:
#      x y z
#    x 3.579200 0.000000 0.033260 
#    y 0.000000 3.255140 0.000000 
#    z 0.033260 0.000000 3.570900 
# 
# 
# High freq. dielectric constant tensor:
#      x y z
#    x 1.738660 0.000000 0.005230 
#    y 0.000000 1.712180 0.000000 
#    z 0.005230 0.000000 1.754750 
# 
# From -- ./inp_files/90649.got.cif
#   From: 2010.06.25/outbox.cif.g09.slc.cpg/sg10_46_cif.got.tgz:90649.got - 2010.06.27 22:07:45.
