data_PCOD8063641
_publ_section_title
;
Structure prediction by ZEFSAII (Michael W. Deem and Ramdas Pophale) SiO2 
 PCOD8063641
Probable space group: P 2/M
;
_chemical_formula_sum "Si O2"
_cell_formula_units_Z 28
_cell_length_a 15.980498
_cell_length_b 9.114602
_cell_length_c 21.997122
_cell_angle_alpha 90.000000
_cell_angle_beta 27.253783
_cell_angle_gamma 90.000000
_cell_volume 1467.220733
_symmetry_space_group_name_H-M "P 2/M"
_symmetry_group_IT_number 10
_symmetry_cell_setting 'monoclinic'
loop_
_space_group_symop_operation_xyz
x,y,z
-x,y,-z
-x,-y,-z
x,-y,z
loop_
_atom_site_type_symbol
_atom_site_label
_atom_site_fract_x
_atom_site_fract_y
_atom_site_fract_z
Si Si1 0.599846 0.672953 0.797908
Si Si2 0.842397 0.164074 0.552536
Si Si3 0.996602 0.328123 0.931423
Si Si4 0.739619 0.839222 0.015387
Si Si5 0.025405 0.839223 0.729602
Si Si6 0.287473 0.671876 0.640552
Si Si7 0.093407 0.672952 0.304344
O O1 0.587545 0.500000 0.797150
O O2 0.674777 0.744897 0.687740
O O3 0.723852 0.713031 0.776149
O O4 0.402019 0.743905 0.933199
O O5 0.000000 0.155325 0.500000
O O6 0.912771 0.255099 0.449746
O O7 0.781257 0.000000 0.572916
O O8 0.962199 0.500000 0.947092
O O9 0.181141 0.286000 0.772953
O O10 0.813213 0.248404 0.026165
O O11 0.000000 0.281388 0.000000
O O12 0.912659 0.866102 0.862446
O O13 0.658529 0.000000 0.086129
O O14 0.204925 0.751595 0.634455
O O15 0.896373 0.743905 0.768411
O O16 0.075448 0.000000 0.669210
O O17 0.500000 0.718613 0.500000
O O18 0.265669 0.500000 0.643620
O O19 0.066527 0.500000 0.318164
#
# Coordination Sequence:
#
# PCOD8063641 Si02
#       7
#     4   4   4   4   4   4   4
#     4  10  20  34  53  77 106 142 183 224 267 319
#     4   9  17  31  51  73 101 137 175 219 269 315
#     4   9  18  35  58  81 107 140 178 223 276 332
#     4  10  21  36  54  77 107 143 180 221 271 324
#     4  10  21  36  54  77 107 143 180 221 271 324
#     4   9  18  35  58  81 107 140 178 223 276 332
#     4  10  20  34  53  77 106 142 183 224 267 319
#
# _framework density 19.083701000000001
#
# number of rings (size 3 to 8) (size 9 to 14) (size 15 to 20)
#    0.000    2.429    0.000    2.143    0.000    6.286 
#    2.571    2.857    0.000    0.000    0.000    0.000 
#    0.000    0.000    0.000    0.000    0.000    0.000 
#
# Total GULP energy -346982.638973 kJ/mol
# GULP energy per Si atom -12392.237106 kJ/mol
# Density = 1.904027 g / cm^3
# Si number density = 19.083701 Si / 1000 Ang^3
#
#
#
# Elastic Constant Matrix: (Units=GPa)
#
#
# Indices 1 2 3 4 5 6 
#
# 1 120.9999 66.4883 40.5575 0.0000 -8.1550 0.0000
# 2 66.4883 113.5979 33.1910 0.0000 -13.0582 0.0000
# 3 40.5575 33.1910 66.0191 0.0000 -13.4049 0.0000
# 4 0.0000 0.0000 0.0000 25.9924 0.0000 -1.1183
# 5 -8.1550 -13.0582 -13.4049 0.0000 27.7654 0.0000
# 6 0.0000 0.0000 0.0000 -1.1183 0.0000 28.8440
#
#
#
# Elastic Compliance Matrix: (Units=1/GPa)
#
#
# Indices 1 2 3 4 5 6 
#
# 1 0.013556 -0.006559 -0.005375 0.000000 -0.001698 0.000000
# 2 -0.006559 0.013665 -0.002136 0.000000 0.003469 0.000000
# 3 -0.005375 -0.002136 0.021063 0.000000 0.007586 0.000000
# 4 0.000000 0.000000 0.000000 0.038537 0.000000 0.001494
# 5 -0.001698 0.003469 0.007586 0.000000 0.040811 0.000000
# 6 0.000000 0.000000 0.000000 0.001494 0.000000 0.034727
#
#
# Mechanical properties :
#
#
# Convention : Reuss Voigt Hill
#
# Bulk Modulus (GPa) = 49.64365 64.56561 57.10463
# Shear Modulus (GPa) = 25.35318 27.21239 26.28279
#
# Velocity S-wave (km/s) = 3.64885 3.78027 3.71514
# Velocity P-wave (km/s) = 6.61984 7.27738 6.95638
#
# Compressibility (1/GPa) = 0.02014356
#
# Stress axis : x y z
#
# Youngs Moduli (GPa) = 73.77008 73.18110 47.47550
#
# Poissons Ratio (x) = 0.47998 0.25518
# Poissons Ratio (y) = 0.48384 0.10142
# Poissons Ratio (z) = 0.39652 0.15634
#
# Static dielectric constant tensor:
#      x y z
#    x 3.343090 0.000000 0.051350 
#    y 0.000000 3.838960 0.000000 
#    z 0.051350 0.000000 3.473930 
# 
# 
# High freq. dielectric constant tensor:
#      x y z
#    x 1.727300 0.000000 0.000310 
#    y 0.000000 1.756390 0.000000 
#    z 0.000310 0.000000 1.728090 
# 
# From -- ./inp_files/49081.got.cif
#   From: 2010.06.25/outbox.cif.g09.slc.cpg/sg10_25_cif.got.tgz:49081.got - 2010.06.27 22:07:45.
