data_PCOD8063196
_publ_section_title
;
Structure prediction by ZEFSAII (Michael W. Deem and Ramdas Pophale) SiO2 
 PCOD8063196
Probable space group: P 2/M
;
_chemical_formula_sum "Si O2"
_cell_formula_units_Z 24
_cell_length_a 24.825384
_cell_length_b 8.805099
_cell_length_c 12.205382
_cell_angle_alpha 90.000000
_cell_angle_beta 28.523276
_cell_angle_gamma 90.000000
_cell_volume 1273.999568
_symmetry_space_group_name_H-M "P 2/M"
_symmetry_group_IT_number 10
_symmetry_cell_setting 'monoclinic'
loop_
_space_group_symop_operation_xyz
x,y,z
-x,y,-z
-x,-y,-z
x,-y,z
loop_
_atom_site_type_symbol
_atom_site_label
_atom_site_fract_x
_atom_site_fract_y
_atom_site_fract_z
Si Si1 0.260841 0.821058 0.407619
Si Si2 0.324163 0.320790 0.515831
Si Si3 0.582182 0.319956 0.045143
Si Si4 0.073973 0.322729 0.598097
Si Si5 0.234741 0.323404 0.116402
Si Si6 0.177707 0.680247 0.982550
O O1 0.260801 0.765684 0.532392
O O2 0.143582 0.768793 0.564087
O O3 0.270186 0.000000 0.385613
O O4 0.369247 0.750479 0.153095
O O5 0.312950 0.500000 0.516515
O O6 0.453965 0.269226 0.290622
O O7 0.266164 0.269379 0.732427
O O8 0.595199 0.500000 0.010869
O O9 0.654844 0.257525 0.018678
O O10 0.081453 0.500000 0.615334
O O11 0.124344 0.293512 0.387215
O O12 0.946647 0.259795 0.826389
O O13 0.255429 0.500000 0.061272
O O14 0.217521 0.247609 0.027689
O O15 0.170296 0.500000 0.007015
#
# Coordination Sequence:
#
# PCOD8063196 Si02
#       6
#     4   4   4   4   4   4
#     4  11  22  35  52  72  96 130 172 214 251 290
#     4  10  20  33  50  75 105 134 164 200 245 296
#     4   9  18  33  54  77 101 129 162 204 249 293
#     4   9  17  32  54  77 101 130 165 205 246 289
#     4   8  14  27  50  79 104 127 160 201 243 288
#     4   9  17  29  50  79 106 132 162 198 243 296
#
# _framework density 18.83831
#
# number of rings (size 3 to 8) (size 9 to 14) (size 15 to 20)
#    0.000    2.667    0.000    3.500    0.000    6.000 
#    0.000    7.500    0.000   12.000    0.000    5.833 
#    0.000    0.000    0.000    0.000    0.000    0.000 
#
# Total GULP energy -297580.410107 kJ/mol
# GULP energy per Si atom -12399.183754 kJ/mol
# Density = 1.879543 g / cm^3
# Si number density = 18.838310 Si / 1000 Ang^3
#
#
#
# Elastic Constant Matrix: (Units=GPa)
#
#
# Indices 1 2 3 4 5 6 
#
# 1 108.6843 24.2014 48.0807 0.0000 5.0677 0.0000
# 2 24.2014 33.1654 13.0707 0.0000 3.4779 0.0000
# 3 48.0807 13.0707 81.0473 0.0000 1.5896 0.0000
# 4 0.0000 0.0000 0.0000 5.3811 0.0000 -3.5856
# 5 5.0677 3.4779 1.5896 0.0000 23.0751 0.0000
# 6 0.0000 0.0000 0.0000 -3.5856 0.0000 0.4654
#
#
#
# Elastic Compliance Matrix: (Units=1/GPa)
#
#
# Indices 1 2 3 4 5 6 
#
# 1 0.014046 -0.007283 -0.007129 0.000000 -0.001496 0.000000
# 2 -0.007283 0.036449 -0.001483 0.000000 -0.003792 0.000000
# 3 -0.007129 -0.001483 0.016794 0.000000 0.000632 0.000000
# 4 0.000000 0.000000 0.000000 -0.044958 0.000000 -0.346364
# 5 -0.001496 -0.003792 0.000632 0.000000 0.044193 0.000000
# 6 0.000000 0.000000 0.000000 -0.346364 0.000000 -0.519804
#
#
# Mechanical properties :
#
#
# Convention : Reuss Voigt Hill
#
# Bulk Modulus (GPa) = 28.16984 43.73363 35.95173
# Shear Modulus (GPa) = -12.20538 14.95393 1.37427
#
# Velocity S-wave (km/s) = -2.54815 2.82051 0.85504
# Velocity P-wave (km/s) = 2.51565 5.82003 4.48337
#
# Compressibility (1/GPa) = 0.03549896
#
# Stress axis : x y z
#
# Youngs Moduli (GPa) = 71.19301 27.43564 59.54356
#
# Poissons Ratio (x) = 0.19983 0.42448
# Poissons Ratio (y) = 0.51853 0.08830
# Poissons Ratio (z) = 0.50753 0.04069
#
# Static dielectric constant tensor:
#      x y z
#    x 3.777120 0.000000 -0.081620 
#    y 0.000000 2.963440 0.000000 
#    z -0.081620 0.000000 3.510040 
# 
# 
# High freq. dielectric constant tensor:
#      x y z
#    x 1.746240 0.000000 -0.005270 
#    y 0.000000 1.680450 0.000000 
#    z -0.005270 0.000000 1.731000 
# 
# From -- ./inp_files/45149.got.cif
#   From: 2010.06.25/outbox.cif.g09.slc.cpg/sg10_23_cif.got.tgz:45149.got - 2010.06.27 22:07:45.
