data_PCOD8063242
_publ_section_title
;
Structure prediction by ZEFSAII (Michael W. Deem and Ramdas Pophale) SiO2 
 PCOD8063242
Probable space group: P 2/M
;
_chemical_formula_sum "Si O2"
_cell_formula_units_Z 32
_cell_length_a 33.317874
_cell_length_b 8.888858
_cell_length_c 12.412559
_cell_angle_alpha 90.000000
_cell_angle_beta 151.456972
_cell_angle_gamma 90.000000
_cell_volume 1756.497868
_symmetry_space_group_name_H-M "P 2/M"
_symmetry_group_IT_number 10
_symmetry_cell_setting 'monoclinic'
loop_
_space_group_symop_operation_xyz
x,y,z
-x,y,-z
-x,-y,-z
x,-y,z
loop_
_atom_site_type_symbol
_atom_site_label
_atom_site_fract_x
_atom_site_fract_y
_atom_site_fract_z
Si Si1 0.508864 0.174682 0.696784
Si Si2 0.844841 0.178085 0.810075
Si Si3 0.328630 0.322351 0.995789
Si Si4 0.724497 0.675021 0.697367
Si Si5 0.021826 0.175350 0.172653
Si Si6 0.464511 0.325967 0.801765
Si Si7 0.199095 0.821808 0.538981
Si Si8 0.681427 0.175745 0.810380
O O1 0.513876 0.224406 0.832720
O O2 0.416954 0.211718 0.435172
O O3 0.531332 0.000000 0.739217
O O4 0.575292 0.267783 0.783886
O O5 0.793486 0.265224 0.778401
O O6 0.810656 0.218376 0.610258
O O7 0.837692 0.000000 0.812283
O O8 0.942449 0.235445 0.055158
O O9 0.325189 0.500000 0.992159
O O10 0.279358 0.263982 0.774636
O O11 0.287140 0.255103 0.006310
O O12 0.738733 0.500000 0.751450
O O13 0.634217 0.708759 0.432238
O O14 0.733465 0.758588 0.832770
O O15 0.116861 0.236895 0.414049
O O16 0.025991 0.000000 0.201801
O O17 0.000000 0.213443 0.000000
O O18 0.483004 0.500000 0.819051
O O19 0.500000 0.277429 0.000000
O O20 0.211193 0.000000 0.581544
O O21 0.699830 0.000000 0.861537
#
# Coordination Sequence:
#
# PCOD8063242 Si02
#       8
#     4   4   4   4   4   4   4   4
#     4  10  21  36  54  76  98 130 177 222 258 300
#     4   9  17  31  54  81 107 137 174 212 251 303
#     4  12  24  35  52  77 107 138 170 213 265 315
#     4  10  20  33  51  76 106 138 173 210 256 310
#     4   7  12  27  51  76 103 135 170 209 252 299
#     4   9  19  34  49  69 103 143 172 206 255 305
#     4   9  18  33  53  79 108 138 173 212 255 303
#     4  10  21  39  58  74  97 132 179 225 261 300
#
# _framework density 18.218070999999998
#
# number of rings (size 3 to 8) (size 9 to 14) (size 15 to 20)
#    0.000    2.500    0.000    4.125    1.750    4.250 
#    0.000    0.625    0.000    3.000    0.000    5.250 
#    0.000    0.000    0.000    0.000    0.000    0.000 
#
# Total GULP energy -396628.287043 kJ/mol
# GULP energy per Si atom -12394.633970 kJ/mol
# Density = 1.817661 g / cm^3
# Si number density = 18.218071 Si / 1000 Ang^3
#
#
#
# Elastic Constant Matrix: (Units=GPa)
#
#
# Indices 1 2 3 4 5 6 
#
# 1 118.4622 47.8278 32.5186 0.0000 10.6650 0.0000
# 2 47.8278 81.1074 23.7577 0.0000 3.3128 0.0000
# 3 32.5186 23.7577 36.9050 0.0000 7.5101 0.0000
# 4 0.0000 0.0000 0.0000 11.2921 0.0000 -6.2663
# 5 10.6650 3.3128 7.5101 0.0000 25.7201 0.0000
# 6 0.0000 0.0000 0.0000 -6.2663 0.0000 27.4085
#
#
#
# Elastic Compliance Matrix: (Units=1/GPa)
#
#
# Indices 1 2 3 4 5 6 
#
# 1 0.012834 -0.005302 -0.007391 0.000000 -0.002481 0.000000
# 2 -0.005302 0.017407 -0.006937 0.000000 0.001982 0.000000
# 3 -0.007391 -0.006937 0.039624 0.000000 -0.007612 0.000000
# 4 0.000000 0.000000 0.000000 0.101426 0.000000 0.023189
# 5 -0.002481 0.001982 -0.007612 0.000000 0.041876 0.000000
# 6 0.000000 0.000000 0.000000 0.023189 0.000000 0.041786
#
#
# Mechanical properties :
#
#
# Convention : Reuss Voigt Hill
#
# Bulk Modulus (GPa) = 32.67462 49.40922 41.04192
# Shear Modulus (GPa) = 16.42495 21.70885 19.06690
#
# Velocity S-wave (km/s) = 3.00588 3.45572 3.23862
# Velocity P-wave (km/s) = 5.47917 6.56525 6.04664
#
# Compressibility (1/GPa) = 0.03060479
#
# Stress axis : x y z
#
# Youngs Moduli (GPa) = 77.91617 57.44849 25.23731
#
# Poissons Ratio (x) = 0.30459 0.18653
# Poissons Ratio (y) = 0.41311 0.17508
# Poissons Ratio (z) = 0.57587 0.39854
#
# Static dielectric constant tensor:
#      x y z
#    x 3.445930 0.000000 0.156440 
#    y 0.000000 3.194730 0.000000 
#    z 0.156440 0.000000 3.410140 
# 
# 
# High freq. dielectric constant tensor:
#      x y z
#    x 1.706180 0.000000 0.008760 
#    y 0.000000 1.695000 0.000000 
#    z 0.008760 0.000000 1.689610 
# 
# From -- ./inp_files/58318.got.cif
#   From: 2010.06.25/outbox.cif.g09.slc.cpg/sg10_30_cif.got.tgz:58318.got - 2010.06.27 22:07:45.
