data_PCOD8063161
_publ_section_title
;
Structure prediction by ZEFSAII (Michael W. Deem and Ramdas Pophale) SiO2 
 PCOD8063161
Probable space group: P 2/M
;
_chemical_formula_sum "Si O2"
_cell_formula_units_Z 32
_cell_length_a 20.945870
_cell_length_b 9.162140
_cell_length_c 9.314702
_cell_angle_alpha 90.000000
_cell_angle_beta 94.375044
_cell_angle_gamma 90.000000
_cell_volume 1782.366222
_symmetry_space_group_name_H-M "P 2/M"
_symmetry_group_IT_number 10
_symmetry_cell_setting 'monoclinic'
loop_
_space_group_symop_operation_xyz
x,y,z
-x,y,-z
-x,-y,-z
x,-y,z
loop_
_atom_site_type_symbol
_atom_site_label
_atom_site_fract_x
_atom_site_fract_y
_atom_site_fract_z
Si Si1 0.268239 0.167679 0.216236
Si Si2 0.618485 0.833199 0.561147
Si Si3 0.936613 0.664897 0.083404
Si Si4 0.464627 0.667789 0.240276
Si Si5 0.652797 0.332373 0.991441
Si Si6 0.405357 0.830261 0.768165
Si Si7 0.996247 0.171713 0.664061
Si Si8 0.124293 0.168427 0.170738
O O1 0.312242 0.205954 0.360892
O O2 0.287528 0.268649 0.086171
O O3 0.194805 0.199052 0.246400
O O4 0.277845 0.000000 0.171370
O O5 0.562560 0.733017 0.616344
O O6 0.622796 0.803207 0.394083
O O7 0.599398 0.000000 0.591420
O O8 0.915169 0.500000 0.113654
O O9 0.948253 0.747853 0.235771
O O10 0.882274 0.743344 0.979379
O O11 0.000000 0.670066 0.000000
O O12 0.482942 0.500000 0.268834
O O13 0.412330 0.686878 0.108125
O O14 0.526506 0.754119 0.199302
O O15 0.666918 0.500000 0.029948
O O16 0.646499 0.241870 0.136294
O O17 0.413317 0.000000 0.805619
O O18 0.926715 0.215375 0.716136
O O19 0.000000 0.224896 0.500000
O O20 0.009020 0.000000 0.677417
O O21 0.113937 0.000000 0.129253
#
# Coordination Sequence:
#
# PCOD8063161 Si02
#       8
#     4   4   4   4   4   4   4   4
#     4   9  18  35  55  71  91 125 167 204 241 289
#     4   9  19  34  50  70  97 127 161 202 246 295
#     4   9  17  29  47  72 101 132 164 198 237 281
#     4  10  20  33  50  72  96 125 162 202 248 301
#     4  10  21  35  50  70  97 126 159 203 249 293
#     4  11  21  32  49  73  99 127 160 201 250 299
#     4   9  17  30  49  76 108 135 162 201 246 288
#     4   9  17  31  53  75  95 127 168 204 239 285
#
# _framework density 17.953662000000001
#
# number of rings (size 3 to 8) (size 9 to 14) (size 15 to 20)
#    0.000    2.500    0.000    2.250    0.000    7.750 
#    0.000    1.250    0.000    4.500    0.000    0.000 
#    0.000    0.000    0.000    0.000    0.000    0.000 
#
# Total GULP energy -396856.362944 kJ/mol
# GULP energy per Si atom -12401.761342 kJ/mol
# Density = 1.791280 g / cm^3
# Si number density = 17.953662 Si / 1000 Ang^3
#
#
#
# Elastic Constant Matrix: (Units=GPa)
#
#
# Indices 1 2 3 4 5 6 
#
# 1 69.9029 27.9289 27.5007 0.0000 -4.9912 0.0000
# 2 27.9289 92.3423 50.0120 0.0000 -6.8891 0.0000
# 3 27.5007 50.0120 106.7473 0.0000 -11.0263 0.0000
# 4 0.0000 0.0000 0.0000 20.1555 0.0000 2.0377
# 5 -4.9912 -6.8891 -11.0263 0.0000 16.6813 0.0000
# 6 0.0000 0.0000 0.0000 2.0377 0.0000 17.1705
#
#
#
# Elastic Compliance Matrix: (Units=1/GPa)
#
#
# Indices 1 2 3 4 5 6 
#
# 1 0.016855 -0.003631 -0.002442 0.000000 0.001930 0.000000
# 2 -0.003631 0.015334 -0.006125 0.000000 0.001198 0.000000
# 3 -0.002442 -0.006125 0.013448 0.000000 0.005629 0.000000
# 4 0.000000 0.000000 0.000000 0.050217 0.000000 -0.005959
# 5 0.001930 0.001198 0.005629 0.000000 0.064740 0.000000
# 6 0.000000 0.000000 0.000000 -0.005959 0.000000 0.058947
#
#
# Mechanical properties :
#
#
# Convention : Reuss Voigt Hill
#
# Bulk Modulus (GPa) = 47.07863 53.31952 50.19908
# Shear Modulus (GPa) = 19.91902 21.70486 20.81194
#
# Velocity S-wave (km/s) = 3.33448 3.48075 3.40840
# Velocity P-wave (km/s) = 6.41126 6.77621 6.59626
#
# Compressibility (1/GPa) = 0.02124106
#
# Stress axis : x y z
#
# Youngs Moduli (GPa) = 59.33047 65.21373 74.36086
#
# Poissons Ratio (x) = 0.23682 0.18155
# Poissons Ratio (y) = 0.21546 0.45546
# Poissons Ratio (z) = 0.14486 0.39943
#
# Static dielectric constant tensor:
#      x y z
#    x 3.178740 0.000000 0.050830 
#    y 0.000000 3.443540 0.000000 
#    z 0.050830 0.000000 3.321400 
# 
# 
# High freq. dielectric constant tensor:
#      x y z
#    x 1.674220 0.000000 0.005640 
#    y 0.000000 1.700540 0.000000 
#    z 0.005640 0.000000 1.690720 
# 
# From -- ./inp_files/35682.got.cif
#   From: 2010.06.25/outbox.cif.g09.slc.cpg/sg10_18_cif.got.tgz:35682.got - 2010.06.27 22:07:45.
