data_PCOD8063400
_publ_section_title
;
Structure prediction by ZEFSAII (Michael W. Deem and Ramdas Pophale) SiO2 
 PCOD8063400
Probable space group: P 2/M
;
_chemical_formula_sum "Si O2"
_cell_formula_units_Z 28
_cell_length_a 7.959997
_cell_length_b 15.990633
_cell_length_c 18.770200
_cell_angle_alpha 90.000000
_cell_angle_beta 146.285104
_cell_angle_gamma 90.000000
_cell_volume 1326.135625
_symmetry_space_group_name_H-M "P 2/M"
_symmetry_group_IT_number 10
_symmetry_cell_setting 'monoclinic'
loop_
_space_group_symop_operation_xyz
x,y,z
-x,y,-z
-x,-y,-z
x,-y,z
loop_
_atom_site_type_symbol
_atom_site_label
_atom_site_fract_x
_atom_site_fract_y
_atom_site_fract_z
Si Si1 0.818333 0.861261 0.147686
Si Si2 0.350312 0.736439 0.616389
Si Si3 0.448740 0.090750 0.313100
Si Si4 0.496177 0.090735 0.163727
Si Si5 0.331351 0.733229 0.120103
Si Si6 0.360537 0.593589 0.373838
Si Si7 0.268113 0.327965 0.859280
O O1 0.803251 0.896444 0.224243
O O2 0.867421 0.761287 0.163744
O O3 0.086791 0.902775 0.196894
O O4 0.500000 0.887239 0.000000
O O5 0.395514 0.828192 0.594698
O O6 0.535161 0.737775 0.754551
O O7 0.479327 0.660655 0.618108
O O8 0.000000 0.718152 0.500000
O O9 0.559098 0.092445 0.270050
O O10 0.552748 0.000000 0.381476
O O11 0.292908 0.172437 0.072919
O O12 0.346435 0.000000 0.091952
O O13 0.556970 0.677953 0.153492
O O14 0.000000 0.691414 0.000000
O O15 0.500000 0.605667 0.500000
O O16 0.423721 0.500000 0.367443
O O17 0.000625 0.607035 0.247344
O O18 0.500000 0.363006 0.000000
#
# Coordination Sequence:
#
# PCOD8063400 Si02
#       7
#     4   4   4   4   4   4   4
#     4  10  20  33  54  85 121 167 216 260 309 369
#     4  11  23  42  64  88 125 167 207 261 321 373
#     4  10  21  37  58  85 122 169 215 258 309 371
#     4   9  20  31  47  79 120 158 205 261 307 351
#     4  10  21  36  60  90 121 164 210 254 309 374
#     4  11  24  43  69  97 122 157 207 258 318 387
#     4  10  20  38  64  92 129 166 204 256 316 379
#
# _framework density 21.113980000000002
#
# number of rings (size 3 to 8) (size 9 to 14) (size 15 to 20)
#    0.000    1.857    1.429    2.143   10.000    2.286 
#    0.000    0.714    0.000    2.143    0.000    0.000 
#    0.000    0.000    0.000    0.000    0.000    0.000 
#
# Total GULP energy -346938.041894 kJ/mol
# GULP energy per Si atom -12390.644353 kJ/mol
# Density = 2.106592 g / cm^3
# Si number density = 21.113980 Si / 1000 Ang^3
#
#
#
# Elastic Constant Matrix: (Units=GPa)
#
#
# Indices 1 2 3 4 5 6 
#
# 1 109.0442 75.2418 36.6514 0.0000 13.8120 0.0000
# 2 75.2418 124.5548 60.7636 0.0000 -1.4071 0.0000
# 3 36.6514 60.7636 100.8826 0.0000 14.0622 0.0000
# 4 0.0000 0.0000 0.0000 12.9010 0.0000 -12.7695
# 5 13.8120 -1.4071 14.0622 0.0000 24.2149 0.0000
# 6 0.0000 0.0000 0.0000 -12.7695 0.0000 20.3982
#
#
#
# Elastic Compliance Matrix: (Units=1/GPa)
#
#
# Indices 1 2 3 4 5 6 
#
# 1 0.018723 -0.012777 0.002704 0.000000 -0.012993 0.000000
# 2 -0.012777 0.020684 -0.009793 0.000000 0.014177 0.000000
# 3 0.002704 -0.009793 0.016455 0.000000 -0.011667 0.000000
# 4 0.000000 0.000000 0.000000 0.203784 0.000000 0.127571
# 5 -0.012993 0.014177 -0.011667 0.000000 0.056307 0.000000
# 6 0.000000 0.000000 0.000000 0.127571 0.000000 0.128885
#
#
# Mechanical properties :
#
#
# Convention : Reuss Voigt Hill
#
# Bulk Modulus (GPa) = 61.98789 75.53280 68.76034
# Shear Modulus (GPa) = 10.20521 22.29114 16.24817
#
# Velocity S-wave (km/s) = 2.20088 3.25276 2.77708
# Velocity P-wave (km/s) = 5.99007 7.06815 6.55132
#
# Compressibility (1/GPa) = 0.01613218
#
# Stress axis : x y z
#
# Youngs Moduli (GPa) = 53.40944 48.34592 60.77270
#
# Poissons Ratio (x) = 0.61769 -0.16435
# Poissons Ratio (y) = 0.68239 0.59514
# Poissons Ratio (z) = -0.14444 0.47344
#
# Static dielectric constant tensor:
#      x y z
#    x 4.666990 0.000000 -0.382120 
#    y 0.000000 4.074930 0.000000 
#    z -0.382120 0.000000 3.777570 
# 
# 
# High freq. dielectric constant tensor:
#      x y z
#    x 1.841690 0.000000 0.007700 
#    y 0.000000 1.821780 0.000000 
#    z 0.007700 0.000000 1.792170 
# 
# From -- ./inp_files/82940.got.cif
#   From: 2010.06.25/outbox.cif.g09.slc.cpg/sg10_42_cif.got.tgz:82940.got - 2010.06.27 22:07:45.
