data_PCOD8063732
_publ_section_title
;
Structure prediction by ZEFSAII (Michael W. Deem and Ramdas Pophale) SiO2 
 PCOD8063732
Probable space group: P 2/M
;
_chemical_formula_sum "Si O2"
_cell_formula_units_Z 32
_cell_length_a 21.981103
_cell_length_b 9.298458
_cell_length_c 27.199536
_cell_angle_alpha 90.000000
_cell_angle_beta 162.019000
_cell_angle_gamma 90.000000
_cell_volume 1716.171889
_symmetry_space_group_name_H-M "P 2/M"
_symmetry_group_IT_number 10
_symmetry_cell_setting 'monoclinic'
loop_
_space_group_symop_operation_xyz
x,y,z
-x,y,-z
-x,-y,-z
x,-y,z
loop_
_atom_site_type_symbol
_atom_site_label
_atom_site_fract_x
_atom_site_fract_y
_atom_site_fract_z
Si Si1 0.120435 0.668140 0.733005
Si Si2 0.617351 0.333910 0.737686
Si Si3 0.918364 0.831272 0.036929
Si Si4 0.685553 0.334360 0.676009
Si Si5 0.146140 0.164978 0.656091
Si Si6 0.590701 0.833568 0.980164
Si Si7 0.117926 0.165867 0.880129
Si Si8 0.825163 0.332917 0.591558
O O1 0.158804 0.500000 0.757706
O O2 0.075335 0.733921 0.645537
O O3 0.934979 0.703572 0.625203
O O4 0.317035 0.740345 0.905305
O O5 0.656393 0.500000 0.780992
O O6 0.631668 0.307017 0.690928
O O7 0.400431 0.283703 0.588007
O O8 0.778408 0.239594 0.889079
O O9 0.833021 0.798417 0.025650
O O10 0.135795 0.767333 0.201360
O O11 0.928904 0.000000 0.034116
O O12 0.500000 0.291094 0.500000
O O13 0.745555 0.500000 0.713062
O O14 0.361805 0.205052 0.801792
O O15 0.000000 0.197175 0.500000
O O16 0.136700 0.000000 0.666506
O O17 0.626621 0.000000 0.020598
O O18 0.689650 0.792542 0.004013
O O19 0.927322 0.252857 0.715559
O O20 0.062952 0.000000 0.831187
O O21 0.835433 0.500000 0.612847
#
# Coordination Sequence:
#
# PCOD8063732 Si02
#       8
#     4   4   4   4   4   4   4   4
#     4  10  20  34  54  80 107 134 169 216 268 315
#     4  10  21  37  56  78 106 140 177 214 255 309
#     4  11  23  36  53  81 114 142 170 212 266 315
#     4  10  21  38  60  81 102 137 183 223 258 304
#     4  10  21  35  52  75 103 139 180 217 256 308
#     4   9  18  35  56  75 100 136 178 218 254 303
#     4   9  19  35  54  77 104 136 174 215 259 308
#     4   9  19  36  57  80 104 134 175 219 260 307
#
# _framework density 18.646151
#
# number of rings (size 3 to 8) (size 9 to 14) (size 15 to 20)
#    0.000    2.250    0.000    2.250    0.000    8.500 
#    0.000    1.250    0.000    0.000    0.000    0.000 
#    0.000    0.000    0.000    0.000    0.000    0.000 
#
# Total GULP energy -396917.294979 kJ/mol
# GULP energy per Si atom -12403.665468 kJ/mol
# Density = 1.860371 g / cm^3
# Si number density = 18.646151 Si / 1000 Ang^3
#
#
#
# Elastic Constant Matrix: (Units=GPa)
#
#
# Indices 1 2 3 4 5 6 
#
# 1 103.8660 54.3856 62.5859 0.0000 -9.1904 0.0000
# 2 54.3856 75.5684 53.4663 0.0000 -7.6638 0.0000
# 3 62.5859 53.4663 119.4732 0.0000 -10.0813 0.0000
# 4 0.0000 0.0000 0.0000 26.5287 0.0000 -0.6983
# 5 -9.1904 -7.6638 -10.0813 0.0000 24.8770 0.0000
# 6 0.0000 0.0000 0.0000 -0.6983 0.0000 30.5363
#
#
#
# Elastic Compliance Matrix: (Units=1/GPa)
#
#
# Indices 1 2 3 4 5 6 
#
# 1 0.017426 -0.008798 -0.005049 0.000000 0.001681 0.000000
# 2 -0.008798 0.023963 -0.005970 0.000000 0.001712 0.000000
# 3 -0.005049 -0.005970 0.013848 0.000000 0.001907 0.000000
# 4 0.000000 0.000000 0.000000 0.037718 0.000000 0.000863
# 5 0.001681 0.001712 0.001907 0.000000 0.042119 0.000000
# 6 0.000000 0.000000 0.000000 0.000863 0.000000 0.032768
#
#
# Mechanical properties :
#
#
# Convention : Reuss Voigt Hill
#
# Bulk Modulus (GPa) = 64.09902 71.08702 67.59302
# Shear Modulus (GPa) = 23.50978 24.95305 24.23142
#
# Velocity S-wave (km/s) = 3.55468 3.66217 3.60882
# Velocity P-wave (km/s) = 7.16232 7.48926 7.32761
#
# Compressibility (1/GPa) = 0.01560086
#
# Stress axis : x y z
#
# Youngs Moduli (GPa) = 57.38567 41.73130 72.21290
#
# Poissons Ratio (x) = 0.36716 0.36463
# Poissons Ratio (y) = 0.50489 0.43114
# Poissons Ratio (z) = 0.28976 0.24915
#
# Static dielectric constant tensor:
#      x y z
#    x 3.597380 0.000000 0.105790 
#    y 0.000000 3.435120 0.000000 
#    z 0.105790 0.000000 3.414110 
# 
# 
# High freq. dielectric constant tensor:
#      x y z
#    x 1.734420 0.000000 0.005190 
#    y 0.000000 1.721640 0.000000 
#    z 0.005190 0.000000 1.723580 
# 
# From -- ./inp_files/93726.got.cif
#   From: 2010.06.25/outbox.cif.g09.slc.cpg/sg10_47_cif.got.tgz:93726.got - 2010.06.27 22:07:45.
