data_PCOD8063389
_publ_section_title
;
Structure prediction by ZEFSAII (Michael W. Deem and Ramdas Pophale) SiO2 
 PCOD8063389
Probable space group: P 2/M
;
_chemical_formula_sum "Si O2"
_cell_formula_units_Z 28
_cell_length_a 22.912376
_cell_length_b 9.255032
_cell_length_c 20.071196
_cell_angle_alpha 90.000000
_cell_angle_beta 19.864124
_cell_angle_gamma 90.000000
_cell_volume 1446.214846
_symmetry_space_group_name_H-M "P 2/M"
_symmetry_group_IT_number 10
_symmetry_cell_setting 'monoclinic'
loop_
_space_group_symop_operation_xyz
x,y,z
-x,y,-z
-x,-y,-z
x,-y,z
loop_
_atom_site_type_symbol
_atom_site_label
_atom_site_fract_x
_atom_site_fract_y
_atom_site_fract_z
Si Si1 0.727145 0.831834 0.439956
Si Si2 0.864310 0.337532 0.702971
Si Si3 0.541333 0.171750 0.382836
Si Si4 0.165166 0.661182 0.120893
Si Si5 0.893616 0.167167 0.943394
Si Si6 0.556447 0.331536 0.740014
Si Si7 0.534300 0.830874 0.038299
O O1 0.609275 0.776689 0.505479
O O2 0.687226 0.740325 0.548279
O O3 0.929390 0.807284 0.205535
O O4 0.689946 0.000000 0.494601
O O5 0.782220 0.500000 0.784947
O O6 0.941422 0.323555 0.695177
O O7 0.000000 0.312073 0.500000
O O8 0.730482 0.209283 0.840022
O O9 0.500000 0.236721 0.500000
O O10 0.546134 0.000000 0.381505
O O11 0.727795 0.233180 0.159710
O O12 0.148469 0.500000 0.110019
O O13 0.086035 0.767052 0.151729
O O14 0.364041 0.698051 0.921292
O O15 0.858676 0.000000 0.969658
O O16 0.599539 0.500000 0.700007
O O17 0.584321 0.257635 0.782441
O O18 0.503342 0.000000 0.082743
O O19 0.500000 0.781634 0.000000
#
# Coordination Sequence:
#
# PCOD8063389 Si02
#       7
#     4   4   4   4   4   4   4
#     4  10  20  34  55  84 114 143 184 231 274 331
#     4   9  19  35  53  75 105 143 188 231 275 330
#     4   9  18  34  56  82 115 151 183 225 280 329
#     4   9  18  33  53  76 103 140 184 230 276 328
#     4  10  20  33  54  83 110 144 185 225 276 330
#     4  10  20  35  56  78 103 143 189 229 279 336
#     4  10  21  35  52  77 109 143 182 230 282 332
#
# _framework density 19.360885
#
# number of rings (size 3 to 8) (size 9 to 14) (size 15 to 20)
#    0.000    2.429    1.429    1.714    0.000    6.000 
#    0.000    5.714    0.000    1.714    0.000    2.000 
#    0.000    0.000    0.000    0.000    0.000    0.000 
#
# Total GULP energy -347070.544397 kJ/mol
# GULP energy per Si atom -12395.376586 kJ/mol
# Density = 1.931682 g / cm^3
# Si number density = 19.360885 Si / 1000 Ang^3
#
#
#
# Elastic Constant Matrix: (Units=GPa)
#
#
# Indices 1 2 3 4 5 6 
#
# 1 129.9851 45.2260 70.3491 0.0000 16.8097 0.0000
# 2 45.2260 55.7499 31.9833 0.0000 4.8730 0.0000
# 3 70.3491 31.9833 116.4834 0.0000 10.9755 0.0000
# 4 0.0000 0.0000 0.0000 16.8159 0.0000 2.6458
# 5 16.8097 4.8730 10.9755 0.0000 30.8944 0.0000
# 6 0.0000 0.0000 0.0000 2.6458 0.0000 14.7271
#
#
#
# Elastic Compliance Matrix: (Units=1/GPa)
#
#
# Indices 1 2 3 4 5 6 
#
# 1 0.014206 -0.007664 -0.006064 0.000000 -0.004367 0.000000
# 2 -0.007664 0.025478 -0.002464 0.000000 0.001027 0.000000
# 3 -0.006064 -0.002464 0.013012 0.000000 -0.000934 0.000000
# 4 0.000000 0.000000 0.000000 0.061197 0.000000 -0.010994
# 5 -0.004367 0.001027 -0.000934 0.000000 0.034914 0.000000
# 6 0.000000 0.000000 0.000000 -0.010994 0.000000 0.069877
#
#
# Mechanical properties :
#
#
# Convention : Reuss Voigt Hill
#
# Bulk Modulus (GPa) = 49.23024 66.37058 57.80041
# Shear Modulus (GPa) = 19.39192 22.79816 21.09504
#
# Velocity S-wave (km/s) = 3.16824 3.43525 3.30444
# Velocity P-wave (km/s) = 6.23431 7.07741 6.66920
#
# Compressibility (1/GPa) = 0.02031272
#
# Stress axis : x y z
#
# Youngs Moduli (GPa) = 70.39114 39.24908 76.85357
#
# Poissons Ratio (x) = 0.30081 0.46604
# Poissons Ratio (y) = 0.53948 0.18935
# Poissons Ratio (z) = 0.42685 0.09670
#
# Static dielectric constant tensor:
#      x y z
#    x 3.647320 0.000000 0.179060 
#    y 0.000000 3.323790 0.000000 
#    z 0.179060 0.000000 3.594060 
# 
# 
# High freq. dielectric constant tensor:
#      x y z
#    x 1.750730 0.000000 0.009550 
#    y 0.000000 1.734180 0.000000 
#    z 0.009550 0.000000 1.747890 
# 
# From -- ./inp_files/86439.got.cif
#   From: 2010.06.25/outbox.cif.g09.slc.cpg/sg10_44_cif.got.tgz:86439.got - 2010.06.27 22:07:45.
