data_PCOD8063285
_publ_section_title
;
Structure prediction by ZEFSAII (Michael W. Deem and Ramdas Pophale) SiO2 
 PCOD8063285
Probable space group: P 2/M
;
_chemical_formula_sum "Si O2"
_cell_formula_units_Z 28
_cell_length_a 23.075170
_cell_length_b 8.647183
_cell_length_c 20.102624
_cell_angle_alpha 90.000000
_cell_angle_beta 159.688668
_cell_angle_gamma 90.000000
_cell_volume 1392.365885
_symmetry_space_group_name_H-M "P 2/M"
_symmetry_group_IT_number 10
_symmetry_cell_setting 'monoclinic'
loop_
_space_group_symop_operation_xyz
x,y,z
-x,y,-z
-x,-y,-z
x,-y,z
loop_
_atom_site_type_symbol
_atom_site_label
_atom_site_fract_x
_atom_site_fract_y
_atom_site_fract_z
Si Si1 0.007751 0.823527 0.702315
Si Si2 0.094480 0.671268 0.665091
Si Si3 0.762193 0.316085 0.612524
Si Si4 0.479817 0.820295 0.400795
Si Si5 0.322085 0.321758 0.621064
Si Si6 0.117257 0.820838 0.965110
Si Si7 0.529303 0.671338 0.961210
O O1 0.103244 0.786435 0.737165
O O2 0.119993 0.793672 0.888457
O O3 0.857877 0.702562 0.540715
O O4 0.943748 0.000000 0.633184
O O5 0.020656 0.500000 0.603028
O O6 0.000000 0.745932 0.500000
O O7 0.279132 0.650303 0.840815
O O8 0.772516 0.500000 0.623363
O O9 0.638553 0.262116 0.537541
O O10 0.680522 0.248820 0.455987
O O11 0.954951 0.256965 0.825843
O O12 0.500000 0.789762 0.500000
O O13 0.489358 0.000000 0.392190
O O14 0.296538 0.753225 0.182794
O O15 0.368003 0.500000 0.662186
O O16 0.451376 0.242206 0.812323
O O17 0.105587 0.000000 0.971803
O O18 0.443428 0.500000 0.873574
O O19 0.500000 0.760747 0.000000
#
# Coordination Sequence:
#
# PCOD8063285 Si02
#       7
#     4   4   4   4   4   4   4
#     4  10  20  34  53  78 106 138 175 223 276 325
#     4  10  20  33  52  76 102 139 180 221 270 323
#     4  10  21  36  58  88 119 151 188 239 295 343
#     4  10  22  40  62  86 114 153 198 239 282 344
#     4   9  18  34  54  77 104 139 180 221 269 327
#     4   9  20  39  60  83 114 154 195 234 282 344
#     4   9  17  30  50  74 100 132 175 222 262 310
#
# _framework density 20.109656999999999
#
# number of rings (size 3 to 8) (size 9 to 14) (size 15 to 20)
#    0.000    2.429    0.000    1.714    2.000    5.143 
#    0.000    3.571    0.000    1.714    0.000    0.000 
#    0.000    0.000    0.000    0.000    0.000    0.000 
#
# Total GULP energy -346881.281238 kJ/mol
# GULP energy per Si atom -12388.617187 kJ/mol
# Density = 2.006389 g / cm^3
# Si number density = 20.109657 Si / 1000 Ang^3
#
#
#
# Elastic Constant Matrix: (Units=GPa)
#
#
# Indices 1 2 3 4 5 6 
#
# 1 121.2983 31.5364 59.2666 0.0000 2.5867 0.0000
# 2 31.5364 37.9476 23.6624 0.0000 -0.9493 0.0000
# 3 59.2666 23.6624 135.7034 0.0000 -9.6701 0.0000
# 4 0.0000 0.0000 0.0000 21.9509 0.0000 -2.3399
# 5 2.5867 -0.9493 -9.6701 0.0000 30.7190 0.0000
# 6 0.0000 0.0000 0.0000 -2.3399 0.0000 34.7406
#
#
#
# Elastic Compliance Matrix: (Units=1/GPa)
#
#
# Indices 1 2 3 4 5 6 
#
# 1 0.012379 -0.007703 -0.004250 0.000000 -0.002618 0.000000
# 2 -0.007703 0.034376 -0.002565 0.000000 0.000903 0.000000
# 3 -0.004250 -0.002565 0.009915 0.000000 0.003400 0.000000
# 4 0.000000 0.000000 0.000000 0.045886 0.000000 0.003091
# 5 -0.002618 0.000903 0.003400 0.000000 0.033872 0.000000
# 6 0.000000 0.000000 0.000000 0.003091 0.000000 0.028993
#
#
# Mechanical properties :
#
#
# Convention : Reuss Voigt Hill
#
# Bulk Modulus (GPa) = 36.18859 58.20888 47.19874
# Shear Modulus (GPa) = 24.54969 29.51435 27.03202
#
# Velocity S-wave (km/s) = 3.49777 3.83518 3.67035
# Velocity P-wave (km/s) = 5.86065 6.97280 6.44078
#
# Compressibility (1/GPa) = 0.02763302
#
# Stress axis : x y z
#
# Youngs Moduli (GPa) = 80.78051 29.08986 100.86078
#
# Poissons Ratio (x) = 0.22409 0.42864
# Poissons Ratio (y) = 0.62227 0.25875
# Poissons Ratio (z) = 0.34330 0.07463
#
# Static dielectric constant tensor:
#      x y z
#    x -2.175990 0.000000 4.950770 
#    y 0.000000 3.389060 0.000000 
#    z 4.950770 0.000000 -0.772390 
# 
# 
# High freq. dielectric constant tensor:
#      x y z
#    x 1.791080 0.000000 -0.008400 
#    y 0.000000 1.748870 0.000000 
#    z -0.008400 0.000000 1.791100 
# 
# From -- ./inp_files/86543.got.cif
#   From: 2010.06.25/outbox.cif.g09.slc.cpg/sg10_44_cif.got.tgz:86543.got - 2010.06.27 22:07:45.
