data_PCOD8063206
_publ_section_title
;
Structure prediction by ZEFSAII (Michael W. Deem and Ramdas Pophale) SiO2 
 PCOD8063206
Probable space group: P 2/M
;
_chemical_formula_sum "Si O2"
_cell_formula_units_Z 32
_cell_length_a 21.477545
_cell_length_b 9.056044
_cell_length_c 27.692511
_cell_angle_alpha 90.000000
_cell_angle_beta 18.768032
_cell_angle_gamma 90.000000
_cell_volume 1732.954397
_symmetry_space_group_name_H-M "P 2/M"
_symmetry_group_IT_number 10
_symmetry_cell_setting 'monoclinic'
loop_
_space_group_symop_operation_xyz
x,y,z
-x,y,-z
-x,-y,-z
x,-y,z
loop_
_atom_site_type_symbol
_atom_site_label
_atom_site_fract_x
_atom_site_fract_y
_atom_site_fract_z
Si Si1 0.666529 0.176324 0.414356
Si Si2 0.161281 0.176325 0.916761
Si Si3 0.420635 0.175703 0.415377
Si Si4 0.185600 0.329280 0.231596
Si Si5 0.218064 0.175475 0.467680
Si Si6 0.485327 0.329358 0.932433
Si Si7 0.913811 0.824270 0.922380
Si Si8 0.521559 0.824705 0.163229
O O1 0.500000 0.236302 0.500000
O O2 0.640623 0.237342 0.487564
O O3 0.877537 0.238556 0.245840
O O4 0.660935 0.000000 0.417210
O O5 0.365418 0.237303 0.749462
O O6 0.157520 0.000000 0.919470
O O7 0.124089 0.238995 0.996924
O O8 0.000000 0.241974 0.000000
O O9 0.287731 0.233790 0.469058
O O10 0.417649 0.000000 0.417521
O O11 0.126813 0.500000 0.271214
O O12 0.331021 0.302251 0.168669
O O13 0.996885 0.234857 0.382194
O O14 0.290929 0.279826 0.104197
O O15 0.363728 0.232232 0.318510
O O16 0.212872 0.000000 0.470506
O O17 0.467505 0.500000 0.931162
O O18 0.523300 0.235850 0.856688
O O19 0.918475 0.000000 0.918788
O O20 0.737601 0.768847 0.018215
O O21 0.514197 0.000000 0.167002
#
# Coordination Sequence:
#
# PCOD8063206 Si02
#       8
#     4   4   4   4   4   4   4   4
#     4   9  16  24  36  58  90 129 172 212 249 293
#     4   9  14  22  38  56  84 131 172 198 237 293
#     4   9  16  26  38  60  95 131 166 205 248 294
#     4   9  20  39  59  78 101 130 168 213 256 302
#     4  10  20  33  50  76 110 142 171 207 252 305
#     4   9  20  39  59  78 101 130 168 213 256 302
#     4   9  16  26  38  60  95 131 166 205 248 294
#     4  10  20  33  50  76 110 142 171 207 252 305
#
# _framework density 18.465577
#
# number of rings (size 3 to 8) (size 9 to 14) (size 15 to 20)
#    0.000    2.750    1.250    1.500    1.750    5.000 
#    0.000    3.750    0.000    0.000    0.000    0.000 
#    0.000    6.000    0.000    0.000    0.000    0.000 
#
# Total GULP energy -396614.950792 kJ/mol
# GULP energy per Si atom -12394.217212 kJ/mol
# Density = 1.842355 g / cm^3
# Si number density = 18.465577 Si / 1000 Ang^3
#
#
#
# Elastic Constant Matrix: (Units=GPa)
#
#
# Indices 1 2 3 4 5 6 
#
# 1 104.3460 16.4885 33.5757 0.0000 9.6453 0.0000
# 2 16.4885 12.2855 15.4804 0.0000 -0.8802 0.0000
# 3 33.5757 15.4804 119.2445 0.0000 -4.2237 0.0000
# 4 0.0000 0.0000 0.0000 14.2309 0.0000 7.8292
# 5 9.6453 -0.8802 -4.2237 0.0000 33.3610 0.0000
# 6 0.0000 0.0000 0.0000 7.8292 0.0000 2.7362
#
#
#
# Elastic Compliance Matrix: (Units=1/GPa)
#
#
# Indices 1 2 3 4 5 6 
#
# 1 0.013025 -0.015517 -0.001809 0.000000 -0.004404 0.000000
# 2 -0.015517 0.115833 -0.010448 0.000000 0.006219 0.000000
# 3 -0.001809 -0.010448 0.010307 0.000000 0.001552 0.000000
# 4 0.000000 0.000000 0.000000 -0.122383 0.000000 0.350181
# 5 -0.004404 0.006219 0.001552 0.000000 0.031609 0.000000
# 6 0.000000 0.000000 0.000000 0.350181 0.000000 -0.636517
#
#
# Mechanical properties :
#
#
# Convention : Reuss Voigt Hill
#
# Bulk Modulus (GPa) = 11.95931 40.77390 26.36660
# Shear Modulus (GPa) = -9.90674 21.42106 5.75716
#
# Velocity S-wave (km/s) = -2.31875 3.40965 1.76764
# Velocity P-wave (km/s) = 0.82355 6.13432 4.29835
#
# Compressibility (1/GPa) = 0.08361688
#
# Stress axis : x y z
#
# Youngs Moduli (GPa) = 76.77810 8.63312 97.02284
#
# Poissons Ratio (x) = 0.13396 0.17551
# Poissons Ratio (y) = 1.19133 1.01372
# Poissons Ratio (z) = 0.13889 0.09020
#
# Static dielectric constant tensor:
#      x y z
#    x 3.566380 0.000000 0.048470 
#    y 0.000000 2.720620 0.000000 
#    z 0.048470 0.000000 3.634870 
# 
# 
# High freq. dielectric constant tensor:
#      x y z
#    x 1.730250 0.000000 0.001520 
#    y 0.000000 1.646260 0.000000 
#    z 0.001520 0.000000 1.732570 
# 
# From -- ./inp_files/93565.got.cif
#   From: 2010.06.25/outbox.cif.g09.slc.cpg/sg10_47_cif.got.tgz:93565.got - 2010.06.27 22:07:45.
