data_PCOD8063861
_publ_section_title
;
Structure prediction by ZEFSAII (Michael W. Deem and Ramdas Pophale) SiO2 
 PCOD8063861
Probable space group: P 2/M
;
_chemical_formula_sum "Si O2"
_cell_formula_units_Z 32
_cell_length_a 14.334514
_cell_length_b 9.271547
_cell_length_c 23.213080
_cell_angle_alpha 90.000000
_cell_angle_beta 147.876695
_cell_angle_gamma 90.000000
_cell_volume 1640.475731
_symmetry_space_group_name_H-M "P 2/M"
_symmetry_group_IT_number 10
_symmetry_cell_setting 'monoclinic'
loop_
_space_group_symop_operation_xyz
x,y,z
-x,y,-z
-x,-y,-z
x,-y,z
loop_
_atom_site_type_symbol
_atom_site_label
_atom_site_fract_x
_atom_site_fract_y
_atom_site_fract_z
Si Si1 0.440356 0.171788 0.254197
Si Si2 0.469718 0.670805 0.811173
Si Si3 0.993944 0.666774 0.813509
Si Si4 0.695846 0.830592 0.590748
Si Si5 0.890488 0.666071 0.886626
Si Si6 0.379553 0.671115 0.988695
Si Si7 0.071041 0.663207 0.600693
Si Si8 0.774114 0.168374 0.501919
O O1 0.428672 0.243555 0.185314
O O2 0.279278 0.232046 0.207391
O O3 0.618648 0.222360 0.378942
O O4 0.427136 0.000000 0.242947
O O5 0.494403 0.500000 0.813869
O O6 0.268450 0.719274 0.704901
O O7 0.544046 0.724084 0.910785
O O8 0.963619 0.500000 0.782569
O O9 0.831816 0.755008 0.704154
O O10 0.005351 0.687959 0.888760
O O11 0.176110 0.721682 0.879499
O O12 0.500000 0.774823 0.500000
O O13 0.733235 0.787003 0.545191
O O14 0.711128 0.000000 0.610106
O O15 0.830300 0.500000 0.861227
O O16 0.000000 0.713755 0.000000
O O17 0.387778 0.500000 0.990091
O O18 0.500000 0.736414 0.000000
O O19 0.060894 0.500000 0.617869
O O20 0.000000 0.679652 0.500000
O O21 0.957832 0.758696 0.584059
O O22 0.799185 0.000000 0.507459
#
# Coordination Sequence:
#
# PCOD8063861 Si02
#       8
#     4   4   4   4   4   4   4   4
#     4  11  22  36  57  85 113 147 188 233 282 340
#     4  10  20  36  58  83 116 153 189 234 289 341
#     4  10  21  37  60  89 116 146 192 242 284 332
#     4  10  22  41  61  81 114 158 195 231 286 349
#     4  10  21  38  60  85 114 148 185 230 286 341
#     4   9  19  36  59  85 114 152 193 232 282 344
#     4  10  20  34  55  86 115 145 188 239 289 338
#     4  10  22  37  55  80 112 152 191 229 284 346
#
# _framework density 19.506536000000001
#
# number of rings (size 3 to 8) (size 9 to 14) (size 15 to 20)
#    0.000    2.000    1.250    1.875    1.750    5.750 
#    0.000    1.875    0.000    0.750    0.000    0.000 
#    0.000    0.000    0.000    0.000    0.000    0.000 
#
# Total GULP energy -396865.156761 kJ/mol
# GULP energy per Si atom -12402.036149 kJ/mol
# Density = 1.946214 g / cm^3
# Si number density = 19.506536 Si / 1000 Ang^3
#
#
#
# Elastic Constant Matrix: (Units=GPa)
#
#
# Indices 1 2 3 4 5 6 
#
# 1 99.4025 7.9271 10.5456 0.0000 5.3863 0.0000
# 2 7.9271 -1.7311 -17.0800 0.0000 -10.1389 0.0000
# 3 10.5456 -17.0800 60.6857 0.0000 -7.3180 0.0000
# 4 0.0000 0.0000 0.0000 -39.8700 0.0000 20.6334
# 5 5.3863 -10.1389 -7.3180 0.0000 31.0881 0.0000
# 6 0.0000 0.0000 0.0000 20.6334 0.0000 30.4355
#
#
#
# Elastic Compliance Matrix: (Units=1/GPa)
#
#
# Indices 1 2 3 4 5 6 
#
# 1 0.008913 0.010560 0.001701 0.000000 0.002300 0.000000
# 2 0.010560 -0.074712 -0.026782 0.000000 -0.032500 0.000000
# 3 0.001701 -0.026782 0.007777 0.000000 -0.007199 0.000000
# 4 0.000000 0.000000 0.000000 -0.018567 0.000000 0.012587
# 5 0.002300 -0.032500 -0.007199 0.000000 0.019474 0.000000
# 6 0.000000 0.000000 0.000000 0.012587 0.000000 0.024323
#
#
# Mechanical properties :
#
#
# Convention : Reuss Voigt Hill
#
# Bulk Modulus (GPa) = -11.48581 17.90472 3.20945
# Shear Modulus (GPa) = -152.56710 14.79504 -68.88603
#
# Velocity S-wave (km/s) = -8.85342 2.75701 -5.94903
# Velocity P-wave (km/s) = 10.50770 4.39700 6.74827
#
# Compressibility (1/GPa) = -0.08706392
#
# Stress axis : x y z
#
# Youngs Moduli (GPa) = 112.19763 -13.38471 128.58627
#
# Poissons Ratio (x) = 0.14135 -0.21870
# Poissons Ratio (y) = -1.18486 3.44381
# Poissons Ratio (z) = -0.19083 -0.35847
#
# Static dielectric constant tensor:
#      x y z
#    x 3.698450 0.000000 0.027390 
#    y 0.000000 3.287410 0.000000 
#    z 0.027390 0.000000 3.601930 
# 
# 
# High freq. dielectric constant tensor:
#      x y z
#    x 1.774220 0.000000 0.003850 
#    y 0.000000 1.732430 0.000000 
#    z 0.003850 0.000000 1.767890 
# 
# From -- ./inp_files/71426.got.cif
#   From: 2010.06.25/outbox.cif.g09.slc.cpg/sg10_36_cif.got.tgz:71426.got - 2010.06.27 22:07:45.
