data_PCOD8063035
_publ_section_title
;
Structure prediction by ZEFSAII (Michael W. Deem and Ramdas Pophale) SiO2 
 PCOD8063035
Probable space group: P 2/M
;
_chemical_formula_sum "Si O2"
_cell_formula_units_Z 28
_cell_length_a 13.648008
_cell_length_b 9.353173
_cell_length_c 12.298435
_cell_angle_alpha 90.000000
_cell_angle_beta 53.793624
_cell_angle_gamma 90.000000
_cell_volume 1266.761588
_symmetry_space_group_name_H-M "P 2/M"
_symmetry_group_IT_number 10
_symmetry_cell_setting 'monoclinic'
loop_
_space_group_symop_operation_xyz
x,y,z
-x,y,-z
-x,-y,-z
x,-y,z
loop_
_atom_site_type_symbol
_atom_site_label
_atom_site_fract_x
_atom_site_fract_y
_atom_site_fract_z
Si Si1 0.334720 0.659554 0.369163
Si Si2 0.168891 0.846076 0.186078
Si Si3 0.456069 0.831215 0.651233
Si Si4 0.629570 0.342409 0.906927
Si Si5 0.793874 0.665011 0.154208
Si Si6 0.126341 0.842047 0.454936
Si Si7 0.013395 0.663341 0.159848
O O1 0.334805 0.500000 0.422487
O O2 0.449728 0.750798 0.332135
O O3 0.331693 0.642829 0.242525
O O4 0.208453 0.743298 0.480888
O O5 0.278611 0.744241 0.075196
O O6 0.195151 0.866979 0.296081
O O7 0.039379 0.768846 0.244896
O O8 0.173348 0.000000 0.123989
O O9 0.500000 0.802545 0.500000
O O10 0.322138 0.767728 0.760117
O O11 0.454948 0.000000 0.678640
O O12 0.621395 0.500000 0.965905
O O13 0.500000 0.264402 0.000000
O O14 0.750743 0.500000 0.178568
O O15 0.878612 0.691184 0.204220
O O16 0.880290 0.701993 0.996019
O O17 0.000000 0.768651 0.500000
O O18 0.103186 0.000000 0.524323
O O19 0.026828 0.500000 0.188661
#
# Coordination Sequence:
#
# PCOD8063035 Si02
#       7
#     4   4   4   4   4   4   4
#     4  10  21  37  58  84 112 145 188 236 278 326
#     4  10  20  32  51  82 112 141 182 226 271 332
#     4  11  25  42  59  82 116 156 194 237 292 346
#     4   9  19  35  54  78 109 145 180 218 273 335
#     4   9  20  39  61  83 109 147 193 239 288 341
#     4   9  19  37  57  78 112 154 188 226 280 336
#     4   9  19  37  59  83 114 148 184 235 295 345
#
# _framework density 22.103608000000001
#
# number of rings (size 3 to 8) (size 9 to 14) (size 15 to 20)
#    0.000    2.429    0.000    2.143    2.000    5.143 
#    0.000    5.714    0.000    0.000    0.000    0.000 
#    0.000    0.000    0.000    0.000    0.000    0.000 
#
# Total GULP energy -346932.850250 kJ/mol
# GULP energy per Si atom -12390.458938 kJ/mol
# Density = 2.205330 g / cm^3
# Si number density = 22.103608 Si / 1000 Ang^3
#
#
#
# Elastic Constant Matrix: (Units=GPa)
#
#
# Indices 1 2 3 4 5 6 
#
# 1 135.8397 88.7947 9.5579 0.0000 -36.3516 0.0000
# 2 88.7947 159.4384 14.5153 0.0000 -23.2819 0.0000
# 3 9.5579 14.5153 21.6413 0.0000 -21.3606 0.0000
# 4 0.0000 0.0000 0.0000 17.3375 0.0000 -10.0026
# 5 -36.3516 -23.2819 -21.3606 0.0000 41.8301 0.0000
# 6 0.0000 0.0000 0.0000 -10.0026 0.0000 30.1849
#
#
#
# Elastic Compliance Matrix: (Units=1/GPa)
#
#
# Indices 1 2 3 4 5 6 
#
# 1 0.016037 -0.007782 0.015359 0.000000 0.017448 0.000000
# 2 -0.007782 0.010633 -0.009130 0.000000 -0.005507 0.000000
# 3 0.015359 -0.009130 0.108285 0.000000 0.063561 0.000000
# 4 0.000000 0.000000 0.000000 0.071312 0.000000 0.023631
# 5 0.017448 -0.005507 0.063561 0.000000 0.068462 0.000000
# 6 0.000000 0.000000 0.000000 0.023631 0.000000 0.040960
#
#
# Mechanical properties :
#
#
# Convention : Reuss Voigt Hill
#
# Bulk Modulus (GPa) = 7.58449 60.29502 33.93976
# Shear Modulus (GPa) = 13.78379 31.47394 22.62886
#
# Velocity S-wave (km/s) = 2.49991 3.77759 3.20310
# Velocity P-wave (km/s) = 3.43096 6.80915 5.39147
#
# Compressibility (1/GPa) = 0.13184795
#
# Stress axis : x y z
#
# Youngs Moduli (GPa) = 62.35607 94.04771 9.23488
#
# Poissons Ratio (x) = 0.73185 -0.14183
# Poissons Ratio (y) = 0.48524 0.08432
# Poissons Ratio (z) = -0.95770 0.85869
#
# Static dielectric constant tensor:
#      x y z
#    x 4.038110 0.000000 -0.114240 
#    y 0.000000 4.428450 0.000000 
#    z -0.114240 0.000000 3.732390 
# 
# 
# High freq. dielectric constant tensor:
#      x y z
#    x 1.876840 0.000000 -0.014920 
#    y 0.000000 1.871950 0.000000 
#    z -0.014920 0.000000 1.846670 
# 
# From -- ./inp_files/63627.got.cif
#   From: 2010.06.25/outbox.cif.g09.slc.cpg/sg10_32_cif.got.tgz:63627.got - 2010.06.27 22:07:45.
