data_PCOD8063095
_publ_section_title
;
Structure prediction by ZEFSAII (Michael W. Deem and Ramdas Pophale) SiO2 
 PCOD8063095
Probable space group: P 2/M
;
_chemical_formula_sum "Si O2"
_cell_formula_units_Z 32
_cell_length_a 20.290816
_cell_length_b 8.783042
_cell_length_c 28.771372
_cell_angle_alpha 90.000000
_cell_angle_beta 159.070459
_cell_angle_gamma 90.000000
_cell_volume 1831.640948
_symmetry_space_group_name_H-M "P 2/M"
_symmetry_group_IT_number 10
_symmetry_cell_setting 'monoclinic'
loop_
_space_group_symop_operation_xyz
x,y,z
-x,y,-z
-x,-y,-z
x,-y,z
loop_
_atom_site_type_symbol
_atom_site_label
_atom_site_fract_x
_atom_site_fract_y
_atom_site_fract_z
Si Si1 0.574843 0.326590 0.735649
Si Si2 0.363592 0.178772 0.319410
Si Si3 0.932099 0.679916 0.810821
Si Si4 0.334611 0.680627 0.103239
Si Si5 0.983943 0.318280 0.416811
Si Si6 0.743397 0.318983 0.591709
Si Si7 0.846738 0.672245 0.561800
Si Si8 0.709741 0.318949 0.310121
O O1 0.639629 0.500000 0.769444
O O2 0.651322 0.224233 0.744301
O O3 0.655377 0.260585 0.836980
O O4 0.354573 0.319033 0.593770
O O5 0.178944 0.234341 0.222579
O O6 0.537469 0.254272 0.459890
O O7 0.383141 0.000000 0.336834
O O8 0.909193 0.500000 0.802846
O O9 0.861239 0.731711 0.713593
O O10 0.144267 0.732683 0.954343
O O11 0.351301 0.500000 0.115664
O O12 0.504736 0.747269 0.184578
O O13 0.997687 0.500000 0.423430
O O14 0.788511 0.267491 0.311117
O O15 0.011571 0.251624 0.382359
O O16 0.150656 0.257209 0.558717
O O17 0.723198 0.500000 0.574369
O O18 0.842835 0.250956 0.610575
O O19 0.910157 0.500000 0.611453
O O20 0.705671 0.500000 0.309218
#
# Coordination Sequence:
#
# PCOD8063095 Si02
#       8
#     4   4   4   4   4   4   4   4
#     4   9  16  29  48  68  91 120 151 183 222 268
#     4  11  22  34  49  68  89 112 145 194 240 276
#     4  10  20  33  48  66  88 120 157 190 223 264
#     4   9  16  27  44  64  91 125 158 184 211 263
#     4   8  11  16  32  60  93 119 144 178 219 259
#     4   9  18  32  50  68  88 116 153 192 228 264
#     4   8  12  21  39  62  87 116 147 181 218 259
#     4   8  12  18  32  60  93 121 146 178 216 258
#
# _framework density 17.470673999999999
#
# number of rings (size 3 to 8) (size 9 to 14) (size 15 to 20)
#    0.000    3.000    1.250    3.000    0.000    2.500 
#    0.000    3.125    0.000    0.750    0.000    5.250 
#    0.000   12.000    0.000    5.625    0.000    6.250 
#
# Total GULP energy -396497.584605 kJ/mol
# GULP energy per Si atom -12390.549519 kJ/mol
# Density = 1.743091 g / cm^3
# Si number density = 17.470674 Si / 1000 Ang^3
#
#
#
# Elastic Constant Matrix: (Units=GPa)
#
#
# Indices 1 2 3 4 5 6 
#
# 1 135.8381 16.5898 67.7817 0.0000 24.1560 0.0000
# 2 16.5898 20.2569 13.6419 0.0000 5.3627 0.0000
# 3 67.7817 13.6419 104.9892 0.0000 11.7305 0.0000
# 4 0.0000 0.0000 0.0000 2.2249 0.0000 -3.0397
# 5 24.1560 5.3627 11.7305 0.0000 21.4645 0.0000
# 6 0.0000 0.0000 0.0000 -3.0397 0.0000 0.9514
#
#
#
# Elastic Compliance Matrix: (Units=1/GPa)
#
#
# Indices 1 2 3 4 5 6 
#
# 1 0.012949 -0.003373 -0.006803 0.000000 -0.010012 0.000000
# 2 -0.003373 0.057206 -0.004348 0.000000 -0.008120 0.000000
# 3 -0.006803 -0.004348 0.014383 0.000000 0.000882 0.000000
# 4 0.000000 0.000000 0.000000 -0.133573 0.000000 -0.426752
# 5 -0.010012 -0.008120 0.000882 0.000000 0.059403 0.000000
# 6 0.000000 0.000000 0.000000 -0.426752 0.000000 -0.312364
#
#
# Mechanical properties :
#
#
# Convention : Reuss Voigt Hill
#
# Bulk Modulus (GPa) = 18.02128 50.79011 34.40570
# Shear Modulus (GPa) = -19.65011 15.79957 -1.92527
#
# Velocity S-wave (km/s) = -3.35737 3.01050 -1.05090
# Velocity P-wave (km/s) = 2.16602 6.42019 4.27360
#
# Compressibility (1/GPa) = 0.05548995
#
# Stress axis : x y z
#
# Youngs Moduli (GPa) = 77.22897 17.48068 69.52552
#
# Poissons Ratio (x) = 0.05896 0.47297
# Poissons Ratio (y) = 0.26047 0.30233
# Poissons Ratio (z) = 0.52537 0.07601
#
# Static dielectric constant tensor:
#      x y z
#    x 3.737840 0.000000 0.122410 
#    y 0.000000 2.675900 0.000000 
#    z 0.122410 0.000000 3.168390 
# 
# 
# High freq. dielectric constant tensor:
#      x y z
#    x 1.695560 0.000000 0.007360 
#    y 0.000000 1.613310 0.000000 
#    z 0.007360 0.000000 1.645320 
# 
# From -- ./inp_files/54950.got.cif
#   From: 2010.06.25/outbox.cif.g09.slc.cpg/sg10_28_cif.got.tgz:54950.got - 2010.06.27 22:07:45.
