data_PCOD8063318
_publ_section_title
;
Structure prediction by ZEFSAII (Michael W. Deem and Ramdas Pophale) SiO2 
 PCOD8063318
Probable space group: P 2/M
;
_chemical_formula_sum "Si O2"
_cell_formula_units_Z 28
_cell_length_a 18.997410
_cell_length_b 8.920203
_cell_length_c 14.276670
_cell_angle_alpha 90.000000
_cell_angle_beta 140.419512
_cell_angle_gamma 90.000000
_cell_volume 1541.507416
_symmetry_space_group_name_H-M "P 2/M"
_symmetry_group_IT_number 10
_symmetry_cell_setting 'monoclinic'
loop_
_space_group_symop_operation_xyz
x,y,z
-x,y,-z
-x,-y,-z
x,-y,z
loop_
_atom_site_type_symbol
_atom_site_label
_atom_site_fract_x
_atom_site_fract_y
_atom_site_fract_z
Si Si1 0.129112 0.163052 0.138826
Si Si2 0.510816 0.675735 0.402938
Si Si3 0.483735 0.826547 0.089783
Si Si4 0.326235 0.325089 0.065975
Si Si5 0.670963 0.826130 0.427433
Si Si6 0.116520 0.324127 0.310844
Si Si7 0.881957 0.822858 0.077791
O O1 0.155702 0.284940 0.245054
O O2 0.183250 0.000000 0.218604
O O3 0.165516 0.221440 0.073903
O O4 0.000000 0.137117 0.000000
O O5 0.500000 0.726249 0.500000
O O6 0.536837 0.500000 0.421621
O O7 0.398930 0.716975 0.232104
O O8 0.612591 0.764068 0.461445
O O9 0.387831 0.725477 0.035136
O O10 0.597214 0.796213 0.260746
O O11 0.448530 0.000000 0.061387
O O12 0.500000 0.775855 0.000000
O O13 0.302071 0.500000 0.036708
O O14 0.209321 0.239600 0.945096
O O15 0.786125 0.740898 0.524281
O O16 0.695526 0.000000 0.468059
O O17 0.105472 0.500000 0.311614
O O18 0.000447 0.250657 0.220082
O O19 0.896037 0.000000 0.102962
#
# Coordination Sequence:
#
# PCOD8063318 Si02
#       7
#     4   4   4   4   4   4   4
#     4   8  16  30  45  65  94 134 181 220 251 290
#     4   9  19  34  49  71 104 141 176 214 258 305
#     4   9  19  38  62  83 103 132 172 217 266 321
#     4  10  20  33  52  80 110 138 174 215 264 317
#     4  10  20  34  53  78 105 135 175 217 261 314
#     4  11  21  32  49  73 105 142 180 219 262 309
#     4  10  20  34  51  72 104 142 182 222 259 304
#
# _framework density 18.164038999999999
#
# number of rings (size 3 to 8) (size 9 to 14) (size 15 to 20)
#    0.000    2.429    0.000    3.429    2.000    4.857 
#    0.000    0.000    0.000    0.857    0.000    6.000 
#    0.000    0.000    0.000    0.000    0.000    0.000 
#
# Total GULP energy -347151.309404 kJ/mol
# GULP energy per Si atom -12398.261050 kJ/mol
# Density = 1.812270 g / cm^3
# Si number density = 18.164039 Si / 1000 Ang^3
#
#
#
# Elastic Constant Matrix: (Units=GPa)
#
#
# Indices 1 2 3 4 5 6 
#
# 1 103.7488 50.5053 62.4250 0.0000 3.3851 0.0000
# 2 50.5053 103.3291 48.4277 0.0000 16.0661 0.0000
# 3 62.4250 48.4277 86.9127 0.0000 12.1668 0.0000
# 4 0.0000 0.0000 0.0000 27.8853 0.0000 6.4851
# 5 3.3851 16.0661 12.1668 0.0000 32.5850 0.0000
# 6 0.0000 0.0000 0.0000 6.4851 0.0000 27.2078
#
#
#
# Elastic Compliance Matrix: (Units=1/GPa)
#
#
# Indices 1 2 3 4 5 6 
#
# 1 0.018553 -0.004372 -0.011524 0.000000 0.004531 0.000000
# 2 -0.004372 0.014626 -0.004288 0.000000 -0.005156 0.000000
# 3 -0.011524 -0.004288 0.022906 0.000000 -0.005241 0.000000
# 4 0.000000 0.000000 0.000000 0.037966 0.000000 -0.009049
# 5 0.004531 -0.005156 -0.005241 0.000000 0.034718 0.000000
# 6 0.000000 0.000000 0.000000 -0.009049 0.000000 0.038911
#
#
# Mechanical properties :
#
#
# Convention : Reuss Voigt Hill
#
# Bulk Modulus (GPa) = 63.62279 68.52295 66.07287
# Shear Modulus (GPa) = 23.44280 26.37780 24.91030
#
# Velocity S-wave (km/s) = 3.59641 3.81491 3.70727
# Velocity P-wave (km/s) = 7.23522 7.56380 7.40133
#
# Compressibility (1/GPa) = 0.01571764
#
# Stress axis : x y z
#
# Youngs Moduli (GPa) = 53.89982 68.37178 43.65729
#
# Poissons Ratio (x) = 0.29891 0.50310
# Poissons Ratio (y) = 0.23564 0.18719
# Poissons Ratio (z) = 0.62114 0.29316
#
# Static dielectric constant tensor:
#      x y z
#    x 3.329040 0.000000 0.011720 
#    y 0.000000 3.318740 0.000000 
#    z 0.011720 0.000000 3.325740 
# 
# 
# High freq. dielectric constant tensor:
#      x y z
#    x 1.682170 0.000000 0.017830 
#    y 0.000000 1.709880 0.000000 
#    z 0.017830 0.000000 1.691820 
# 
# From -- ./inp_files/68683.got.cif
#   From: 2010.06.25/outbox.cif.g09.slc.cpg/sg10_35_cif.got.tgz:68683.got - 2010.06.27 22:07:45.
