data_PCOD8063203
_publ_section_title
;
Structure prediction by ZEFSAII (Michael W. Deem and Ramdas Pophale) SiO2 
 PCOD8063203
Probable space group: P 2/M
;
_chemical_formula_sum "Si O2"
_cell_formula_units_Z 32
_cell_length_a 20.700826
_cell_length_b 8.998623
_cell_length_c 12.193973
_cell_angle_alpha 90.000000
_cell_angle_beta 127.884999
_cell_angle_gamma 90.000000
_cell_volume 1792.754160
_symmetry_space_group_name_H-M "P 2/M"
_symmetry_group_IT_number 10
_symmetry_cell_setting 'monoclinic'
loop_
_space_group_symop_operation_xyz
x,y,z
-x,y,-z
-x,-y,-z
x,-y,z
loop_
_atom_site_type_symbol
_atom_site_label
_atom_site_fract_x
_atom_site_fract_y
_atom_site_fract_z
Si Si1 0.132461 0.673269 0.651341
Si Si2 0.625243 0.824209 0.641557
Si Si3 0.546291 0.327534 0.935472
Si Si4 0.513040 0.176124 0.335452
Si Si5 0.719703 0.823848 0.095475
Si Si6 0.962201 0.176376 0.073849
Si Si7 0.011191 0.327147 0.336614
Si Si8 0.219163 0.176647 0.077141
O O1 0.153157 0.500000 0.684491
O O2 0.215291 0.767964 0.746528
O O3 0.068930 0.723219 0.679348
O O4 0.092433 0.707145 0.491533
O O5 0.565389 0.770787 0.676240
O O6 0.593841 0.773285 0.488727
O O7 0.716738 0.765696 0.763250
O O8 0.622243 0.000000 0.640729
O O9 0.562689 0.500000 0.930348
O O10 0.487800 0.262144 0.779865
O O11 0.500000 0.299824 0.000000
O O12 0.631882 0.242949 0.029822
O O13 0.511910 0.000000 0.312036
O O14 0.712646 0.000000 0.092883
O O15 0.750724 0.766533 0.009615
O O16 0.017283 0.235648 0.230826
O O17 0.962737 0.000000 0.078758
O O18 0.870132 0.241336 0.988228
O O19 0.000000 0.235550 0.000000
O O20 0.005415 0.500000 0.302895
O O21 0.215969 0.000000 0.073693
#
# Coordination Sequence:
#
# PCOD8063203 Si02
#       8
#     4   4   4   4   4   4   4   4
#     4   9  18  33  53  79 109 139 174 220 271 315
#     4   8  14  27  51  79 104 128 162 214 267 306
#     4  11  24  39  53  73 109 149 175 209 266 321
#     4   9  16  30  54  79 100 130 172 215 260 310
#     4  11  20  33  57  83 103 132 180 228 264 310
#     4  10  20  33  50  75 110 145 176 219 269 312
#     4   9  18  33  53  76 106 145 182 215 260 321
#     4   9  16  29  50  77 104 132 170 214 262 309
#
# _framework density 17.849630000000001
#
# number of rings (size 3 to 8) (size 9 to 14) (size 15 to 20)
#    0.000    2.500    2.500    2.250    0.000    1.750 
#    0.000    3.750    0.000    1.500    0.000    0.000 
#    0.000    0.000    0.000    0.000    0.000    0.000 
#
# Total GULP energy -396720.449513 kJ/mol
# GULP energy per Si atom -12397.514047 kJ/mol
# Density = 1.780900 g / cm^3
# Si number density = 17.849630 Si / 1000 Ang^3
#
#
#
# Elastic Constant Matrix: (Units=GPa)
#
#
# Indices 1 2 3 4 5 6 
#
# 1 92.9310 38.8669 63.8216 0.0000 -0.7972 0.0000
# 2 38.8669 51.1596 46.1621 0.0000 -3.5066 0.0000
# 3 63.8216 46.1621 155.5553 0.0000 -0.4264 0.0000
# 4 0.0000 0.0000 0.0000 20.5813 0.0000 0.0495
# 5 -0.7972 -3.5066 -0.4264 0.0000 29.4449 0.0000
# 6 0.0000 0.0000 0.0000 0.0495 0.0000 20.1765
#
#
#
# Elastic Compliance Matrix: (Units=1/GPa)
#
#
# Indices 1 2 3 4 5 6 
#
# 1 0.017826 -0.009547 -0.004482 0.000000 -0.000719 0.000000
# 2 -0.009547 0.032088 -0.005596 0.000000 0.003482 0.000000
# 3 -0.004482 -0.005596 0.009926 0.000000 -0.000644 0.000000
# 4 0.000000 0.000000 0.000000 0.048588 0.000000 -0.000119
# 5 -0.000719 0.003482 -0.000644 0.000000 0.034348 0.000000
# 6 0.000000 0.000000 0.000000 -0.000119 0.000000 0.049563
#
#
# Mechanical properties :
#
#
# Convention : Reuss Voigt Hill
#
# Bulk Modulus (GPa) = 48.56911 66.37189 57.47050
# Shear Modulus (GPa) = 20.96857 24.09357 22.53107
#
# Velocity S-wave (km/s) = 3.43116 3.67796 3.55670
# Velocity P-wave (km/s) = 6.55487 7.43647 7.00955
#
# Compressibility (1/GPa) = 0.02058922
#
# Stress axis : x y z
#
# Youngs Moduli (GPa) = 56.09824 31.16462 100.74193
#
# Poissons Ratio (x) = 0.29754 0.45156
# Poissons Ratio (y) = 0.53560 0.56371
# Poissons Ratio (z) = 0.25145 0.17438
#
# Static dielectric constant tensor:
#      x y z
#    x 3.183770 0.000000 0.135060 
#    y 0.000000 2.999390 0.000000 
#    z 0.135060 0.000000 3.633460 
# 
# 
# High freq. dielectric constant tensor:
#      x y z
#    x 1.663530 0.000000 0.007010 
#    y 0.000000 1.664320 0.000000 
#    z 0.007010 0.000000 1.709440 
# 
# From -- ./inp_files/55311.got.cif
#   From: 2010.06.25/outbox.cif.g09.slc.cpg/sg10_28_cif.got.tgz:55311.got - 2010.06.27 22:07:45.
