data_PCOD8064773
_publ_section_title
;
Structure prediction by ZEFSAII (Michael W. Deem and Ramdas Pophale) SiO2 
 PCOD8064773
Probable space group: P 2/M
;
_chemical_formula_sum "Si O2"
_cell_formula_units_Z 24
_cell_length_a 15.493394
_cell_length_b 8.779095
_cell_length_c 13.675984
_cell_angle_alpha 90.000000
_cell_angle_beta 139.031177
_cell_angle_gamma 90.000000
_cell_volume 1219.623582
_symmetry_space_group_name_H-M "P 2/M"
_symmetry_group_IT_number 10
_symmetry_cell_setting 'monoclinic'
loop_
_space_group_symop_operation_xyz
x,y,z
-x,y,-z
-x,-y,-z
x,-y,z
loop_
_atom_site_type_symbol
_atom_site_label
_atom_site_fract_x
_atom_site_fract_y
_atom_site_fract_z
Si Si1 0.359345 0.179851 0.422365
Si Si2 0.947881 0.821244 0.562719
Si Si3 0.462999 0.820101 0.077375
Si Si4 0.139795 0.818701 0.083738
Si Si5 0.178229 0.819032 0.899363
Si Si6 0.320813 0.320320 0.600205
O O1 0.500000 0.227718 0.500000
O O2 0.251791 0.238639 0.253048
O O3 0.330720 0.261120 0.498984
O O4 0.350207 0.000000 0.432046
O O5 0.811626 0.736244 0.461995
O O6 0.000000 0.783887 0.500000
O O7 0.055512 0.757991 0.731393
O O8 0.922511 0.000000 0.555148
O O9 0.555061 0.738226 0.233479
O O10 0.478619 0.000000 0.106041
O O11 0.500000 0.770232 0.000000
O O12 0.314307 0.763763 0.968068
O O13 0.138317 0.000000 0.079093
O O14 0.168282 0.752866 0.000361
O O15 0.000000 0.754472 0.000000
O O16 0.174065 0.000000 0.896464
O O17 0.321649 0.500000 0.600022
#
# Coordination Sequence:
#
# PCOD8064773 Si02
#       6
#     4   4   4   4   4   4
#     4  10  20  36  59  82 106 143 194 247 290 331
#     4  10  20  37  62  88 113 146 192 242 287 335
#     4  10  20  37  61  85 109 142 190 242 284 329
#     4   9  16  27  48  78 106 132 169 225 286 332
#     4   9  17  31  55  85 110 135 179 240 294 332
#     4  12  25  38  55  83 122 161 190 225 283 354
#
# _framework density 19.678201999999999
#
# number of rings (size 3 to 8) (size 9 to 14) (size 15 to 20)
#    0.000    2.000    0.000    4.500    0.000    9.000 
#    0.000    0.833    0.000    4.500    0.000    0.000 
#    0.000    0.000    0.000    0.000    0.000    0.000 
#
# Total GULP energy -297669.229855 kJ/mol
# GULP energy per Si atom -12402.884577 kJ/mol
# Density = 1.963341 g / cm^3
# Si number density = 19.678202 Si / 1000 Ang^3
#
#
#
# Elastic Constant Matrix: (Units=GPa)
#
#
# Indices 1 2 3 4 5 6 
#
# 1 86.8705 3.9411 17.2637 0.0000 -3.4661 0.0000
# 2 3.9411 27.7944 9.0533 0.0000 -3.8968 0.0000
# 3 17.2637 9.0533 111.5055 0.0000 -3.1008 0.0000
# 4 0.0000 0.0000 0.0000 3.4011 0.0000 4.1320
# 5 -3.4661 -3.8968 -3.1008 0.0000 46.3279 0.0000
# 6 0.0000 0.0000 0.0000 4.1320 0.0000 20.3539
#
#
#
# Elastic Compliance Matrix: (Units=1/GPa)
#
#
# Indices 1 2 3 4 5 6 
#
# 1 0.011932 -0.001027 -0.001745 0.000000 0.000690 0.000000
# 2 -0.001027 0.037441 -0.002801 0.000000 0.002885 0.000000
# 3 -0.001745 -0.002801 0.009473 0.000000 0.000268 0.000000
# 4 0.000000 0.000000 0.000000 0.390277 0.000000 -0.079230
# 5 0.000690 0.002885 0.000268 0.000000 0.021897 0.000000
# 6 0.000000 0.000000 0.000000 -0.079230 0.000000 0.065215
#
#
# Mechanical properties :
#
#
# Convention : Reuss Voigt Hill
#
# Bulk Modulus (GPa) = 20.96376 31.85408 26.40892
# Shear Modulus (GPa) = 8.87656 27.07740 17.97698
#
# Velocity S-wave (km/s) = 2.12618 3.71349 3.02577
# Velocity P-wave (km/s) = 4.08705 5.88296 5.06524
#
# Compressibility (1/GPa) = 0.04770138
#
# Stress axis : x y z
#
# Youngs Moduli (GPa) = 83.80651 26.70879 105.56144
#
# Poissons Ratio (x) = 0.02743 0.18419
# Poissons Ratio (y) = 0.08606 0.29564
# Poissons Ratio (z) = 0.14623 0.07480
#
# Static dielectric constant tensor:
#      x y z
#    x 3.755980 0.000000 -0.082820 
#    y 0.000000 3.113410 0.000000 
#    z -0.082820 0.000000 3.743420 
# 
# 
# High freq. dielectric constant tensor:
#      x y z
#    x 1.788540 0.000000 0.000070 
#    y 0.000000 1.713720 0.000000 
#    z 0.000070 0.000000 1.789190 
# 
# From -- ./inp_files/60198.got.cif
#   From: 2010.06.25/outbox.cif.g09.slc.cpg/sg10_31_cif.got.tgz:60198.got - 2010.06.27 22:07:45.
