data_PCOD8064257
_publ_section_title
;
Structure prediction by ZEFSAII (Michael W. Deem and Ramdas Pophale) SiO2 
 PCOD8064257
Probable space group: P 2/M
;
_chemical_formula_sum "Si O2"
_cell_formula_units_Z 32
_cell_length_a 24.684278
_cell_length_b 8.657100
_cell_length_c 15.866765
_cell_angle_alpha 90.000000
_cell_angle_beta 27.635917
_cell_angle_gamma 90.000000
_cell_volume 1572.751825
_symmetry_space_group_name_H-M "P 2/M"
_symmetry_group_IT_number 10
_symmetry_cell_setting 'monoclinic'
loop_
_space_group_symop_operation_xyz
x,y,z
-x,y,-z
-x,-y,-z
x,-y,z
loop_
_atom_site_type_symbol
_atom_site_label
_atom_site_fract_x
_atom_site_fract_y
_atom_site_fract_z
Si Si1 0.014400 0.319269 0.886443
Si Si2 0.404991 0.684283 0.697670
Si Si3 0.139185 0.684073 0.058040
Si Si4 0.908634 0.181185 0.697062
Si Si5 0.275183 0.681375 0.475626
Si Si6 0.706352 0.675988 0.877768
Si Si7 0.367589 0.820148 0.182899
Si Si8 0.487821 0.675875 0.283606
O O1 0.989253 0.500000 0.927926
O O2 0.144717 0.281232 0.679901
O O3 0.928354 0.252346 0.932340
O O4 0.000000 0.245044 0.000000
O O5 0.500000 0.744164 0.500000
O O6 0.397909 0.500000 0.708303
O O7 0.452793 0.759204 0.718677
O O8 0.272852 0.745216 0.865033
O O9 0.133101 0.500000 0.070506
O O10 0.076857 0.743944 0.229966
O O11 0.780674 0.220792 0.839119
O O12 0.000000 0.244467 0.500000
O O13 0.925215 0.000000 0.685539
O O14 0.295631 0.500000 0.426811
O O15 0.306212 0.788027 0.355005
O O16 0.359389 0.736931 0.436122
O O17 0.750038 0.500000 0.825203
O O18 0.714857 0.734052 0.770789
O O19 0.570623 0.693909 0.088676
O O20 0.367109 0.000000 0.161839
O O21 0.500000 0.755766 0.000000
O O22 0.474004 0.500000 0.331013
#
# Coordination Sequence:
#
# PCOD8064257 Si02
#       8
#     4   4   4   4   4   4   4   4
#     4   9  20  36  57  88 120 151 192 250 303 340
#     4   9  17  29  52  85 113 142 182 237 297 344
#     4  10  20  37  59  87 119 152 198 246 292 350
#     4  11  25  42  59  83 117 159 198 239 295 355
#     4  10  20  35  56  82 114 154 199 240 288 346
#     4  11  21  37  60  85 115 148 193 245 293 348
#     4  11  23  37  54  82 120 158 194 235 289 349
#     4   9  17  30  51  82 113 142 183 235 287 337
#
# _framework density 20.346502999999998
#
# number of rings (size 3 to 8) (size 9 to 14) (size 15 to 20)
#    0.000    2.000    2.500    1.125    3.500    1.500 
#    0.000    0.000    0.000    1.875    0.000    0.000 
#    0.000    0.000    0.000    0.000    0.000    0.000 
#
# Total GULP energy -396633.516683 kJ/mol
# GULP energy per Si atom -12394.797396 kJ/mol
# Density = 2.030019 g / cm^3
# Si number density = 20.346503 Si / 1000 Ang^3
#
#
#
# Elastic Constant Matrix: (Units=GPa)
#
#
# Indices 1 2 3 4 5 6 
#
# 1 190.7927 16.5465 77.3805 0.0000 0.2696 0.0000
# 2 16.5465 24.9569 21.8537 0.0000 2.2381 0.0000
# 3 77.3805 21.8537 114.1695 0.0000 5.3579 0.0000
# 4 0.0000 0.0000 0.0000 14.9390 0.0000 -2.1832
# 5 0.2696 2.2381 5.3579 0.0000 36.6045 0.0000
# 6 0.0000 0.0000 0.0000 -2.1832 0.0000 11.9545
#
#
#
# Elastic Compliance Matrix: (Units=1/GPa)
#
#
# Indices 1 2 3 4 5 6 
#
# 1 0.007253 -0.000646 -0.004825 0.000000 0.000692 0.000000
# 2 -0.000646 0.048289 -0.008727 0.000000 -0.001670 0.000000
# 3 -0.004825 -0.008727 0.013767 0.000000 -0.001446 0.000000
# 4 0.000000 0.000000 0.000000 0.068774 0.000000 0.012560
# 5 0.000692 -0.001670 -0.001446 0.000000 0.027628 0.000000
# 6 0.000000 0.000000 0.000000 0.012560 0.000000 0.085945
#
#
# Mechanical properties :
#
#
# Convention : Reuss Voigt Hill
#
# Bulk Modulus (GPa) = 24.44160 62.38671 43.41416
# Shear Modulus (GPa) = 17.02478 26.97549 22.00013
#
# Velocity S-wave (km/s) = 2.89579 3.64511 3.29184
# Velocity P-wave (km/s) = 4.81867 6.96021 5.98598
#
# Compressibility (1/GPa) = 0.04091385
#
# Stress axis : x y z
#
# Youngs Moduli (GPa) = 137.87127 20.70867 72.63583
#
# Poissons Ratio (x) = 0.01338 0.35045
# Poissons Ratio (y) = 0.08908 0.63389
# Poissons Ratio (z) = 0.66520 0.18072
#
# Static dielectric constant tensor:
#      x y z
#    x 4.943180 0.000000 -0.237660 
#    y 0.000000 3.170750 0.000000 
#    z -0.237660 0.000000 3.772580 
# 
# 
# High freq. dielectric constant tensor:
#      x y z
#    x 1.814480 0.000000 -0.001240 
#    y 0.000000 1.742320 0.000000 
#    z -0.001240 0.000000 1.796210 
# 
# From -- ./inp_files/71429.got.cif
#   From: 2010.06.25/outbox.cif.g09.slc.cpg/sg10_36_cif.got.tgz:71429.got - 2010.06.27 22:07:45.
