data_PCOD8064269
_publ_section_title
;
Structure prediction by ZEFSAII (Michael W. Deem and Ramdas Pophale) SiO2 
 PCOD8064269
Probable space group: P 2/M
;
_chemical_formula_sum "Si O2"
_cell_formula_units_Z 24
_cell_length_a 8.188823
_cell_length_b 16.456497
_cell_length_c 12.110686
_cell_angle_alpha 90.000000
_cell_angle_beta 51.602446
_cell_angle_gamma 90.000000
_cell_volume 1279.052993
_symmetry_space_group_name_H-M "P 2/M"
_symmetry_group_IT_number 10
_symmetry_cell_setting 'monoclinic'
loop_
_space_group_symop_operation_xyz
x,y,z
-x,y,-z
-x,-y,-z
x,-y,z
loop_
_atom_site_type_symbol
_atom_site_label
_atom_site_fract_x
_atom_site_fract_y
_atom_site_fract_z
Si Si1 0.488837 0.000000 0.136022
Si Si2 0.845055 0.834217 0.462694
Si Si3 0.006102 0.000000 0.368500
Si Si4 0.632491 0.703753 0.046434
Si Si5 0.902670 0.257757 0.222047
Si Si6 0.430460 0.161161 0.771190
Si Si7 0.214621 0.589096 0.846994
O O1 0.593659 0.924355 0.155586
O O2 0.500000 0.000000 0.000000
O O3 0.244459 0.000000 0.243145
O O4 0.878089 0.761608 0.361849
O O5 0.608663 0.839806 0.603293
O O6 0.000000 0.820560 0.500000
O O7 0.893929 0.917704 0.374189
O O8 0.000000 0.000000 0.500000
O O9 0.858825 0.738657 0.917597
O O10 0.500000 0.673534 0.000000
O O11 0.507153 0.775643 0.159496
O O12 0.630001 0.626166 0.127747
O O13 0.784440 0.190261 0.196643
O O14 0.802605 0.347494 0.247312
O O15 0.291432 0.500000 0.773094
O O16 0.000000 0.579093 0.000000
#
# Coordination Sequence:
#
# PCOD8064269 Si02
#       7
#     2   4   2   4   4   4   4
#     4  12  24  37  58  86 115 157 192 240 281 325
#     4  11  20  36  60  78 112 150 195 234 276 338
#     4  10  20  39  53  81 111 149 196 231 281 318
#     4  10  20  35  56  83 115 145 192 239 278 337
#     4  10  22  36  57  87 111 149 190 232 286 338
#     4  11  21  37  54  80 115 149 190 233 284 334
#     4   8  16  34  57  83 117 148 179 227 285 343
#
# _framework density 18.763881999999999
#
# number of rings (size 3 to 8) (size 9 to 14) (size 15 to 20)
#    0.000    1.833    3.333    3.500    2.333    1.000 
#    0.000    3.333    0.000    8.500    0.000    0.000 
#    0.000    0.000    0.000    0.000    0.000    0.000 
#
# Total GULP energy -297388.355370 kJ/mol
# GULP energy per Si atom -12391.181474 kJ/mol
# Density = 1.872117 g / cm^3
# Si number density = 18.763882 Si / 1000 Ang^3
#
#
#
# Elastic Constant Matrix: (Units=GPa)
#
#
# Indices 1 2 3 4 5 6 
#
# 1 98.1617 60.5620 37.1209 0.0000 5.1503 0.0000
# 2 60.5620 169.6759 46.3445 0.0000 17.5575 0.0000
# 3 37.1209 46.3445 73.9366 0.0000 9.3562 0.0000
# 4 0.0000 0.0000 0.0000 22.5631 0.0000 6.4070
# 5 5.1503 17.5575 9.3562 0.0000 33.4626 0.0000
# 6 0.0000 0.0000 0.0000 6.4070 0.0000 17.1879
#
#
#
# Elastic Compliance Matrix: (Units=1/GPa)
#
#
# Indices 1 2 3 4 5 6 
#
# 1 0.014407 -0.003922 -0.004929 0.000000 0.001219 0.000000
# 2 -0.003922 0.008400 -0.002918 0.000000 -0.002988 0.000000
# 3 -0.004929 -0.002918 0.018182 0.000000 -0.002794 0.000000
# 4 0.000000 0.000000 0.000000 0.049567 0.000000 -0.018476
# 5 0.001219 -0.002988 -0.002794 0.000000 0.032045 0.000000
# 6 0.000000 0.000000 0.000000 -0.018476 0.000000 0.065068
#
#
# Mechanical properties :
#
#
# Convention : Reuss Voigt Hill
#
# Bulk Modulus (GPa) = 57.30285 69.98100 63.64192
# Shear Modulus (GPa) = 23.03896 27.82584 25.43240
#
# Velocity S-wave (km/s) = 3.50785 3.85508 3.68556
# Velocity P-wave (km/s) = 6.85652 7.56255 7.21817
#
# Compressibility (1/GPa) = 0.01745114
#
# Stress axis : x y z
#
# Youngs Moduli (GPa) = 69.41034 119.05346 54.99851
#
# Poissons Ratio (x) = 0.46694 0.27109
# Poissons Ratio (y) = 0.27223 0.16047
# Poissons Ratio (z) = 0.34213 0.34737
#
# Static dielectric constant tensor:
#      x y z
#    x 3.405700 0.000000 0.054930 
#    y 0.000000 3.996000 0.000000 
#    z 0.054930 0.000000 3.354220 
# 
# 
# High freq. dielectric constant tensor:
#      x y z
#    x 1.725370 0.000000 0.004380 
#    y 0.000000 1.726550 0.000000 
#    z 0.004380 0.000000 1.719740 
# 
# From -- ./inp_files/19329.got.cif
#   From: 2010.06.25/outbox.cif.g09.slc.cpg/sg10_10_cif.got.tgz:19329.got - 2010.06.27 22:07:45.
