data_PCOD8064587
_publ_section_title
;
Structure prediction by ZEFSAII (Michael W. Deem and Ramdas Pophale) SiO2 
 PCOD8064587
Probable space group: P 2/M
;
_chemical_formula_sum "Si O2"
_cell_formula_units_Z 28
_cell_length_a 21.816541
_cell_length_b 12.649771
_cell_length_c 27.682123
_cell_angle_alpha 90.000000
_cell_angle_beta 11.310778
_cell_angle_gamma 90.000000
_cell_volume 1498.350171
_symmetry_space_group_name_H-M "P 2/M"
_symmetry_group_IT_number 10
_symmetry_cell_setting 'monoclinic'
loop_
_space_group_symop_operation_xyz
x,y,z
-x,y,-z
-x,-y,-z
x,-y,z
loop_
_atom_site_type_symbol
_atom_site_label
_atom_site_fract_x
_atom_site_fract_y
_atom_site_fract_z
Si Si1 0.197997 0.120034 0.798802
Si Si2 0.816074 0.773438 0.355976
Si Si3 0.692409 0.376957 0.537433
Si Si4 0.732229 0.121577 0.607807
Si Si5 0.770164 0.734802 0.823870
Si Si6 0.645057 0.879035 0.006851
Si Si7 0.793635 0.758479 0.035239
O O1 0.543581 0.161427 0.541356
O O2 0.216298 0.000000 0.765293
O O3 0.000000 0.126436 0.000000
O O4 0.044165 0.194905 0.878213
O O5 0.687795 0.681507 0.489522
O O6 0.013935 0.857407 0.234113
O O7 0.030672 0.719752 0.148905
O O8 0.670775 0.500000 0.543783
O O9 0.386689 0.342020 0.803508
O O10 0.009517 0.353306 0.322223
O O11 0.626240 0.144722 0.744590
O O12 0.455994 0.149851 0.783871
O O13 0.034660 0.189927 0.362445
O O14 0.817722 0.000000 0.534013
O O15 0.500000 0.680208 0.000000
O O16 0.594787 0.803844 0.000039
O O17 0.633114 0.000000 0.998958
#
# Coordination Sequence:
#
# PCOD8064587 Si02
#       7
#     4   4   4   4   4   4   4
#     4  11  21  33  55  87 121 152 179 212 254 304
#     4  10  20  36  56  80 110 145 185 224 264 310
#     4  10  22  41  60  77 101 135 179 233 282 323
#     4   9  18  32  51  76 109 147 179 209 253 314
#     4  10  21  35  53  79 105 133 172 220 271 326
#     4   9  18  32  51  76 109 147 179 209 253 314
#     4  10  20  36  56  80 110 145 185 224 264 310
#
# _framework density 18.68722
#
# number of rings (size 3 to 8) (size 9 to 14) (size 15 to 20)
#    0.000    2.143    1.429    1.714    0.000    4.857 
#    0.000    2.857    0.000    1.714    0.000    8.000 
#    0.000    0.000    0.000    0.000    0.000    0.000 
#
# Total GULP energy -347241.397857 kJ/mol
# GULP energy per Si atom -12401.478495 kJ/mol
# Density = 1.864469 g / cm^3
# Si number density = 18.687220 Si / 1000 Ang^3
#
#
#
# Elastic Constant Matrix: (Units=GPa)
#
#
# Indices 1 2 3 4 5 6 
#
# 1 70.3600 6.7663 20.7920 0.0000 -2.7356 0.0000
# 2 6.7663 65.2990 4.3215 0.0000 11.2364 0.0000
# 3 20.7920 4.3215 56.3665 0.0000 9.2467 0.0000
# 4 0.0000 0.0000 0.0000 15.9497 0.0000 1.5472
# 5 -2.7356 11.2364 9.2467 0.0000 40.5885 0.0000
# 6 0.0000 0.0000 0.0000 1.5472 0.0000 12.5582
#
#
#
# Elastic Compliance Matrix: (Units=1/GPa)
#
#
# Indices 1 2 3 4 5 6 
#
# 1 0.016401 -0.001802 -0.006414 0.000000 0.003066 0.000000
# 2 -0.001802 0.016293 0.000182 0.000000 -0.004674 0.000000
# 3 -0.006414 0.000182 0.020955 0.000000 -0.005257 0.000000
# 4 0.000000 0.000000 0.000000 0.063455 0.000000 -0.007818
# 5 0.003066 -0.004674 -0.005257 0.000000 0.027336 0.000000
# 6 0.000000 0.000000 0.000000 -0.007818 0.000000 0.080592
#
#
# Mechanical properties :
#
#
# Convention : Reuss Voigt Hill
#
# Bulk Modulus (GPa) = 26.60976 28.42058 27.51517
# Shear Modulus (GPa) = 19.71388 24.49565 22.10477
#
# Velocity S-wave (km/s) = 3.25151 3.62446 3.44304
# Velocity P-wave (km/s) = 5.32605 5.72339 5.52829
#
# Compressibility (1/GPa) = 0.03758019
#
# Stress axis : x y z
#
# Youngs Moduli (GPa) = 60.97310 61.37577 47.72019
#
# Poissons Ratio (x) = 0.11063 0.30610
# Poissons Ratio (y) = 0.10990 -0.00870
# Poissons Ratio (z) = 0.39111 -0.01119
#
# Static dielectric constant tensor:
#      x y z
#    x 3.589390 0.000000 0.181130 
#    y 0.000000 3.059530 0.000000 
#    z 0.181130 0.000000 3.668690 
# 
# 
# High freq. dielectric constant tensor:
#      x y z
#    x 1.736050 0.000000 0.009150 
#    y 0.000000 1.689160 0.000000 
#    z 0.009150 0.000000 1.737700 
# 
# From -- ./inp_files/28503.got.cif
#   From: 2010.06.25/outbox.cif.g09.slc.cpg/sg10_15_cif.got.tgz:28503.got - 2010.06.27 22:07:45.
