data_PCOD8064672
_publ_section_title
;
Structure prediction by ZEFSAII (Michael W. Deem and Ramdas Pophale) SiO2 
 PCOD8064672
Probable space group: P 2/M
;
_chemical_formula_sum "Si O2"
_cell_formula_units_Z 28
_cell_length_a 14.596132
_cell_length_b 11.154569
_cell_length_c 9.780292
_cell_angle_alpha 90.000000
_cell_angle_beta 70.390758
_cell_angle_gamma 90.000000
_cell_volume 1500.012356
_symmetry_space_group_name_H-M "P 2/M"
_symmetry_group_IT_number 10
_symmetry_cell_setting 'monoclinic'
loop_
_space_group_symop_operation_xyz
x,y,z
-x,y,-z
-x,-y,-z
x,-y,z
loop_
_atom_site_type_symbol
_atom_site_label
_atom_site_fract_x
_atom_site_fract_y
_atom_site_fract_z
Si Si1 0.702282 0.636039 0.096452
Si Si2 0.088811 0.642676 0.363023
Si Si3 0.574890 0.000000 0.343654
Si Si4 0.566906 0.000000 0.838517
Si Si5 0.919010 0.639018 0.941356
Si Si6 0.387657 0.254367 0.601408
Si Si7 0.391398 0.748225 0.107003
Si Si8 0.710052 0.638107 0.605847
O O1 0.684591 0.500000 0.054231
O O2 0.637269 0.655345 0.263484
O O3 0.816130 0.657200 0.069218
O O4 0.676923 0.727909 0.988564
O O5 0.090570 0.500000 0.355997
O O6 0.080524 0.695284 0.212534
O O7 0.188310 0.686677 0.384270
O O8 0.000000 0.690257 0.500000
O O9 0.500000 0.000000 0.500000
O O10 0.510014 0.000000 0.243073
O O11 0.637869 0.878717 0.327732
O O12 0.630943 0.878794 0.813076
O O13 0.500000 0.000000 0.000000
O O14 0.944737 0.500000 0.910869
O O15 0.000000 0.699556 0.000000
O O16 0.500000 0.269770 0.500000
O O17 0.317440 0.281304 0.510147
O O18 0.371230 0.651290 0.235317
O O19 0.500000 0.732805 0.000000
O O20 0.715448 0.500000 0.556808
#
# Coordination Sequence:
#
# PCOD8064672 Si02
#       8
#     4   4   2   2   4   4   4   4
#     4  11  22  35  52  82 119 146 178 220 273 341
#     4   9  18  33  53  77 107 143 182 224 266 315
#     4  10  20  40  58  74 101 140 197 245 262 295
#     4  10  20  36  58  78  97 136 199 241 260 299
#     4   9  18  33  53  77 107 144 182 221 267 319
#     4  11  23  37  55  78 110 151 188 226 269 318
#     4  11  21  35  55  78 108 147 182 226 272 314
#     4  11  22  35  52  82 117 144 180 220 270 343
#
# _framework density 18.666511
#
# number of rings (size 3 to 8) (size 9 to 14) (size 15 to 20)
#    0.000    1.714    1.429    5.143    2.000    3.429 
#    0.000    0.000    0.000    0.000    0.000    6.000 
#    0.000    0.000    0.000    0.000    0.000    0.000 
#
# Total GULP energy -347076.721120 kJ/mol
# GULP energy per Si atom -12395.597183 kJ/mol
# Density = 1.862403 g / cm^3
# Si number density = 18.666511 Si / 1000 Ang^3
#
#
#
# Elastic Constant Matrix: (Units=GPa)
#
#
# Indices 1 2 3 4 5 6 
#
# 1 122.7086 59.8337 54.2898 0.0000 27.6282 0.0000
# 2 59.8337 63.0539 33.1129 0.0000 7.2544 0.0000
# 3 54.2898 33.1129 120.5566 0.0000 19.1897 0.0000
# 4 0.0000 0.0000 0.0000 20.3734 0.0000 12.6523
# 5 27.6282 7.2544 19.1897 0.0000 42.3260 0.0000
# 6 0.0000 0.0000 0.0000 12.6523 0.0000 11.7420
#
#
#
# Elastic Compliance Matrix: (Units=1/GPa)
#
#
# Indices 1 2 3 4 5 6 
#
# 1 0.018799 -0.015345 -0.002928 0.000000 -0.008313 0.000000
# 2 -0.015345 0.031092 -0.002561 0.000000 0.005848 0.000000
# 3 -0.002928 -0.002561 0.010716 0.000000 -0.002508 0.000000
# 4 0.000000 0.000000 0.000000 0.148363 0.000000 -0.159865
# 5 -0.008313 0.005848 -0.002508 0.000000 0.029188 0.000000
# 6 0.000000 0.000000 0.000000 -0.159865 0.000000 0.257422
#
#
# Mechanical properties :
#
#
# Convention : Reuss Voigt Hill
#
# Bulk Modulus (GPa) = 52.79598 66.75466 59.77532
# Shear Modulus (GPa) = 9.19862 25.49379 17.34621
#
# Velocity S-wave (km/s) = 2.22229 3.69962 3.05170
# Velocity P-wave (km/s) = 5.91016 7.35452 6.67154
#
# Compressibility (1/GPa) = 0.01894084
#
# Stress axis : x y z
#
# Youngs Moduli (GPa) = 53.19549 32.16214 93.31950
#
# Poissons Ratio (x) = 0.49352 0.27320
# Poissons Ratio (y) = 0.81627 0.23898
# Poissons Ratio (z) = 0.15573 0.08236
#
# Static dielectric constant tensor:
#      x y z
#    x 3.431750 0.000000 0.117430 
#    y 0.000000 2.396050 0.000000 
#    z 0.117430 0.000000 3.628400 
# 
# 
# High freq. dielectric constant tensor:
#      x y z
#    x 1.718000 0.000000 0.014350 
#    y 0.000000 1.686810 0.000000 
#    z 0.014350 0.000000 1.740540 
# 
# From -- ./inp_files/28278.got.cif
#   From: 2010.06.25/outbox.cif.g09.slc.cpg/sg10_15_cif.got.tgz:28278.got - 2010.06.27 22:07:45.
