data_PCOD8064817
_publ_section_title
;
Structure prediction by ZEFSAII (Michael W. Deem and Ramdas Pophale) SiO2 
 PCOD8064817
Probable space group: P 2/M
;
_chemical_formula_sum "Si O2"
_cell_formula_units_Z 22
_cell_length_a 10.584905
_cell_length_b 20.945787
_cell_length_c 10.888764
_cell_angle_alpha 90.000000
_cell_angle_beta 153.546405
_cell_angle_gamma 90.000000
_cell_volume 1075.433262
_symmetry_space_group_name_H-M "P 2/M"
_symmetry_group_IT_number 10
_symmetry_cell_setting 'monoclinic'
loop_
_space_group_symop_operation_xyz
x,y,z
-x,y,-z
-x,-y,-z
x,-y,z
loop_
_atom_site_type_symbol
_atom_site_label
_atom_site_fract_x
_atom_site_fract_y
_atom_site_fract_z
Si Si1 0.766910 0.570774 0.902613
Si Si2 0.771563 0.349279 0.607388
Si Si3 0.806729 0.747377 0.448399
Si Si4 0.000000 0.748702 0.000000
Si Si5 0.814406 0.928989 0.226243
Si Si6 0.243224 0.814475 0.990924
O O1 0.690841 0.500000 0.886577
O O2 0.489855 0.602447 0.601219
O O3 0.000000 0.566329 0.000000
O O4 0.926354 0.613469 0.144852
O O5 0.692699 0.318531 0.405999
O O6 0.799058 0.297494 0.743003
O O7 0.000000 0.735845 0.500000
O O8 0.002233 0.771398 0.726322
O O9 0.548896 0.796232 0.199840
O O10 0.789013 0.797176 0.892541
O O11 0.826033 0.887170 0.111394
O O12 0.000000 0.898524 0.500000
O O13 0.931730 0.000000 0.296267
O O14 0.500000 0.934035 0.000000
#
# Coordination Sequence:
#
# PCOD8064817 Si02
#       6
#     4   4   4   2   4   4
#     4  11  23  36  57  84 112 144 187 234 280 335
#     4  11  22  38  57  80 118 144 183 236 282 345
#     4  11  23  37  58  85 111 152 191 232 284 335
#     4  10  24  38  56  88 118 152 186 222 302 346
#     4  10  20  36  59  85 113 150 196 239 277 319
#     4  11  22  36  58  83 119 150 185 240 279 343
#
# _framework density 20.456871
#
# number of rings (size 3 to 8) (size 9 to 14) (size 15 to 20)
#    0.000    1.273    0.909    6.545    2.545    3.636 
#    0.000    0.455    0.000    3.273    0.000   10.182 
#    0.000    0.000    0.000    0.000    0.000    0.000 
#
# Total GULP energy -272558.100735 kJ/mol
# GULP energy per Si atom -12389.004579 kJ/mol
# Density = 2.041031 g / cm^3
# Si number density = 20.456871 Si / 1000 Ang^3
#
#
#
# Elastic Constant Matrix: (Units=GPa)
#
#
# Indices 1 2 3 4 5 6 
#
# 1 114.7110 43.2012 30.0927 0.0000 -6.0996 0.0000
# 2 43.2012 143.9949 38.9150 0.0000 -5.9951 0.0000
# 3 30.0927 38.9150 122.8721 0.0000 6.6603 0.0000
# 4 0.0000 0.0000 0.0000 32.8538 0.0000 -0.0043
# 5 -6.0996 -5.9951 6.6603 0.0000 25.1403 0.0000
# 6 0.0000 0.0000 0.0000 -0.0043 0.0000 26.8323
#
#
#
# Elastic Compliance Matrix: (Units=1/GPa)
#
#
# Indices 1 2 3 4 5 6 
#
# 1 0.010266 -0.002478 -0.001859 0.000000 0.002392 0.000000
# 2 -0.002478 0.008349 -0.002143 0.000000 0.001958 0.000000
# 3 -0.001859 -0.002143 0.009461 0.000000 -0.003469 0.000000
# 4 0.000000 0.000000 0.000000 0.030438 0.000000 0.000005
# 5 0.002392 0.001958 -0.003469 0.000000 0.041743 0.000000
# 6 0.000000 0.000000 0.000000 0.000005 0.000000 0.037269
#
#
# Mechanical properties :
#
#
# Convention : Reuss Voigt Hill
#
# Bulk Modulus (GPa) = 66.16172 67.33287 66.74729
# Shear Modulus (GPa) = 32.14949 34.92322 33.53635
#
# Velocity S-wave (km/s) = 3.96861 4.13627 4.05330
# Velocity P-wave (km/s) = 7.30836 7.46978 7.38951
#
# Compressibility (1/GPa) = 0.01511448
#
# Stress axis : x y z
#
# Youngs Moduli (GPa) = 97.41226 119.77671 105.70025
#
# Poissons Ratio (x) = 0.29679 0.19650
# Poissons Ratio (y) = 0.24137 0.22656
# Poissons Ratio (z) = 0.18110 0.25673
#
# Static dielectric constant tensor:
#      x y z
#    x 3.528550 0.000000 -0.064970 
#    y 0.000000 4.236930 0.000000 
#    z -0.064970 0.000000 4.031320 
# 
# 
# High freq. dielectric constant tensor:
#      x y z
#    x 1.759610 0.000000 0.007320 
#    y 0.000000 1.798270 0.000000 
#    z 0.007320 0.000000 1.822090 
# 
# From -- ./inp_files/48119.got.cif
#   From: 2010.06.25/outbox.cif.g09.slc.cpg/sg10_25_cif.got.tgz:48119.got - 2010.06.27 22:07:45.
