data_PCOD8064188
_publ_section_title
;
Structure prediction by ZEFSAII (Michael W. Deem and Ramdas Pophale) SiO2 
 PCOD8064188
Probable space group: P 2/M
;
_chemical_formula_sum "Si O2"
_cell_formula_units_Z 28
_cell_length_a 17.892183
_cell_length_b 8.731104
_cell_length_c 19.822168
_cell_angle_alpha 90.000000
_cell_angle_beta 151.142609
_cell_angle_gamma 90.000000
_cell_volume 1494.510721
_symmetry_space_group_name_H-M "P 2/M"
_symmetry_group_IT_number 10
_symmetry_cell_setting 'monoclinic'
loop_
_space_group_symop_operation_xyz
x,y,z
-x,y,-z
-x,-y,-z
x,-y,z
loop_
_atom_site_type_symbol
_atom_site_label
_atom_site_fract_x
_atom_site_fract_y
_atom_site_fract_z
Si Si1 0.165707 0.180906 0.098094
Si Si2 0.240979 0.678820 0.011647
Si Si3 0.592938 0.324904 0.291969
Si Si4 0.706072 0.173732 0.509410
Si Si5 0.918090 0.321068 0.500419
Si Si6 0.991311 0.679004 0.282453
Si Si7 0.456719 0.667503 0.390154
O O1 0.188805 0.237123 0.039086
O O2 0.287994 0.262495 0.243822
O O3 0.192933 0.000000 0.120216
O O4 0.000000 0.223151 0.000000
O O5 0.205129 0.500000 0.994542
O O6 0.419034 0.704540 0.129014
O O7 0.147915 0.745790 0.873257
O O8 0.611227 0.500000 0.332387
O O9 0.615571 0.205020 0.369112
O O10 0.731491 0.293041 0.347636
O O11 0.852493 0.283907 0.634531
O O12 0.583734 0.209217 0.469855
O O13 0.762945 0.000000 0.558564
O O14 0.955755 0.500000 0.530469
O O15 0.991067 0.249899 0.627641
O O16 0.000000 0.243655 0.500000
O O17 0.969585 0.500000 0.272616
O O18 0.500000 0.635925 0.500000
O O19 0.465458 0.500000 0.359697
#
# Coordination Sequence:
#
# PCOD8064188 Si02
#       7
#     4   4   4   4   4   4   4
#     4  11  25  41  56  80 112 144 181 230 281 324
#     4  10  20  35  56  78 106 146 188 228 270 326
#     4   9  17  32  54  78 105 140 182 223 266 324
#     4  11  21  34  54  78 104 138 179 226 276 320
#     4   8  14  28  52  80 112 146 180 224 273 317
#     4   9  19  34  53  79 109 143 186 226 268 323
#     4  11  24  40  58  79 104 139 183 225 271 327
#
# _framework density 18.735229
#
# number of rings (size 3 to 8) (size 9 to 14) (size 15 to 20)
#    0.000    2.143    1.429    3.000    2.000    2.857 
#    0.000    0.714    0.000   11.143    0.000    0.000 
#    0.000   10.286    0.000    0.000    0.000    0.000 
#
# Total GULP energy -346881.170214 kJ/mol
# GULP energy per Si atom -12388.613222 kJ/mol
# Density = 1.869259 g / cm^3
# Si number density = 18.735229 Si / 1000 Ang^3
#
#
#
# Elastic Constant Matrix: (Units=GPa)
#
#
# Indices 1 2 3 4 5 6 
#
# 1 121.8513 24.8402 70.1527 0.0000 13.8601 0.0000
# 2 24.8402 37.1495 22.9303 0.0000 -5.3616 0.0000
# 3 70.1527 22.9303 157.0137 0.0000 0.9947 0.0000
# 4 0.0000 0.0000 0.0000 26.2526 0.0000 -0.1706
# 5 13.8601 -5.3616 0.9947 0.0000 21.3748 0.0000
# 6 0.0000 0.0000 0.0000 -0.1706 0.0000 7.0690
#
#
#
# Elastic Compliance Matrix: (Units=1/GPa)
#
#
# Indices 1 2 3 4 5 6 
#
# 1 0.013885 -0.007741 -0.005005 0.000000 -0.010712 0.000000
# 2 -0.007741 0.035197 -0.001770 0.000000 0.013930 0.000000
# 3 -0.005005 -0.001770 0.008849 0.000000 0.002390 0.000000
# 4 0.000000 0.000000 0.000000 0.038097 0.000000 0.000920
# 5 -0.010712 0.013930 0.002390 0.000000 0.057113 0.000000
# 6 0.000000 0.000000 0.000000 0.000920 0.000000 0.141486
#
#
# Mechanical properties :
#
#
# Convention : Reuss Voigt Hill
#
# Bulk Modulus (GPa) = 34.60380 61.31789 47.96084
# Shear Modulus (GPa) = 15.00189 24.14538 19.57364
#
# Velocity S-wave (km/s) = 2.83279 3.59384 3.23577
# Velocity P-wave (km/s) = 5.40459 7.07252 6.29405
#
# Compressibility (1/GPa) = 0.02889856
#
# Stress axis : x y z
#
# Youngs Moduli (GPa) = 72.02087 28.41146 113.01250
#
# Poissons Ratio (x) = 0.21992 0.56567
# Poissons Ratio (y) = 0.55749 0.20003
# Poissons Ratio (z) = 0.36049 0.05029
#
# Static dielectric constant tensor:
#      x y z
#    x 3.857410 0.000000 0.074890 
#    y 0.000000 3.379990 0.000000 
#    z 0.074890 0.000000 3.695740 
# 
# 
# High freq. dielectric constant tensor:
#      x y z
#    x 1.714300 0.000000 0.009580 
#    y 0.000000 1.708470 0.000000 
#    z 0.009580 0.000000 1.733570 
# 
# From -- ./inp_files/85596.got.cif
#   From: 2010.06.25/outbox.cif.g09.slc.cpg/sg10_43_cif.got.tgz:85596.got - 2010.06.27 22:07:45.
