data_PCOD8064182
_publ_section_title
;
Structure prediction by ZEFSAII (Michael W. Deem and Ramdas Pophale) SiO2 
 PCOD8064182
Probable space group: P 2/M
;
_chemical_formula_sum "Si O2"
_cell_formula_units_Z 20
_cell_length_a 9.249225
_cell_length_b 8.952810
_cell_length_c 26.731908
_cell_angle_alpha 90.000000
_cell_angle_beta 151.062450
_cell_angle_gamma 90.000000
_cell_volume 1071.052677
_symmetry_space_group_name_H-M "P 2/M"
_symmetry_group_IT_number 10
_symmetry_cell_setting 'monoclinic'
loop_
_space_group_symop_operation_xyz
x,y,z
-x,y,-z
-x,-y,-z
x,-y,z
loop_
_atom_site_type_symbol
_atom_site_label
_atom_site_fract_x
_atom_site_fract_y
_atom_site_fract_z
Si Si1 0.166518 0.677147 0.402913
Si Si2 0.296985 0.335247 0.987236
Si Si3 0.127350 0.322979 0.787494
Si Si4 0.810291 0.175823 0.784149
Si Si5 0.182179 0.674643 0.605079
O O1 0.500000 0.744910 0.500000
O O2 0.184655 0.500000 0.407807
O O3 0.971472 0.733967 0.296916
O O4 0.016259 0.731633 0.408608
O O5 0.167080 0.500000 0.960478
O O6 0.023234 0.223088 0.895167
O O7 0.500000 0.345318 0.000000
O O8 0.521593 0.279444 0.099216
O O9 0.084800 0.500000 0.781255
O O10 0.916547 0.246891 0.764505
O O11 0.480407 0.229833 0.696309
O O12 0.818912 0.000000 0.781446
O O13 0.262705 0.500000 0.633740
O O14 0.000000 0.709176 0.500000
#
# Coordination Sequence:
#
# PCOD8064182 Si02
#       5
#     4   4   4   4   4
#     4   9  17  31  54  81 102 124 163 213 259 301
#     4   8  15  29  50  74 100 132 171 212 250 292
#     4   9  17  32  54  78 103 132 170 214 254 295
#     4  11  21  32  50  76 106 138 170 206 249 300
#     4  10  20  35  56  78 101 132 168 208 254 302
#
# _framework density 18.673219
#
# number of rings (size 3 to 8) (size 9 to 14) (size 15 to 20)
#    0.000    2.600    0.000    4.200    0.000    7.200 
#    0.000    2.000    0.000    8.400    0.000    0.000 
#    0.000    0.000    0.000    0.000    0.000    0.000 
#
# Total GULP energy -247943.933257 kJ/mol
# GULP energy per Si atom -12397.196663 kJ/mol
# Density = 1.863072 g / cm^3
# Si number density = 18.673219 Si / 1000 Ang^3
#
#
#
# Elastic Constant Matrix: (Units=GPa)
#
#
# Indices 1 2 3 4 5 6 
#
# 1 116.2897 35.0736 78.1137 0.0000 -8.5735 0.0000
# 2 35.0736 59.2972 47.4136 0.0000 3.8464 0.0000
# 3 78.1137 47.4136 166.0160 0.0000 -14.3947 0.0000
# 4 0.0000 0.0000 0.0000 1.3150 0.0000 1.7645
# 5 -8.5735 3.8464 -14.3947 0.0000 31.7498 0.0000
# 6 0.0000 0.0000 0.0000 1.7645 0.0000 5.8299
#
#
#
# Elastic Compliance Matrix: (Units=1/GPa)
#
#
# Indices 1 2 3 4 5 6 
#
# 1 0.013259 -0.004017 -0.004933 0.000000 0.001831 0.000000
# 2 -0.004017 0.024111 -0.005562 0.000000 -0.006527 0.000000
# 3 -0.004933 -0.005562 0.010280 0.000000 0.004002 0.000000
# 4 0.000000 0.000000 0.000000 1.280506 0.000000 -0.387557
# 5 0.001831 -0.006527 0.004002 0.000000 0.034596 0.000000
# 6 0.000000 0.000000 0.000000 -0.387557 0.000000 0.288828
#
#
# Mechanical properties :
#
#
# Convention : Reuss Voigt Hill
#
# Bulk Modulus (GPa) = 53.68660 73.64495 63.66578
# Shear Modulus (GPa) = 2.96417 19.84573 11.40495
#
# Velocity S-wave (km/s) = 1.26128 3.26358 2.47405
# Velocity P-wave (km/s) = 5.56185 7.32978 6.50615
#
# Compressibility (1/GPa) = 0.01862662
#
# Stress axis : x y z
#
# Youngs Moduli (GPa) = 75.41961 41.47494 97.27752
#
# Poissons Ratio (x) = 0.16662 0.47983
# Poissons Ratio (y) = 0.30298 0.54103
# Poissons Ratio (z) = 0.37202 0.23067
#
# Static dielectric constant tensor:
#      x y z
#    x 3.343560 0.000000 -0.247160 
#    y 0.000000 3.077410 0.000000 
#    z -0.247160 0.000000 4.071970 
# 
# 
# High freq. dielectric constant tensor:
#      x y z
#    x 1.701460 0.000000 -0.005430 
#    y 0.000000 1.687780 0.000000 
#    z -0.005430 0.000000 1.748000 
# 
# From -- ./inp_files/26781.got.cif
#   From: 2010.06.25/outbox.cif.g09.slc.cpg/sg10_14_cif.got.tgz:26781.got - 2010.06.27 22:07:45.
