data_PCOD8064052
_publ_section_title
;
Structure prediction by ZEFSAII (Michael W. Deem and Ramdas Pophale) SiO2 
 PCOD8064052
Probable space group: P 2/M
;
_chemical_formula_sum "Si O2"
_cell_formula_units_Z 32
_cell_length_a 14.374444
_cell_length_b 9.055448
_cell_length_c 20.652640
_cell_angle_alpha 90.000000
_cell_angle_beta 137.058041
_cell_angle_gamma 90.000000
_cell_volume 1831.418685
_symmetry_space_group_name_H-M "P 2/M"
_symmetry_group_IT_number 10
_symmetry_cell_setting 'monoclinic'
loop_
_space_group_symop_operation_xyz
x,y,z
-x,y,-z
-x,-y,-z
x,-y,z
loop_
_atom_site_type_symbol
_atom_site_label
_atom_site_fract_x
_atom_site_fract_y
_atom_site_fract_z
Si Si1 0.398824 0.327704 0.129190
Si Si2 0.418652 0.330432 0.284692
Si Si3 0.871175 0.330668 0.813438
Si Si4 0.576203 0.326273 0.101651
Si Si5 0.579722 0.174292 0.477329
Si Si6 0.856539 0.174866 0.053907
Si Si7 0.855916 0.672417 0.189812
Si Si8 0.158219 0.668618 0.351539
O O1 0.365460 0.500000 0.100904
O O2 0.461911 0.302728 0.232548
O O3 0.509535 0.265442 0.133841
O O4 0.259826 0.236073 0.052562
O O5 0.441271 0.500000 0.317254
O O6 0.258853 0.289252 0.209406
O O7 0.509687 0.228540 0.376281
O O8 0.916476 0.500000 0.845791
O O9 0.829976 0.299932 0.718489
O O10 0.997130 0.228249 0.898695
O O11 0.555459 0.500000 0.090241
O O12 0.737457 0.286262 0.180876
O O13 0.500000 0.257775 0.000000
O O14 0.500000 0.236044 0.500000
O O15 0.735782 0.228804 0.556801
O O16 0.578972 0.000000 0.476948
O O17 0.829720 0.235381 0.111967
O O18 0.852942 0.000000 0.052996
O O19 0.849647 0.500000 0.166692
O O20 0.003915 0.708141 0.296169
O O21 0.194525 0.500000 0.386452
#
# Coordination Sequence:
#
# PCOD8064052 Si02
#       8
#     4   4   4   4   4   4   4   4
#     4  10  20  35  54  76 102 136 176 213 255 306
#     4  10  21  36  55  76 100 134 176 217 254 300
#     4   9  18  33  51  72 100 136 173 211 251 297
#     4   9  15  28  55  81 102 131 168 215 260 299
#     4  11  22  34  52  77 105 135 166 207 259 311
#     4  11  21  31  47  73 106 141 173 210 250 299
#     4   9  17  32  53  78 104 134 170 211 258 301
#     4   9  17  30  52  76 100 129 169 213 250 298
#
# _framework density 17.472794
#
# number of rings (size 3 to 8) (size 9 to 14) (size 15 to 20)
#    0.000    2.250    2.500    2.250    0.000    4.000 
#    0.000    3.750    0.000    0.750    0.000    5.250 
#    0.000    0.000    0.000    0.000    0.000    0.000 
#
# Total GULP energy -396779.798949 kJ/mol
# GULP energy per Si atom -12399.368717 kJ/mol
# Density = 1.743303 g / cm^3
# Si number density = 17.472794 Si / 1000 Ang^3
#
#
#
# Elastic Constant Matrix: (Units=GPa)
#
#
# Indices 1 2 3 4 5 6 
#
# 1 112.1332 27.4197 55.3242 0.0000 5.6335 0.0000
# 2 27.4197 70.1045 46.7123 0.0000 4.3510 0.0000
# 3 55.3242 46.7123 99.2157 0.0000 8.4564 0.0000
# 4 0.0000 0.0000 0.0000 12.4905 0.0000 -3.9445
# 5 5.6335 4.3510 8.4564 0.0000 22.2747 0.0000
# 6 0.0000 0.0000 0.0000 -3.9445 0.0000 7.5635
#
#
#
# Elastic Compliance Matrix: (Units=1/GPa)
#
#
# Indices 1 2 3 4 5 6 
#
# 1 0.012314 -0.000347 -0.006659 0.000000 -0.000519 0.000000
# 2 -0.000347 0.020798 -0.009569 0.000000 -0.000342 0.000000
# 3 -0.006659 -0.009569 0.018596 0.000000 -0.003507 0.000000
# 4 0.000000 0.000000 0.000000 0.095846 0.000000 0.049986
# 5 -0.000519 -0.000342 -0.003507 0.000000 0.046423 0.000000
# 6 0.000000 0.000000 0.000000 0.049986 0.000000 0.158282
#
#
# Mechanical properties :
#
#
# Convention : Reuss Voigt Hill
#
# Bulk Modulus (GPa) = 53.88602 60.04063 56.96332
# Shear Modulus (GPa) = 12.76824 18.59889 15.68357
#
# Velocity S-wave (km/s) = 2.70617 3.26613 2.99925
# Velocity P-wave (km/s) = 6.37741 6.97570 6.68325
#
# Compressibility (1/GPa) = 0.01855769
#
# Stress axis : x y z
#
# Youngs Moduli (GPa) = 81.20625 48.08259 53.77401
#
# Poissons Ratio (x) = 0.01670 0.35808
# Poissons Ratio (y) = 0.02820 0.51457
# Poissons Ratio (z) = 0.54075 0.46011
#
# Static dielectric constant tensor:
#      x y z
#    x 3.418540 0.000000 0.175190 
#    y 0.000000 3.019310 0.000000 
#    z 0.175190 0.000000 3.098620 
# 
# 
# High freq. dielectric constant tensor:
#      x y z
#    x 1.668190 0.000000 0.016920 
#    y 0.000000 1.654120 0.000000 
#    z 0.016920 0.000000 1.661330 
# 
# From -- ./inp_files/65997.got.cif
#   From: 2010.06.25/outbox.cif.g09.slc.cpg/sg10_33_cif.got.tgz:65997.got - 2010.06.27 22:07:45.
