data_PCOD8064059
_publ_section_title
;
Structure prediction by ZEFSAII (Michael W. Deem and Ramdas Pophale) SiO2 
 PCOD8064059
Probable space group: P 2/M
;
_chemical_formula_sum "Si O2"
_cell_formula_units_Z 32
_cell_length_a 21.025067
_cell_length_b 9.175287
_cell_length_c 20.943540
_cell_angle_alpha 90.000000
_cell_angle_beta 155.246165
_cell_angle_gamma 90.000000
_cell_volume 1691.731294
_symmetry_space_group_name_H-M "P 2/M"
_symmetry_group_IT_number 10
_symmetry_cell_setting 'monoclinic'
loop_
_space_group_symop_operation_xyz
x,y,z
-x,y,-z
-x,-y,-z
x,-y,z
loop_
_atom_site_type_symbol
_atom_site_label
_atom_site_fract_x
_atom_site_fract_y
_atom_site_fract_z
Si Si1 0.050530 0.830537 0.240712
Si Si2 0.365731 0.827665 0.290733
Si Si3 0.747826 0.327601 0.935708
Si Si4 0.302103 0.171529 0.374218
Si Si5 0.376680 0.671909 0.939442
Si Si6 0.498880 0.328548 0.811528
Si Si7 0.934699 0.170224 0.371614
Si Si8 0.187993 0.167872 0.503617
O O1 0.158285 0.768704 0.282315
O O2 0.139993 0.806499 0.387437
O O3 0.008323 0.000000 0.191824
O O4 0.899787 0.735268 0.105404
O O5 0.275250 0.741695 0.154543
O O6 0.539265 0.769449 0.452008
O O7 0.284729 0.788028 0.283998
O O8 0.357067 0.000000 0.269111
O O9 0.762929 0.500000 0.943215
O O10 0.609309 0.281464 0.854866
O O11 0.311013 0.000000 0.390380
O O12 0.352288 0.500000 0.916513
O O13 0.219319 0.744547 0.778622
O O14 0.500000 0.721654 0.000000
O O15 0.430517 0.727469 0.057734
O O16 0.475004 0.500000 0.791913
O O17 0.337129 0.257957 0.653603
O O18 0.000000 0.210055 0.500000
O O19 0.054423 0.223641 0.427863
O O20 0.900090 0.000000 0.332964
O O21 0.224581 0.000000 0.551038
#
# Coordination Sequence:
#
# PCOD8064059 Si02
#       8
#     4   4   4   4   4   4   4   4
#     4  10  20  35  54  77 104 135 175 219 259 305
#     4   9  17  34  58  79 101 133 172 215 262 309
#     4  11  23  36  50  75 109 141 173 210 259 316
#     4   8  16  32  56  81 101 128 172 220 262 306
#     4  10  21  37  57  81 107 140 185 224 253 301
#     4  10  22  38  55  77 107 140 174 216 265 312
#     4  10  21  36  54  81 115 144 172 213 267 318
#     4  10  21  36  57  83 106 134 178 222 259 311
#
# _framework density 18.915534000000001
#
# number of rings (size 3 to 8) (size 9 to 14) (size 15 to 20)
#    0.000    2.250    0.000    3.375    0.000    4.500 
#    0.000    5.000    0.000    0.000    0.000    0.000 
#    0.000    0.000    0.000    0.000    0.000    0.000 
#
# Total GULP energy -396878.681593 kJ/mol
# GULP energy per Si atom -12402.458800 kJ/mol
# Density = 1.887248 g / cm^3
# Si number density = 18.915534 Si / 1000 Ang^3
#
#
#
# Elastic Constant Matrix: (Units=GPa)
#
#
# Indices 1 2 3 4 5 6 
#
# 1 139.0358 38.4740 60.1778 0.0000 10.7954 0.0000
# 2 38.4740 38.7438 40.5045 0.0000 5.0873 0.0000
# 3 60.1778 40.5045 118.8284 0.0000 14.0771 0.0000
# 4 0.0000 0.0000 0.0000 816.0857 0.0000 -400.1803
# 5 10.7954 5.0873 14.0771 0.0000 34.5755 0.0000
# 6 0.0000 0.0000 0.0000 -400.1803 0.0000 228.6775
#
#
#
# Elastic Compliance Matrix: (Units=1/GPa)
#
#
# Indices 1 2 3 4 5 6 
#
# 1 0.010498 -0.007548 -0.002613 0.000000 -0.001103 0.000000
# 2 -0.007548 0.045533 -0.011750 0.000000 0.000441 0.000000
# 3 -0.002613 -0.011750 0.014124 0.000000 -0.003206 0.000000
# 4 0.000000 0.000000 0.000000 0.008637 0.000000 0.015115
# 5 -0.001103 0.000441 -0.003206 0.000000 0.030507 0.000000
# 6 0.000000 0.000000 0.000000 0.015115 0.000000 0.030823
#
#
# Mechanical properties :
#
#
# Convention : Reuss Voigt Hill
#
# Bulk Modulus (GPa) = 37.97707 63.88006 50.92856
# Shear Modulus (GPa) = 25.94432 226.36451 126.15442
#
# Velocity S-wave (km/s) = 3.70751 10.95130 8.17547
# Velocity P-wave (km/s) = 6.20067 13.91950 10.77499
#
# Compressibility (1/GPa) = 0.02633168
#
# Stress axis : x y z
#
# Youngs Moduli (GPa) = 95.25962 21.96232 70.80375
#
# Poissons Ratio (x) = 0.16578 0.18498
# Poissons Ratio (y) = 0.71905 0.83195
# Poissons Ratio (z) = 0.24887 0.25806
#
# Static dielectric constant tensor:
#      x y z
#    x 3.986420 0.000000 0.068940 
#    y 0.000000 3.230490 0.000000 
#    z 0.068940 0.000000 3.435140 
# 
# 
# High freq. dielectric constant tensor:
#      x y z
#    x 1.755560 0.000000 -0.000510 
#    y 0.000000 1.711360 0.000000 
#    z -0.000510 0.000000 1.742690 
# 
# From -- ./inp_files/90656.got.cif
#   From: 2010.06.25/outbox.cif.g09.slc.cpg/sg10_46_cif.got.tgz:90656.got - 2010.06.27 22:07:45.
