data_PCOD8064156
_publ_section_title
;
Structure prediction by ZEFSAII (Michael W. Deem and Ramdas Pophale) SiO2 
 PCOD8064156
Probable space group: P 2/M
;
_chemical_formula_sum "Si O2"
_cell_formula_units_Z 32
_cell_length_a 24.117822
_cell_length_b 8.859881
_cell_length_c 18.727679
_cell_angle_alpha 90.000000
_cell_angle_beta 155.842176
_cell_angle_gamma 90.000000
_cell_volume 1637.722113
_symmetry_space_group_name_H-M "P 2/M"
_symmetry_group_IT_number 10
_symmetry_cell_setting 'monoclinic'
loop_
_space_group_symop_operation_xyz
x,y,z
-x,y,-z
-x,-y,-z
x,-y,z
loop_
_atom_site_type_symbol
_atom_site_label
_atom_site_fract_x
_atom_site_fract_y
_atom_site_fract_z
Si Si1 0.151173 0.678400 0.847671
Si Si2 0.350644 0.675007 0.502523
Si Si3 0.106357 0.827310 0.288902
Si Si4 0.872605 0.173688 0.520401
Si Si5 0.355301 0.165789 0.362103
Si Si6 0.564518 0.323476 0.871460
Si Si7 0.405858 0.675849 0.822207
Si Si8 0.163205 0.675584 0.026358
O O1 0.133709 0.500000 0.820589
O O2 0.012417 0.752932 0.655530
O O3 0.280863 0.738334 0.954306
O O4 0.178643 0.724414 0.962002
O O5 0.309910 0.500000 0.463560
O O6 0.235993 0.784717 0.396193
O O7 0.368632 0.713887 0.441179
O O8 0.487651 0.710784 0.707021
O O9 0.140286 0.799505 0.410879
O O10 0.064909 0.000000 0.225703
O O11 0.987074 0.716721 0.123752
O O12 0.738365 0.248255 0.329616
O O13 0.875574 0.000000 0.501850
O O14 0.500000 0.141555 0.500000
O O15 0.264026 0.229163 0.192008
O O16 0.300917 0.000000 0.323349
O O17 0.575504 0.500000 0.898305
O O18 0.481976 0.253452 0.841757
O O19 0.377463 0.500000 0.776464
O O20 0.500000 0.707441 0.000000
O O21 0.192116 0.500000 0.071592
#
# Coordination Sequence:
#
# PCOD8064156 Si02
#       8
#     4   4   4   4   4   4   4   4
#     4   9  18  34  58  83 110 146 188 235 279 327
#     4  11  21  35  58  82 108 142 186 237 280 327
#     4  10  20  35  55  81 111 144 182 226 281 337
#     4  10  20  35  56  83 116 150 186 226 275 337
#     4  11  24  39  53  74 109 148 183 227 284 341
#     4   9  18  34  57  86 113 140 185 237 281 327
#     4  10  20  36  60  87 115 148 186 229 278 333
#     4  10  20  35  56  80 107 142 188 234 281 330
#
# _framework density 19.539334
#
# number of rings (size 3 to 8) (size 9 to 14) (size 15 to 20)
#    0.000    2.000    1.250    2.625    0.000    4.250 
#    0.000    5.000    0.000    3.750    0.000    0.000 
#    0.000    0.000    0.000    0.000    0.000    0.000 
#
# Total GULP energy -396758.408568 kJ/mol
# GULP energy per Si atom -12398.700268 kJ/mol
# Density = 1.949486 g / cm^3
# Si number density = 19.539334 Si / 1000 Ang^3
#
#
#
# Elastic Constant Matrix: (Units=GPa)
#
#
# Indices 1 2 3 4 5 6 
#
# 1 47.5324 20.8214 36.9785 0.0000 15.2999 0.0000
# 2 20.8214 59.6691 44.0691 0.0000 -4.4295 0.0000
# 3 36.9785 44.0691 134.0909 0.0000 17.3413 0.0000
# 4 0.0000 0.0000 0.0000 26.8686 0.0000 2.7125
# 5 15.2999 -4.4295 17.3413 0.0000 29.8148 0.0000
# 6 0.0000 0.0000 0.0000 2.7125 0.0000 19.6671
#
#
#
# Elastic Compliance Matrix: (Units=1/GPa)
#
#
# Indices 1 2 3 4 5 6 
#
# 1 0.033858 -0.010233 -0.003818 0.000000 -0.016675 0.000000
# 2 -0.010233 0.027210 -0.007918 0.000000 0.013899 0.000000
# 3 -0.003818 -0.007918 0.011907 0.000000 -0.006143 0.000000
# 4 0.000000 0.000000 0.000000 0.037744 0.000000 -0.005206
# 5 -0.016675 0.013899 -0.006143 0.000000 0.047735 0.000000
# 6 0.000000 0.000000 0.000000 -0.005206 0.000000 0.051564
#
#
# Mechanical properties :
#
#
# Convention : Reuss Voigt Hill
#
# Bulk Modulus (GPa) = 34.43814 49.44783 41.94299
# Shear Modulus (GPa) = 18.96570 24.56501 21.76535
#
# Velocity S-wave (km/s) = 3.11889 3.54956 3.34117
# Velocity P-wave (km/s) = 5.53473 6.49314 6.03300
#
# Compressibility (1/GPa) = 0.02903757
#
# Stress axis : x y z
#
# Youngs Moduli (GPa) = 29.53511 36.75176 83.98360
#
# Poissons Ratio (x) = 0.37608 0.32061
# Poissons Ratio (y) = 0.30223 0.66498
# Poissons Ratio (z) = 0.11275 0.29100
#
# Static dielectric constant tensor:
#      x y z
#    x 3.506220 0.000000 0.192880 
#    y 0.000000 3.493940 0.000000 
#    z 0.192880 0.000000 3.431210 
# 
# 
# High freq. dielectric constant tensor:
#      x y z
#    x 1.745760 0.000000 0.013270 
#    y 0.000000 1.751780 0.000000 
#    z 0.013270 0.000000 1.769300 
# 
# From -- ./inp_files/87013.got.cif
#   From: 2010.06.25/outbox.cif.g09.slc.cpg/sg10_44_cif.got.tgz:87013.got - 2010.06.27 22:07:45.
