data_PCOD8064364
_publ_section_title
;
Structure prediction by ZEFSAII (Michael W. Deem and Ramdas Pophale) SiO2 
 PCOD8064364
Probable space group: P 2/M
;
_chemical_formula_sum "Si O2"
_cell_formula_units_Z 32
_cell_length_a 11.793675
_cell_length_b 9.125345
_cell_length_c 14.777480
_cell_angle_alpha 90.000000
_cell_angle_beta 93.667089
_cell_angle_gamma 90.000000
_cell_volume 1587.116141
_symmetry_space_group_name_H-M "P 2/M"
_symmetry_group_IT_number 10
_symmetry_cell_setting 'monoclinic'
loop_
_space_group_symop_operation_xyz
x,y,z
-x,y,-z
-x,-y,-z
x,-y,z
loop_
_atom_site_type_symbol
_atom_site_label
_atom_site_fract_x
_atom_site_fract_y
_atom_site_fract_z
Si Si1 0.285133 0.832068 0.161846
Si Si2 0.246180 0.673635 0.832848
Si Si3 0.506875 0.329953 0.212282
Si Si4 0.204210 0.828607 0.536244
Si Si5 0.848931 0.166130 0.668379
Si Si6 0.072327 0.326607 0.673058
Si Si7 0.131954 0.326632 0.011854
Si Si8 0.570587 0.330816 0.415939
O O1 0.407787 0.757650 0.156366
O O2 0.251515 0.817689 0.264907
O O3 0.188700 0.752148 0.099396
O O4 0.293670 0.000000 0.131036
O O5 0.244656 0.500000 0.829432
O O6 0.373976 0.730369 0.821796
O O7 0.164151 0.731975 0.749832
O O8 0.198102 0.729306 0.926101
O O9 0.491284 0.500000 0.187437
O O10 0.499901 0.305823 0.320307
O O11 0.203446 0.789193 0.430592
O O12 0.097445 0.749633 0.578158
O O13 0.318397 0.767386 0.586261
O O14 0.195861 0.000000 0.554217
O O15 0.949216 0.276257 0.700825
O O16 0.896360 0.000000 0.668437
O O17 0.074714 0.500000 0.662006
O O18 0.143480 0.500000 0.025375
O O19 0.000000 0.280536 0.000000
O O20 0.500000 0.280533 0.500000
O O21 0.608224 0.500000 0.426429
#
# Coordination Sequence:
#
# PCOD8064364 Si02
#       8
#     4   4   4   4   4   4   4   4
#     4  11  24  41  60  86 121 155 194 244 293 347
#     4   9  19  37  61  87 117 151 189 243 301 351
#     4  10  20  38  60  83 117 155 195 242 294 350
#     4  11  22  36  55  81 118 160 198 238 293 360
#     4  10  23  40  55  79 119 161 196 237 296 356
#     4  11  21  37  61  88 117 150 198 250 294 346
#     4  10  21  40  66  92 116 149 195 239 292 362
#     4  10  20  35  57  84 115 153 202 256 296 335
#
# _framework density 20.162355999999999
#
# number of rings (size 3 to 8) (size 9 to 14) (size 15 to 20)
#    0.000    1.750    1.250    3.000    0.000    6.000 
#    0.000    4.375    0.000    0.000    0.000    0.000 
#    0.000    0.000    0.000    0.000    0.000    0.000 
#
# Total GULP energy -396926.372261 kJ/mol
# GULP energy per Si atom -12403.949133 kJ/mol
# Density = 2.011647 g / cm^3
# Si number density = 20.162356 Si / 1000 Ang^3
#
#
#
# Elastic Constant Matrix: (Units=GPa)
#
#
# Indices 1 2 3 4 5 6 
#
# 1 118.3149 45.2668 29.1225 0.0000 7.8088 0.0000
# 2 45.2668 70.5673 29.2705 0.0000 9.5137 0.0000
# 3 29.1225 29.2705 89.8485 0.0000 -1.4827 0.0000
# 4 0.0000 0.0000 0.0000 21.2214 0.0000 -2.3492
# 5 7.8088 9.5137 -1.4827 0.0000 37.8161 0.0000
# 6 0.0000 0.0000 0.0000 -2.3492 0.0000 27.5684
#
#
#
# Elastic Compliance Matrix: (Units=1/GPa)
#
#
# Indices 1 2 3 4 5 6 
#
# 1 0.011398 -0.006556 -0.001571 0.000000 -0.000766 0.000000
# 2 -0.006556 0.020899 -0.004751 0.000000 -0.004090 0.000000
# 3 -0.001571 -0.004751 0.013220 0.000000 0.002038 0.000000
# 4 0.000000 0.000000 0.000000 0.047571 0.000000 0.004054
# 5 -0.000766 -0.004090 0.002038 0.000000 0.027711 0.000000
# 6 0.000000 0.000000 0.000000 0.004054 0.000000 0.036619
#
#
# Mechanical properties :
#
#
# Convention : Reuss Voigt Hill
#
# Bulk Modulus (GPa) = 50.60615 54.00556 52.30586
# Shear Modulus (GPa) = 26.34904 28.99256 27.67080
#
# Velocity S-wave (km/s) = 3.61895 3.79615 3.70861
# Velocity P-wave (km/s) = 6.52811 6.78659 6.65861
#
# Compressibility (1/GPa) = 0.01976044
#
# Stress axis : x y z
#
# Youngs Moduli (GPa) = 87.73692 47.85029 75.64105
#
# Poissons Ratio (x) = 0.31373 0.11884
# Poissons Ratio (y) = 0.57524 0.35934
# Poissons Ratio (z) = 0.13784 0.22732
#
# Static dielectric constant tensor:
#      x y z
#    x 3.693840 0.000000 -0.144610 
#    y 0.000000 3.459760 0.000000 
#    z -0.144610 0.000000 3.744970 
# 
# 
# High freq. dielectric constant tensor:
#      x y z
#    x 1.793940 0.000000 -0.004010 
#    y 0.000000 1.770100 0.000000 
#    z -0.004010 0.000000 1.791530 
# 
# From -- ./inp_files/63810.got.cif
#   From: 2010.06.25/outbox.cif.g09.slc.cpg/sg10_32_cif.got.tgz:63810.got - 2010.06.27 22:07:45.
