data_PCOD8064095
_publ_section_title
;
Structure prediction by ZEFSAII (Michael W. Deem and Ramdas Pophale) SiO2 
 PCOD8064095
Probable space group: P 2/M
;
_chemical_formula_sum "Si O2"
_cell_formula_units_Z 32
_cell_length_a 26.345604
_cell_length_b 9.445985
_cell_length_c 21.253356
_cell_angle_alpha 90.000000
_cell_angle_beta 19.993346
_cell_angle_gamma 90.000000
_cell_volume 1808.406314
_symmetry_space_group_name_H-M "P 2/M"
_symmetry_group_IT_number 10
_symmetry_cell_setting 'monoclinic'
loop_
_space_group_symop_operation_xyz
x,y,z
-x,y,-z
-x,-y,-z
x,-y,z
loop_
_atom_site_type_symbol
_atom_site_label
_atom_site_fract_x
_atom_site_fract_y
_atom_site_fract_z
Si Si1 0.875875 0.658767 0.057581
Si Si2 0.876539 0.835533 0.805187
Si Si3 0.431998 0.164755 0.896617
Si Si4 0.360436 0.162443 0.117570
Si Si5 0.214845 0.340588 0.703989
Si Si6 0.959567 0.835952 0.849174
Si Si7 0.076630 0.665825 0.477091
Si Si8 0.288695 0.833172 0.504257
O O1 0.830261 0.500000 0.091606
O O2 0.045352 0.664095 0.880750
O O3 0.853819 0.757690 0.022654
O O4 0.775302 0.709160 0.234265
O O5 0.903609 0.794179 0.845630
O O6 0.977849 0.734643 0.645925
O O7 0.916689 0.000000 0.745246
O O8 0.705471 0.803814 0.989040
O O9 0.581288 0.228982 0.691923
O O10 0.459750 0.000000 0.873874
O O11 0.402144 0.228119 0.000752
O O12 0.235123 0.259027 0.294331
O O13 0.303360 0.000000 0.177842
O O14 0.500000 0.170614 0.000000
O O15 0.276954 0.500000 0.624935
O O16 0.308164 0.237007 0.550377
O O17 0.132294 0.791895 0.654486
O O18 0.939952 0.000000 0.885942
O O19 0.096091 0.500000 0.468047
O O20 0.000000 0.695238 0.500000
O O21 0.305126 0.000000 0.495009
#
# Coordination Sequence:
#
# PCOD8064095 Si02
#       8
#     4   4   4   4   4   4   4   4
#     4   8  14  26  45  67  97 129 159 198 243 293
#     4  10  20  35  55  74  98 135 173 207 249 305
#     4   9  18  33  51  73 100 131 165 203 251 302
#     4  10  21  36  59  83 102 133 174 214 257 308
#     4   8  14  26  44  68  95 128 164 196 238 295
#     4   9  18  29  47  75 100 123 160 209 249 290
#     4  11  23  38  55  77 106 136 171 215 258 305
#     4   9  17  29  46  71 101 126 156 205 254 292
#
# _framework density 17.695138
#
# number of rings (size 3 to 8) (size 9 to 14) (size 15 to 20)
#    0.000    2.750    1.250    1.125    1.750    1.750 
#    0.000    3.750    0.000    0.750    0.000    5.250 
#    0.000    0.000    0.000    0.000    0.000    0.000 
#
# Total GULP energy -396705.734778 kJ/mol
# GULP energy per Si atom -12397.054212 kJ/mol
# Density = 1.765486 g / cm^3
# Si number density = 17.695138 Si / 1000 Ang^3
#
#
#
# Elastic Constant Matrix: (Units=GPa)
#
#
# Indices 1 2 3 4 5 6 
#
# 1 118.6409 45.8502 43.1974 0.0000 19.7638 0.0000
# 2 45.8502 56.1165 25.3069 0.0000 8.0552 0.0000
# 3 43.1974 25.3069 60.0420 0.0000 9.5482 0.0000
# 4 0.0000 0.0000 0.0000 15.0095 0.0000 5.1093
# 5 19.7638 8.0552 9.5482 0.0000 24.4956 0.0000
# 6 0.0000 0.0000 0.0000 5.1093 0.0000 17.1301
#
#
#
# Elastic Compliance Matrix: (Units=1/GPa)
#
#
# Indices 1 2 3 4 5 6 
#
# 1 0.015168 -0.008604 -0.006172 0.000000 -0.007003 0.000000
# 2 -0.008604 0.027231 -0.005295 0.000000 0.000052 0.000000
# 3 -0.006172 -0.005295 0.023730 0.000000 -0.002528 0.000000
# 4 0.000000 0.000000 0.000000 0.074153 0.000000 -0.022117
# 5 -0.007003 0.000052 -0.002528 0.000000 0.047442 0.000000
# 6 0.000000 0.000000 0.000000 -0.022117 0.000000 0.064974
#
#
# Mechanical properties :
#
#
# Convention : Reuss Voigt Hill
#
# Bulk Modulus (GPa) = 38.48447 51.50094 44.99271
# Shear Modulus (GPa) = 16.58359 19.35669 17.97014
#
# Velocity S-wave (km/s) = 3.06467 3.31100 3.19021
# Velocity P-wave (km/s) = 5.85822 6.61700 6.24914
#
# Compressibility (1/GPa) = 0.02598451
#
# Stress axis : x y z
#
# Youngs Moduli (GPa) = 65.92856 36.72306 42.14117
#
# Poissons Ratio (x) = 0.31597 0.26011
# Poissons Ratio (y) = 0.56727 0.22315
# Poissons Ratio (z) = 0.40694 0.19446
#
# Static dielectric constant tensor:
#      x y z
#    x 3.452420 0.000000 0.320180 
#    y 0.000000 3.206000 0.000000 
#    z 0.320180 0.000000 3.340860 
# 
# 
# High freq. dielectric constant tensor:
#      x y z
#    x 1.682520 0.000000 0.020520 
#    y 0.000000 1.665870 0.000000 
#    z 0.020520 0.000000 1.673090 
# 
# From -- ./inp_files/86730.got.cif
#   From: 2010.06.25/outbox.cif.g09.slc.cpg/sg10_44_cif.got.tgz:86730.got - 2010.06.27 22:07:45.
