data_PCOD8064181
_publ_section_title
;
Structure prediction by ZEFSAII (Michael W. Deem and Ramdas Pophale) SiO2 
 PCOD8064181
Probable space group: P 2/M
;
_chemical_formula_sum "Si O2"
_cell_formula_units_Z 32
_cell_length_a 21.555392
_cell_length_b 17.484879
_cell_length_c 12.293942
_cell_angle_alpha 90.000000
_cell_angle_beta 21.536409
_cell_angle_gamma 90.000000
_cell_volume 1700.924753
_symmetry_space_group_name_H-M "P 2/M"
_symmetry_group_IT_number 10
_symmetry_cell_setting 'monoclinic'
loop_
_space_group_symop_operation_xyz
x,y,z
-x,y,-z
-x,-y,-z
x,-y,z
loop_
_atom_site_type_symbol
_atom_site_label
_atom_site_fract_x
_atom_site_fract_y
_atom_site_fract_z
Si Si1 0.604055 0.796195 0.732813
Si Si2 0.988563 0.589282 0.754610
Si Si3 0.481152 0.713315 0.733815
Si Si4 0.268685 0.414933 0.641615
Si Si5 0.184269 0.911096 0.748802
Si Si6 0.331781 0.833056 0.716429
Si Si7 0.862801 0.274597 0.810116
Si Si8 0.695234 0.361704 0.651229
O O1 0.476278 0.753250 0.859458
O O2 0.694684 0.865562 0.527848
O O3 0.726084 0.729435 0.580992
O O4 0.500000 0.834471 0.000000
O O5 0.963838 0.500000 0.759484
O O6 0.920562 0.648948 0.777241
O O7 0.187633 0.607848 0.442637
O O8 0.895933 0.608447 0.020017
O O9 0.567751 0.631971 0.593191
O O10 0.591002 0.762397 0.472395
O O11 0.293979 0.697296 0.003601
O O12 0.318558 0.500000 0.590425
O O13 0.236674 0.406321 0.565612
O O14 0.224670 0.887381 0.808463
O O15 0.224793 0.000000 0.672749
O O16 0.000000 0.892580 0.000000
O O17 0.500000 0.872973 0.500000
O O18 0.192719 0.798761 0.026479
O O19 0.000000 0.244337 0.500000
O O20 0.500000 0.378957 0.000000
#
# Coordination Sequence:
#
# PCOD8064181 Si02
#       8
#     4   4   4   4   4   4   4   4
#     4   9  20  35  61  85 112 149 189 225 277 341
#     4  11  24  38  53  80 112 151 197 240 300 349
#     4   9  19  38  54  81 109 142 194 238 280 337
#     4  10  20  35  56  76 105 147 189 238 291 346
#     4  10  22  37  59  95 127 149 180 230 290 343
#     4   9  19  40  62  81 112 157 198 231 272 344
#     4  11  24  36  57  80 111 146 193 248 288 335
#     4  10  22  37  56  83 111 147 194 243 283 341
#
# _framework density 18.813296000000001
#
# number of rings (size 3 to 8) (size 9 to 14) (size 15 to 20)
#    0.000    2.125    1.250    0.750    7.000    3.250 
#    0.000    1.250    0.000    0.375    0.000    0.000 
#    0.000    0.000    0.000    0.000    0.000    0.000 
#
# Total GULP energy -396510.933394 kJ/mol
# GULP energy per Si atom -12390.966669 kJ/mol
# Density = 1.877048 g / cm^3
# Si number density = 18.813296 Si / 1000 Ang^3
#
#
#
# Elastic Constant Matrix: (Units=GPa)
#
#
# Indices 1 2 3 4 5 6 
#
# 1 81.6980 53.6519 53.0230 0.0000 -13.8720 0.0000
# 2 53.6519 90.2616 51.2750 0.0000 -7.1923 0.0000
# 3 53.0230 51.2750 108.4694 0.0000 -1.0527 0.0000
# 4 0.0000 0.0000 0.0000 -34.6945 0.0000 16.7242
# 5 -13.8720 -7.1923 -1.0527 0.0000 41.9939 0.0000
# 6 0.0000 0.0000 0.0000 16.7242 0.0000 18.0368
#
#
#
# Elastic Compliance Matrix: (Units=1/GPa)
#
#
# Indices 1 2 3 4 5 6 
#
# 1 0.024538 -0.009995 -0.007210 0.000000 0.006213 0.000000
# 2 -0.009995 0.019466 -0.004317 0.000000 -0.000076 0.000000
# 3 -0.007210 -0.004317 0.014758 0.000000 -0.002751 0.000000
# 4 0.000000 0.000000 0.000000 -0.019920 0.000000 0.018470
# 5 0.006213 -0.000076 -0.002751 0.000000 0.025783 0.000000
# 6 0.000000 0.000000 0.000000 0.018470 0.000000 0.038316
#
#
# Mechanical properties :
#
#
# Convention : Reuss Voigt Hill
#
# Bulk Modulus (GPa) = 63.61901 66.25876 64.93888
# Shear Modulus (GPa) = 33.06335 13.23253 23.14794
#
# Velocity S-wave (km/s) = 4.19674 2.65497 3.51152
# Velocity P-wave (km/s) = 7.57449 6.68536 7.14377
#
# Compressibility (1/GPa) = 0.01571857
#
# Stress axis : x y z
#
# Youngs Moduli (GPa) = 40.75278 51.37147 67.76143
#
# Poissons Ratio (x) = 0.51344 0.48856
# Poissons Ratio (y) = 0.40731 0.29252
# Poissons Ratio (z) = 0.29383 0.22177
#
# Static dielectric constant tensor:
#      x y z
#    x 3.941760 0.000000 0.786720 
#    y 0.000000 3.278700 0.000000 
#    z 0.786720 0.000000 13.864260 
# 
# 
# High freq. dielectric constant tensor:
#      x y z
#    x 1.741300 0.000000 0.003050 
#    y 0.000000 1.710390 0.000000 
#    z 0.003050 0.000000 1.731770 
# 
# From -- ./inp_files/56135.got.cif
#   From: 2010.06.25/outbox.cif.g09.slc.cpg/sg10_29_cif.got.tgz:56135.got - 2010.06.27 22:07:45.
