data_PCOD8064003
_publ_section_title
;
Structure prediction by ZEFSAII (Michael W. Deem and Ramdas Pophale) SiO2 
 PCOD8064003
Probable space group: P 2/M
;
_chemical_formula_sum "Si O2"
_cell_formula_units_Z 28
_cell_length_a 14.965237
_cell_length_b 11.588361
_cell_length_c 14.570802
_cell_angle_alpha 90.000000
_cell_angle_beta 140.941917
_cell_angle_gamma 90.000000
_cell_volume 1592.223356
_symmetry_space_group_name_H-M "P 2/M"
_symmetry_group_IT_number 10
_symmetry_cell_setting 'monoclinic'
loop_
_space_group_symop_operation_xyz
x,y,z
-x,y,-z
-x,-y,-z
x,-y,z
loop_
_atom_site_type_symbol
_atom_site_label
_atom_site_fract_x
_atom_site_fract_y
_atom_site_fract_z
Si Si1 0.214184 0.863168 0.616202
Si Si2 0.087511 0.863940 0.699768
Si Si3 0.270995 0.500000 0.298122
Si Si4 0.343156 0.864833 0.246724
Si Si5 0.809724 0.258513 0.717308
Si Si6 0.482599 0.500000 0.636395
Si Si7 0.901682 0.863585 0.087448
Si Si8 0.614230 0.741757 0.392088
O O1 0.202619 0.826232 0.714454
O O2 0.341531 0.791197 0.672017
O O3 0.069448 0.822577 0.451824
O O4 0.241950 0.000000 0.626557
O O5 0.129162 0.817806 0.833781
O O6 0.084443 0.000000 0.697192
O O7 0.171733 0.388127 0.229207
O O8 0.387004 0.500000 0.470285
O O9 0.353228 0.500000 0.265766
O O10 0.305582 0.806001 0.312597
O O11 0.498367 0.826603 0.341547
O O12 0.341720 0.000000 0.261454
O O13 0.231815 0.827510 0.079687
O O14 0.751668 0.257857 0.567373
O O15 0.960217 0.196474 0.844278
O O16 0.449762 0.613345 0.670761
O O17 0.929852 0.000000 0.108401
#
# Coordination Sequence:
#
# PCOD8064003 Si02
#       8
#     4   4   2   4   4   2   4   4
#     4   9  16  28  52  83 101 122 167 211 248 298
#     4   8  15  30  51  74 104 133 161 203 250 300
#     4   9  18  34  52  72  95 132 179 214 244 288
#     4  11  23  33  46  75 110 136 164 206 252 304
#     4  11  20  34  54  72  99 136 175 211 242 297
#     4   9  18  34  51  70 102 135 165 209 265 290
#     4  10  20  35  51  73 107 142 165 196 258 307
#     4  11  20  33  54  76 100 130 174 214 248 297
#
# _framework density 17.585471999999999
#
# number of rings (size 3 to 8) (size 9 to 14) (size 15 to 20)
#    0.000    2.143    2.857    2.571    0.000    3.429 
#    0.000    2.857    0.000    6.000    0.000    1.000 
#    0.000    0.000    0.000    0.000    0.000    0.000 
#
# Total GULP energy -347151.813768 kJ/mol
# GULP energy per Si atom -12398.279063 kJ/mol
# Density = 1.754545 g / cm^3
# Si number density = 17.585472 Si / 1000 Ang^3
#
#
#
# Elastic Constant Matrix: (Units=GPa)
#
#
# Indices 1 2 3 4 5 6 
#
# 1 121.4733 40.0316 6.7586 0.0000 -4.8418 0.0000
# 2 40.0316 66.8803 16.2434 0.0000 4.8287 0.0000
# 3 6.7586 16.2434 30.7703 0.0000 -0.1741 0.0000
# 4 0.0000 0.0000 0.0000 13.9213 0.0000 -1.5666
# 5 -4.8418 4.8287 -0.1741 0.0000 16.3253 0.0000
# 6 0.0000 0.0000 0.0000 -1.5666 0.0000 7.5335
#
#
#
# Elastic Compliance Matrix: (Units=1/GPa)
#
#
# Indices 1 2 3 4 5 6 
#
# 1 0.010720 -0.007153 0.001451 0.000000 0.005311 0.000000
# 2 -0.007153 0.022371 -0.010288 0.000000 -0.008848 0.000000
# 3 0.001451 -0.010288 0.037633 0.000000 0.003875 0.000000
# 4 0.000000 0.000000 0.000000 0.073553 0.000000 0.015295
# 5 0.005311 -0.008848 0.003875 0.000000 0.065488 0.000000
# 6 0.000000 0.000000 0.000000 0.015295 0.000000 0.135921
#
#
# Mechanical properties :
#
#
# Convention : Reuss Voigt Hill
#
# Bulk Modulus (GPa) = 25.80997 38.35456 32.08226
# Shear Modulus (GPa) = 12.80141 17.96204 15.38173
#
# Velocity S-wave (km/s) = 2.70099 3.19942 2.96071
# Velocity P-wave (km/s) = 4.94326 5.95870 5.47458
#
# Compressibility (1/GPa) = 0.03874471
#
# Stress axis : x y z
#
# Youngs Moduli (GPa) = 93.28072 44.70099 26.57231
#
# Poissons Ratio (x) = 0.31973 -0.03856
# Poissons Ratio (y) = 0.66720 0.27339
# Poissons Ratio (z) = -0.13536 0.45990
#
# Static dielectric constant tensor:
#      x y z
#    x 3.545660 0.000000 -0.230770 
#    y 0.000000 3.214200 0.000000 
#    z -0.230770 0.000000 3.173850 
# 
# 
# High freq. dielectric constant tensor:
#      x y z
#    x 1.686050 0.000000 -0.000740 
#    y 0.000000 1.660970 0.000000 
#    z -0.000740 0.000000 1.654720 
# 
# From -- ./inp_files/28237.got.cif
#   From: 2010.06.25/outbox.cif.g09.slc.cpg/sg10_15_cif.got.tgz:28237.got - 2010.06.27 22:07:45.
