data_PCOD8064361
_publ_section_title
;
Structure prediction by ZEFSAII (Michael W. Deem and Ramdas Pophale) SiO2 
 PCOD8064361
Probable space group: P 2/M
;
_chemical_formula_sum "Si O2"
_cell_formula_units_Z 28
_cell_length_a 25.344012
_cell_length_b 9.239629
_cell_length_c 10.563271
_cell_angle_alpha 90.000000
_cell_angle_beta 143.777212
_cell_angle_gamma 90.000000
_cell_volume 1461.712087
_symmetry_space_group_name_H-M "P 2/M"
_symmetry_group_IT_number 10
_symmetry_cell_setting 'monoclinic'
loop_
_space_group_symop_operation_xyz
x,y,z
-x,y,-z
-x,-y,-z
x,-y,z
loop_
_atom_site_type_symbol
_atom_site_label
_atom_site_fract_x
_atom_site_fract_y
_atom_site_fract_z
Si Si1 0.959793 0.166758 0.285131
Si Si2 0.564740 0.830105 0.798083
Si Si3 0.067094 0.169126 0.242140
Si Si4 0.598129 0.170702 0.139883
Si Si5 0.793710 0.664200 0.877257
Si Si6 0.229334 0.334328 0.454846
Si Si7 0.627120 0.170657 0.653033
O O1 0.000000 0.199869 0.500000
O O2 0.027542 0.207502 0.303346
O O3 0.931343 0.000000 0.217120
O O4 0.872253 0.262810 0.107389
O O5 0.465604 0.768290 0.582961
O O6 0.630442 0.790921 0.809459
O O7 0.550936 0.000000 0.778087
O O8 0.605705 0.775465 0.009047
O O9 0.160250 0.254869 0.414332
O O10 0.088949 0.000000 0.271656
O O11 0.000000 0.217452 0.000000
O O12 0.674446 0.256312 0.362360
O O13 0.615327 0.000000 0.189680
O O14 0.500000 0.212412 0.000000
O O15 0.784820 0.500000 0.906140
O O16 0.813707 0.674249 0.767295
O O17 0.702800 0.745914 0.727140
O O18 0.241804 0.500000 0.522636
O O19 0.639148 0.000000 0.653994
#
# Coordination Sequence:
#
# PCOD8064361 Si02
#       7
#     4   4   4   4   4   4   4
#     4  10  22  40  62  87 113 142 181 233 288 334
#     4   8  16  32  54  82 109 140 184 234 283 326
#     4  10  20  38  64  88 110 143 191 239 279 333
#     4  10  20  35  57  84 114 147 189 239 283 328
#     4  11  23  37  54  80 113 146 185 228 276 338
#     4  11  24  38  56  83 115 154 191 230 285 342
#     4   9  17  33  58  80 106 144 186 230 277 333
#
# _framework density 19.155619999999999
#
# number of rings (size 3 to 8) (size 9 to 14) (size 15 to 20)
#    0.000    2.143    1.429    2.571    0.000    5.429 
#    0.000    8.571    0.000    0.000    0.000    0.000 
#    0.000    0.000    0.000    0.000    0.000    0.000 
#
# Total GULP energy -347201.050849 kJ/mol
# GULP energy per Si atom -12400.037530 kJ/mol
# Density = 1.911202 g / cm^3
# Si number density = 19.155620 Si / 1000 Ang^3
#
#
#
# Elastic Constant Matrix: (Units=GPa)
#
#
# Indices 1 2 3 4 5 6 
#
# 1 93.8238 34.2471 32.0582 0.0000 -0.4313 0.0000
# 2 34.2471 74.7359 43.8170 0.0000 9.7090 0.0000
# 3 32.0582 43.8170 86.6965 0.0000 2.4821 0.0000
# 4 0.0000 0.0000 0.0000 -36.8954 0.0000 -40.4281
# 5 -0.4313 9.7090 2.4821 0.0000 35.5915 0.0000
# 6 0.0000 0.0000 0.0000 -40.4281 0.0000 -9.6788
#
#
#
# Elastic Compliance Matrix: (Units=1/GPa)
#
#
# Indices 1 2 3 4 5 6 
#
# 1 0.013289 -0.004826 -0.002522 0.000000 0.001653 0.000000
# 2 -0.004826 0.021524 -0.008942 0.000000 -0.005306 0.000000
# 3 -0.002522 -0.008942 0.016951 0.000000 0.001227 0.000000
# 4 0.000000 0.000000 0.000000 0.007577 0.000000 -0.031651
# 5 0.001653 -0.005306 0.001227 0.000000 0.029479 0.000000
# 6 0.000000 0.000000 0.000000 -0.031651 0.000000 0.028885
#
#
# Mechanical properties :
#
#
# Convention : Reuss Voigt Hill
#
# Bulk Modulus (GPa) = 52.12574 52.83343 52.47959
# Shear Modulus (GPa) = 31.91224 7.47905 19.69565
#
# Velocity S-wave (km/s) = 4.08603 1.97809 3.21002
# Velocity P-wave (km/s) = 7.03787 5.73220 6.41833
#
# Compressibility (1/GPa) = 0.01918438
#
# Stress axis : x y z
#
# Youngs Moduli (GPa) = 75.24936 46.46063 58.99209
#
# Poissons Ratio (x) = 0.22420 0.14881
# Poissons Ratio (y) = 0.36312 0.52750
# Poissons Ratio (z) = 0.18981 0.41545
#
# Static dielectric constant tensor:
#      x y z
#    x 3.747580 0.000000 -0.276770 
#    y 0.000000 3.298960 0.000000 
#    z -0.276770 0.000000 3.557490 
# 
# 
# High freq. dielectric constant tensor:
#      x y z
#    x 1.754950 0.000000 -0.001580 
#    y 0.000000 1.722570 0.000000 
#    z -0.001580 0.000000 1.742530 
# 
# From -- ./inp_files/57490.got.cif
#   From: 2010.06.25/outbox.cif.g09.slc.cpg/sg10_29_cif.got.tgz:57490.got - 2010.06.27 22:07:45.
