data_PCOD8064463
_publ_section_title
;
Structure prediction by ZEFSAII (Michael W. Deem and Ramdas Pophale) SiO2 
 PCOD8064463
Probable space group: P 2/M
;
_chemical_formula_sum "Si O2"
_cell_formula_units_Z 20
_cell_length_a 7.666182
_cell_length_b 9.037360
_cell_length_c 18.363140
_cell_angle_alpha 90.000000
_cell_angle_beta 128.771413
_cell_angle_gamma 90.000000
_cell_volume 991.899376
_symmetry_space_group_name_H-M "P 2/M"
_symmetry_group_IT_number 10
_symmetry_cell_setting 'monoclinic'
loop_
_space_group_symop_operation_xyz
x,y,z
-x,y,-z
-x,-y,-z
x,-y,z
loop_
_atom_site_type_symbol
_atom_site_label
_atom_site_fract_x
_atom_site_fract_y
_atom_site_fract_z
Si Si1 0.023013 0.330214 0.717699
Si Si2 0.369916 0.330214 0.282301
Si Si3 0.607762 0.831277 0.102578
Si Si4 0.163683 0.172466 0.609122
Si Si5 0.800028 0.168723 0.897422
O O1 0.085629 0.500000 0.719132
O O2 0.767318 0.314534 0.678212
O O3 0.181643 0.269024 0.822876
O O4 0.052402 0.240174 0.651544
O O5 0.428237 0.500000 0.280870
O O6 0.597768 0.240172 0.348455
O O7 0.213015 0.269025 0.177124
O O8 0.434392 0.820554 0.122928
O O9 0.688132 0.000000 0.111665
O O10 0.500000 0.770011 0.000000
O O11 0.000000 0.205486 0.500000
O O12 0.199389 0.000000 0.632927
O O13 0.853137 0.000000 0.888334
O O14 0.000000 0.229989 0.000000
#
# Coordination Sequence:
#
# PCOD8064463 Si02
#       5
#     4   4   4   4   4
#     4  11  24  41  63  93 129 168 207 255 316 378
#     4  11  24  41  63  93 129 168 207 255 316 378
#     4  10  20  35  58  89 125 168 213 257 307 366
#     4  11  25  45  69  95 123 161 211 267 322 375
#     4  10  20  35  58  89 125 168 213 257 307 366
#
# _framework density 20.163335
#
# number of rings (size 3 to 8) (size 9 to 14) (size 15 to 20)
#    0.000    1.400    2.000    3.000    0.000    8.000 
#    0.000    4.000    0.000    0.000    0.000    0.000 
#    0.000    0.000    0.000    0.000    0.000    0.000 
#
# Total GULP energy -248105.252335 kJ/mol
# GULP energy per Si atom -12405.262617 kJ/mol
# Density = 2.011744 g / cm^3
# Si number density = 20.163335 Si / 1000 Ang^3
#
#
#
# Elastic Constant Matrix: (Units=GPa)
#
#
# Indices 1 2 3 4 5 6 
#
# 1 109.3274 57.5008 55.6621 0.0000 -0.3395 0.0000
# 2 57.5008 127.5549 89.5058 0.0000 -2.7528 0.0000
# 3 55.6621 89.5058 125.9773 0.0000 -1.0929 0.0000
# 4 0.0000 0.0000 0.0000 -11.2905 0.0000 3.1237
# 5 -0.3395 -2.7528 -1.0929 0.0000 28.8692 0.0000
# 6 0.0000 0.0000 0.0000 3.1237 0.0000 25.0299
#
#
#
# Elastic Compliance Matrix: (Units=1/GPa)
#
#
# Indices 1 2 3 4 5 6 
#
# 1 0.012551 -0.003532 -0.003038 0.000000 -0.000304 0.000000
# 2 -0.003532 0.016662 -0.010267 0.000000 0.001159 0.000000
# 3 -0.003038 -0.010267 0.016572 0.000000 -0.000387 0.000000
# 4 0.000000 0.000000 0.000000 -0.085614 0.000000 0.010684
# 5 -0.000304 0.001159 -0.000387 0.000000 0.034731 0.000000
# 6 0.000000 0.000000 0.000000 0.010684 0.000000 0.038619
#
#
# Mechanical properties :
#
#
# Convention : Reuss Voigt Hill
#
# Bulk Modulus (GPa) = 82.58739 85.35525 83.97132
# Shear Modulus (GPa) = 70.19358 19.20112 44.69735
#
# Velocity S-wave (km/s) = 5.90661 3.08925 4.71336
# Velocity P-wave (km/s) = 9.35765 7.42620 8.44731
#
# Compressibility (1/GPa) = 0.01210839
#
# Stress axis : x y z
#
# Youngs Moduli (GPa) = 79.67724 60.01828 60.34332
#
# Poissons Ratio (x) = 0.21200 0.18335
# Poissons Ratio (y) = 0.28144 0.61956
# Poissons Ratio (z) = 0.24209 0.61622
#
# Static dielectric constant tensor:
#      x y z
#    x 3.688610 0.000000 0.003680 
#    y 0.000000 3.713080 0.000000 
#    z 0.003680 0.000000 3.645850 
# 
# 
# High freq. dielectric constant tensor:
#      x y z
#    x 1.801270 0.000000 0.001290 
#    y 0.000000 1.788180 0.000000 
#    z 0.001290 0.000000 1.786250 
# 
# From -- ./inp_files/37813.got.cif
#   From: 2010.06.25/outbox.cif.g09.slc.cpg/sg10_19_cif.got.tgz:37813.got - 2010.06.27 22:07:45.
