data_PCOD8064236
_publ_section_title
;
Structure prediction by ZEFSAII (Michael W. Deem and Ramdas Pophale) SiO2 
 PCOD8064236
Probable space group: P 2/M
;
_chemical_formula_sum "Si O2"
_cell_formula_units_Z 32
_cell_length_a 20.830535
_cell_length_b 9.419307
_cell_length_c 11.500998
_cell_angle_alpha 90.000000
_cell_angle_beta 51.735699
_cell_angle_gamma 90.000000
_cell_volume 1771.798735
_symmetry_space_group_name_H-M "P 2/M"
_symmetry_group_IT_number 10
_symmetry_cell_setting 'monoclinic'
loop_
_space_group_symop_operation_xyz
x,y,z
-x,y,-z
-x,-y,-z
x,-y,z
loop_
_atom_site_type_symbol
_atom_site_label
_atom_site_fract_x
_atom_site_fract_y
_atom_site_fract_z
Si Si1 0.236698 0.332590 0.103732
Si Si2 0.582726 0.839555 0.478094
Si Si3 0.009008 0.841221 0.805311
Si Si4 0.541932 0.832728 0.779543
Si Si5 0.374860 0.831782 0.078639
Si Si6 0.949242 0.332967 0.666915
Si Si7 0.134654 0.159361 0.852669
Si Si8 0.276219 0.667216 0.794460
O O1 0.245887 0.500000 0.115052
O O2 0.294246 0.250338 0.129121
O O3 0.144338 0.278848 0.231374
O O4 0.260337 0.291122 0.945874
O O5 0.500000 0.842727 0.500000
O O6 0.569588 0.774061 0.622586
O O7 0.640695 0.737592 0.340516
O O8 0.618579 0.000000 0.446223
O O9 0.097012 0.818406 0.766830
O O10 0.000254 0.726381 0.716284
O O11 0.003589 0.000000 0.759598
O O12 0.936956 0.816016 0.976325
O O13 0.607341 0.791989 0.806241
O O14 0.533981 0.000000 0.780421
O O15 0.451565 0.776822 0.915361
O O16 0.361160 0.000000 0.079768
O O17 0.948969 0.500000 0.680005
O O18 0.000000 0.279661 0.500000
O O19 0.204323 0.274656 0.793765
O O20 0.170817 0.000000 0.824083
O O21 0.281709 0.500000 0.771390
#
# Coordination Sequence:
#
# PCOD8064236 Si02
#       8
#     4   4   4   4   4   4   4   4
#     4  10  21  36  52  76 107 136 176 224 265 310
#     4  10  20  35  56  81 111 146 178 215 269 321
#     4   9  18  34  57  82 106 132 172 223 270 316
#     4   8  16  33  55  81 110 135 173 220 259 310
#     4   9  17  33  59  82 101 137 180 217 259 310
#     4  10  21  38  56  74 105 147 181 218 268 321
#     4   9  18  34  56  81 107 136 170 218 271 319
#     4  11  22  35  53  79 109 142 180 223 266 314
#
# _framework density 18.060742000000001
#
# number of rings (size 3 to 8) (size 9 to 14) (size 15 to 20)
#    0.000    2.500    1.250    2.625    0.000    3.500 
#    2.250    3.750    0.000    0.000    0.000    0.000 
#    0.000    0.000    0.000    0.000    0.000    0.000 
#
# Total GULP energy -396733.341804 kJ/mol
# GULP energy per Si atom -12397.916931 kJ/mol
# Density = 1.801964 g / cm^3
# Si number density = 18.060742 Si / 1000 Ang^3
#
#
#
# Elastic Constant Matrix: (Units=GPa)
#
#
# Indices 1 2 3 4 5 6 
#
# 1 109.0082 42.3453 58.0141 0.0000 7.3147 0.0000
# 2 42.3453 41.9098 38.2094 0.0000 -2.6533 0.0000
# 3 58.0141 38.2094 117.8266 0.0000 6.7033 0.0000
# 4 0.0000 0.0000 0.0000 25.9748 0.0000 1.1126
# 5 7.3147 -2.6533 6.7033 0.0000 22.6962 0.0000
# 6 0.0000 0.0000 0.0000 1.1126 0.0000 59.2432
#
#
#
# Elastic Compliance Matrix: (Units=1/GPa)
#
#
# Indices 1 2 3 4 5 6 
#
# 1 0.017003 -0.014570 -0.003294 0.000000 -0.006211 0.000000
# 2 -0.014570 0.047604 -0.008998 0.000000 0.012919 0.000000
# 3 -0.003294 -0.008998 0.013249 0.000000 -0.003903 0.000000
# 4 0.000000 0.000000 0.000000 0.038530 0.000000 -0.000724
# 5 -0.006211 0.012919 -0.003903 0.000000 0.048725 0.000000
# 6 0.000000 0.000000 0.000000 -0.000724 0.000000 0.016893
#
#
# Mechanical properties :
#
#
# Convention : Reuss Voigt Hill
#
# Bulk Modulus (GPa) = 41.43915 60.65357 51.04636
# Shear Modulus (GPa) = 20.51093 30.26123 25.38608
#
# Velocity S-wave (km/s) = 3.37362 4.09776 3.75319
# Velocity P-wave (km/s) = 6.17812 7.48631 6.86346
#
# Compressibility (1/GPa) = 0.02413177
#
# Stress axis : x y z
#
# Youngs Moduli (GPa) = 58.81262 21.00656 75.47852
#
# Poissons Ratio (x) = 0.30607 0.24859
# Poissons Ratio (y) = 0.85691 0.67918
# Poissons Ratio (z) = 0.19370 0.18902
#
# Static dielectric constant tensor:
#      x y z
#    x 3.187600 0.000000 -0.012590 
#    y 0.000000 3.142470 0.000000 
#    z -0.012590 0.000000 3.573680 
# 
# 
# High freq. dielectric constant tensor:
#      x y z
#    x 1.708240 0.000000 0.002270 
#    y 0.000000 1.681250 0.000000 
#    z 0.002270 0.000000 1.692820 
# 
# From -- ./inp_files/55247.got.cif
#   From: 2010.06.25/outbox.cif.g09.slc.cpg/sg10_28_cif.got.tgz:55247.got - 2010.06.27 22:07:45.
