data_PCOD8064913
_publ_section_title
;
Structure prediction by ZEFSAII (Michael W. Deem and Ramdas Pophale) SiO2 
 PCOD8064913
Probable space group: P 2/M
;
_chemical_formula_sum "Si O2"
_cell_formula_units_Z 32
_cell_length_a 14.879756
_cell_length_b 8.798802
_cell_length_c 23.615050
_cell_angle_alpha 90.000000
_cell_angle_beta 149.999110
_cell_angle_gamma 90.000000
_cell_volume 1545.930312
_symmetry_space_group_name_H-M "P 2/M"
_symmetry_group_IT_number 10
_symmetry_cell_setting 'monoclinic'
loop_
_space_group_symop_operation_xyz
x,y,z
-x,y,-z
-x,-y,-z
x,-y,z
loop_
_atom_site_type_symbol
_atom_site_label
_atom_site_fract_x
_atom_site_fract_y
_atom_site_fract_z
Si Si1 0.271204 0.320037 0.074137
Si Si2 0.903327 0.320155 0.821009
Si Si3 0.579821 0.319619 0.723491
Si Si4 0.916487 0.666721 0.395083
Si Si5 0.679550 0.676024 0.127113
Si Si6 0.211720 0.180283 0.479096
Si Si7 0.409134 0.176727 0.808434
Si Si8 0.064781 0.322438 0.289125
O O1 0.270278 0.500000 0.073912
O O2 0.340891 0.260239 0.173101
O O3 0.402751 0.261886 0.096562
O O4 0.073469 0.256928 0.950082
O O5 0.922840 0.500000 0.829361
O O6 0.722034 0.269979 0.753280
O O7 0.896569 0.258256 0.752903
O O8 0.550605 0.500000 0.709031
O O9 0.393391 0.240708 0.606795
O O10 0.873085 0.500000 0.343630
O O11 0.738482 0.762279 0.316420
O O12 0.000000 0.633145 0.500000
O O13 0.042962 0.757998 0.421570
O O14 0.657758 0.500000 0.130509
O O15 0.695636 0.776116 0.191832
O O16 0.853565 0.707483 0.184020
O O17 0.500000 0.738034 0.000000
O O18 0.191643 0.235284 0.403048
O O19 0.213072 0.000000 0.481655
O O20 0.443981 0.000000 0.822404
O O21 0.111714 0.500000 0.319788
#
# Coordination Sequence:
#
# PCOD8064913 Si02
#       8
#     4   4   4   4   4   4   4   4
#     4  10  20  38  64  93 124 158 201 254 309 368
#     4   9  19  38  66  96 119 152 205 261 311 359
#     4  10  21  39  65  93 121 156 204 259 311 365
#     4  11  23  40  62  86 114 153 202 251 299 355
#     4  10  20  36  60  87 117 157 202 246 293 352
#     4  12  25  40  59  86 125 165 205 252 304 365
#     4  12  24  36  55  87 124 160 194 235 294 361
#     4  10  20  37  62  88 121 161 204 253 303 360
#
# _framework density 20.699511000000001
#
# number of rings (size 3 to 8) (size 9 to 14) (size 15 to 20)
#    0.000    1.500    1.250    4.500    0.000    8.750 
#    0.000    5.625    0.000    1.500    0.000    0.000 
#    0.000    0.000    0.000    0.000    0.000    0.000 
#
# Total GULP energy -396730.196935 kJ/mol
# GULP energy per Si atom -12397.818654 kJ/mol
# Density = 2.065240 g / cm^3
# Si number density = 20.699511 Si / 1000 Ang^3
#
#
#
# Elastic Constant Matrix: (Units=GPa)
#
#
# Indices 1 2 3 4 5 6 
#
# 1 89.5484 24.2773 22.8499 0.0000 -3.9805 0.0000
# 2 24.2773 48.8243 29.1055 0.0000 -4.9252 0.0000
# 3 22.8499 29.1055 102.2978 0.0000 -1.7105 0.0000
# 4 0.0000 0.0000 0.0000 0.0723 0.0000 18.4066
# 5 -3.9805 -4.9252 -1.7105 0.0000 35.2932 0.0000
# 6 0.0000 0.0000 0.0000 18.4066 0.0000 13.9972
#
#
#
# Elastic Compliance Matrix: (Units=1/GPa)
#
#
# Indices 1 2 3 4 5 6 
#
# 1 0.013060 -0.005658 -0.001297 0.000000 0.000620 0.000000
# 2 -0.005658 0.027461 -0.006501 0.000000 0.002879 0.000000
# 3 -0.001297 -0.006501 0.011907 0.000000 -0.000476 0.000000
# 4 0.000000 0.000000 0.000000 -0.041438 0.000000 0.054491
# 5 0.000620 0.002879 -0.000476 0.000000 0.028783 0.000000
# 6 0.000000 0.000000 0.000000 0.054491 0.000000 -0.000214
#
#
# Mechanical properties :
#
#
# Convention : Reuss Voigt Hill
#
# Bulk Modulus (GPa) = 39.19238 43.68177 41.43708
# Shear Modulus (GPa) = 66.68835 20.83506 43.76170
#
# Velocity S-wave (km/s) = 5.68219 3.17606 4.60297
# Velocity P-wave (km/s) = 7.87558 5.88204 6.95065
#
# Compressibility (1/GPa) = 0.02551516
#
# Stress axis : x y z
#
# Youngs Moduli (GPa) = 76.57208 36.41532 83.98571
#
# Poissons Ratio (x) = 0.20604 0.10892
# Poissons Ratio (y) = 0.43325 0.54601
# Poissons Ratio (z) = 0.09931 0.23674
#
# Static dielectric constant tensor:
#      x y z
#    x 3.914370 0.000000 -0.094380 
#    y 0.000000 3.428910 0.000000 
#    z -0.094380 0.000000 4.180090 
# 
# 
# High freq. dielectric constant tensor:
#      x y z
#    x 1.812810 0.000000 -0.003610 
#    y 0.000000 1.778710 0.000000 
#    z -0.003610 0.000000 1.829460 
# 
# From -- ./inp_files/89609.got.cif
#   From: 2010.06.25/outbox.cif.g09.slc.cpg/sg10_45_cif.got.tgz:89609.got - 2010.06.27 22:07:45.
