data_PCOD8064482
_publ_section_title
;
Structure prediction by ZEFSAII (Michael W. Deem and Ramdas Pophale) SiO2 
 PCOD8064482
Probable space group: P 2/M
;
_chemical_formula_sum "Si O2"
_cell_formula_units_Z 32
_cell_length_a 27.950095
_cell_length_b 9.168473
_cell_length_c 10.589958
_cell_angle_alpha 90.000000
_cell_angle_beta 145.770746
_cell_angle_gamma 90.000000
_cell_volume 1526.516076
_symmetry_space_group_name_H-M "P 2/M"
_symmetry_group_IT_number 10
_symmetry_cell_setting 'monoclinic'
loop_
_space_group_symop_operation_xyz
x,y,z
-x,y,-z
-x,-y,-z
x,-y,z
loop_
_atom_site_type_symbol
_atom_site_label
_atom_site_fract_x
_atom_site_fract_y
_atom_site_fract_z
Si Si1 0.607693 0.334021 0.910689
Si Si2 0.528465 0.165845 0.248838
Si Si3 0.358869 0.165636 0.256059
Si Si4 0.773229 0.665444 0.418051
Si Si5 0.778673 0.664593 0.912443
Si Si6 0.047829 0.170083 0.733675
Si Si7 0.053290 0.171660 0.236603
Si Si8 0.333449 0.664831 0.580901
O O1 0.576044 0.500000 0.824890
O O2 0.707722 0.327605 0.159010
O O3 0.556272 0.260808 0.914306
O O4 0.590454 0.245826 0.744976
O O5 0.583039 0.172991 0.494904
O O6 0.582902 0.234401 0.252555
O O7 0.504678 0.000000 0.162107
O O8 0.340216 0.000000 0.174617
O O9 0.268612 0.244857 0.081407
O O10 0.803364 0.500000 0.509224
O O11 0.853533 0.761730 0.559668
O O12 0.726116 0.729169 0.439055
O O13 0.793649 0.500000 0.993622
O O14 0.867244 0.737647 0.072273
O O15 0.720593 0.665176 0.663380
O O16 0.991286 0.217239 0.729983
O O17 0.000000 0.209004 0.500000
O O18 0.071375 0.000000 0.791285
O O19 0.064092 0.000000 0.250298
O O20 0.000000 0.230682 0.000000
O O21 0.362369 0.500000 0.679162
#
# Coordination Sequence:
#
# PCOD8064482 Si02
#       8
#     4   4   4   4   4   4   4   4
#     4  11  23  37  55  83 118 153 191 238 288 341
#     4  10  21  37  58  85 113 149 195 238 285 342
#     4  10  21  37  58  82 114 153 192 236 286 344
#     4  10  23  40  59  85 116 151 191 235 289 345
#     4  10  20  35  59  87 111 144 190 236 284 340
#     4  10  22  38  56  83 118 154 190 235 297 354
#     4  10  22  40  62  87 116 154 200 244 289 349
#     4   9  19  38  60  82 112 149 189 234 285 340
#
# _framework density 20.962766999999999
#
# number of rings (size 3 to 8) (size 9 to 14) (size 15 to 20)
#    0.000    2.000    0.000    2.625    1.750    6.500 
#    0.000    2.500    0.000    0.000    0.000    0.000 
#    0.000    0.000    0.000    0.000    0.000    0.000 
#
# Total GULP energy -396929.357276 kJ/mol
# GULP energy per Si atom -12404.042415 kJ/mol
# Density = 2.091505 g / cm^3
# Si number density = 20.962767 Si / 1000 Ang^3
#
#
#
# Elastic Constant Matrix: (Units=GPa)
#
#
# Indices 1 2 3 4 5 6 
#
# 1 117.3830 44.3649 19.9635 0.0000 13.7993 0.0000
# 2 44.3649 106.7177 25.2227 0.0000 20.6971 0.0000
# 3 19.9635 25.2227 42.9683 0.0000 22.2123 0.0000
# 4 0.0000 0.0000 0.0000 29.9565 0.0000 12.3025
# 5 13.7993 20.6971 22.2123 0.0000 38.3096 0.0000
# 6 0.0000 0.0000 0.0000 12.3025 0.0000 31.9582
#
#
#
# Elastic Compliance Matrix: (Units=1/GPa)
#
#
# Indices 1 2 3 4 5 6 
#
# 1 0.010364 -0.003656 -0.002514 0.000000 -0.000300 0.000000
# 2 -0.003656 0.012435 -0.004011 0.000000 -0.003076 0.000000
# 3 -0.002514 -0.004011 0.035996 0.000000 -0.017799 0.000000
# 4 0.000000 0.000000 0.000000 0.039650 0.000000 -0.015264
# 5 -0.000300 -0.003076 -0.017799 0.000000 0.038193 0.000000
# 6 0.000000 0.000000 0.000000 -0.015264 0.000000 0.037167
#
#
# Mechanical properties :
#
#
# Convention : Reuss Voigt Hill
#
# Bulk Modulus (GPa) = 26.01885 49.57457 37.79671
# Shear Modulus (GPa) = 24.15733 31.87940 28.01836
#
# Velocity S-wave (km/s) = 3.39837 3.90393 3.65989
# Velocity P-wave (km/s) = 5.27612 6.63484 5.99410
#
# Compressibility (1/GPa) = 0.03843368
#
# Stress axis : x y z
#
# Youngs Moduli (GPa) = 96.49009 80.41904 27.78077
#
# Poissons Ratio (x) = 0.29402 0.06983
# Poissons Ratio (y) = 0.35277 0.11142
# Poissons Ratio (z) = 0.24255 0.32254
#
# Static dielectric constant tensor:
#      x y z
#    x 3.948420 0.000000 -0.003600 
#    y 0.000000 3.874600 0.000000 
#    z -0.003600 0.000000 3.624140 
# 
# 
# High freq. dielectric constant tensor:
#      x y z
#    x 1.834390 0.000000 0.000450 
#    y 0.000000 1.820370 0.000000 
#    z 0.000450 0.000000 1.815850 
# 
# From -- ./inp_files/49891.got.cif
#   From: 2010.06.25/outbox.cif.g09.slc.cpg/sg10_25_cif.got.tgz:49891.got - 2010.06.27 22:07:45.
