data_PCOD8064531
_publ_section_title
;
Structure prediction by ZEFSAII (Michael W. Deem and Ramdas Pophale) SiO2 
 PCOD8064531
Probable space group: P 2/M
;
_chemical_formula_sum "Si O2"
_cell_formula_units_Z 32
_cell_length_a 15.171124
_cell_length_b 18.090454
_cell_length_c 12.934199
_cell_angle_alpha 90.000000
_cell_angle_beta 28.525485
_cell_angle_gamma 90.000000
_cell_volume 1695.216832
_symmetry_space_group_name_H-M "P 2/M"
_symmetry_group_IT_number 10
_symmetry_cell_setting 'monoclinic'
loop_
_space_group_symop_operation_xyz
x,y,z
-x,y,-z
-x,-y,-z
x,-y,z
loop_
_atom_site_type_symbol
_atom_site_label
_atom_site_fract_x
_atom_site_fract_y
_atom_site_fract_z
Si Si1 0.712108 0.579685 0.255142
Si Si2 0.743172 0.585017 0.986260
Si Si3 0.288070 0.155749 0.797583
Si Si4 0.956927 0.689273 0.425745
Si Si5 0.392591 0.584461 0.215662
Si Si6 0.807175 0.725380 0.238153
Si Si7 0.335834 0.086212 0.536063
Si Si8 0.075963 0.811837 0.701858
O O1 0.500000 0.575586 0.500000
O O2 0.804241 0.500000 0.180203
O O3 0.804569 0.636992 0.238066
O O4 0.745734 0.605657 0.103874
O O5 0.805630 0.500000 0.901714
O O6 0.876852 0.641788 0.792442
O O7 0.533756 0.595751 0.164421
O O8 0.336713 0.235608 0.693143
O O9 0.243138 0.102510 0.744467
O O10 0.465108 0.126063 0.676356
O O11 0.123344 0.163599 0.049537
O O12 0.771815 0.642199 0.601222
O O13 0.945441 0.771419 0.386629
O O14 0.000000 0.704222 0.500000
O O15 0.315646 0.500000 0.293424
O O16 0.500000 0.601867 0.000000
O O17 0.800967 0.751385 0.362093
O O18 0.000000 0.758042 0.000000
O O19 0.205854 0.115222 0.575383
O O20 0.365361 0.000000 0.490041
#
# Coordination Sequence:
#
# PCOD8064531 Si02
#       8
#     4   4   4   4   4   4   4   4
#     4  10  22  35  50  76 112 158 202 236 277 341
#     4  10  21  38  57  81 113 150 197 251 304 350
#     4   9  18  34  55  88 121 150 183 225 281 341
#     4  12  24  39  59  84 113 152 200 250 301 352
#     4  10  21  38  61  86 110 145 198 263 321 345
#     4   9  18  33  50  72 107 148 188 227 276 332
#     4  10  20  35  61  94 120 152 187 221 280 350
#     4  10  23  36  54  86 117 153 189 232 288 344
#
# _framework density 18.876640999999999
#
# number of rings (size 3 to 8) (size 9 to 14) (size 15 to 20)
#    0.000    2.000    1.250    3.750    5.250    3.250 
#    0.000    0.625    0.000    0.375    0.000    0.875 
#    0.000    0.000    0.000    0.000    0.000    0.000 
#
# Total GULP energy -396455.676474 kJ/mol
# GULP energy per Si atom -12389.239890 kJ/mol
# Density = 1.883368 g / cm^3
# Si number density = 18.876641 Si / 1000 Ang^3
#
#
#
# Elastic Constant Matrix: (Units=GPa)
#
#
# Indices 1 2 3 4 5 6 
#
# 1 64.4053 49.3360 38.0005 0.0000 -4.5516 0.0000
# 2 49.3360 112.4478 46.4082 0.0000 -3.1071 0.0000
# 3 38.0005 46.4082 89.1503 0.0000 -6.0211 0.0000
# 4 0.0000 0.0000 0.0000 14.2752 0.0000 -2.1120
# 5 -4.5516 -3.1071 -6.0211 0.0000 21.9557 0.0000
# 6 0.0000 0.0000 0.0000 -2.1120 0.0000 30.6150
#
#
#
# Elastic Compliance Matrix: (Units=1/GPa)
#
#
# Indices 1 2 3 4 5 6 
#
# 1 0.026226 -0.008780 -0.006445 0.000000 0.002427 0.000000
# 2 -0.008780 0.014266 -0.003740 0.000000 -0.000827 0.000000
# 3 -0.006445 -0.003740 0.016083 0.000000 0.002545 0.000000
# 4 0.000000 0.000000 0.000000 0.070774 0.000000 0.004882
# 5 0.002427 -0.000827 0.002545 0.000000 0.046630 0.000000
# 6 0.000000 0.000000 0.000000 0.004882 0.000000 0.033001
#
#
# Mechanical properties :
#
#
# Convention : Reuss Voigt Hill
#
# Bulk Modulus (GPa) = 53.62951 59.27700 56.45325
# Shear Modulus (GPa) = 19.91056 22.18641 21.04848
#
# Velocity S-wave (km/s) = 3.25125 3.43204 3.34287
# Velocity P-wave (km/s) = 6.52429 6.86845 6.69858
#
# Compressibility (1/GPa) = 0.01864645
#
# Stress axis : x y z
#
# Youngs Moduli (GPa) = 38.12976 70.09849 62.17895
#
# Poissons Ratio (x) = 0.61545 0.40072
# Poissons Ratio (y) = 0.33477 0.23252
# Poissons Ratio (z) = 0.24573 0.26214
#
# Static dielectric constant tensor:
#      x y z
#    x 3.397210 0.000000 -0.161190 
#    y 0.000000 3.516670 0.000000 
#    z -0.161190 0.000000 3.426440 
# 
# 
# High freq. dielectric constant tensor:
#      x y z
#    x 1.718100 0.000000 -0.021590 
#    y 0.000000 1.723400 0.000000 
#    z -0.021590 0.000000 1.725880 
# 
# From -- ./inp_files/51927.got.cif
#   From: 2010.06.25/outbox.cif.g09.slc.cpg/sg10_26_cif.got.tgz:51927.got - 2010.06.27 22:07:45.
