data_PCOD8064081
_publ_section_title
;
Structure prediction by ZEFSAII (Michael W. Deem and Ramdas Pophale) SiO2 
 PCOD8064081
Probable space group: P 2/M
;
_chemical_formula_sum "Si O2"
_cell_formula_units_Z 18
_cell_length_a 12.374200
_cell_length_b 7.975360
_cell_length_c 8.494175
_cell_angle_alpha 90.000000
_cell_angle_beta 84.583171
_cell_angle_gamma 90.000000
_cell_volume 834.535566
_symmetry_space_group_name_H-M "P 2/M"
_symmetry_group_IT_number 10
_symmetry_cell_setting 'monoclinic'
loop_
_space_group_symop_operation_xyz
x,y,z
-x,y,-z
-x,-y,-z
x,-y,z
loop_
_atom_site_type_symbol
_atom_site_label
_atom_site_fract_x
_atom_site_fract_y
_atom_site_fract_z
Si Si1 0.376891 0.808990 0.466097
Si Si2 0.039837 0.178486 0.174486
Si Si3 0.058927 0.500000 0.818554
Si Si4 0.382674 0.500000 0.949835
Si Si5 0.708487 0.500000 0.345470
Si Si6 0.705975 0.186180 0.866931
O O1 0.500000 0.770145 0.500000
O O2 0.296282 0.670475 0.552213
O O3 0.364183 0.788682 0.281023
O O4 0.344561 0.000000 0.521450
O O5 0.166943 0.203944 0.180542
O O6 0.981043 0.333811 0.268860
O O7 0.005916 0.000000 0.256298
O O8 0.000000 0.177442 0.000000
O O9 0.188831 0.500000 0.789438
O O10 0.000000 0.500000 0.000000
O O11 0.393041 0.500000 0.759699
O O12 0.500000 0.500000 0.000000
O O13 0.323117 0.329161 0.006333
O O14 0.680958 0.000000 0.940293
#
# Coordination Sequence:
#
# PCOD8064081 Si02
#       6
#     4   4   2   2   2   4
#     4  10  22  42  64  86 119 161 202 246 297 356
#     4   9  17  32  55  79 105 142 188 236 283 334
#     4  10  20  35  54  80 116 153 189 233 290 349
#     4  12  23  34  56  90 123 151 190 249 306 359
#     4  12  24  37  61  92 122 158 200 248 299 358
#     4  10  21  39  62  84 113 157 202 244 295 355
#
# _framework density 21.568883
#
# number of rings (size 3 to 8) (size 9 to 14) (size 15 to 20)
#    0.000    1.778    0.000    5.667    0.000    2.222 
#    0.000    2.222    0.000    4.000    0.000    0.000 
#    0.000    0.000    0.000    0.000    0.000    0.000 
#
# Total GULP energy -222992.643010 kJ/mol
# GULP energy per Si atom -12388.480167 kJ/mol
# Density = 2.151979 g / cm^3
# Si number density = 21.568883 Si / 1000 Ang^3
#
#
#
# Elastic Constant Matrix: (Units=GPa)
#
#
# Indices 1 2 3 4 5 6 
#
# 1 69.1303 27.5422 -4.0403 0.0000 9.7048 0.0000
# 2 27.5422 215.2824 30.1944 0.0000 -15.9609 0.0000
# 3 -4.0403 30.1944 40.1792 0.0000 1.9503 0.0000
# 4 0.0000 0.0000 0.0000 6.7214 0.0000 7.5777
# 5 9.7048 -15.9609 1.9503 0.0000 34.1990 0.0000
# 6 0.0000 0.0000 0.0000 7.5777 0.0000 31.0392
#
#
#
# Elastic Compliance Matrix: (Units=1/GPa)
#
#
# Indices 1 2 3 4 5 6 
#
# 1 0.016968 -0.003292 0.004501 0.000000 -0.006608 0.000000
# 2 -0.003292 0.006083 -0.005099 0.000000 0.004064 0.000000
# 3 0.004501 -0.005099 0.029432 0.000000 -0.005336 0.000000
# 4 0.000000 0.000000 0.000000 0.205279 0.000000 -0.050116
# 5 -0.006608 0.004064 -0.005336 0.000000 0.033317 0.000000
# 6 0.000000 0.000000 0.000000 -0.050116 0.000000 0.044452
#
#
# Mechanical properties :
#
#
# Convention : Reuss Voigt Hill
#
# Bulk Modulus (GPa) = 22.37054 47.99828 35.18441
# Shear Modulus (GPa) = 13.95819 32.45162 23.20491
#
# Velocity S-wave (km/s) = 2.54666 3.88307 3.28358
# Velocity P-wave (km/s) = 4.36366 6.51200 5.54291
#
# Compressibility (1/GPa) = 0.04470165
#
# Stress axis : x y z
#
# Youngs Moduli (GPa) = 58.93550 164.40001 33.97633
#
# Poissons Ratio (x) = 0.54120 -0.15292
# Poissons Ratio (y) = 0.19401 0.17326
# Poissons Ratio (z) = -0.26526 0.83834
#
# Static dielectric constant tensor:
#      x y z
#    x 3.796960 0.000000 0.465060 
#    y 0.000000 5.027600 0.000000 
#    z 0.465060 0.000000 3.002500 
# 
# 
# High freq. dielectric constant tensor:
#      x y z
#    x 1.852620 0.000000 0.026670 
#    y 0.000000 1.888860 0.000000 
#    z 0.026670 0.000000 1.793750 
# 
# From -- ./inp_files/22215.got.cif
#   From: 2010.06.25/outbox.cif.g09.slc.cpg/sg10_12_cif.got.tgz:22215.got - 2010.06.27 22:07:45.
