data_PCOD8064060
_publ_section_title
;
Structure prediction by ZEFSAII (Michael W. Deem and Ramdas Pophale) SiO2 
 PCOD8064060
Probable space group: P 2/M
;
_chemical_formula_sum "Si O2"
_cell_formula_units_Z 32
_cell_length_a 9.834578
_cell_length_b 13.178618
_cell_length_c 28.573333
_cell_angle_alpha 90.000000
_cell_angle_beta 151.408317
_cell_angle_gamma 90.000000
_cell_volume 1772.257795
_symmetry_space_group_name_H-M "P 2/M"
_symmetry_group_IT_number 10
_symmetry_cell_setting 'monoclinic'
loop_
_space_group_symop_operation_xyz
x,y,z
-x,y,-z
-x,-y,-z
x,-y,z
loop_
_atom_site_type_symbol
_atom_site_label
_atom_site_fract_x
_atom_site_fract_y
_atom_site_fract_z
Si Si1 0.854612 0.693770 0.313622
Si Si2 0.156153 0.617838 0.001697
Si Si3 0.791825 0.619318 0.192467
Si Si4 0.708609 0.885089 0.433787
Si Si5 0.651237 0.382958 0.785181
Si Si6 0.198185 0.113393 0.428718
Si Si7 0.321710 0.294608 0.307560
Si Si8 0.382925 0.615702 0.513383
O O1 0.887108 0.634525 0.274680
O O2 0.537853 0.687580 0.238119
O O3 0.950448 0.810965 0.336526
O O4 0.046539 0.635556 0.410159
O O5 0.201893 0.500000 0.026606
O O6 0.975093 0.636410 0.899876
O O7 0.472055 0.662312 0.089238
O O8 0.000000 0.666826 0.000000
O O9 0.826040 0.500000 0.189465
O O10 0.988898 0.689510 0.218689
O O11 0.761619 0.880626 0.504340
O O12 0.428727 0.821323 0.333324
O O13 0.000000 0.841002 0.500000
O O14 0.652365 0.000000 0.399393
O O15 0.567382 0.500000 0.767959
O O16 0.611002 0.355869 0.719098
O O17 0.500000 0.147395 0.500000
O O18 0.113720 0.000000 0.386529
O O19 0.502461 0.334158 0.405518
O O20 0.500000 0.664267 0.500000
O O21 0.471760 0.500000 0.543158
#
# Coordination Sequence:
#
# PCOD8064060 Si02
#       8
#     4   4   4   4   4   4   4   4
#     4  12  20  33  54  78 105 148 186 217 265 328
#     4   9  18  36  58  79 104 144 189 228 265 316
#     4  11  21  35  57  80 110 149 188 222 265 332
#     4  10  21  39  57  73 103 149 190 225 265 320
#     4  11  23  36  53  81 114 141 181 230 271 319
#     4  10  20  35  54  77 104 138 185 237 271 304
#     4  12  23  35  53  83 114 142 181 230 277 314
#     4  11  21  32  48  73 114 156 183 203 253 334
#
# _framework density 18.056063999999999
#
# number of rings (size 3 to 8) (size 9 to 14) (size 15 to 20)
#    0.000    1.250    3.750    4.125    0.000    0.500 
#    0.000    3.125    0.000    0.000    0.000    5.250 
#    0.000    0.000    0.000    0.000    0.000    0.000 
#
# Total GULP energy -396696.543846 kJ/mol
# GULP energy per Si atom -12396.766995 kJ/mol
# Density = 1.801497 g / cm^3
# Si number density = 18.056064 Si / 1000 Ang^3
#
#
#
# Elastic Constant Matrix: (Units=GPa)
#
#
# Indices 1 2 3 4 5 6 
#
# 1 98.3312 33.8511 26.7501 0.0000 15.0565 0.0000
# 2 33.8511 92.6144 46.9384 0.0000 14.6263 0.0000
# 3 26.7501 46.9384 83.8007 0.0000 15.5044 0.0000
# 4 0.0000 0.0000 0.0000 14.3389 0.0000 6.3373
# 5 15.0565 14.6263 15.5044 0.0000 38.3263 0.0000
# 6 0.0000 0.0000 0.0000 6.3373 0.0000 22.2711
#
#
#
# Elastic Compliance Matrix: (Units=1/GPa)
#
#
# Indices 1 2 3 4 5 6 
#
# 1 0.012136 -0.003191 -0.001546 0.000000 -0.002925 0.000000
# 2 -0.003191 0.016146 -0.007693 0.000000 -0.001796 0.000000
# 3 -0.001546 -0.007693 0.017381 0.000000 -0.003488 0.000000
# 4 0.000000 0.000000 0.000000 0.079773 0.000000 -0.022700
# 5 -0.002925 -0.001796 -0.003488 0.000000 0.029337 0.000000
# 6 0.000000 0.000000 0.000000 -0.022700 0.000000 0.051360
#
#
# Mechanical properties :
#
#
# Convention : Reuss Voigt Hill
#
# Bulk Modulus (GPa) = 48.06605 54.42508 51.24556
# Shear Modulus (GPa) = 21.01473 26.13436 23.57455
#
# Velocity S-wave (km/s) = 3.41524 3.80860 3.61727
# Velocity P-wave (km/s) = 6.49847 7.03905 6.77415
#
# Compressibility (1/GPa) = 0.02080471
#
# Stress axis : x y z
#
# Youngs Moduli (GPa) = 82.39628 61.93382 57.53443
#
# Poissons Ratio (x) = 0.19760 0.08894
# Poissons Ratio (y) = 0.26289 0.44261
# Poissons Ratio (z) = 0.12737 0.47646
#
# Static dielectric constant tensor:
#      x y z
#    x 3.481750 0.000000 0.201760 
#    y 0.000000 3.444430 0.000000 
#    z 0.201760 0.000000 3.397360 
# 
# 
# High freq. dielectric constant tensor:
#      x y z
#    x 1.710840 0.000000 0.007910 
#    y 0.000000 1.673840 0.000000 
#    z 0.007910 0.000000 1.686550 
# 
# From -- ./inp_files/92386.got.cif
#   From: 2010.06.25/outbox.cif.g09.slc.cpg/sg10_47_cif.got.tgz:92386.got - 2010.06.27 22:07:45.
