data_PCOD8064679
_publ_section_title
;
Structure prediction by ZEFSAII (Michael W. Deem and Ramdas Pophale) SiO2 
 PCOD8064679
Probable space group: P 2/M
;
_chemical_formula_sum "Si O2"
_cell_formula_units_Z 28
_cell_length_a 28.078191
_cell_length_b 8.885359
_cell_length_c 7.971075
_cell_angle_alpha 90.000000
_cell_angle_beta 134.741435
_cell_angle_gamma 90.000000
_cell_volume 1412.528020
_symmetry_space_group_name_H-M "P 2/M"
_symmetry_group_IT_number 10
_symmetry_cell_setting 'monoclinic'
loop_
_space_group_symop_operation_xyz
x,y,z
-x,y,-z
-x,-y,-z
x,-y,z
loop_
_atom_site_type_symbol
_atom_site_label
_atom_site_fract_x
_atom_site_fract_y
_atom_site_fract_z
Si Si1 0.831174 0.321410 0.787675
Si Si2 0.304283 0.166650 0.562830
Si Si3 0.924884 0.321078 0.325061
Si Si4 0.568111 0.176466 0.596464
Si Si5 0.294511 0.165651 0.927531
Si Si6 0.428553 0.671271 0.737580
Si Si7 0.838922 0.677420 0.423070
O O1 0.821511 0.500000 0.766183
O O2 0.761417 0.247114 0.675542
O O3 0.852623 0.268970 0.650494
O O4 0.885676 0.267345 0.060020
O O5 0.291762 0.144508 0.724925
O O6 0.368852 0.273819 0.708478
O O7 0.314509 0.000000 0.505823
O O8 0.925554 0.500000 0.329733
O O9 0.893489 0.261322 0.423755
O O10 0.000000 0.255703 0.500000
O O11 0.500000 0.251884 0.500000
O O12 0.571556 0.210543 0.411185
O O13 0.566346 0.000000 0.629156
O O14 0.635338 0.244924 0.846645
O O15 0.232412 0.268562 0.827294
O O16 0.288189 0.000000 0.997323
O O17 0.415282 0.500000 0.646292
O O18 0.500000 0.684855 0.000000
O O19 0.838178 0.500000 0.418347
#
# Coordination Sequence:
#
# PCOD8064679 Si02
#       7
#     4   4   4   4   4   4   4
#     4   9  18  33  53  79 111 142 180 229 276 329
#     4  10  20  36  58  80 105 140 180 224 274 328
#     4   9  18  32  52  80 111 143 183 229 276 330
#     4  10  21  37  56  78 105 140 183 226 271 325
#     4   9  19  35  55  79 105 136 176 225 274 324
#     4  11  24  38  53  77 109 143 180 224 274 325
#     4   9  18  32  52  78 107 143 181 223 277 327
#
# _framework density 19.822614999999999
#
# number of rings (size 3 to 8) (size 9 to 14) (size 15 to 20)
#    0.000    2.429    0.000    1.714    2.000    4.286 
#    0.000    2.857    0.000    1.714    0.000    4.000 
#    0.000    0.000    0.000    0.000    0.000    0.000 
#
# Total GULP energy -346994.092883 kJ/mol
# GULP energy per Si atom -12392.646174 kJ/mol
# Density = 1.977750 g / cm^3
# Si number density = 19.822615 Si / 1000 Ang^3
#
#
#
# Elastic Constant Matrix: (Units=GPa)
#
#
# Indices 1 2 3 4 5 6 
#
# 1 112.6152 25.2011 62.1873 0.0000 23.5947 0.0000
# 2 25.2011 21.9361 31.0275 0.0000 5.5885 0.0000
# 3 62.1873 31.0275 142.9128 0.0000 20.6903 0.0000
# 4 0.0000 0.0000 0.0000 17.6798 0.0000 -0.1479
# 5 23.5947 5.5885 20.6903 0.0000 34.4080 0.0000
# 6 0.0000 0.0000 0.0000 -0.1479 0.0000 17.3338
#
#
#
# Elastic Compliance Matrix: (Units=1/GPa)
#
#
# Indices 1 2 3 4 5 6 
#
# 1 0.014181 -0.010467 -0.002998 0.000000 -0.006222 0.000000
# 2 -0.010467 0.073682 -0.011774 0.000000 0.002290 0.000000
# 3 -0.002998 -0.011774 0.011264 0.000000 -0.002806 0.000000
# 4 0.000000 0.000000 0.000000 0.056566 0.000000 0.000483
# 5 -0.006222 0.002290 -0.002806 0.000000 0.034645 0.000000
# 6 0.000000 0.000000 0.000000 0.000483 0.000000 0.057695
#
#
# Mechanical properties :
#
#
# Convention : Reuss Voigt Hill
#
# Bulk Modulus (GPa) = 20.55486 57.14400 38.84943
# Shear Modulus (GPa) = 15.88688 24.48753 20.18721
#
# Velocity S-wave (km/s) = 2.83406 3.51854 3.19469
# Velocity P-wave (km/s) = 4.59360 6.73774 5.76621
#
# Compressibility (1/GPa) = 0.04865031
#
# Stress axis : x y z
#
# Youngs Moduli (GPa) = 70.51754 13.57189 88.77831
#
# Poissons Ratio (x) = 0.14205 0.26611
# Poissons Ratio (y) = 0.73808 1.04527
# Poissons Ratio (z) = 0.21138 0.15979
#
# Static dielectric constant tensor:
#      x y z
#    x 3.649600 0.000000 -0.152750 
#    y 0.000000 3.608380 0.000000 
#    z -0.152750 0.000000 3.197100 
# 
# 
# High freq. dielectric constant tensor:
#      x y z
#    x 1.775220 0.000000 0.003650 
#    y 0.000000 1.745690 0.000000 
#    z 0.003650 0.000000 1.776380 
# 
# From -- ./inp_files/37277.got.cif
#   From: 2010.06.25/outbox.cif.g09.slc.cpg/sg10_19_cif.got.tgz:37277.got - 2010.06.27 22:07:45.
