data_PCOD8064851
_publ_section_title
;
Structure prediction by ZEFSAII (Michael W. Deem and Ramdas Pophale) SiO2 
 PCOD8064851
Probable space group: P 2/M
;
_chemical_formula_sum "Si O2"
_cell_formula_units_Z 24
_cell_length_a 17.967910
_cell_length_b 8.663740
_cell_length_c 15.190475
_cell_angle_alpha 90.000000
_cell_angle_beta 29.549774
_cell_angle_gamma 90.000000
_cell_volume 1166.216866
_symmetry_space_group_name_H-M "P 2/M"
_symmetry_group_IT_number 10
_symmetry_cell_setting 'monoclinic'
loop_
_space_group_symop_operation_xyz
x,y,z
-x,y,-z
-x,-y,-z
x,-y,z
loop_
_atom_site_type_symbol
_atom_site_label
_atom_site_fract_x
_atom_site_fract_y
_atom_site_fract_z
Si Si1 0.849400 0.679143 0.964828
Si Si2 0.312778 0.821290 0.023075
Si Si3 0.839414 0.178242 0.307696
Si Si4 0.321049 0.329736 0.189420
Si Si5 0.365225 0.681461 0.336055
Si Si6 0.331067 0.179261 0.695607
O O1 0.839206 0.500000 0.952674
O O2 0.014496 0.717372 0.830692
O O3 0.821508 0.775627 0.904479
O O4 0.724004 0.720712 0.165855
O O5 0.458417 0.721545 0.847435
O O6 0.352840 0.000000 0.973762
O O7 0.258070 0.785307 0.179468
O O8 0.711640 0.219317 0.509315
O O9 0.776258 0.212636 0.276194
O O10 0.884608 0.000000 0.271266
O O11 0.252622 0.500000 0.242659
O O12 0.283054 0.274296 0.327913
O O13 0.500000 0.338077 0.000000
O O14 0.348280 0.500000 0.372517
O O15 0.500000 0.232740 0.500000
O O16 0.327503 0.000000 0.726399
#
# Coordination Sequence:
#
# PCOD8064851 Si02
#       6
#     4   4   4   4   4   4
#     4  12  25  40  59  83 116 155 194 238 288 343
#     4  11  21  35  58  86 116 151 195 243 288 339
#     4  11  23  39  60  86 119 155 191 234 284 341
#     4   8  16  32  54  82 116 151 188 235 288 337
#     4  10  20  36  59  87 119 153 192 237 285 340
#     4  10  22  41  64  89 116 147 186 234 287 341
#
# _framework density 20.579362
#
# number of rings (size 3 to 8) (size 9 to 14) (size 15 to 20)
#    0.000    1.667    0.000    6.500    0.000    8.667 
#    0.000    0.833    0.000    5.000    0.000    0.000 
#    0.000    0.000    0.000    0.000    0.000    0.000 
#
# Total GULP energy -297667.323182 kJ/mol
# GULP energy per Si atom -12402.805133 kJ/mol
# Density = 2.053252 g / cm^3
# Si number density = 20.579362 Si / 1000 Ang^3
#
#
#
# Elastic Constant Matrix: (Units=GPa)
#
#
# Indices 1 2 3 4 5 6 
#
# 1 97.1715 41.9348 -0.0681 0.0000 1.0724 0.0000
# 2 41.9348 79.2104 9.8051 0.0000 8.8933 0.0000
# 3 -0.0681 9.8051 14.4703 0.0000 -8.2119 0.0000
# 4 0.0000 0.0000 0.0000 28.5349 0.0000 3.5064
# 5 1.0724 8.8933 -8.2119 0.0000 31.1885 0.0000
# 6 0.0000 0.0000 0.0000 3.5064 0.0000 32.7724
#
#
#
# Elastic Compliance Matrix: (Units=1/GPa)
#
#
# Indices 1 2 3 4 5 6 
#
# 1 0.014162 -0.009068 0.008702 0.000000 0.004390 0.000000
# 2 -0.009068 0.021265 -0.020828 0.000000 -0.011236 0.000000
# 3 0.008702 -0.020828 0.101651 0.000000 0.032405 0.000000
# 4 0.000000 0.000000 0.000000 0.035512 0.000000 -0.003799
# 5 0.004390 -0.011236 0.032405 0.000000 0.043648 0.000000
# 6 0.000000 0.000000 0.000000 -0.003799 0.000000 0.030920
#
#
# Mechanical properties :
#
#
# Convention : Reuss Voigt Hill
#
# Bulk Modulus (GPa) = 10.56073 32.68843 21.62458
# Shear Modulus (GPa) = 15.57109 27.77785 21.67447
#
# Velocity S-wave (km/s) = 2.75369 3.67794 3.24885
# Velocity P-wave (km/s) = 3.90554 5.82708 4.96025
#
# Compressibility (1/GPa) = 0.09469045
#
# Stress axis : x y z
#
# Youngs Moduli (GPa) = 70.61217 47.02614 9.83759
#
# Poissons Ratio (x) = 0.42641 -0.08561
# Poissons Ratio (y) = 0.64028 0.20490
# Poissons Ratio (z) = -0.61448 0.97947
#
# Static dielectric constant tensor:
#      x y z
#    x 4.014580 0.000000 0.267320 
#    y 0.000000 3.656160 0.000000 
#    z 0.267320 0.000000 3.574880 
# 
# 
# High freq. dielectric constant tensor:
#      x y z
#    x 1.819230 0.000000 0.015020 
#    y 0.000000 1.804140 0.000000 
#    z 0.015020 0.000000 1.785820 
# 
# From -- ./inp_files/27038.got.cif
#   From: 2010.06.25/outbox.cif.g09.slc.cpg/sg10_14_cif.got.tgz:27038.got - 2010.06.27 22:07:45.
