data_PCOD8065596
_publ_section_title
;
Structure prediction by ZEFSAII (Michael W. Deem and Ramdas Pophale) SiO2 
 PCOD8065596
Probable space group: P 2/M
;
_chemical_formula_sum "Si O2"
_cell_formula_units_Z 24
_cell_length_a 7.379054
_cell_length_b 17.711028
_cell_length_c 10.160818
_cell_angle_alpha 90.000000
_cell_angle_beta 69.357761
_cell_angle_gamma 90.000000
_cell_volume 1242.670891
_symmetry_space_group_name_H-M "P 2/M"
_symmetry_group_IT_number 10
_symmetry_cell_setting 'monoclinic'
loop_
_space_group_symop_operation_xyz
x,y,z
-x,y,-z
-x,-y,-z
x,-y,z
loop_
_atom_site_type_symbol
_atom_site_label
_atom_site_fract_x
_atom_site_fract_y
_atom_site_fract_z
Si Si1 0.512838 0.673286 0.844365
Si Si2 0.646623 0.087202 0.350647
Si Si3 0.146622 0.587202 0.850647
Si Si4 0.557836 0.151903 0.840216
Si Si5 0.942164 0.651902 0.659784
Si Si6 0.987162 0.826714 0.655635
O O1 0.342961 0.634553 0.806091
O O2 0.491308 0.762611 0.830569
O O3 0.712531 0.643078 0.733764
O O4 0.500000 0.650145 0.000000
O O5 0.500000 0.117405 0.500000
O O6 0.550271 0.097550 0.233463
O O7 0.842960 0.134553 0.306091
O O8 0.696598 0.000000 0.361545
O O9 0.196596 0.500000 0.861549
O O10 0.050271 0.597550 0.733463
O O11 0.000000 0.617406 0.000000
O O12 0.787469 0.143078 0.766236
O O13 0.500000 0.124927 0.000000
O O14 0.000000 0.624927 0.500000
O O15 0.008693 0.737389 0.669430
O O16 0.000000 0.849855 0.500000
#
# Coordination Sequence:
#
# PCOD8065596 Si02
#       6
#     4   4   4   4   4   4
#     4  10  20  39  63  86 116 156 199 239 288 345
#     4  11  23  38  60  89 121 157 194 236 291 356
#     4  11  23  38  60  89 121 157 194 236 291 356
#     4  10  22  39  61  88 117 152 197 248 288 335
#     4  10  22  39  61  88 117 152 197 248 288 335
#     4  10  20  39  63  86 116 156 199 239 288 345
#
# _framework density 19.313238999999999
#
# number of rings (size 3 to 8) (size 9 to 14) (size 15 to 20)
#    0.000    1.667    3.333    1.000    0.000    4.000 
#    0.000    1.667    0.000    0.000    0.000    0.000 
#    0.000    0.000    0.000    0.000    0.000    0.000 
#
# Total GULP energy -297780.466359 kJ/mol
# GULP energy per Si atom -12407.519432 kJ/mol
# Density = 1.926928 g / cm^3
# Si number density = 19.313239 Si / 1000 Ang^3
#
#
#
# Elastic Constant Matrix: (Units=GPa)
#
#
# Indices 1 2 3 4 5 6 
#
# 1 120.5041 43.1158 59.2261 0.0000 -9.1764 0.0000
# 2 43.1158 49.1330 25.4355 0.0000 -11.7391 0.0000
# 3 59.2261 25.4355 154.7371 0.0000 -7.0633 0.0000
# 4 0.0000 0.0000 0.0000 9.9297 0.0000 4.6880
# 5 -9.1764 -11.7391 -7.0633 0.0000 32.1834 0.0000
# 6 0.0000 0.0000 0.0000 4.6880 0.0000 16.6272
#
#
#
# Elastic Compliance Matrix: (Units=1/GPa)
#
#
# Indices 1 2 3 4 5 6 
#
# 1 0.013702 -0.010326 -0.003576 0.000000 -0.000645 0.000000
# 2 -0.010326 0.031914 -0.000906 0.000000 0.008498 0.000000
# 3 -0.003576 -0.000906 0.007999 0.000000 0.000405 0.000000
# 4 0.000000 0.000000 0.000000 0.116173 0.000000 -0.032755
# 5 -0.000645 0.008498 0.000405 0.000000 0.034077 0.000000
# 6 0.000000 0.000000 0.000000 -0.032755 0.000000 0.069378
#
#
# Mechanical properties :
#
#
# Convention : Reuss Voigt Hill
#
# Bulk Modulus (GPa) = 41.67070 64.43655 53.05362
# Shear Modulus (GPa) = 16.08452 24.85449 20.46951
#
# Velocity S-wave (km/s) = 2.88900 3.59125 3.25909
# Velocity P-wave (km/s) = 5.72289 7.11565 6.45693
#
# Compressibility (1/GPa) = 0.02399768
#
# Stress axis : x y z
#
# Youngs Moduli (GPa) = 72.98265 31.33435 125.01826
#
# Poissons Ratio (x) = 0.32357 0.44712
# Poissons Ratio (y) = 0.75365 0.11321
# Poissons Ratio (z) = 0.26102 0.02838
#
# Static dielectric constant tensor:
#      x y z
#    x 3.407430 0.000000 -0.092340 
#    y 0.000000 3.308260 0.000000 
#    z -0.092340 0.000000 3.657750 
# 
# 
# High freq. dielectric constant tensor:
#      x y z
#    x 1.757410 0.000000 -0.004850 
#    y 0.000000 1.739070 0.000000 
#    z -0.004850 0.000000 1.759880 
# 
# From -- ./inp_files/39556.got.cif
#   From: 2010.06.25/outbox.cif.g09.slc.cpg/sg10_20_cif.got.tgz:39556.got - 2010.06.27 22:07:45.
