data_PCOD8065942
_publ_section_title
;
Structure prediction by ZEFSAII (Michael W. Deem and Ramdas Pophale) SiO2 
 PCOD8065942
Probable space group: P 2/M
;
_chemical_formula_sum "Si O2"
_cell_formula_units_Z 32
_cell_length_a 23.751462
_cell_length_b 9.193724
_cell_length_c 15.751970
_cell_angle_alpha 90.000000
_cell_angle_beta 151.917754
_cell_angle_gamma 90.000000
_cell_volume 1619.184809
_symmetry_space_group_name_H-M "P 2/M"
_symmetry_group_IT_number 10
_symmetry_cell_setting 'monoclinic'
loop_
_space_group_symop_operation_xyz
x,y,z
-x,y,-z
-x,-y,-z
x,-y,z
loop_
_atom_site_type_symbol
_atom_site_label
_atom_site_fract_x
_atom_site_fract_y
_atom_site_fract_z
Si Si1 0.414420 0.167975 0.766267
Si Si2 0.192610 0.165715 0.935085
Si Si3 0.999109 0.168752 0.178110
Si Si4 0.780591 0.666282 0.576145
Si Si5 0.325345 0.831704 0.834369
Si Si6 0.360734 0.167194 0.309457
Si Si7 0.821290 0.332904 0.826917
Si Si8 0.862662 0.327957 0.306747
O O1 0.351567 0.267017 0.611592
O O2 0.355794 0.208467 0.778438
O O3 0.391626 0.000000 0.714655
O O4 0.555775 0.201097 0.952199
O O5 0.074063 0.192364 0.832911
O O6 0.191199 0.271055 0.853166
O O7 0.197930 0.000000 0.909311
O O8 0.309331 0.202328 0.147322
O O9 0.127417 0.244362 0.360654
O O10 0.016576 0.000000 0.180523
O O11 0.932076 0.242330 0.009978
O O12 0.780243 0.500000 0.546222
O O13 0.820683 0.683322 0.725826
O O14 0.214768 0.735596 0.718897
O O15 0.289232 0.000000 0.794638
O O16 0.500000 0.198296 0.500000
O O17 0.302354 0.271209 0.301271
O O18 0.328987 0.000000 0.289554
O O19 0.836328 0.500000 0.874792
O O20 0.851734 0.500000 0.293699
O O21 0.000000 0.277200 0.500000
#
# Coordination Sequence:
#
# PCOD8065942 Si02
#       8
#     4   4   4   4   4   4   4   4
#     4   9  20  39  62  87 111 145 193 239 287 340
#     4   9  20  38  58  83 111 146 191 236 288 340
#     4  10  21  37  58  82 110 147 192 236 280 332
#     4  11  23  35  53  84 118 150 185 226 279 341
#     4   9  20  41  64  84 112 147 189 242 291 338
#     4   9  19  37  60  84 111 146 190 237 283 337
#     4  10  21  36  52  78 115 151 186 226 279 338
#     4  11  25  40  57  86 120 154 194 238 290 351
#
# _framework density 19.763031000000002
#
# number of rings (size 3 to 8) (size 9 to 14) (size 15 to 20)
#    0.000    2.250    0.000    3.375    1.750    9.250 
#    0.000    5.000    0.000    0.000    0.000    0.000 
#    0.000    0.000    0.000    0.000    0.000    0.000 
#
# Total GULP energy -396883.796269 kJ/mol
# GULP energy per Si atom -12402.618633 kJ/mol
# Density = 1.971805 g / cm^3
# Si number density = 19.763031 Si / 1000 Ang^3
#
#
#
# Elastic Constant Matrix: (Units=GPa)
#
#
# Indices 1 2 3 4 5 6 
#
# 1 63.5272 37.1079 21.2760 0.0000 13.3271 0.0000
# 2 37.1079 99.3590 35.9895 0.0000 8.5365 0.0000
# 3 21.2760 35.9895 72.7257 0.0000 17.3174 0.0000
# 4 0.0000 0.0000 0.0000 19.7228 0.0000 -4.1381
# 5 13.3271 8.5365 17.3174 0.0000 24.7025 0.0000
# 6 0.0000 0.0000 0.0000 -4.1381 0.0000 22.5000
#
#
#
# Elastic Compliance Matrix: (Units=1/GPa)
#
#
# Indices 1 2 3 4 5 6 
#
# 1 0.022068 -0.007196 -0.000783 0.000000 -0.008870 0.000000
# 2 -0.007196 0.014609 -0.005818 0.000000 0.002912 0.000000
# 3 -0.000783 -0.005818 0.019541 0.000000 -0.011266 0.000000
# 4 0.000000 0.000000 0.000000 0.052738 0.000000 0.009699
# 5 -0.008870 0.002912 -0.011266 0.000000 0.052159 0.000000
# 6 0.000000 0.000000 0.000000 0.009699 0.000000 0.046228
#
#
# Mechanical properties :
#
#
# Convention : Reuss Voigt Hill
#
# Bulk Modulus (GPa) = 34.93491 47.15098 41.04294
# Shear Modulus (GPa) = 20.45177 22.80095 21.62636
#
# Velocity S-wave (km/s) = 3.22040 3.40033 3.31158
# Velocity P-wave (km/s) = 5.61634 6.27107 5.95271
#
# Compressibility (1/GPa) = 0.02862467
#
# Stress axis : x y z
#
# Youngs Moduli (GPa) = 45.31510 68.45022 51.17437
#
# Poissons Ratio (x) = 0.49258 0.04005
# Poissons Ratio (y) = 0.32609 0.29772
# Poissons Ratio (z) = 0.03547 0.39823
#
# Static dielectric constant tensor:
#      x y z
#    x 3.451360 0.000000 0.131320 
#    y 0.000000 3.602020 0.000000 
#    z 0.131320 0.000000 3.667050 
# 
# 
# High freq. dielectric constant tensor:
#      x y z
#    x 1.761100 0.000000 0.005850 
#    y 0.000000 1.770690 0.000000 
#    z 0.005850 0.000000 1.778490 
# 
# From -- ./inp_files/71692.got.cif
#   From: 2010.06.25/outbox.cif.g09.slc.cpg/sg10_36_cif.got.tgz:71692.got - 2010.06.27 22:07:45.
