data_PCOD8065579
_publ_section_title
;
Structure prediction by ZEFSAII (Michael W. Deem and Ramdas Pophale) SiO2 
 PCOD8065579
Probable space group: P 2/M
;
_chemical_formula_sum "Si O2"
_cell_formula_units_Z 26
_cell_length_a 17.108231
_cell_length_b 13.382622
_cell_length_c 6.553668
_cell_angle_alpha 90.000000
_cell_angle_beta 59.835140
_cell_angle_gamma 90.000000
_cell_volume 1297.291340
_symmetry_space_group_name_H-M "P 2/M"
_symmetry_group_IT_number 10
_symmetry_cell_setting 'monoclinic'
loop_
_space_group_symop_operation_xyz
x,y,z
-x,y,-z
-x,-y,-z
x,-y,z
loop_
_atom_site_type_symbol
_atom_site_label
_atom_site_fract_x
_atom_site_fract_y
_atom_site_fract_z
Si Si1 0.270258 0.387549 0.063347
Si Si2 0.298885 0.112725 0.096351
Si Si3 0.702043 0.239336 0.299066
Si Si4 0.071230 0.385932 0.237971
Si Si5 0.000000 0.760768 0.000000
Si Si6 0.157961 0.881510 0.615471
Si Si7 0.399374 0.739082 0.183726
O O1 0.306235 0.500000 0.021763
O O2 0.276864 0.347909 0.822025
O O3 0.163838 0.377726 0.245751
O O4 0.325541 0.328313 0.162751
O O5 0.199406 0.130421 0.331516
O O6 0.378667 0.146818 0.145179
O O7 0.313911 0.000000 0.020322
O O8 0.318656 0.170643 0.864898
O O9 0.781049 0.184244 0.315074
O O10 0.615224 0.262569 0.554356
O O11 0.057650 0.500000 0.175989
O O12 0.000000 0.354247 0.500000
O O13 0.063739 0.309585 0.056891
O O14 0.058580 0.833482 0.773424
O O15 0.157306 0.000000 0.675002
O O16 0.500000 0.703295 0.000000
#
# Coordination Sequence:
#
# PCOD8065579 Si02
#       7
#     4   4   4   4   2   4   4
#     4  10  22  40  61  88 120 158 201 244 297 354
#     4   9  20  38  61  86 118 157 198 245 296 353
#     4  10  20  39  62  83 116 159 195 242 298 356
#     4  10  23  39  59  88 123 159 201 247 291 348
#     4  12  22  34  62  88 122 158 204 246 292 350
#     4  10  21  36  56  88 122 156 198 244 295 352
#     4  10  23  40  61  90 121 152 195 249 303 360
#
# _framework density 20.041758999999999
#
# number of rings (size 3 to 8) (size 9 to 14) (size 15 to 20)
#    0.000    2.000    1.538    0.923    6.462    4.308 
#    0.000    1.538    0.000    3.692    0.000    0.000 
#    0.000    0.000    0.000    0.000    0.000    0.000 
#
# Total GULP energy -322096.680759 kJ/mol
# GULP energy per Si atom -12388.333875 kJ/mol
# Density = 1.999614 g / cm^3
# Si number density = 20.041759 Si / 1000 Ang^3
#
#
#
# Elastic Constant Matrix: (Units=GPa)
#
#
# Indices 1 2 3 4 5 6 
#
# 1 77.2224 32.9101 47.4968 0.0000 -11.9042 0.0000
# 2 32.9101 108.8613 61.9935 0.0000 -8.4894 0.0000
# 3 47.4968 61.9935 139.3674 0.0000 -1.8740 0.0000
# 4 0.0000 0.0000 0.0000 18.3356 0.0000 0.8898
# 5 -11.9042 -8.4894 -1.8740 0.0000 24.0533 0.0000
# 6 0.0000 0.0000 0.0000 0.8898 0.0000 16.0764
#
#
#
# Elastic Compliance Matrix: (Units=1/GPa)
#
#
# Indices 1 2 3 4 5 6 
#
# 1 0.018214 -0.001893 -0.005259 0.000000 0.007937 0.000000
# 2 -0.001893 0.012880 -0.005041 0.000000 0.003216 0.000000
# 3 -0.005259 -0.005041 0.011163 0.000000 -0.003512 0.000000
# 4 0.000000 0.000000 0.000000 0.054686 0.000000 -0.003027
# 5 0.007937 0.003216 -0.003512 0.000000 0.046364 0.000000
# 6 0.000000 0.000000 0.000000 -0.003027 0.000000 0.062370
#
#
# Mechanical properties :
#
#
# Convention : Reuss Voigt Hill
#
# Bulk Modulus (GPa) = 55.95453 67.80578 61.88015
# Shear Modulus (GPa) = 21.18482 23.89645 22.54064
#
# Velocity S-wave (km/s) = 3.25473 3.45676 3.35727
# Velocity P-wave (km/s) = 6.48876 7.05960 6.78019
#
# Compressibility (1/GPa) = 0.01787165
#
# Stress axis : x y z
#
# Youngs Moduli (GPa) = 54.90216 77.64207 89.58535
#
# Poissons Ratio (x) = 0.14695 0.47111
# Poissons Ratio (y) = 0.10391 0.45158
# Poissons Ratio (z) = 0.28872 0.39138
#
# Static dielectric constant tensor:
#      x y z
#    x 3.388940 0.000000 -0.020090 
#    y 0.000000 3.953710 0.000000 
#    z -0.020090 0.000000 3.864590 
# 
# 
# High freq. dielectric constant tensor:
#      x y z
#    x 1.756970 0.000000 -0.000390 
#    y 0.000000 1.793500 0.000000 
#    z -0.000390 0.000000 1.788170 
# 
# From -- ./inp_files/11223.got.cif
#   From: 2010.06.25/outbox.cif.g09.slc.cpg/sg10_6_cif.got.tgz:11223.got - 2010.06.27 22:07:45.
