data_PCOD8065460
_publ_section_title
;
Structure prediction by ZEFSAII (Michael W. Deem and Ramdas Pophale) SiO2 
 PCOD8065460
Probable space group: P 2/M
;
_chemical_formula_sum "Si O2"
_cell_formula_units_Z 32
_cell_length_a 9.811686
_cell_length_b 14.126414
_cell_length_c 13.648717
_cell_angle_alpha 90.000000
_cell_angle_beta 117.983475
_cell_angle_gamma 90.000000
_cell_volume 1670.586257
_symmetry_space_group_name_H-M "P 2/M"
_symmetry_group_IT_number 10
_symmetry_cell_setting 'monoclinic'
loop_
_space_group_symop_operation_xyz
x,y,z
-x,y,-z
-x,-y,-z
x,-y,z
loop_
_atom_site_type_symbol
_atom_site_label
_atom_site_fract_x
_atom_site_fract_y
_atom_site_fract_z
Si Si1 0.570739 0.719417 0.920883
Si Si2 0.426899 0.784688 0.578801
Si Si3 0.542092 0.608583 0.728060
Si Si4 0.123234 0.107359 0.457239
Si Si5 0.864696 0.106256 0.223924
Si Si6 0.090284 0.602521 0.135887
Si Si7 0.554696 0.109959 0.221953
Si Si8 0.905056 0.762230 0.062006
O O1 0.486289 0.651408 0.813154
O O2 0.541170 0.830583 0.889897
O O3 0.500000 0.688614 0.000000
O O4 0.754454 0.704017 0.975484
O O5 0.500000 0.812228 0.500000
O O6 0.465897 0.674430 0.617465
O O7 0.246011 0.808214 0.507773
O O8 0.492984 0.852876 0.686245
O O9 0.485191 0.500000 0.694683
O O10 0.726943 0.613000 0.793968
O O11 0.000000 0.119594 0.500000
O O12 0.035042 0.121267 0.324776
O O13 0.195833 0.000000 0.488048
O O14 0.735603 0.132031 0.262241
O O15 0.843942 0.159481 0.115037
O O16 0.836031 0.000000 0.182455
O O17 0.044111 0.500000 0.163372
O O18 0.012975 0.691341 0.165090
O O19 0.000000 0.614512 0.000000
O O20 0.511209 0.000000 0.197960
O O21 0.000000 0.804348 0.000000
#
# Coordination Sequence:
#
# PCOD8065460 Si02
#       8
#     4   4   4   4   4   4   4   4
#     4  11  21  35  58  92 119 160 196 235 288 346
#     4  11  24  38  62  91 114 147 198 256 304 336
#     4  10  22  41  61  85 118 154 195 241 297 361
#     4  10  20  38  62  85 113 153 197 239 292 353
#     4  10  21  36  58  84 116 160 200 235 283 346
#     4   9  17  34  60  82 107 147 186 230 289 350
#     4  10  21  38  58  85 121 162 199 232 288 358
#     4  11  21  35  57  84 122 152 196 240 282 341
#
# _framework density 19.154952000000002
#
# number of rings (size 3 to 8) (size 9 to 14) (size 15 to 20)
#    0.000    1.750    5.000    0.375    1.750    2.500 
#    0.000    1.250    0.000    0.375    0.000    0.000 
#    0.000    0.000    0.000    0.000    0.000    0.000 
#
# Total GULP energy -396422.126994 kJ/mol
# GULP energy per Si atom -12388.191469 kJ/mol
# Density = 1.911135 g / cm^3
# Si number density = 19.154952 Si / 1000 Ang^3
#
#
#
# Elastic Constant Matrix: (Units=GPa)
#
#
# Indices 1 2 3 4 5 6 
#
# 1 82.0051 44.1310 34.9447 0.0000 -5.1108 0.0000
# 2 44.1310 125.1316 37.5576 0.0000 4.3244 0.0000
# 3 34.9447 37.5576 56.7255 0.0000 -1.2360 0.0000
# 4 0.0000 0.0000 0.0000 26.3897 0.0000 5.0323
# 5 -5.1108 4.3244 -1.2360 0.0000 33.2668 0.0000
# 6 0.0000 0.0000 0.0000 5.0323 0.0000 19.0033
#
#
#
# Elastic Compliance Matrix: (Units=1/GPa)
#
#
# Indices 1 2 3 4 5 6 
#
# 1 0.018119 -0.003947 -0.008484 0.000000 0.002982 0.000000
# 2 -0.003947 0.010913 -0.004842 0.000000 -0.002205 0.000000
# 3 -0.008484 -0.004842 0.026068 0.000000 0.000295 0.000000
# 4 0.000000 0.000000 0.000000 0.039909 0.000000 -0.010568
# 5 0.002982 -0.002205 0.000295 0.000000 0.030816 0.000000
# 6 0.000000 0.000000 0.000000 -0.010568 0.000000 0.055421
#
#
# Mechanical properties :
#
#
# Convention : Reuss Voigt Hill
#
# Bulk Modulus (GPa) = 48.65217 55.23655 51.94436
# Shear Modulus (GPa) = 22.45747 25.54722 24.00235
#
# Velocity S-wave (km/s) = 3.42776 3.65597 3.54370
# Velocity P-wave (km/s) = 6.41253 6.83526 6.62726
#
# Compressibility (1/GPa) = 0.02055407
#
# Stress axis : x y z
#
# Youngs Moduli (GPa) = 55.18918 91.63294 38.36191
#
# Poissons Ratio (x) = 0.36167 0.32546
# Poissons Ratio (y) = 0.21783 0.18575
# Poissons Ratio (z) = 0.46822 0.44370
#
# Static dielectric constant tensor:
#      x y z
#    x 3.471290 0.000000 0.165100 
#    y 0.000000 3.684200 0.000000 
#    z 0.165100 0.000000 3.476110 
# 
# 
# High freq. dielectric constant tensor:
#      x y z
#    x 1.731090 0.000000 0.006760 
#    y 0.000000 1.741920 0.000000 
#    z 0.006760 0.000000 1.739260 
# 
# From -- ./inp_files/61867.got.cif
#   From: 2010.06.25/outbox.cif.g09.slc.cpg/sg10_31_cif.got.tgz:61867.got - 2010.06.27 22:07:45.
