data_PCOD8065127
_publ_section_title
;
Structure prediction by ZEFSAII (Michael W. Deem and Ramdas Pophale) SiO2 
 PCOD8065127
Probable space group: P 2/M
;
_chemical_formula_sum "Si O2"
_cell_formula_units_Z 28
_cell_length_a 14.880476
_cell_length_b 10.565076
_cell_length_c 9.254398
_cell_angle_alpha 90.000000
_cell_angle_beta 72.366419
_cell_angle_gamma 90.000000
_cell_volume 1386.553327
_symmetry_space_group_name_H-M "P 2/M"
_symmetry_group_IT_number 10
_symmetry_cell_setting 'monoclinic'
loop_
_space_group_symop_operation_xyz
x,y,z
-x,y,-z
-x,-y,-z
x,-y,z
loop_
_atom_site_type_symbol
_atom_site_label
_atom_site_fract_x
_atom_site_fract_y
_atom_site_fract_z
Si Si1 0.660965 0.637453 0.130792
Si Si2 0.179769 0.642623 0.155422
Si Si3 0.520774 0.856205 0.150938
Si Si4 0.593234 0.857258 0.528456
Si Si5 0.221350 0.747432 0.693669
Si Si6 0.101836 0.354053 0.495469
Si Si7 0.106541 0.860544 0.994772
O O1 0.608597 0.500000 0.162556
O O2 0.593855 0.757933 0.186816
O O3 0.739477 0.636674 0.220248
O O4 0.712067 0.650789 0.950432
O O5 0.139681 0.500000 0.142776
O O6 0.175587 0.668486 0.328912
O O7 0.120112 0.750073 0.104446
O O8 0.424127 0.851648 0.289996
O O9 0.562541 0.000000 0.131890
O O10 0.500000 0.810166 0.000000
O O11 0.500000 0.794645 0.500000
O O12 0.690674 0.791479 0.445042
O O13 0.600978 0.000000 0.466445
O O14 0.139856 0.706815 0.623656
O O15 0.175638 0.851006 0.822265
O O16 0.087898 0.500000 0.538344
O O17 0.000000 0.295491 0.500000
O O18 0.125497 0.000000 0.053775
O O19 0.000000 0.847885 0.000000
#
# Coordination Sequence:
#
# PCOD8065127 Si02
#       7
#     4   4   4   4   4   4   4
#     4  10  21  37  57  86 121 155 197 245 295 356
#     4   9  20  37  57  82 113 151 196 242 294 358
#     4  10  22  39  60  84 115 154 201 245 290 355
#     4  10  20  37  59  86 117 153 201 248 291 352
#     4  11  21  36  62  87 121 162 202 245 308 361
#     4  10  21  38  60  87 119 156 203 257 309 365
#     4  10  21  37  58  86 118 153 197 247 301 361
#
# _framework density 20.193959
#
# number of rings (size 3 to 8) (size 9 to 14) (size 15 to 20)
#    0.000    2.000    1.429    1.714    2.000    3.429 
#    0.000    3.571    0.000    3.857    0.000    0.000 
#    0.000    0.000    0.000    0.000    0.000    0.000 
#
# Total GULP energy -346957.188824 kJ/mol
# GULP energy per Si atom -12391.328172 kJ/mol
# Density = 2.014800 g / cm^3
# Si number density = 20.193959 Si / 1000 Ang^3
#
#
#
# Elastic Constant Matrix: (Units=GPa)
#
#
# Indices 1 2 3 4 5 6 
#
# 1 76.1803 26.3245 18.6648 0.0000 0.5956 0.0000
# 2 26.3245 109.7549 13.5387 0.0000 3.0478 0.0000
# 3 18.6648 13.5387 93.7066 0.0000 0.1174 0.0000
# 4 0.0000 0.0000 0.0000 18.0479 0.0000 -4.3373
# 5 0.5956 3.0478 0.1174 0.0000 36.4122 0.0000
# 6 0.0000 0.0000 0.0000 -4.3373 0.0000 17.5442
#
#
#
# Elastic Compliance Matrix: (Units=1/GPa)
#
#
# Indices 1 2 3 4 5 6 
#
# 1 0.014862 -0.003259 -0.002490 0.000000 0.000038 0.000000
# 2 -0.003259 0.010013 -0.000797 0.000000 -0.000782 0.000000
# 3 -0.002490 -0.000797 0.011282 0.000000 0.000071 0.000000
# 4 0.000000 0.000000 0.000000 0.058908 0.000000 0.014563
# 5 0.000038 -0.000782 0.000071 0.000000 0.027528 0.000000
# 6 0.000000 0.000000 0.000000 0.014563 0.000000 0.060599
#
#
# Mechanical properties :
#
#
# Convention : Reuss Voigt Hill
#
# Bulk Modulus (GPa) = 43.35002 44.07752 43.71377
# Shear Modulus (GPa) = 24.51317 29.14180 26.82748
#
# Velocity S-wave (km/s) = 3.48787 3.80293 3.64880
# Velocity P-wave (km/s) = 6.14278 6.41541 6.28057
#
# Compressibility (1/GPa) = 0.02306804
#
# Stress axis : x y z
#
# Youngs Moduli (GPa) = 67.28347 99.87233 88.63290
#
# Poissons Ratio (x) = 0.32545 0.22066
# Poissons Ratio (y) = 0.21926 0.07060
# Poissons Ratio (z) = 0.16751 0.07956
#
# Static dielectric constant tensor:
#      x y z
#    x 3.447120 0.000000 -0.107320 
#    y 0.000000 3.629500 0.000000 
#    z -0.107320 0.000000 3.858710 
# 
# 
# High freq. dielectric constant tensor:
#      x y z
#    x 1.764780 0.000000 -0.009710 
#    y 0.000000 1.778580 0.000000 
#    z -0.009710 0.000000 1.805730 
# 
# From -- ./inp_files/28224.got.cif
#   From: 2010.06.25/outbox.cif.g09.slc.cpg/sg10_15_cif.got.tgz:28224.got - 2010.06.27 22:07:45.
