data_PCOD8065119
_publ_section_title
;
Structure prediction by ZEFSAII (Michael W. Deem and Ramdas Pophale) SiO2 
 PCOD8065119
Probable space group: P 2/M
;
_chemical_formula_sum "Si O2"
_cell_formula_units_Z 28
_cell_length_a 8.423197
_cell_length_b 13.495630
_cell_length_c 14.053932
_cell_angle_alpha 90.000000
_cell_angle_beta 113.775489
_cell_angle_gamma 90.000000
_cell_volume 1462.014955
_symmetry_space_group_name_H-M "P 2/M"
_symmetry_group_IT_number 10
_symmetry_cell_setting 'monoclinic'
loop_
_space_group_symop_operation_xyz
x,y,z
-x,y,-z
-x,-y,-z
x,-y,z
loop_
_atom_site_type_symbol
_atom_site_label
_atom_site_fract_x
_atom_site_fract_y
_atom_site_fract_z
Si Si1 0.657753 0.219675 0.274625
Si Si2 0.341321 0.114216 0.532843
Si Si3 0.043191 0.258600 0.406587
Si Si4 0.852726 0.286206 0.041382
Si Si5 0.904747 0.386572 0.756178
Si Si6 0.325109 0.893168 0.903969
Si Si7 0.393461 0.615500 0.164374
O O1 0.596661 0.174279 0.359639
O O2 0.606233 0.144073 0.180729
O O3 0.568834 0.326125 0.233307
O O4 0.864306 0.225625 0.316907
O O5 0.500000 0.122078 0.500000
O O6 0.168316 0.163758 0.447873
O O7 0.297387 0.000000 0.546111
O O8 0.129270 0.335251 0.354040
O O9 0.000000 0.306712 0.500000
O O10 0.800281 0.180984 0.070958
O O11 0.924327 0.350883 0.146277
O O12 0.690720 0.343255 0.953866
O O13 0.000000 0.266250 0.000000
O O14 0.933841 0.500000 0.739588
O O15 0.737267 0.368055 0.780256
O O16 0.228993 0.000000 0.870865
O O17 0.500000 0.910020 0.000000
O O18 0.438643 0.500000 0.161144
#
# Coordination Sequence:
#
# PCOD8065119 Si02
#       7
#     4   4   4   4   4   4   4
#     4  11  21  38  60  85 119 152 189 238 290 344
#     4  10  22  41  64  87 112 149 197 244 291 345
#     4  10  22  37  58  86 113 148 190 241 289 345
#     4  10  20  38  60  85 117 153 197 240 283 344
#     4  10  20  37  59  85 118 156 195 241 293 340
#     4  11  22  37  56  83 118 155 189 231 291 346
#     4  10  21  37  60  87 118 156 197 237 286 347
#
# _framework density 19.151651999999999
#
# number of rings (size 3 to 8) (size 9 to 14) (size 15 to 20)
#    0.000    1.714    2.857    1.714    0.000    6.000 
#    0.000    2.857    0.000    7.714    0.000    0.000 
#    0.000    0.000    0.000    0.000    0.000    0.000 
#
# Total GULP energy -347144.722055 kJ/mol
# GULP energy per Si atom -12398.025788 kJ/mol
# Density = 1.910806 g / cm^3
# Si number density = 19.151652 Si / 1000 Ang^3
#
#
#
# Elastic Constant Matrix: (Units=GPa)
#
#
# Indices 1 2 3 4 5 6 
#
# 1 65.4748 51.2015 39.4584 0.0000 5.9442 0.0000
# 2 51.2015 162.3269 67.5919 0.0000 1.5725 0.0000
# 3 39.4584 67.5919 105.5645 0.0000 -0.7663 0.0000
# 4 0.0000 0.0000 0.0000 27.1066 0.0000 -0.5904
# 5 5.9442 1.5725 -0.7663 0.0000 32.9780 0.0000
# 6 0.0000 0.0000 0.0000 -0.5904 0.0000 34.4389
#
#
#
# Elastic Compliance Matrix: (Units=1/GPa)
#
#
# Indices 1 2 3 4 5 6 
#
# 1 0.022696 -0.004876 -0.005391 0.000000 -0.003984 0.000000
# 2 -0.004876 0.009456 -0.004230 0.000000 0.000330 0.000000
# 3 -0.005391 -0.004230 0.014207 0.000000 0.001503 0.000000
# 4 0.000000 0.000000 0.000000 0.036905 0.000000 0.000633
# 5 -0.003984 0.000330 0.001503 0.000000 0.031061 0.000000
# 6 0.000000 0.000000 0.000000 0.000633 0.000000 0.029048
#
#
# Mechanical properties :
#
#
# Convention : Reuss Voigt Hill
#
# Bulk Modulus (GPa) = 57.57970 72.20778 64.89374
# Shear Modulus (GPa) = 28.06547 30.57899 29.32223
#
# Velocity S-wave (km/s) = 3.83225 4.00018 3.91711
# Velocity P-wave (km/s) = 7.05067 7.68897 7.37673
#
# Compressibility (1/GPa) = 0.01736723
#
# Stress axis : x y z
#
# Youngs Moduli (GPa) = 44.06036 105.74765 70.38713
#
# Poissons Ratio (x) = 0.51559 0.37942
# Poissons Ratio (y) = 0.21482 0.29774
# Poissons Ratio (z) = 0.23751 0.44732
#
# Static dielectric constant tensor:
#      x y z
#    x 2.553370 0.000000 0.028750 
#    y 0.000000 3.708020 0.000000 
#    z 0.028750 0.000000 3.735780 
# 
# 
# High freq. dielectric constant tensor:
#      x y z
#    x 1.743960 0.000000 -0.008560 
#    y 0.000000 1.744860 0.000000 
#    z -0.008560 0.000000 1.757210 
# 
# From -- ./inp_files/28473.got.cif
#   From: 2010.06.25/outbox.cif.g09.slc.cpg/sg10_15_cif.got.tgz:28473.got - 2010.06.27 22:07:45.
