data_PCOD8065403
_publ_section_title
;
Structure prediction by ZEFSAII (Michael W. Deem and Ramdas Pophale) SiO2 
 PCOD8065403
Probable space group: P 2/M
;
_chemical_formula_sum "Si O2"
_cell_formula_units_Z 16
_cell_length_a 8.162739
_cell_length_b 18.706378
_cell_length_c 9.646439
_cell_angle_alpha 90.000000
_cell_angle_beta 148.834046
_cell_angle_gamma 90.000000
_cell_volume 762.287226
_symmetry_space_group_name_H-M "P 2/M"
_symmetry_group_IT_number 10
_symmetry_cell_setting 'monoclinic'
loop_
_space_group_symop_operation_xyz
x,y,z
-x,y,-z
-x,-y,-z
x,-y,z
loop_
_atom_site_type_symbol
_atom_site_label
_atom_site_fract_x
_atom_site_fract_y
_atom_site_fract_z
Si Si1 0.697174 0.151825 0.878538
Si Si2 0.874697 0.619386 0.261900
Si Si3 0.127546 0.500000 0.245526
Si Si4 0.367117 0.000000 0.249882
Si Si5 0.056884 0.781239 0.383780
O O1 0.541695 0.072057 0.767530
O O2 0.426420 0.203497 0.620069
O O3 0.000000 0.157825 0.000000
O O4 0.810009 0.173663 0.113291
O O5 0.000000 0.591512 0.500000
O O6 0.003262 0.569817 0.233686
O O7 0.997787 0.698042 0.315815
O O8 0.500000 0.618037 0.000000
O O9 0.500000 0.500000 0.500000
O O10 0.000000 0.500000 0.000000
O O11 0.500000 0.000000 0.500000
O O12 0.000000 0.000000 0.000000
O O13 0.000000 0.804759 0.500000
#
# Coordination Sequence:
#
# PCOD8065403 Si02
#       5
#     4   4   2   2   4
#     4  11  22  39  63  89 119 161 206 253 303 362
#     4  11  23  44  67  87 122 174 206 233 299 384
#     4  12  26  42  64 100 130 152 200 268 302 336
#     4  10  20  38  59  86 119 160 205 246 301 374
#     4  11  23  40  61  91 124 158 202 253 302 360
#
# _framework density 20.989462
#
# number of rings (size 3 to 8) (size 9 to 14) (size 15 to 20)
#    0.000    1.000    0.000    9.750    0.000    3.000 
#    0.000    3.750    0.000    0.000    0.000    0.000 
#    0.000    0.000    0.000    0.000    0.000    0.000 
#
# Total GULP energy -198409.826153 kJ/mol
# GULP energy per Si atom -12400.614135 kJ/mol
# Density = 2.094169 g / cm^3
# Si number density = 20.989462 Si / 1000 Ang^3
#
#
#
# Elastic Constant Matrix: (Units=GPa)
#
#
# Indices 1 2 3 4 5 6 
#
# 1 102.8393 93.2647 61.4728 0.0000 4.1782 0.0000
# 2 93.2647 162.2822 93.0383 0.0000 -11.5181 0.0000
# 3 61.4728 93.0383 196.9873 0.0000 -4.4339 0.0000
# 4 0.0000 0.0000 0.0000 28.7268 0.0000 -7.7314
# 5 4.1782 -11.5181 -4.4339 0.0000 61.0478 0.0000
# 6 0.0000 0.0000 0.0000 -7.7314 0.0000 41.0116
#
#
#
# Elastic Compliance Matrix: (Units=1/GPa)
#
#
# Indices 1 2 3 4 5 6 
#
# 1 0.021322 -0.011874 -0.001131 0.000000 -0.003782 0.000000
# 2 -0.011874 0.015168 -0.003381 0.000000 0.003429 0.000000
# 3 -0.001131 -0.003381 0.007025 0.000000 -0.000050 0.000000
# 4 0.000000 0.000000 0.000000 0.036671 0.000000 0.006913
# 5 -0.003782 0.003429 -0.000050 0.000000 0.017283 0.000000
# 6 0.000000 0.000000 0.000000 0.006913 0.000000 0.025687
#
#
# Mechanical properties :
#
#
# Convention : Reuss Voigt Hill
#
# Bulk Modulus (GPa) = 93.08346 106.40672 99.74509
# Shear Modulus (GPa) = 31.34611 40.44611 35.89611
#
# Velocity S-wave (km/s) = 3.86867 4.39449 4.13994
# Velocity P-wave (km/s) = 8.02493 8.74952 8.39505
#
# Compressibility (1/GPa) = 0.01074305
#
# Stress axis : x y z
#
# Youngs Moduli (GPa) = 46.89983 65.92762 142.34353
#
# Poissons Ratio (x) = 0.78283 0.16096
# Poissons Ratio (y) = 0.55689 0.48132
# Poissons Ratio (z) = 0.05303 0.22293
#
# Static dielectric constant tensor:
#      x y z
#    x 3.738900 0.000000 0.016040 
#    y 0.000000 3.835800 0.000000 
#    z 0.016040 0.000000 4.160640 
# 
# 
# High freq. dielectric constant tensor:
#      x y z
#    x 1.812840 0.000000 0.003410 
#    y 0.000000 1.831710 0.000000 
#    z 0.003410 0.000000 1.853120 
# 
# From -- ./inp_files/19815.got.cif
#   From: 2010.06.25/outbox.cif.g09.slc.cpg/sg10_10_cif.got.tgz:19815.got - 2010.06.27 22:07:45.
