data_PCOD8065752
_publ_section_title
;
Structure prediction by ZEFSAII (Michael W. Deem and Ramdas Pophale) SiO2 
 PCOD8065752
Probable space group: P 2/M
;
_chemical_formula_sum "Si O2"
_cell_formula_units_Z 32
_cell_length_a 10.185486
_cell_length_b 9.354190
_cell_length_c 27.472864
_cell_angle_alpha 90.000000
_cell_angle_beta 141.988684
_cell_angle_gamma 90.000000
_cell_volume 1611.920510
_symmetry_space_group_name_H-M "P 2/M"
_symmetry_group_IT_number 10
_symmetry_cell_setting 'monoclinic'
loop_
_space_group_symop_operation_xyz
x,y,z
-x,y,-z
-x,-y,-z
x,-y,z
loop_
_atom_site_type_symbol
_atom_site_label
_atom_site_fract_x
_atom_site_fract_y
_atom_site_fract_z
Si Si1 0.484728 0.664387 0.872665
Si Si2 0.644092 0.833399 0.586295
Si Si3 0.314212 0.831688 0.983529
Si Si4 0.507962 0.663140 0.768719
Si Si5 0.995591 0.334545 0.737985
Si Si6 0.162194 0.168374 0.618382
Si Si7 0.084733 0.666911 0.174450
Si Si8 0.726597 0.165714 0.453981
O O1 0.504083 0.500000 0.895781
O O2 0.630079 0.764543 0.948210
O O3 0.574200 0.682574 0.844245
O O4 0.239908 0.715236 0.805945
O O5 0.500000 0.774467 0.500000
O O6 0.865091 0.751089 0.658442
O O7 0.507109 0.802891 0.594595
O O8 0.695811 0.000000 0.593055
O O9 0.281217 0.000000 0.980028
O O10 0.500000 0.794376 0.000000
O O11 0.098627 0.762645 0.901740
O O12 0.450503 0.500000 0.740739
O O13 0.293114 0.753687 0.698676
O O14 0.697257 0.714600 0.788396
O O15 0.974104 0.500000 0.718436
O O16 0.901580 0.301388 0.764015
O O17 0.252671 0.231333 0.593579
O O18 0.912011 0.214896 0.546287
O O19 0.195943 0.000000 0.635550
O O20 0.034816 0.500000 0.150212
O O21 0.772494 0.000000 0.460233
#
# Coordination Sequence:
#
# PCOD8065752 Si02
#       8
#     4   4   4   4   4   4   4   4
#     4  10  22  40  60  83 117 155 187 225 283 344
#     4  10  21  34  51  77 111 146 184 235 288 332
#     4  11  23  39  62  92 118 143 187 237 277 325
#     4  10  22  37  55  85 117 145 184 234 279 328
#     4  10  21  37  58  82 109 149 194 230 274 339
#     4   9  17  32  56  75 101 145 188 228 276 338
#     4  10  21  39  63  86 114 152 189 227 279 341
#     4   8  16  32  50  74 103 140 186 228 279 340
#
# _framework density 19.852097000000001
#
# number of rings (size 3 to 8) (size 9 to 14) (size 15 to 20)
#    0.000    2.250    1.250    1.875    1.750    3.250 
#    0.000    4.375    0.000    0.000    0.000    0.000 
#    0.000    0.000    0.000    0.000    0.000    0.000 
#
# Total GULP energy -396756.593411 kJ/mol
# GULP energy per Si atom -12398.643544 kJ/mol
# Density = 1.980691 g / cm^3
# Si number density = 19.852097 Si / 1000 Ang^3
#
#
#
# Elastic Constant Matrix: (Units=GPa)
#
#
# Indices 1 2 3 4 5 6 
#
# 1 50.2038 11.1037 1.0360 0.0000 -0.8034 0.0000
# 2 11.1037 59.6313 50.6455 0.0000 -0.1845 0.0000
# 3 1.0360 50.6455 107.3412 0.0000 -3.0675 0.0000
# 4 0.0000 0.0000 0.0000 35.1485 0.0000 -3.5743
# 5 -0.8034 -0.1845 -3.0675 0.0000 25.6111 0.0000
# 6 0.0000 0.0000 0.0000 -3.5743 0.0000 15.2840
#
#
#
# Elastic Compliance Matrix: (Units=1/GPa)
#
#
# Indices 1 2 3 4 5 6 
#
# 1 0.021282 -0.006355 0.002821 0.000000 0.000960 0.000000
# 2 -0.006355 0.029930 -0.014108 0.000000 -0.001673 0.000000
# 3 0.002821 -0.014108 0.016000 0.000000 0.001903 0.000000
# 4 0.000000 0.000000 0.000000 0.029144 0.000000 0.006816
# 5 0.000960 -0.001673 0.001903 0.000000 0.039292 0.000000
# 6 0.000000 0.000000 0.000000 0.006816 0.000000 0.067022
#
#
# Mechanical properties :
#
#
# Convention : Reuss Voigt Hill
#
# Bulk Modulus (GPa) = 31.32266 38.08295 34.70281
# Shear Modulus (GPa) = 20.11298 25.50147 22.80722
#
# Velocity S-wave (km/s) = 3.18644 3.58798 3.39316
# Velocity P-wave (km/s) = 5.41758 6.03240 5.73323
#
# Compressibility (1/GPa) = 0.03192577
#
# Stress axis : x y z
#
# Youngs Moduli (GPa) = 46.98897 33.41128 62.50130
#
# Poissons Ratio (x) = 0.21234 -0.17629
# Poissons Ratio (y) = 0.29863 0.88177
# Poissons Ratio (z) = -0.13254 0.47137
#
# Static dielectric constant tensor:
#      x y z
#    x 3.804380 0.000000 0.035160 
#    y 0.000000 3.346420 0.000000 
#    z 0.035160 0.000000 3.525370 
# 
# 
# High freq. dielectric constant tensor:
#      x y z
#    x 1.780660 0.000000 -0.001030 
#    y 0.000000 1.749040 0.000000 
#    z -0.001030 0.000000 1.778070 
# 
# From -- ./inp_files/95043.got.cif
#   From: 2010.06.25/outbox.cif.g09.slc.cpg/sg10_48_cif.got.tgz:95043.got - 2010.06.27 22:07:45.
