data_PCOD8065662
_publ_section_title
;
Structure prediction by ZEFSAII (Michael W. Deem and Ramdas Pophale) SiO2 
 PCOD8065662
Probable space group: P 2/M
;
_chemical_formula_sum "Si O2"
_cell_formula_units_Z 32
_cell_length_a 12.127854
_cell_length_b 8.979616
_cell_length_c 15.122423
_cell_angle_alpha 90.000000
_cell_angle_beta 87.134849
_cell_angle_gamma 90.000000
_cell_volume 1644.825670
_symmetry_space_group_name_H-M "P 2/M"
_symmetry_group_IT_number 10
_symmetry_cell_setting 'monoclinic'
loop_
_space_group_symop_operation_xyz
x,y,z
-x,y,-z
-x,-y,-z
x,-y,z
loop_
_atom_site_type_symbol
_atom_site_label
_atom_site_fract_x
_atom_site_fract_y
_atom_site_fract_z
Si Si1 0.591366 0.676729 0.427693
Si Si2 0.568481 0.825935 0.911125
Si Si3 0.212997 0.324330 0.050378
Si Si4 0.046488 0.323763 0.361521
Si Si5 0.415503 0.171914 0.753514
Si Si6 0.201051 0.170678 0.866827
Si Si7 0.044668 0.172597 0.180223
Si Si8 0.168872 0.323788 0.530494
O O1 0.500000 0.736087 0.500000
O O2 0.595393 0.500000 0.427887
O O3 0.555923 0.730425 0.332526
O O4 0.711509 0.743745 0.449620
O O5 0.680662 0.733234 0.900995
O O6 0.499592 0.784055 0.827412
O O7 0.597149 0.000000 0.914781
O O8 0.500000 0.776995 0.000000
O O9 0.205697 0.500000 0.058296
O O10 0.103987 0.253966 0.097077
O O11 0.219691 0.277973 0.948398
O O12 0.047984 0.500000 0.344938
O O13 0.083103 0.240708 0.271495
O O14 0.134995 0.276225 0.432659
O O15 0.924582 0.268950 0.396756
O O16 0.291874 0.209082 0.789826
O O17 0.427530 0.000000 0.727342
O O18 0.084796 0.200148 0.825817
O O19 0.213903 0.000000 0.899260
O O20 0.076314 0.000000 0.176479
O O21 0.172638 0.500000 0.534753
#
# Coordination Sequence:
#
# PCOD8065662 Si02
#       8
#     4   4   4   4   4   4   4   4
#     4  10  21  36  54  80 116 152 187 232 287 342
#     4  10  20  40  65  84 114 154 191 235 289 349
#     4  12  25  38  57  85 117 150 192 242 286 338
#     4   9  17  33  57  80 106 144 191 237 281 338
#     4  10  21  38  63  89 112 148 195 239 289 343
#     4  10  21  40  61  82 113 153 193 234 288 351
#     4  11  23  37  56  83 118 154 191 234 289 351
#     4   8  16  33  56  79 107 147 188 230 288 345
#
# _framework density 19.454948000000002
#
# number of rings (size 3 to 8) (size 9 to 14) (size 15 to 20)
#    0.000    2.000    1.250    3.375    0.000    5.000 
#    0.000    3.125    0.000    0.000    0.000    0.000 
#    0.000    0.000    0.000    0.000    0.000    0.000 
#
# Total GULP energy -396910.055511 kJ/mol
# GULP energy per Si atom -12403.439235 kJ/mol
# Density = 1.941067 g / cm^3
# Si number density = 19.454948 Si / 1000 Ang^3
#
#
#
# Elastic Constant Matrix: (Units=GPa)
#
#
# Indices 1 2 3 4 5 6 
#
# 1 67.2760 34.7569 52.2242 0.0000 -0.2422 0.0000
# 2 34.7569 67.4489 34.5034 0.0000 -0.2092 0.0000
# 3 52.2242 34.5034 117.6953 0.0000 1.5238 0.0000
# 4 0.0000 0.0000 0.0000 33.0035 0.0000 1.1450
# 5 -0.2422 -0.2092 1.5238 0.0000 28.1301 0.0000
# 6 0.0000 0.0000 0.0000 1.1450 0.0000 19.3617
#
#
#
# Elastic Compliance Matrix: (Units=1/GPa)
#
#
# Indices 1 2 3 4 5 6 
#
# 1 0.026674 -0.009040 -0.009194 0.000000 0.000661 0.000000
# 2 -0.009040 0.020510 -0.002004 0.000000 0.000183 0.000000
# 3 -0.009194 -0.002004 0.013174 0.000000 -0.000808 0.000000
# 4 0.000000 0.000000 0.000000 0.030362 0.000000 -0.001796
# 5 0.000661 0.000183 -0.000808 0.000000 0.035600 0.000000
# 6 0.000000 0.000000 0.000000 -0.001796 0.000000 0.051754
#
#
# Mechanical properties :
#
#
# Convention : Reuss Voigt Hill
#
# Bulk Modulus (GPa) = 50.29664 55.04324 52.66994
# Shear Modulus (GPa) = 22.20462 24.82811 23.51636
#
# Velocity S-wave (km/s) = 3.38203 3.57625 3.48049
# Velocity P-wave (km/s) = 6.41559 6.73846 6.57901
#
# Compressibility (1/GPa) = 0.01988205
#
# Stress axis : x y z
#
# Youngs Moduli (GPa) = 37.48956 48.75665 75.90620
#
# Poissons Ratio (x) = 0.44076 0.69791
# Poissons Ratio (y) = 0.33890 0.15210
# Poissons Ratio (z) = 0.34469 0.09770
#
# Static dielectric constant tensor:
#      x y z
#    x 3.829440 0.000000 0.037820 
#    y 0.000000 3.291670 0.000000 
#    z 0.037820 0.000000 3.476930 
# 
# 
# High freq. dielectric constant tensor:
#      x y z
#    x 1.766300 0.000000 0.003500 
#    y 0.000000 1.735310 0.000000 
#    z 0.003500 0.000000 1.762960 
# 
# From -- ./inp_files/63818.got.cif
#   From: 2010.06.25/outbox.cif.g09.slc.cpg/sg10_32_cif.got.tgz:63818.got - 2010.06.27 22:07:45.
