data_PCOD8065551
_publ_section_title
;
Structure prediction by ZEFSAII (Michael W. Deem and Ramdas Pophale) SiO2 
 PCOD8065551
Probable space group: P 2/M
;
_chemical_formula_sum "Si O2"
_cell_formula_units_Z 28
_cell_length_a 33.124564
_cell_length_b 8.132382
_cell_length_c 33.502721
_cell_angle_alpha 90.000000
_cell_angle_beta 8.826608
_cell_angle_gamma 90.000000
_cell_volume 1384.841458
_symmetry_space_group_name_H-M "P 2/M"
_symmetry_group_IT_number 10
_symmetry_cell_setting 'monoclinic'
loop_
_space_group_symop_operation_xyz
x,y,z
-x,y,-z
-x,-y,-z
x,-y,z
loop_
_atom_site_type_symbol
_atom_site_label
_atom_site_fract_x
_atom_site_fract_y
_atom_site_fract_z
Si Si1 0.623338 0.695976 0.789545
Si Si2 0.420940 0.313006 0.724044
Si Si3 0.881247 0.818595 0.223825
Si Si4 0.723360 0.000000 0.749129
Si Si5 0.913932 0.309353 0.811158
Si Si6 0.222942 0.000000 0.749469
Si Si7 0.551816 0.812773 0.680403
Si Si8 0.918653 0.690766 0.718671
O O1 0.637534 0.500000 0.789272
O O2 0.332096 0.753545 0.061309
O O3 0.706605 0.826319 0.741811
O O4 0.813449 0.727337 0.566316
O O5 0.394317 0.500000 0.763799
O O6 0.441280 0.205586 0.743900
O O7 0.673883 0.295593 0.448793
O O8 0.168859 0.259287 0.945075
O O9 0.806369 0.837846 0.250073
O O10 0.881399 0.000000 0.244143
O O11 0.000000 0.000000 0.500000
O O12 0.500000 0.000000 0.000000
O O13 0.902682 0.500000 0.815391
O O14 0.163427 0.270073 0.594947
O O15 0.934438 0.224622 0.747187
O O16 0.647041 0.258831 0.093226
O O17 0.500000 0.000000 0.500000
O O18 0.000000 0.000000 0.000000
O O19 0.591859 0.000000 0.651784
O O20 0.872616 0.500000 0.769819
#
# Coordination Sequence:
#
# PCOD8065551 Si02
#       8
#     4   4   4   2   4   2   4   4
#     4  10  21  41  64  91 120 162 199 246 304 365
#     4  12  23  40  61  87 122 166 209 251 304 357
#     4  10  22  38  64  92 118 155 202 250 293 357
#     4  12  26  42  62  94 124 154 196 248 302 368
#     4  11  22  41  63  89 121 166 212 261 312 360
#     4  10  20  38  68  96 118 152 196 236 300 376
#     4  12  25  40  57  87 130 163 210 261 307 358
#     4   9  19  38  64  87 118 156 205 245 294 359
#
# _framework density 20.218920000000001
#
# number of rings (size 3 to 8) (size 9 to 14) (size 15 to 20)
#    0.429    0.857    0.000    6.857    0.000    2.857 
#    7.714    0.000    0.000    8.571    0.000    0.000 
#    0.000    0.000    0.000    0.000    0.000    0.000 
#
# Total GULP energy -347147.103514 kJ/mol
# GULP energy per Si atom -12398.110840 kJ/mol
# Density = 2.017290 g / cm^3
# Si number density = 20.218920 Si / 1000 Ang^3
#
#
#
# Elastic Constant Matrix: (Units=GPa)
#
#
# Indices 1 2 3 4 5 6 
#
# 1 106.6968 33.3935 23.1361 0.0000 1.0122 0.0000
# 2 33.3935 78.6373 27.4351 0.0000 -0.5341 0.0000
# 3 23.1361 27.4351 96.1969 0.0000 -7.8399 0.0000
# 4 0.0000 0.0000 0.0000 34.5369 0.0000 6.5134
# 5 1.0122 -0.5341 -7.8399 0.0000 41.3979 0.0000
# 6 0.0000 0.0000 0.0000 6.5134 0.0000 35.7167
#
#
#
# Elastic Compliance Matrix: (Units=1/GPa)
#
#
# Indices 1 2 3 4 5 6 
#
# 1 0.011005 -0.004150 -0.001513 0.000000 -0.000609 0.000000
# 2 -0.004150 0.015701 -0.003509 0.000000 -0.000361 0.000000
# 3 -0.001513 -0.003509 0.011944 0.000000 0.002254 0.000000
# 4 0.000000 0.000000 0.000000 0.029986 0.000000 -0.005468
# 5 -0.000609 -0.000361 0.002254 0.000000 0.024593 0.000000
# 6 0.000000 0.000000 0.000000 -0.005468 0.000000 0.028995
#
#
# Mechanical properties :
#
#
# Convention : Reuss Voigt Hill
#
# Bulk Modulus (GPa) = 49.24694 49.94006 49.59350
# Shear Modulus (GPa) = 33.93626 35.50140 34.71883
#
# Velocity S-wave (km/s) = 4.10132 4.19483 4.14834
# Velocity P-wave (km/s) = 6.84380 6.94373 6.89395
#
# Compressibility (1/GPa) = 0.02030583
#
# Stress axis : x y z
#
# Youngs Moduli (GPa) = 90.86853 63.69198 83.72618
#
# Poissons Ratio (x) = 0.26429 0.12667
# Poissons Ratio (y) = 0.37706 0.29381
# Poissons Ratio (z) = 0.13748 0.22350
#
# Static dielectric constant tensor:
#      x y z
#    x 3.700400 0.000000 -0.045000 
#    y 0.000000 5.504050 0.000000 
#    z -0.045000 0.000000 3.716230 
# 
# 
# High freq. dielectric constant tensor:
#      x y z
#    x 1.789540 0.000000 -0.001820 
#    y 0.000000 1.781490 0.000000 
#    z -0.001820 0.000000 1.809770 
# 
# From -- ./inp_files/96012.got.cif
#   From: 2010.06.25/outbox.cif.g09.slc.cpg/sg10_49_cif.got.tgz:96012.got - 2010.06.27 22:07:45.
