data_PCOD8065063
_publ_section_title
;
Structure prediction by ZEFSAII (Michael W. Deem and Ramdas Pophale) SiO2 
 PCOD8065063
Probable space group: P 2/M
;
_chemical_formula_sum "Si O2"
_cell_formula_units_Z 28
_cell_length_a 10.070364
_cell_length_b 9.171757
_cell_length_c 30.901099
_cell_angle_alpha 90.000000
_cell_angle_beta 32.258693
_cell_angle_gamma 90.000000
_cell_volume 1523.363985
_symmetry_space_group_name_H-M "P 2/M"
_symmetry_group_IT_number 10
_symmetry_cell_setting 'monoclinic'
loop_
_space_group_symop_operation_xyz
x,y,z
-x,y,-z
-x,-y,-z
x,-y,z
loop_
_atom_site_type_symbol
_atom_site_label
_atom_site_fract_x
_atom_site_fract_y
_atom_site_fract_z
Si Si1 0.908712 0.670325 0.846533
Si Si2 0.560855 0.331988 0.082545
Si Si3 0.186630 0.666318 0.358377
Si Si4 0.442909 0.668721 0.667154
Si Si5 0.811593 0.164849 0.512158
Si Si6 0.966407 0.173312 0.919004
Si Si7 0.449924 0.332470 0.814791
O O1 0.918456 0.500000 0.856458
O O2 0.682299 0.707800 0.877568
O O3 0.868675 0.762791 0.900774
O O4 0.159549 0.717791 0.752796
O O5 0.638947 0.500000 0.054086
O O6 0.499731 0.299254 0.149150
O O7 0.788608 0.230057 0.006136
O O8 0.103806 0.500000 0.387414
O O9 0.408246 0.706002 0.330259
O O10 0.290629 0.696885 0.281668
O O11 0.941429 0.762571 0.434572
O O12 0.461031 0.500000 0.650103
O O13 0.554537 0.756142 0.595604
O O14 0.000000 0.179325 0.500000
O O15 0.748058 0.000000 0.517801
O O16 0.243827 0.226138 0.852166
O O17 0.960052 0.000000 0.919028
O O18 0.364291 0.500000 0.830751
#
# Coordination Sequence:
#
# PCOD8065063 Si02
#       7
#     4   4   4   4   4   4   4
#     4  10  20  37  58  80 105 138 179 222 266 313
#     4  10  22  38  58  79 104 139 179 222 268 316
#     4   9  16  29  50  74 101 132 169 212 259 307
#     4   9  16  29  50  74 101 132 169 212 259 307
#     4   9  17  27  43  72 107 134 164 208 255 305
#     4  12  24  36  54  79 108 141 178 220 266 316
#     4  10  20  37  58  80 105 138 179 222 266 313
#
# _framework density 18.380374
#
# number of rings (size 3 to 8) (size 9 to 14) (size 15 to 20)
#    0.000    2.143    1.429    2.571    0.000    7.429 
#    0.000    0.000    0.000    0.857    0.000    6.000 
#    0.000    0.000    0.000    0.000    0.000    0.000 
#
# Total GULP energy -347272.386072 kJ/mol
# GULP energy per Si atom -12402.585217 kJ/mol
# Density = 1.833854 g / cm^3
# Si number density = 18.380374 Si / 1000 Ang^3
#
#
#
# Elastic Constant Matrix: (Units=GPa)
#
#
# Indices 1 2 3 4 5 6 
#
# 1 58.7795 27.4910 22.2807 0.0000 19.5318 0.0000
# 2 27.4910 89.8496 55.5041 0.0000 13.5136 0.0000
# 3 22.2807 55.5041 133.5358 0.0000 21.6221 0.0000
# 4 0.0000 0.0000 0.0000 10.2346 0.0000 -2.6600
# 5 19.5318 13.5136 21.6221 0.0000 19.5278 0.0000
# 6 0.0000 0.0000 0.0000 -2.6600 0.0000 8.3608
#
#
#
# Elastic Compliance Matrix: (Units=1/GPa)
#
#
# Indices 1 2 3 4 5 6 
#
# 1 0.027502 -0.005766 0.001969 0.000000 -0.025698 0.000000
# 2 -0.005766 0.016476 -0.006060 0.000000 0.001076 0.000000
# 3 0.001969 -0.006060 0.011355 0.000000 -0.010348 0.000000
# 4 0.000000 0.000000 0.000000 0.106515 0.000000 0.033887
# 5 -0.025698 0.001076 -0.010348 0.000000 0.087625 0.000000
# 6 0.000000 0.000000 0.000000 0.033887 0.000000 0.130388
#
#
# Mechanical properties :
#
#
# Convention : Reuss Voigt Hill
#
# Bulk Modulus (GPa) = 28.07603 54.74628 41.41116
# Shear Modulus (GPa) = 12.15223 19.41726 15.78475
#
# Velocity S-wave (km/s) = 2.57408 3.25378 2.93368
# Velocity P-wave (km/s) = 4.91352 6.63068 5.83561
#
# Compressibility (1/GPa) = 0.03561757
#
# Stress axis : x y z
#
# Youngs Moduli (GPa) = 36.36069 60.69492 88.07014
#
# Poissons Ratio (x) = 0.34997 -0.17339
# Poissons Ratio (y) = 0.20966 0.53373
# Poissons Ratio (z) = -0.07159 0.36783
#
# Static dielectric constant tensor:
#      x y z
#    x 3.078570 0.000000 0.077740 
#    y 0.000000 3.317410 0.000000 
#    z 0.077740 0.000000 3.607470 
# 
# 
# High freq. dielectric constant tensor:
#      x y z
#    x 1.674630 0.000000 0.005640 
#    y 0.000000 1.702840 0.000000 
#    z 0.005640 0.000000 1.730330 
# 
# From -- ./inp_files/37307.got.cif
#   From: 2010.06.25/outbox.cif.g09.slc.cpg/sg10_19_cif.got.tgz:37307.got - 2010.06.27 22:07:45.
