data_PCOD8065066
_publ_section_title
;
Structure prediction by ZEFSAII (Michael W. Deem and Ramdas Pophale) SiO2 
 PCOD8065066
Probable space group: P 2/M
;
_chemical_formula_sum "Si O2"
_cell_formula_units_Z 30
_cell_length_a 26.366745
_cell_length_b 10.200801
_cell_length_c 11.148808
_cell_angle_alpha 90.000000
_cell_angle_beta 147.756909
_cell_angle_gamma 90.000000
_cell_volume 1599.793229
_symmetry_space_group_name_H-M "P 2/M"
_symmetry_group_IT_number 10
_symmetry_cell_setting 'monoclinic'
loop_
_space_group_symop_operation_xyz
x,y,z
-x,y,-z
-x,-y,-z
x,-y,z
loop_
_atom_site_type_symbol
_atom_site_label
_atom_site_fract_x
_atom_site_fract_y
_atom_site_fract_z
Si Si1 0.163774 0.647035 0.067131
Si Si2 0.832268 0.845297 0.450875
Si Si3 0.360257 0.147215 0.047133
Si Si4 0.979701 0.852857 0.320906
Si Si5 0.500000 0.709419 0.500000
Si Si6 0.516807 0.851461 0.167898
Si Si7 0.111389 0.650846 0.231833
Si Si8 0.621610 0.641409 0.524577
O O1 0.125379 0.500000 0.964473
O O2 0.162050 0.672507 0.205883
O O3 0.268879 0.664734 0.223020
O O4 0.100774 0.751156 0.872974
O O5 0.743997 0.795579 0.191998
O O6 0.837108 0.753647 0.577509
O O7 0.925931 0.819128 0.562589
O O8 0.820704 0.000000 0.463168
O O9 0.346781 0.000000 0.062912
O O10 0.415576 0.210177 0.268483
O O11 0.417967 0.159465 0.039288
O O12 0.000000 0.837878 0.500000
O O13 0.944681 0.000000 0.220331
O O14 0.555235 0.628217 0.509494
O O15 0.594056 0.758406 0.382092
O O16 0.556605 0.000000 0.250696
O O17 0.500000 0.802877 0.000000
O O18 0.124380 0.500000 0.302435
O O19 0.000000 0.685466 0.000000
O O20 0.611822 0.500000 0.439069
#
# Coordination Sequence:
#
# PCOD8065066 Si02
#       8
#     4   4   4   4   2   4   4   4
#     4  10  22  39  58  82 113 149 190 230 275 335
#     4  10  21  36  57  85 115 146 186 234 280 330
#     4   9  19  35  56  84 112 143 183 229 280 333
#     4  10  22  38  56  83 117 148 185 232 278 325
#     4  10  20  38  62  80 109 148 187 236 285 338
#     4   9  19  36  56  80 110 142 180 225 274 331
#     4  10  20  37  58  80 113 151 190 232 275 332
#     4  10  22  38  57  82 111 144 184 232 281 329
#
# _framework density 18.752421999999999
#
# number of rings (size 3 to 8) (size 9 to 14) (size 15 to 20)
#    0.000    2.267    1.333    0.400    3.733    2.400 
#    0.000    3.333    0.000    0.000    0.000    0.000 
#    0.000    0.000    0.000    0.000    0.000    0.000 
#
# Total GULP energy -371874.066909 kJ/mol
# GULP energy per Si atom -12395.802230 kJ/mol
# Density = 1.870974 g / cm^3
# Si number density = 18.752422 Si / 1000 Ang^3
#
#
#
# Elastic Constant Matrix: (Units=GPa)
#
#
# Indices 1 2 3 4 5 6 
#
# 1 65.2552 30.9925 26.3104 0.0000 3.2381 0.0000
# 2 30.9925 101.9735 68.8620 0.0000 4.1402 0.0000
# 3 26.3104 68.8620 112.6671 0.0000 9.6155 0.0000
# 4 0.0000 0.0000 0.0000 -41.3902 0.0000 43.1347
# 5 3.2381 4.1402 9.6155 0.0000 26.8422 0.0000
# 6 0.0000 0.0000 0.0000 43.1347 0.0000 -4.0785
#
#
#
# Elastic Compliance Matrix: (Units=1/GPa)
#
#
# Indices 1 2 3 4 5 6 
#
# 1 0.018077 -0.004530 -0.001368 0.000000 -0.000992 0.000000
# 2 -0.004530 0.017866 -0.009978 0.000000 0.001365 0.000000
# 3 -0.001368 -0.009978 0.015626 0.000000 -0.003894 0.000000
# 4 0.000000 0.000000 0.000000 0.002411 0.000000 0.025496
# 5 -0.000992 0.001365 -0.003894 0.000000 0.038559 0.000000
# 6 0.000000 0.000000 0.000000 0.025496 0.000000 0.024465
#
#
# Mechanical properties :
#
#
# Convention : Reuss Voigt Hill
#
# Bulk Modulus (GPa) = 50.46328 59.13620 54.79974
# Shear Modulus (GPa) = 32.18285 6.52341 19.35313
#
# Velocity S-wave (km/s) = 4.14719 1.86715 3.21601
# Velocity P-wave (km/s) = 7.06406 6.02097 6.56327
#
# Compressibility (1/GPa) = 0.01981639
#
# Stress axis : x y z
#
# Youngs Moduli (GPa) = 55.31982 55.97157 63.99467
#
# Poissons Ratio (x) = 0.25355 0.08754
# Poissons Ratio (y) = 0.25060 0.63857
# Poissons Ratio (z) = 0.07568 0.55851
#
# Static dielectric constant tensor:
#      x y z
#    x 3.461700 0.000000 0.003000 
#    y 0.000000 3.543470 0.000000 
#    z 0.003000 0.000000 3.308960 
# 
# 
# High freq. dielectric constant tensor:
#      x y z
#    x 1.736310 0.000000 0.008030 
#    y 0.000000 1.730450 0.000000 
#    z 0.008030 0.000000 1.720450 
# 
# From -- ./inp_files/58030.got.cif
#   From: 2010.06.25/outbox.cif.g09.slc.cpg/sg10_30_cif.got.tgz:58030.got - 2010.06.27 22:07:45.
