data_PCOD8065801
_publ_section_title
;
Structure prediction by ZEFSAII (Michael W. Deem and Ramdas Pophale) SiO2 
 PCOD8065801
Probable space group: P 2/M
;
_chemical_formula_sum "Si O2"
_cell_formula_units_Z 20
_cell_length_a 10.235678
_cell_length_b 12.813930
_cell_length_c 9.919135
_cell_angle_alpha 90.000000
_cell_angle_beta 61.017893
_cell_angle_gamma 90.000000
_cell_volume 1138.065278
_symmetry_space_group_name_H-M "P 2/M"
_symmetry_group_IT_number 10
_symmetry_cell_setting 'monoclinic'
loop_
_space_group_symop_operation_xyz
x,y,z
-x,y,-z
-x,-y,-z
x,-y,z
loop_
_atom_site_type_symbol
_atom_site_label
_atom_site_fract_x
_atom_site_fract_y
_atom_site_fract_z
Si Si1 0.177437 0.884301 0.062501
Si Si2 0.173552 0.705357 0.258645
Si Si3 0.826448 0.294643 0.432196
Si Si4 0.357337 0.500000 0.165114
Si Si5 0.822563 0.115699 0.239937
Si Si6 0.357337 0.500000 0.477549
O O1 0.241292 0.798899 0.134316
O O2 0.000000 0.885170 0.159108
O O3 0.237277 0.000000 0.071282
O O4 0.229726 0.855020 0.885137
O O5 0.197812 0.737748 0.401094
O O6 0.259271 0.600407 0.178613
O O7 1.000000 0.685475 0.313986
O O8 0.758708 0.201101 0.375608
O O9 0.740729 0.399593 0.437884
O O10 0.406303 0.500000 0.296848
O O11 0.500000 0.500000 0.000000
O O12 0.762723 0.000000 0.308558
O O13 0.500000 0.500000 0.500000
#
# Coordination Sequence:
#
# PCOD8065801 Si02
#       6
#     4   4   4   2   4   2
#     4   8  14  25  42  67  98 125 148 181 227 274
#     4   9  17  30  49  71  94 121 154 191 229 271
#     4   9  17  30  49  71  94 121 154 191 229 271
#     4  10  21  35  49  67  93 124 156 192 234 276
#     4   8  14  25  42  67  98 125 148 181 227 274
#     4  10  21  35  49  67  93 124 156 192 234 276
#
# _framework density 17.573682999999999
#
# number of rings (size 3 to 8) (size 9 to 14) (size 15 to 20)
#    0.000    3.200    0.000    1.800    0.000    4.800 
#    0.000    4.000    0.000    7.200    0.000    0.000 
#    0.000    0.000    0.000    0.000    0.000    0.000 
#
# Total GULP energy -247926.835820 kJ/mol
# GULP energy per Si atom -12396.341791 kJ/mol
# Density = 1.753368 g / cm^3
# Si number density = 17.573683 Si / 1000 Ang^3
#
#
#
# Elastic Constant Matrix: (Units=GPa)
#
#
# Indices 1 2 3 4 5 6 
#
# 1 60.4188 57.9889 41.3676 0.0000 15.9911 0.0000
# 2 57.9889 182.7079 99.2343 0.0000 25.2295 0.0000
# 3 41.3676 99.2343 104.7322 0.0000 11.1149 0.0000
# 4 0.0000 0.0000 0.0000 31.0613 0.0000 15.2672
# 5 15.9911 25.2295 11.1149 0.0000 19.6142 0.0000
# 6 0.0000 0.0000 0.0000 15.2672 0.0000 6.1020
#
#
#
# Elastic Compliance Matrix: (Units=1/GPa)
#
#
# Indices 1 2 3 4 5 6 
#
# 1 0.028093 -0.003484 -0.006214 0.000000 -0.014902 0.000000
# 2 -0.003484 0.013425 -0.010441 0.000000 -0.008512 0.000000
# 3 -0.006214 -0.010441 0.021208 0.000000 0.006478 0.000000
# 4 0.000000 0.000000 0.000000 -0.140107 0.000000 0.350549
# 5 -0.014902 -0.008512 0.006478 0.000000 0.070410 0.000000
# 6 0.000000 0.000000 0.000000 0.350549 0.000000 -0.713194
#
#
# Mechanical properties :
#
#
# Convention : Reuss Voigt Hill
#
# Bulk Modulus (GPa) = 44.54580 82.78227 63.66404
# Shear Modulus (GPa) = -7.43601 21.30670 6.93535
#
# Velocity S-wave (km/s) = -2.05925 3.48576 1.98872
# Velocity P-wave (km/s) = 4.44399 7.96296 6.44817
#
# Compressibility (1/GPa) = 0.02244880
#
# Stress axis : x y z
#
# Youngs Moduli (GPa) = 35.59553 74.48756 47.15173
#
# Poissons Ratio (x) = 0.25948 0.29302
# Poissons Ratio (y) = 0.12400 0.49231
# Poissons Ratio (z) = 0.22120 0.77773
#
# Static dielectric constant tensor:
#      x y z
#    x 2.925840 0.000000 0.233370 
#    y 0.000000 3.621780 0.000000 
#    z 0.233370 0.000000 3.307360 
# 
# 
# High freq. dielectric constant tensor:
#      x y z
#    x 1.639660 0.000000 0.019830 
#    y 0.000000 1.693040 0.000000 
#    z 0.019830 0.000000 1.672080 
# 
# From -- ./inp_files/23436.got.cif
#   From: 2010.06.25/outbox.cif.g09.slc.cpg/sg10_12_cif.got.tgz:23436.got - 2010.06.27 22:07:45.
