data_PCOD8065930
_publ_section_title
;
Structure prediction by ZEFSAII (Michael W. Deem and Ramdas Pophale) SiO2 
 PCOD8065930
Probable space group: P 2/M
;
_chemical_formula_sum "Si O2"
_cell_formula_units_Z 30
_cell_length_a 16.129296
_cell_length_b 20.509375
_cell_length_c 9.012970
_cell_angle_alpha 90.000000
_cell_angle_beta 29.189106
_cell_angle_gamma 90.000000
_cell_volume 1454.061876
_symmetry_space_group_name_H-M "P 2/M"
_symmetry_group_IT_number 10
_symmetry_cell_setting 'monoclinic'
loop_
_space_group_symop_operation_xyz
x,y,z
-x,y,-z
-x,-y,-z
x,-y,z
loop_
_atom_site_type_symbol
_atom_site_label
_atom_site_fract_x
_atom_site_fract_y
_atom_site_fract_z
Si Si1 0.000000 0.836383 0.000000
Si Si2 0.672845 0.426634 0.147385
Si Si3 0.265425 0.752594 0.742394
Si Si4 0.828215 0.328087 0.679257
Si Si5 0.636570 0.214287 0.092370
Si Si6 0.004253 0.070675 0.732749
Si Si7 0.053235 0.623741 0.079857
Si Si8 0.276021 0.927575 0.052056
O O1 0.836894 0.794893 0.214870
O O2 0.941074 0.877917 0.231497
O O3 0.500000 0.403324 0.500000
O O4 0.647346 0.500000 0.126160
O O5 0.705630 0.378786 0.956869
O O6 0.838488 0.429480 0.997480
O O7 0.253847 0.780180 0.927525
O O8 0.457775 0.750464 0.387572
O O9 0.187729 0.681580 0.858329
O O10 0.000000 0.318550 0.500000
O O11 0.878918 0.354592 0.436783
O O12 0.737898 0.256502 0.809292
O O13 0.606784 0.136702 0.104322
O O14 0.132249 0.076015 0.398277
O O15 0.812374 0.079931 0.970825
O O16 0.017904 0.000000 0.786880
O O17 0.000000 0.597915 0.000000
O O18 0.368346 0.000000 0.916093
#
# Coordination Sequence:
#
# PCOD8065930 Si02
#       8
#     2   4   4   4   4   4   4   4
#     4  12  21  36  56  80 113 150 188 244 308 360
#     4  10  21  41  67  93 125 165 209 248 284 346
#     4  11  23  36  57  88 119 150 193 253 302 349
#     4  10  21  35  65  92 115 166 205 247 293 357
#     4  11  21  38  61  85 115 157 202 249 303 363
#     4   9  19  33  54  79 108 146 192 242 299 365
#     4  11  23  39  59  93 130 156 198 254 306 355
#     4   9  19  35  56  82 109 150 201 250 297 363
#
# _framework density 20.63186
#
# number of rings (size 3 to 8) (size 9 to 14) (size 15 to 20)
#    0.000    1.733    4.667    1.800    3.733    2.667 
#    0.000    7.333    0.000    3.200    0.000    0.000 
#    0.000    0.000    0.000    0.000    0.000    0.000 
#
# Total GULP energy -371743.009912 kJ/mol
# GULP energy per Si atom -12391.433664 kJ/mol
# Density = 2.058490 g / cm^3
# Si number density = 20.631860 Si / 1000 Ang^3
#
#
#
# Elastic Constant Matrix: (Units=GPa)
#
#
# Indices 1 2 3 4 5 6 
#
# 1 72.2639 9.5169 17.4194 0.0000 6.8810 0.0000
# 2 9.5169 111.4918 36.9011 0.0000 -0.4480 0.0000
# 3 17.4194 36.9011 96.3368 0.0000 7.1443 0.0000
# 4 0.0000 0.0000 0.0000 34.3213 0.0000 0.7239
# 5 6.8810 -0.4480 7.1443 0.0000 19.6136 0.0000
# 6 0.0000 0.0000 0.0000 0.7239 0.0000 13.1931
#
#
#
# Elastic Compliance Matrix: (Units=1/GPa)
#
#
# Indices 1 2 3 4 5 6 
#
# 1 0.014852 -0.000579 -0.002134 0.000000 -0.004447 0.000000
# 2 -0.000579 0.010350 -0.004001 0.000000 0.001897 0.000000
# 3 -0.002134 -0.004001 0.012590 0.000000 -0.003929 0.000000
# 4 0.000000 0.000000 0.000000 0.029170 0.000000 -0.001601
# 5 -0.004447 0.001897 -0.003929 0.000000 0.054019 0.000000
# 6 0.000000 0.000000 0.000000 -0.001601 0.000000 0.075885
#
#
# Mechanical properties :
#
#
# Convention : Reuss Voigt Hill
#
# Bulk Modulus (GPa) = 41.04271 45.30748 43.17509
# Shear Modulus (GPa) = 22.89207 27.84261 25.36734
#
# Velocity S-wave (km/s) = 3.33460 3.67753 3.51026
# Velocity P-wave (km/s) = 5.89595 6.32771 6.11564
#
# Compressibility (1/GPa) = 0.02436486
#
# Stress axis : x y z
#
# Youngs Moduli (GPa) = 67.32982 96.61432 79.42923
#
# Poissons Ratio (x) = 0.05598 0.16949
# Poissons Ratio (y) = 0.03901 0.31776
# Poissons Ratio (z) = 0.14367 0.38651
#
# Static dielectric constant tensor:
#      x y z
#    x 3.650020 0.000000 0.159840 
#    y 0.000000 4.021670 0.000000 
#    z 0.159840 0.000000 3.708090 
# 
# 
# High freq. dielectric constant tensor:
#      x y z
#    x 1.775780 0.000000 0.008370 
#    y 0.000000 1.817880 0.000000 
#    z 0.008370 0.000000 1.798120 
# 
# From -- ./inp_files/30546.got.cif
#   From: 2010.06.25/outbox.cif.g09.slc.cpg/sg10_16_cif.got.tgz:30546.got - 2010.06.27 22:07:45.
