data_PCOD8065999
_publ_section_title
;
Structure prediction by ZEFSAII (Michael W. Deem and Ramdas Pophale) SiO2 
 PCOD8065999
Probable space group: P 2/M
;
_chemical_formula_sum "Si O2"
_cell_formula_units_Z 32
_cell_length_a 18.834105
_cell_length_b 9.132445
_cell_length_c 10.714008
_cell_angle_alpha 90.000000
_cell_angle_beta 120.925585
_cell_angle_gamma 90.000000
_cell_volume 1580.840431
_symmetry_space_group_name_H-M "P 2/M"
_symmetry_group_IT_number 10
_symmetry_cell_setting 'monoclinic'
loop_
_space_group_symop_operation_xyz
x,y,z
-x,y,-z
-x,-y,-z
x,-y,z
loop_
_atom_site_type_symbol
_atom_site_label
_atom_site_fract_x
_atom_site_fract_y
_atom_site_fract_z
Si Si1 0.448075 0.173823 0.577246
Si Si2 0.468844 0.326834 0.110386
Si Si3 0.034121 0.173068 0.826818
Si Si4 0.861025 0.832734 0.582929
Si Si5 0.719180 0.329152 0.055915
Si Si6 0.170574 0.668997 0.077511
Si Si7 0.854866 0.165676 0.297514
Si Si8 0.274206 0.328467 0.413560
O O1 0.500000 0.215691 0.500000
O O2 0.483103 0.243583 0.736137
O O3 0.357725 0.239092 0.473347
O O4 0.443550 0.000000 0.590789
O O5 0.479435 0.500000 0.143116
O O6 0.500000 0.283600 0.000000
O O7 0.374550 0.273203 0.034243
O O8 0.077997 0.228752 0.739053
O O9 0.938186 0.224002 0.736942
O O10 0.037390 0.000000 0.842729
O O11 0.084037 0.242988 0.987781
O O12 0.892484 0.822808 0.469225
O O13 0.779868 0.730870 0.519932
O O14 0.837473 0.000000 0.595928
O O15 0.719846 0.500000 0.082471
O O16 0.768408 0.253656 0.213307
O O17 0.763836 0.283956 0.968348
O O18 0.147705 0.500000 0.046278
O O19 0.214608 0.708668 0.245033
O O20 0.833589 0.000000 0.242104
O O21 0.294442 0.500000 0.446019
#
# Coordination Sequence:
#
# PCOD8065999 Si02
#       8
#     4   4   4   4   4   4   4   4
#     4  11  25  44  66  92 122 158 203 254 304 362
#     4  10  22  39  61  91 125 161 200 247 302 363
#     4   9  18  34  57  82 110 149 193 236 285 344
#     4  10  21  36  54  81 117 152 189 236 289 344
#     4   9  18  34  56  81 111 145 186 235 285 340
#     4   9  19  36  56  79 108 146 192 240 285 336
#     4   9  18  33  55  81 111 150 192 233 281 341
#     4  11  24  40  60  84 114 153 194 238 291 351
#
# _framework density 20.242395999999999
#
# number of rings (size 3 to 8) (size 9 to 14) (size 15 to 20)
#    0.000    2.250    0.000    1.875    1.750    6.750 
#    0.000    5.000    0.000    3.750    0.000    0.000 
#    0.000    0.000    0.000    0.000    0.000    0.000 
#
# Total GULP energy -396743.756183 kJ/mol
# GULP energy per Si atom -12398.242381 kJ/mol
# Density = 2.019632 g / cm^3
# Si number density = 20.242396 Si / 1000 Ang^3
#
#
#
# Elastic Constant Matrix: (Units=GPa)
#
#
# Indices 1 2 3 4 5 6 
#
# 1 84.0444 36.7395 32.5527 0.0000 14.5546 0.0000
# 2 36.7395 56.4267 38.3528 0.0000 6.8828 0.0000
# 3 32.5527 38.3528 81.6048 0.0000 2.6562 0.0000
# 4 0.0000 0.0000 0.0000 37.3229 0.0000 7.8288
# 5 14.5546 6.8828 2.6562 0.0000 33.2225 0.0000
# 6 0.0000 0.0000 0.0000 7.8288 0.0000 12.4464
#
#
#
# Elastic Compliance Matrix: (Units=1/GPa)
#
#
# Indices 1 2 3 4 5 6 
#
# 1 0.017930 -0.009168 -0.002657 0.000000 -0.005743 0.000000
# 2 -0.009168 0.031395 -0.011046 0.000000 -0.001605 0.000000
# 3 -0.002657 -0.011046 0.018441 0.000000 0.001978 0.000000
# 4 0.000000 0.000000 0.000000 0.030866 0.000000 -0.019414
# 5 -0.005743 -0.001605 0.001978 0.000000 0.032790 0.000000
# 6 0.000000 0.000000 0.000000 -0.019414 0.000000 0.092556
#
#
# Mechanical properties :
#
#
# Convention : Reuss Voigt Hill
#
# Bulk Modulus (GPa) = 45.40285 48.59619 46.99952
# Shear Modulus (GPa) = 18.04671 24.22708 21.13690
#
# Velocity S-wave (km/s) = 2.98909 3.46330 3.23490
# Velocity P-wave (km/s) = 5.86440 6.32866 6.10094
#
# Compressibility (1/GPa) = 0.02202505
#
# Stress axis : x y z
#
# Youngs Moduli (GPa) = 55.77331 31.85266 54.22767
#
# Poissons Ratio (x) = 0.29202 0.14406
# Poissons Ratio (y) = 0.51132 0.59897
# Poissons Ratio (z) = 0.14817 0.35183
#
# Static dielectric constant tensor:
#      x y z
#    x 3.761630 0.000000 0.061840 
#    y 0.000000 3.554340 0.000000 
#    z 0.061840 0.000000 3.773460 
# 
# 
# High freq. dielectric constant tensor:
#      x y z
#    x 1.795630 0.000000 0.004200 
#    y 0.000000 1.778900 0.000000 
#    z 0.004200 0.000000 1.799000 
# 
# From -- ./inp_files/55324.got.cif
#   From: 2010.06.25/outbox.cif.g09.slc.cpg/sg10_28_cif.got.tgz:55324.got - 2010.06.27 22:07:45.
