data_PCOD8065477
_publ_section_title
;
Structure prediction by ZEFSAII (Michael W. Deem and Ramdas Pophale) SiO2 
 PCOD8065477
Probable space group: P 2/M
;
_chemical_formula_sum "Si O2"
_cell_formula_units_Z 20
_cell_length_a 8.646578
_cell_length_b 22.419033
_cell_length_c 9.966494
_cell_angle_alpha 90.000000
_cell_angle_beta 150.175777
_cell_angle_gamma 90.000000
_cell_volume 960.854488
_symmetry_space_group_name_H-M "P 2/M"
_symmetry_group_IT_number 10
_symmetry_cell_setting 'monoclinic'
loop_
_space_group_symop_operation_xyz
x,y,z
-x,y,-z
-x,-y,-z
x,-y,z
loop_
_atom_site_type_symbol
_atom_site_label
_atom_site_fract_x
_atom_site_fract_y
_atom_site_fract_z
Si Si1 0.409942 0.375463 0.586379
Si Si2 0.243222 0.568879 0.916217
Si Si3 0.737207 0.875457 0.913646
Si Si4 0.089252 0.931121 0.416247
Si Si5 0.645434 0.250002 0.750005
O O1 0.500000 0.385279 0.500000
O O2 0.454557 0.306348 0.663277
O O3 0.053171 0.391332 0.342161
O O4 0.629738 0.417570 0.840111
O O5 0.145421 0.500000 0.834240
O O6 0.500000 0.585475 0.000000
O O7 0.868892 0.891328 0.157876
O O8 0.449547 0.917565 0.659925
O O9 0.628024 0.806342 0.836748
O O10 0.000000 0.885271 0.000000
O O11 0.000000 0.914533 0.500000
O O12 0.023150 0.000000 0.334292
O O13 0.500000 0.228282 0.500000
O O14 0.000000 0.271723 0.000000
#
# Coordination Sequence:
#
# PCOD8065477 Si02
#       5
#     4   4   4   4   4
#     4  11  22  39  65  91 117 157 207 250 293 355
#     4  11  24  41  60  88 128 164 195 244 308 359
#     4  11  22  39  65  91 117 157 207 250 293 355
#     4  11  24  41  60  88 128 164 195 244 308 359
#     4  10  20  38  62  90 122 154 194 252 312 350
#
# _framework density 20.814806999999998
#
# number of rings (size 3 to 8) (size 9 to 14) (size 15 to 20)
#    0.000    1.200    0.000    8.400    0.000    8.000 
#    0.000    4.000    0.000    2.400    0.000    0.000 
#    0.000    0.000    0.000    0.000    0.000    0.000 
#
# Total GULP energy -248117.217358 kJ/mol
# GULP energy per Si atom -12405.860868 kJ/mol
# Density = 2.076743 g / cm^3
# Si number density = 20.814807 Si / 1000 Ang^3
#
#
#
# Elastic Constant Matrix: (Units=GPa)
#
#
# Indices 1 2 3 4 5 6 
#
# 1 69.5541 81.2425 38.9232 0.0000 4.8290 0.0000
# 2 81.2425 139.0892 77.2431 0.0000 -0.5016 0.0000
# 3 38.9232 77.2431 160.6933 0.0000 6.7383 0.0000
# 4 0.0000 0.0000 0.0000 50.3069 0.0000 5.4542
# 5 4.8290 -0.5016 6.7383 0.0000 34.5781 0.0000
# 6 0.0000 0.0000 0.0000 5.4542 0.0000 7.3625
#
#
#
# Elastic Compliance Matrix: (Units=1/GPa)
#
#
# Indices 1 2 3 4 5 6 
#
# 1 0.047866 -0.029639 0.002976 0.000000 -0.007695 0.000000
# 2 -0.029639 0.028200 -0.006621 0.000000 0.005839 0.000000
# 3 0.002976 -0.006621 0.008778 0.000000 -0.002222 0.000000
# 4 0.000000 0.000000 0.000000 0.021614 0.000000 -0.016012
# 5 -0.007695 0.005839 -0.002222 0.000000 0.030512 0.000000
# 6 0.000000 0.000000 0.000000 -0.016012 0.000000 0.147686
#
#
# Mechanical properties :
#
#
# Convention : Reuss Voigt Hill
#
# Bulk Modulus (GPa) = 54.71863 84.90603 69.81233
# Shear Modulus (GPa) = 13.99318 29.91135 21.95227
#
# Velocity S-wave (km/s) = 2.59563 3.79492 3.25106
# Velocity P-wave (km/s) = 5.94377 7.75123 6.90688
#
# Compressibility (1/GPa) = 0.01827531
#
# Stress axis : x y z
#
# Youngs Moduli (GPa) = 20.89155 35.46104 113.92011
#
# Poissons Ratio (x) = 1.05103 -0.33898
# Poissons Ratio (y) = 0.61921 0.75426
# Poissons Ratio (z) = -0.06216 0.23479
#
# Static dielectric constant tensor:
#      x y z
#    x 3.609340 0.000000 0.064150 
#    y 0.000000 3.871620 0.000000 
#    z 0.064150 0.000000 4.115230 
# 
# 
# High freq. dielectric constant tensor:
#      x y z
#    x 1.795850 0.000000 0.005780 
#    y 0.000000 1.822140 0.000000 
#    z 0.005780 0.000000 1.841380 
# 
# From -- ./inp_files/20796.got.cif
#   From: 2010.06.25/outbox.cif.g09.slc.cpg/sg10_11_cif.got.tgz:20796.got - 2010.06.27 22:07:45.
