data_PCOD8065776
_publ_section_title
;
Structure prediction by ZEFSAII (Michael W. Deem and Ramdas Pophale) SiO2 
 PCOD8065776
Probable space group: P 2/M
;
_chemical_formula_sum "Si O2"
_cell_formula_units_Z 32
_cell_length_a 22.430725
_cell_length_b 13.355408
_cell_length_c 16.458353
_cell_angle_alpha 90.000000
_cell_angle_beta 21.918993
_cell_angle_gamma 90.000000
_cell_volume 1840.515171
_symmetry_space_group_name_H-M "P 2/M"
_symmetry_group_IT_number 10
_symmetry_cell_setting 'monoclinic'
loop_
_space_group_symop_operation_xyz
x,y,z
-x,y,-z
-x,-y,-z
x,-y,z
loop_
_atom_site_type_symbol
_atom_site_label
_atom_site_fract_x
_atom_site_fract_y
_atom_site_fract_z
Si Si1 0.098794 0.303646 0.152418
Si Si2 0.153600 0.383483 0.259299
Si Si3 0.743110 0.886131 0.800353
Si Si4 0.048237 0.114215 0.308262
Si Si5 0.773535 0.381102 0.490967
Si Si6 0.686833 0.385032 0.260061
Si Si7 0.826371 0.382840 0.245021
Si Si8 0.458747 0.300284 0.962123
O O1 0.167475 0.344739 0.150099
O O2 0.072228 0.184611 0.199151
O O3 0.930950 0.356244 0.343899
O O4 0.230910 0.321538 0.915620
O O5 0.127144 0.500000 0.286709
O O6 0.000000 0.334843 0.500000
O O7 0.313089 0.362963 0.108829
O O8 0.826555 0.854882 0.779551
O O9 0.868966 0.872600 0.568313
O O10 0.682360 0.000000 0.881273
O O11 0.589375 0.816827 0.978922
O O12 0.077699 0.000000 0.243870
O O13 0.741987 0.500000 0.536434
O O14 0.793817 0.338437 0.374427
O O15 0.620732 0.318090 0.709487
O O16 0.500000 0.379913 0.500000
O O17 0.749544 0.500000 0.171757
O O18 0.723213 0.337647 0.302205
O O19 0.796258 0.500000 0.289141
O O20 0.000000 0.352627 0.000000
O O21 0.500000 0.337780 0.000000
#
# Coordination Sequence:
#
# PCOD8065776 Si02
#       8
#     4   4   4   4   4   4   4   4
#     4  12  21  36  59  81 108 145 190 230 279 336
#     4  11  23  36  51  73 108 150 187 220 261 326
#     4   9  18  36  58  80 107 141 184 238 287 323
#     4   9  18  34  60  85 106 137 183 238 288 332
#     4  11  23  36  54  80 115 156 189 223 272 332
#     4  10  21  34  54  84 112 140 184 238 276 319
#     4   9  17  34  53  73 105 143 182 222 271 320
#     4  12  24  36  52  79 114 150 186 226 273 333
#
# _framework density 17.386437000000001
#
# number of rings (size 3 to 8) (size 9 to 14) (size 15 to 20)
#    0.000    1.625    2.500    4.500    1.750    2.250 
#    0.000    0.625    0.000    0.375    0.000    2.625 
#    0.000    0.000    0.000    0.000    0.000    0.000 
#
# Total GULP energy -396626.989623 kJ/mol
# GULP energy per Si atom -12394.593426 kJ/mol
# Density = 1.734686 g / cm^3
# Si number density = 17.386437 Si / 1000 Ang^3
#
#
#
# Elastic Constant Matrix: (Units=GPa)
#
#
# Indices 1 2 3 4 5 6 
#
# 1 122.7298 33.7481 48.1127 0.0000 4.3945 0.0000
# 2 33.7481 72.2162 34.0449 0.0000 9.5276 0.0000
# 3 48.1127 34.0449 108.0145 0.0000 5.5964 0.0000
# 4 0.0000 0.0000 0.0000 26.3333 0.0000 -1.3109
# 5 4.3945 9.5276 5.5964 0.0000 28.8394 0.0000
# 6 0.0000 0.0000 0.0000 -1.3109 0.0000 28.7685
#
#
#
# Elastic Compliance Matrix: (Units=1/GPa)
#
#
# Indices 1 2 3 4 5 6 
#
# 1 0.010452 -0.003180 -0.003662 0.000000 0.000169 0.000000
# 2 -0.003180 0.017810 -0.003957 0.000000 -0.004631 0.000000
# 3 -0.003662 -0.003957 0.012162 0.000000 -0.000495 0.000000
# 4 0.000000 0.000000 0.000000 0.038061 0.000000 0.001734
# 5 0.000169 -0.004631 -0.000495 0.000000 0.036275 0.000000
# 6 0.000000 0.000000 0.000000 0.001734 0.000000 0.034839
#
#
# Mechanical properties :
#
#
# Convention : Reuss Voigt Hill
#
# Bulk Modulus (GPa) = 53.11936 59.41910 56.26923
# Shear Modulus (GPa) = 28.17329 29.25857 28.71593
#
# Velocity S-wave (km/s) = 4.02981 4.10669 4.06843
# Velocity P-wave (km/s) = 7.22987 7.53235 7.38266
#
# Compressibility (1/GPa) = 0.01882553
#
# Stress axis : x y z
#
# Youngs Moduli (GPa) = 95.67513 56.14833 82.22350
#
# Poissons Ratio (x) = 0.17857 0.30110
# Poissons Ratio (y) = 0.30428 0.32535
# Poissons Ratio (z) = 0.35036 0.22217
#
# Static dielectric constant tensor:
#      x y z
#    x 3.424980 0.000000 0.029070 
#    y 0.000000 3.156470 0.000000 
#    z 0.029070 0.000000 3.164310 
# 
# 
# High freq. dielectric constant tensor:
#      x y z
#    x 1.682090 0.000000 -0.006660 
#    y 0.000000 1.648780 0.000000 
#    z -0.006660 0.000000 1.666710 
# 
# From -- ./inp_files/70733.got.cif
#   From: 2010.06.25/outbox.cif.g09.slc.cpg/sg10_36_cif.got.tgz:70733.got - 2010.06.27 22:07:45.
