data_PCOD8065267
_publ_section_title
;
Structure prediction by ZEFSAII (Michael W. Deem and Ramdas Pophale) SiO2 
 PCOD8065267
Probable space group: P 2/M
;
_chemical_formula_sum "Si O2"
_cell_formula_units_Z 26
_cell_length_a 16.041885
_cell_length_b 14.108314
_cell_length_c 9.568534
_cell_angle_alpha 90.000000
_cell_angle_beta 143.168533
_cell_angle_gamma 90.000000
_cell_volume 1298.190719
_symmetry_space_group_name_H-M "P 2/M"
_symmetry_group_IT_number 10
_symmetry_cell_setting 'monoclinic'
loop_
_space_group_symop_operation_xyz
x,y,z
-x,y,-z
-x,-y,-z
x,-y,z
loop_
_atom_site_type_symbol
_atom_site_label
_atom_site_fract_x
_atom_site_fract_y
_atom_site_fract_z
Si Si1 0.118443 0.279248 0.047101
Si Si2 0.089618 0.391647 0.745415
Si Si3 0.500000 0.759905 0.000000
Si Si4 0.606254 0.608509 0.525657
Si Si5 0.622883 0.605917 0.004523
Si Si6 0.718759 0.107627 0.812967
Si Si7 0.486336 0.892164 0.718031
O O1 0.256017 0.327841 0.296428
O O2 0.151787 0.178079 0.021317
O O3 0.049403 0.343217 0.835629
O O4 0.000000 0.262648 0.000000
O O5 0.045260 0.500000 0.701475
O O6 0.253915 0.378168 0.940528
O O7 0.000000 0.345473 0.500000
O O8 0.373301 0.688157 0.872396
O O9 0.458278 0.824386 0.812122
O O10 0.500000 0.647991 0.500000
O O11 0.648733 0.500000 0.618179
O O12 0.526030 0.615341 0.271378
O O13 0.637672 0.500000 0.090849
O O14 0.632584 0.122394 0.555515
O O15 0.631034 0.132042 0.834699
O O16 0.773154 0.000000 0.895147
O O17 0.487730 0.000000 0.774719
#
# Coordination Sequence:
#
# PCOD8065267 Si02
#       7
#     4   4   2   4   4   4   4
#     4  12  24  36  60  94 119 151 201 254 300 348
#     4  10  22  40  58  79 119 165 198 235 289 357
#     4  12  20  30  52  86 122 152 180 250 294 336
#     4  10  20  37  62  86 116 156 204 250 287 341
#     4  10  21  36  56  84 115 159 204 235 288 351
#     4   9  20  40  61  82 112 154 196 245 302 361
#     4   9  19  35  59  87 112 146 196 243 297 357
#
# _framework density 20.027874000000001
#
# number of rings (size 3 to 8) (size 9 to 14) (size 15 to 20)
#    0.000    1.846    1.538    3.692    2.154    4.000 
#    0.000    3.077    0.000    0.462    0.000    0.000 
#    0.000    0.000    0.000    0.000    0.000    0.000 
#
# Total GULP energy -322341.864531 kJ/mol
# GULP energy per Si atom -12397.764020 kJ/mol
# Density = 1.998229 g / cm^3
# Si number density = 20.027874 Si / 1000 Ang^3
#
#
#
# Elastic Constant Matrix: (Units=GPa)
#
#
# Indices 1 2 3 4 5 6 
#
# 1 97.0568 53.3232 17.3989 0.0000 -9.4851 0.0000
# 2 53.3232 114.6704 25.1174 0.0000 -8.4497 0.0000
# 3 17.3989 25.1174 64.9778 0.0000 -3.1950 0.0000
# 4 0.0000 0.0000 0.0000 14.8192 0.0000 -13.4400
# 5 -9.4851 -8.4497 -3.1950 0.0000 31.8451 0.0000
# 6 0.0000 0.0000 0.0000 -13.4400 0.0000 35.9811
#
#
#
# Elastic Compliance Matrix: (Units=1/GPa)
#
#
# Indices 1 2 3 4 5 6 
#
# 1 0.014131 -0.006104 -0.001303 0.000000 0.002458 0.000000
# 2 -0.006104 0.012316 -0.003070 0.000000 0.001142 0.000000
# 3 -0.001303 -0.003070 0.016950 0.000000 0.000498 0.000000
# 4 0.000000 0.000000 0.000000 0.102052 0.000000 0.038119
# 5 0.002458 0.001142 0.000498 0.000000 0.032487 0.000000
# 6 0.000000 0.000000 0.000000 0.038119 0.000000 0.042031
#
#
# Mechanical properties :
#
#
# Convention : Reuss Voigt Hill
#
# Bulk Modulus (GPa) = 44.56042 52.04266 48.30154
# Shear Modulus (GPa) = 20.12863 28.58678 24.35771
#
# Velocity S-wave (km/s) = 3.17366 3.78213 3.49118
# Velocity P-wave (km/s) = 5.97721 6.71671 6.35772
#
# Compressibility (1/GPa) = 0.02244144
#
# Stress axis : x y z
#
# Youngs Moduli (GPa) = 70.76682 81.19599 58.99688
#
# Poissons Ratio (x) = 0.49566 0.07689
# Poissons Ratio (y) = 0.43199 0.18112
# Poissons Ratio (z) = 0.09222 0.24928
#
# Static dielectric constant tensor:
#      x y z
#    x 3.528540 0.000000 -0.094200 
#    y 0.000000 3.910070 0.000000 
#    z -0.094200 0.000000 3.362530 
# 
# 
# High freq. dielectric constant tensor:
#      x y z
#    x 1.775110 0.000000 -0.014650 
#    y 0.000000 1.794360 0.000000 
#    z -0.014650 0.000000 1.752090 
# 
# From -- ./inp_files/29845.got.cif
#   From: 2010.06.25/outbox.cif.g09.slc.cpg/sg10_15_cif.got.tgz:29845.got - 2010.06.27 22:07:45.
