data_PCOD8065294
_publ_section_title
;
Structure prediction by ZEFSAII (Michael W. Deem and Ramdas Pophale) SiO2 
 PCOD8065294
Probable space group: P 2/M
;
_chemical_formula_sum "Si O2"
_cell_formula_units_Z 28
_cell_length_a 21.713917
_cell_length_b 8.490378
_cell_length_c 9.700266
_cell_angle_alpha 90.000000
_cell_angle_beta 131.703236
_cell_angle_gamma 90.000000
_cell_volume 1335.171899
_symmetry_space_group_name_H-M "P 2/M"
_symmetry_group_IT_number 10
_symmetry_cell_setting 'monoclinic'
loop_
_space_group_symop_operation_xyz
x,y,z
-x,y,-z
-x,-y,-z
x,-y,z
loop_
_atom_site_type_symbol
_atom_site_label
_atom_site_fract_x
_atom_site_fract_y
_atom_site_fract_z
Si Si1 0.620081 0.181782 0.946103
Si Si2 0.678982 0.680664 0.760559
Si Si3 0.431694 0.182318 0.632626
Si Si4 0.679073 0.680331 0.306747
Si Si5 0.848544 0.818372 0.931185
Si Si6 0.853295 0.181713 0.626039
Si Si7 0.002460 0.812679 0.660294
O O1 0.668010 0.208026 0.875504
O O2 0.525574 0.235996 0.792038
O O3 0.626451 0.000000 0.998547
O O4 0.665266 0.288119 0.125702
O O5 0.674964 0.500000 0.800516
O O6 0.606352 0.712736 0.544454
O O7 0.766083 0.716660 0.819521
O O8 0.382897 0.208363 0.701538
O O9 0.425859 0.000000 0.580942
O O10 0.659557 0.500000 0.313914
O O11 0.772862 0.714665 0.484426
O O12 0.884389 0.800637 0.829884
O O13 0.827017 0.000000 0.929963
O O14 0.915382 0.752512 0.139798
O O15 0.923228 0.247759 0.627145
O O16 0.832507 0.000000 0.561619
O O17 0.000000 0.746649 0.500000
O O18 0.002533 0.000000 0.660741
#
# Coordination Sequence:
#
# PCOD8065294 Si02
#       7
#     4   4   4   4   4   4   4
#     4  11  25  43  65  90 123 166 215 265 314 371
#     4  12  25  40  62  94 131 167 207 258 318 376
#     4  11  23  43  67  92 121 164 217 263 310 371
#     4  12  25  40  62  94 131 167 207 258 318 376
#     4  10  20  37  62  89 123 166 211 254 304 369
#     4  10  20  37  62  89 123 166 211 254 304 369
#     4   9  19  35  60  95 124 156 207 262 308 359
#
# _framework density 20.971084000000001
#
# number of rings (size 3 to 8) (size 9 to 14) (size 15 to 20)
#    0.000    1.286    1.429    4.714    2.000    7.429 
#    0.000    0.714    0.000    2.571    0.000    0.000 
#    0.000    0.000    0.000    0.000    0.000    0.000 
#
# Total GULP energy -347382.915711 kJ/mol
# GULP energy per Si atom -12406.532704 kJ/mol
# Density = 2.092335 g / cm^3
# Si number density = 20.971084 Si / 1000 Ang^3
#
#
#
# Elastic Constant Matrix: (Units=GPa)
#
#
# Indices 1 2 3 4 5 6 
#
# 1 97.3471 12.0956 44.8186 0.0000 -6.2387 0.0000
# 2 12.0956 59.7019 27.2689 0.0000 9.4764 0.0000
# 3 44.8186 27.2689 128.7435 0.0000 -8.7534 0.0000
# 4 0.0000 0.0000 0.0000 20.6955 0.0000 -8.4580
# 5 -6.2387 9.4764 -8.7534 0.0000 34.6183 0.0000
# 6 0.0000 0.0000 0.0000 -8.4580 0.0000 8.3968
#
#
#
# Elastic Compliance Matrix: (Units=1/GPa)
#
#
# Indices 1 2 3 4 5 6 
#
# 1 0.012319 -0.000900 -0.003999 0.000000 0.001455 0.000000
# 2 -0.000900 0.020005 -0.004382 0.000000 -0.006746 0.000000
# 3 -0.003999 -0.004382 0.010297 0.000000 0.003083 0.000000
# 4 0.000000 0.000000 0.000000 0.082130 0.000000 0.082729
# 5 0.001455 -0.006746 0.003083 0.000000 0.031775 0.000000
# 6 0.000000 0.000000 0.000000 0.082729 0.000000 0.202425
#
#
# Mechanical properties :
#
#
# Convention : Reuss Voigt Hill
#
# Bulk Modulus (GPa) = 41.56672 50.46205 46.01438
# Shear Modulus (GPa) = 12.96905 26.18274 19.57589
#
# Velocity S-wave (km/s) = 2.48951 3.53727 3.05859
# Velocity P-wave (km/s) = 5.30354 6.38733 5.87050
#
# Compressibility (1/GPa) = 0.02405771
#
# Stress axis : x y z
#
# Youngs Moduli (GPa) = 81.17743 49.98788 97.11304
#
# Poissons Ratio (x) = 0.04501 0.38833
# Poissons Ratio (y) = 0.07309 0.42559
# Poissons Ratio (z) = 0.32461 0.21907
#
# Static dielectric constant tensor:
#      x y z
#    x 3.842120 0.000000 -0.068200 
#    y 0.000000 3.540600 0.000000 
#    z -0.068200 0.000000 3.878210 
# 
# 
# High freq. dielectric constant tensor:
#      x y z
#    x 1.829180 0.000000 -0.003950 
#    y 0.000000 1.798480 0.000000 
#    z -0.003950 0.000000 1.832210 
# 
# From -- ./inp_files/34312.got.cif
#   From: 2010.06.25/outbox.cif.g09.slc.cpg/sg10_18_cif.got.tgz:34312.got - 2010.06.27 22:07:45.
