data_PCOD8065223
_publ_section_title
;
Structure prediction by ZEFSAII (Michael W. Deem and Ramdas Pophale) SiO2 
 PCOD8065223
Probable space group: P 2/M
;
_chemical_formula_sum "Si O2"
_cell_formula_units_Z 28
_cell_length_a 10.950002
_cell_length_b 9.108926
_cell_length_c 27.897214
_cell_angle_alpha 90.000000
_cell_angle_beta 30.039496
_cell_angle_gamma 90.000000
_cell_volume 1392.933329
_symmetry_space_group_name_H-M "P 2/M"
_symmetry_group_IT_number 10
_symmetry_cell_setting 'monoclinic'
loop_
_space_group_symop_operation_xyz
x,y,z
-x,y,-z
-x,-y,-z
x,-y,z
loop_
_atom_site_type_symbol
_atom_site_label
_atom_site_fract_x
_atom_site_fract_y
_atom_site_fract_z
Si Si1 0.969738 0.672249 0.954460
Si Si2 0.521155 0.172957 0.883079
Si Si3 0.738461 0.667413 0.395045
Si Si4 0.227144 0.666756 0.285057
Si Si5 0.998131 0.831780 0.227267
Si Si6 0.271554 0.829069 0.775847
Si Si7 0.755064 0.327771 0.610227
O O1 0.963346 0.500000 0.946402
O O2 0.198815 0.742089 0.848719
O O3 0.724359 0.745875 0.017533
O O4 0.000000 0.708147 0.000000
O O5 0.596356 0.225978 0.804418
O O6 0.727961 0.218929 0.851670
O O7 0.472998 0.000000 0.898620
O O8 0.500000 0.739848 0.500000
O O9 0.684117 0.500000 0.399993
O O10 0.953362 0.683753 0.360017
O O11 0.796320 0.745936 0.325787
O O12 0.323502 0.500000 0.245324
O O13 0.221702 0.712468 0.341950
O O14 0.944542 0.805633 0.189548
O O15 0.968758 0.000000 0.251857
O O16 0.523097 0.762575 0.669296
O O17 0.307370 0.000000 0.775477
O O18 0.711465 0.500000 0.616291
O O19 0.000000 0.275411 0.500000
#
# Coordination Sequence:
#
# PCOD8065223 Si02
#       7
#     4   4   4   4   4   4   4
#     4  11  24  41  62  88 118 151 189 236 290 344
#     4  10  20  37  61  86 114 150 191 234 286 343
#     4   9  18  31  54  83 109 144 192 240 281 333
#     4   9  18  34  53  80 114 146 186 236 286 337
#     4   9  21  39  56  81 118 155 188 233 290 342
#     4  11  24  41  60  85 118 153 194 240 286 342
#     4  10  22  38  58  82 114 155 193 236 292 344
#
# _framework density 20.101464
#
# number of rings (size 3 to 8) (size 9 to 14) (size 15 to 20)
#    0.000    2.143    0.000    2.143    2.000    8.000 
#    0.000    2.857    0.000    0.000    0.000    0.000 
#    0.000    0.000    0.000    0.000    0.000    0.000 
#
# Total GULP energy -347284.947436 kJ/mol
# GULP energy per Si atom -12403.033837 kJ/mol
# Density = 2.005571 g / cm^3
# Si number density = 20.101464 Si / 1000 Ang^3
#
#
#
# Elastic Constant Matrix: (Units=GPa)
#
#
# Indices 1 2 3 4 5 6 
#
# 1 78.6865 41.9202 35.5780 0.0000 2.5208 0.0000
# 2 41.9202 86.6473 53.6687 0.0000 -4.1856 0.0000
# 3 35.5780 53.6687 121.1400 0.0000 -14.5912 0.0000
# 4 0.0000 0.0000 0.0000 0.0051 0.0000 -11.1515
# 5 2.5208 -4.1856 -14.5912 0.0000 26.1392 0.0000
# 6 0.0000 0.0000 0.0000 -11.1515 0.0000 25.6076
#
#
#
# Elastic Compliance Matrix: (Units=1/GPa)
#
#
# Indices 1 2 3 4 5 6 
#
# 1 0.017876 -0.007281 -0.002543 0.000000 -0.004309 0.000000
# 2 -0.007281 0.018926 -0.006214 0.000000 0.000264 0.000000
# 3 -0.002543 -0.006214 0.012506 0.000000 0.006231 0.000000
# 4 0.000000 0.000000 0.000000 -0.206140 0.000000 -0.089769
# 5 -0.004309 0.000264 0.006231 0.000000 0.042193 0.000000
# 6 0.000000 0.000000 0.000000 -0.089769 0.000000 -0.000041
#
#
# Mechanical properties :
#
#
# Convention : Reuss Voigt Hill
#
# Bulk Modulus (GPa) = 58.04135 60.97861 59.50998
# Shear Modulus (GPa) = -65.05252 20.70417 -22.17417
#
# Velocity S-wave (km/s) = -5.69494 3.21282 -3.32492
# Velocity P-wave (km/s) = 3.78236 6.64561 3.86380
#
# Compressibility (1/GPa) = 0.01722910
#
# Stress axis : x y z
#
# Youngs Moduli (GPa) = 55.94180 52.83838 79.96467
#
# Poissons Ratio (x) = 0.38473 0.20337
# Poissons Ratio (y) = 0.40733 0.49693
# Poissons Ratio (z) = 0.14227 0.32836
#
# Static dielectric constant tensor:
#      x y z
#    x 3.689260 0.000000 -0.137480 
#    y 0.000000 3.600210 0.000000 
#    z -0.137480 0.000000 3.676950 
# 
# 
# High freq. dielectric constant tensor:
#      x y z
#    x 1.788690 0.000000 -0.008960 
#    y 0.000000 1.779490 0.000000 
#    z -0.008960 0.000000 1.786390 
# 
# From -- ./inp_files/92611.got.cif
#   From: 2010.06.25/outbox.cif.g09.slc.cpg/sg10_47_cif.got.tgz:92611.got - 2010.06.27 22:07:45.
