data_PCOD8065165
_publ_section_title
;
Structure prediction by ZEFSAII (Michael W. Deem and Ramdas Pophale) SiO2 
 PCOD8065165
Probable space group: P 2/M
;
_chemical_formula_sum "Si O2"
_cell_formula_units_Z 32
_cell_length_a 21.046060
_cell_length_b 9.121809
_cell_length_c 14.291903
_cell_angle_alpha 90.000000
_cell_angle_beta 35.267303
_cell_angle_gamma 90.000000
_cell_volume 1584.208864
_symmetry_space_group_name_H-M "P 2/M"
_symmetry_group_IT_number 10
_symmetry_cell_setting 'monoclinic'
loop_
_space_group_symop_operation_xyz
x,y,z
-x,y,-z
-x,-y,-z
x,-y,z
loop_
_atom_site_type_symbol
_atom_site_label
_atom_site_fract_x
_atom_site_fract_y
_atom_site_fract_z
Si Si1 0.170338 0.172548 0.636702
Si Si2 0.672513 0.329473 0.419316
Si Si3 0.013604 0.661665 0.382458
Si Si4 0.410671 0.672283 0.035914
Si Si5 0.932416 0.168113 0.854434
Si Si6 0.230146 0.338515 0.391657
Si Si7 0.441012 0.671162 0.790299
Si Si8 0.693321 0.171120 0.206330
O O1 0.218585 0.253941 0.669153
O O2 0.243683 0.223239 0.459508
O O3 0.042029 0.219543 0.778584
O O4 0.183594 0.000000 0.635014
O O5 0.697245 0.500000 0.373940
O O6 0.568163 0.303882 0.611420
O O7 0.644632 0.255763 0.353703
O O8 0.067435 0.500000 0.331856
O O9 0.896140 0.646199 0.477885
O O10 0.000000 0.739846 0.500000
O O11 0.087554 0.752001 0.221152
O O12 0.428985 0.500000 0.004823
O O13 0.292662 0.713798 0.222654
O O14 0.500000 0.740005 0.000000
O O15 0.422546 0.735846 0.917116
O O16 0.948006 0.000000 0.808904
O O17 0.825283 0.196032 0.046041
O O18 0.276129 0.500000 0.367694
O O19 0.409213 0.500000 0.819892
O O20 0.361420 0.764248 0.820350
O O21 0.664347 0.000000 0.248873
#
# Coordination Sequence:
#
# PCOD8065165 Si02
#       8
#     4   4   4   4   4   4   4   4
#     4  10  20  37  60  84 114 152 193 237 286 340
#     4  11  23  40  62  87 113 146 192 242 295 348
#     4   9  18  30  50  80 109 142 185 233 277 324
#     4   9  17  31  54  82 111 146 185 227 277 332
#     4   9  21  39  56  80 115 155 193 232 283 345
#     4   9  17  31  51  78 111 145 183 227 276 331
#     4  10  22  39  61  87 116 151 192 238 288 345
#     4  11  24  41  60  84 116 153 193 238 290 345
#
# _framework density 20.199356999999999
#
# number of rings (size 3 to 8) (size 9 to 14) (size 15 to 20)
#    0.000    2.250    0.000    2.250    1.750    6.750 
#    0.000    3.125    0.000    1.500    0.000    0.000 
#    0.000    0.000    0.000    0.000    0.000    0.000 
#
# Total GULP energy -396732.458536 kJ/mol
# GULP energy per Si atom -12397.889329 kJ/mol
# Density = 2.015338 g / cm^3
# Si number density = 20.199357 Si / 1000 Ang^3
#
#
#
# Elastic Constant Matrix: (Units=GPa)
#
#
# Indices 1 2 3 4 5 6 
#
# 1 109.6253 45.7785 26.8376 0.0000 17.4698 0.0000
# 2 45.7785 82.6081 34.5711 0.0000 3.3144 0.0000
# 3 26.8376 34.5711 77.3898 0.0000 11.0934 0.0000
# 4 0.0000 0.0000 0.0000 14.7315 0.0000 -3.2859
# 5 17.4698 3.3144 11.0934 0.0000 32.0765 0.0000
# 6 0.0000 0.0000 0.0000 -3.2859 0.0000 26.8136
#
#
#
# Elastic Compliance Matrix: (Units=1/GPa)
#
#
# Indices 1 2 3 4 5 6 
#
# 1 0.013078 -0.006731 -0.000639 0.000000 -0.006206 0.000000
# 2 -0.006731 0.018373 -0.006446 0.000000 0.003997 0.000000
# 3 -0.000639 -0.006446 0.016705 0.000000 -0.004763 0.000000
# 4 0.000000 0.000000 0.000000 0.069789 0.000000 0.008552
# 5 -0.006206 0.003997 -0.004763 0.000000 0.035790 0.000000
# 6 0.000000 0.000000 0.000000 0.008552 0.000000 0.038343
#
#
# Mechanical properties :
#
#
# Convention : Reuss Voigt Hill
#
# Bulk Modulus (GPa) = 48.72215 53.77749 51.24982
# Shear Modulus (GPa) = 22.06995 25.55337 23.81166
#
# Velocity S-wave (km/s) = 3.30905 3.56062 3.43714
# Velocity P-wave (km/s) = 6.22677 6.60191 6.41708
#
# Compressibility (1/GPa) = 0.02052455
#
# Stress axis : x y z
#
# Youngs Moduli (GPa) = 76.46257 54.42824 59.86061
#
# Poissons Ratio (x) = 0.36637 0.03824
# Poissons Ratio (y) = 0.51468 0.38586
# Poissons Ratio (z) = 0.04884 0.35085
#
# Static dielectric constant tensor:
#      x y z
#    x 3.694800 0.000000 0.076080 
#    y 0.000000 3.664940 0.000000 
#    z 0.076080 0.000000 3.737970 
# 
# 
# High freq. dielectric constant tensor:
#      x y z
#    x 1.791950 0.000000 0.003710 
#    y 0.000000 1.766350 0.000000 
#    z 0.003710 0.000000 1.791870 
# 
# From -- ./inp_files/71468.got.cif
#   From: 2010.06.25/outbox.cif.g09.slc.cpg/sg10_36_cif.got.tgz:71468.got - 2010.06.27 22:07:45.
