data_PCOD8065668
_publ_section_title
;
Structure prediction by ZEFSAII (Michael W. Deem and Ramdas Pophale) SiO2 
 PCOD8065668
Probable space group: P 2/M
;
_chemical_formula_sum "Si O2"
_cell_formula_units_Z 20
_cell_length_a 8.870363
_cell_length_b 12.939771
_cell_length_c 17.365818
_cell_angle_alpha 90.000000
_cell_angle_beta 28.921794
_cell_angle_gamma 90.000000
_cell_volume 963.969537
_symmetry_space_group_name_H-M "P 2/M"
_symmetry_group_IT_number 10
_symmetry_cell_setting 'monoclinic'
loop_
_space_group_symop_operation_xyz
x,y,z
-x,y,-z
-x,-y,-z
x,-y,z
loop_
_atom_site_type_symbol
_atom_site_label
_atom_site_fract_x
_atom_site_fract_y
_atom_site_fract_z
Si Si1 0.344281 0.279785 0.874637
Si Si2 0.170868 0.613745 0.257652
Si Si3 0.228107 0.257219 0.673827
Si Si4 0.735376 0.120052 0.965631
Si Si5 0.386251 0.617151 0.384211
O O1 0.468418 0.361565 0.883093
O O2 0.570187 0.294474 0.700311
O O3 0.377152 0.168349 0.902009
O O4 0.000000 0.307579 0.000000
O O5 0.150806 0.500000 0.230117
O O6 0.053045 0.697793 0.250528
O O7 0.968172 0.619603 0.427165
O O8 0.500000 0.205261 0.500000
O O9 0.380047 0.352806 0.651292
O O10 0.074061 0.170054 0.796553
O O11 0.784163 0.000000 0.959139
O O12 0.500000 0.139008 0.000000
O O13 0.467809 0.500000 0.319460
#
# Coordination Sequence:
#
# PCOD8065668 Si02
#       5
#     4   4   4   4   4
#     4  12  23  38  59  89 122 158 196 239 294 352
#     4  10  21  38  61  87 125 166 197 232 282 348
#     4  10  20  40  65  89 117 154 204 245 287 350
#     4  11  24  45  65  83 112 153 200 253 309 347
#     4  10  21  38  60  90 126 162 193 233 290 350
#
# _framework density 20.747540999999998
#
# number of rings (size 3 to 8) (size 9 to 14) (size 15 to 20)
#    0.000    1.400    4.000    1.800    0.000    6.400 
#    0.000    1.000    0.000    2.400    0.000    0.000 
#    0.000    0.000    0.000    0.000    0.000    0.000 
#
# Total GULP energy -247842.858899 kJ/mol
# GULP energy per Si atom -12392.142945 kJ/mol
# Density = 2.070032 g / cm^3
# Si number density = 20.747541 Si / 1000 Ang^3
#
#
#
# Elastic Constant Matrix: (Units=GPa)
#
#
# Indices 1 2 3 4 5 6 
#
# 1 92.5211 41.0100 41.3163 0.0000 -13.5644 0.0000
# 2 41.0100 132.1545 66.3019 0.0000 6.2555 0.0000
# 3 41.3163 66.3019 56.2717 0.0000 -4.8795 0.0000
# 4 0.0000 0.0000 0.0000 26.2558 0.0000 6.0311
# 5 -13.5644 6.2555 -4.8795 0.0000 46.4052 0.0000
# 6 0.0000 0.0000 0.0000 6.0311 0.0000 30.9123
#
#
#
# Elastic Compliance Matrix: (Units=1/GPa)
#
#
# Indices 1 2 3 4 5 6 
#
# 1 0.016803 0.001672 -0.014028 0.000000 0.003211 0.000000
# 2 0.001672 0.019813 -0.024989 0.000000 -0.004810 0.000000
# 3 -0.014028 -0.024989 0.057979 0.000000 0.005364 0.000000
# 4 0.000000 0.000000 0.000000 0.039874 0.000000 -0.007780
# 5 0.003211 -0.004810 0.005364 0.000000 0.023700 0.000000
# 6 0.000000 0.000000 0.000000 -0.007780 0.000000 0.033867
#
#
# Mechanical properties :
#
#
# Convention : Reuss Voigt Hill
#
# Bulk Modulus (GPa) = 50.24188 64.24484 57.24336
# Shear Modulus (GPa) = 18.29088 29.53592 23.91340
#
# Velocity S-wave (km/s) = 2.97238 3.77714 3.39866
# Velocity P-wave (km/s) = 6.00404 7.07493 6.56137
#
# Compressibility (1/GPa) = 0.01990371
#
# Stress axis : x y z
#
# Youngs Moduli (GPa) = 59.51475 50.47309 17.24768
#
# Poissons Ratio (x) = -0.08438 0.24196
# Poissons Ratio (y) = -0.09950 0.43100
# Poissons Ratio (z) = 0.83489 1.26125
#
# Static dielectric constant tensor:
#      x y z
#    x 3.954200 0.000000 -0.001750 
#    y 0.000000 3.480910 0.000000 
#    z -0.001750 0.000000 3.853330 
# 
# 
# High freq. dielectric constant tensor:
#      x y z
#    x 1.833640 0.000000 -0.006160 
#    y 0.000000 1.779500 0.000000 
#    z -0.006160 0.000000 1.807460 
# 
# From -- ./inp_files/17767.got.cif
#   From: 2010.06.25/outbox.cif.g09.slc.cpg/sg10_9_cif.got.tgz:17767.got - 2010.06.27 22:07:45.
