data_PCOD8065933
_publ_section_title
;
Structure prediction by ZEFSAII (Michael W. Deem and Ramdas Pophale) SiO2 
 PCOD8065933
Probable space group: P 2/M
;
_chemical_formula_sum "Si O2"
_cell_formula_units_Z 32
_cell_length_a 19.990434
_cell_length_b 13.658914
_cell_length_c 22.911733
_cell_angle_alpha 90.000000
_cell_angle_beta 16.822093
_cell_angle_gamma 90.000000
_cell_volume 1810.490419
_symmetry_space_group_name_H-M "P 2/M"
_symmetry_group_IT_number 10
_symmetry_cell_setting 'monoclinic'
loop_
_space_group_symop_operation_xyz
x,y,z
-x,y,-z
-x,-y,-z
x,-y,z
loop_
_atom_site_type_symbol
_atom_site_label
_atom_site_fract_x
_atom_site_fract_y
_atom_site_fract_z
Si Si1 0.032543 0.114989 0.130107
Si Si2 0.916318 0.892186 0.351530
Si Si3 0.144449 0.298832 0.534539
Si Si4 0.899788 0.613368 0.302775
Si Si5 0.317161 0.614477 0.106593
Si Si6 0.612713 0.758582 0.465364
Si Si7 0.590598 0.891411 0.275174
Si Si8 0.580079 0.386433 0.112302
O O1 0.066015 0.147491 0.170544
O O2 0.806043 0.160752 0.289724
O O3 0.994150 0.000000 0.161746
O O4 0.250065 0.148141 0.910307
O O5 0.917549 0.815738 0.403564
O O6 0.661345 0.901194 0.540104
O O7 0.001527 0.000000 0.302010
O O8 0.167024 0.354684 0.576624
O O9 0.386940 0.314013 0.299284
O O10 0.935171 0.340193 0.670339
O O11 0.842650 0.500000 0.343980
O O12 0.735939 0.668292 0.394253
O O13 0.172514 0.633195 0.063123
O O14 0.290251 0.500000 0.138880
O O15 0.500000 0.658873 0.000000
O O16 0.400071 0.639619 0.972412
O O17 0.500000 0.719337 0.500000
O O18 0.410430 0.810387 0.672737
O O19 0.672729 0.000000 0.228399
O O20 0.507174 0.500000 0.181588
#
# Coordination Sequence:
#
# PCOD8065933 Si02
#       8
#     4   4   4   4   4   4   4   4
#     4   9  18  34  53  72 100 131 165 210 263 314
#     4   9  18  31  50  79 105 129 165 213 255 299
#     4  11  18  32  57  79 103 136 171 209 256 307
#     4  10  21  36  51  72 100 132 174 221 259 301
#     4   9  19  34  51  80 117 141 167 208 251 300
#     4  11  22  34  49  72 101 135 172 216 262 317
#     4   9  18  33  52  74  98 129 165 209 264 317
#     4   9  19  33  54  80 102 132 173 213 254 300
#
# _framework density 17.674769000000001
#
# number of rings (size 3 to 8) (size 9 to 14) (size 15 to 20)
#    0.000    2.375    2.500    3.000    1.750    2.250 
#    0.000    3.125    0.000    0.375    0.000    5.250 
#    0.000    0.000    0.000    0.000    0.000    0.000 
#
# Total GULP energy -396642.035961 kJ/mol
# GULP energy per Si atom -12395.063624 kJ/mol
# Density = 1.763454 g / cm^3
# Si number density = 17.674769 Si / 1000 Ang^3
#
#
#
# Elastic Constant Matrix: (Units=GPa)
#
#
# Indices 1 2 3 4 5 6 
#
# 1 75.6736 37.3544 26.3435 0.0000 -8.5864 0.0000
# 2 37.3544 76.8464 36.8606 0.0000 4.3605 0.0000
# 3 26.3435 36.8606 80.9585 0.0000 21.2109 0.0000
# 4 0.0000 0.0000 0.0000 72.4800 0.0000 -13.7309
# 5 -8.5864 4.3605 21.2109 0.0000 23.2357 0.0000
# 6 0.0000 0.0000 0.0000 -13.7309 0.0000 26.3745
#
#
#
# Elastic Compliance Matrix: (Units=1/GPa)
#
#
# Indices 1 2 3 4 5 6 
#
# 1 0.021649 -0.007671 -0.007919 0.000000 0.016669 0.000000
# 2 -0.007671 0.019819 -0.006323 0.000000 -0.000782 0.000000
# 3 -0.007919 -0.006323 0.024005 0.000000 -0.023653 0.000000
# 4 0.000000 0.000000 0.000000 0.015307 0.000000 0.007969
# 5 0.016669 -0.000782 -0.023653 0.000000 0.070935 0.000000
# 6 0.000000 0.000000 0.000000 0.007969 0.000000 0.042064
#
#
# Mechanical properties :
#
#
# Convention : Reuss Voigt Hill
#
# Bulk Modulus (GPa) = 46.19490 48.28840 47.24165
# Shear Modulus (GPa) = 20.42319 33.27937 26.85128
#
# Velocity S-wave (km/s) = 3.40295 4.34392 3.90190
# Velocity P-wave (km/s) = 6.45236 7.24840 6.86193
#
# Compressibility (1/GPa) = 0.02164741
#
# Stress axis : x y z
#
# Youngs Moduli (GPa) = 46.19072 50.45711 41.65886
#
# Poissons Ratio (x) = 0.38705 0.32991
# Poissons Ratio (y) = 0.35432 0.26339
# Poissons Ratio (z) = 0.36580 0.31902
#
# Static dielectric constant tensor:
#      x y z
#    x 3.156910 0.000000 0.186490 
#    y 0.000000 3.435150 0.000000 
#    z 0.186490 0.000000 3.504040 
# 
# 
# High freq. dielectric constant tensor:
#      x y z
#    x 1.648500 0.000000 0.011430 
#    y 0.000000 1.681020 0.000000 
#    z 0.011430 0.000000 1.686340 
# 
# From -- ./inp_files/85939.got.cif
#   From: 2010.06.25/outbox.cif.g09.slc.cpg/sg10_43_cif.got.tgz:85939.got - 2010.06.27 22:07:45.
