data_PCOD8065344
_publ_section_title
;
Structure prediction by ZEFSAII (Michael W. Deem and Ramdas Pophale) SiO2 
 PCOD8065344
Probable space group: P 2/M
;
_chemical_formula_sum "Si O2"
_cell_formula_units_Z 28
_cell_length_a 7.291525
_cell_length_b 13.478916
_cell_length_c 17.334442
_cell_angle_alpha 90.000000
_cell_angle_beta 125.865314
_cell_angle_gamma 90.000000
_cell_volume 1380.640931
_symmetry_space_group_name_H-M "P 2/M"
_symmetry_group_IT_number 10
_symmetry_cell_setting 'monoclinic'
loop_
_space_group_symop_operation_xyz
x,y,z
-x,y,-z
-x,-y,-z
x,-y,z
loop_
_atom_site_type_symbol
_atom_site_label
_atom_site_fract_x
_atom_site_fract_y
_atom_site_fract_z
Si Si1 0.697276 0.752731 0.607564
Si Si2 0.004955 0.617935 0.226621
Si Si3 0.251796 0.113845 0.079202
Si Si4 0.454869 0.888064 0.290869
Si Si5 0.459183 0.279335 0.903332
Si Si6 0.034734 0.113900 0.595965
Si Si7 0.194823 0.392242 0.109873
O O1 0.500000 0.723216 0.500000
O O2 0.812219 0.649898 0.663992
O O3 0.592516 0.811016 0.653506
O O4 0.884095 0.821245 0.614908
O O5 0.946565 0.500000 0.219336
O O6 0.100779 0.647393 0.167129
O O7 0.791072 0.691045 0.184439
O O8 0.281100 0.126506 0.178128
O O9 0.456692 0.164893 0.080286
O O10 0.260844 0.000000 0.055458
O O11 0.000000 0.158964 0.000000
O O12 0.704256 0.870489 0.317085
O O13 0.438612 0.000000 0.320682
O O14 0.612290 0.322741 0.873482
O O15 0.500000 0.321579 0.000000
O O16 0.000000 0.149755 0.500000
O O17 0.957670 0.000000 0.586383
O O18 0.304069 0.500000 0.150136
O O19 0.000000 0.398893 0.000000
#
# Coordination Sequence:
#
# PCOD8065344 Si02
#       7
#     4   4   4   4   4   4   4
#     4  12  24  39  64  90 120 165 211 257 314 377
#     4  11  26  44  63  92 124 161 211 266 321 376
#     4  10  23  42  62  91 136 177 207 245 298 373
#     4  10  21  39  63  91 126 164 207 254 302 360
#     4  12  23  37  67  95 124 166 210 253 308 372
#     4  10  20  37  63  96 127 156 199 260 313 361
#     4  10  20  38  63  91 123 153 197 261 318 362
#
# _framework density 20.280435000000001
#
# number of rings (size 3 to 8) (size 9 to 14) (size 15 to 20)
#    0.000    1.286    2.857    3.000    2.000    1.714 
#    0.000    0.714    0.000    0.429    0.000    0.000 
#    0.000    0.000    0.000    0.000    0.000    0.000 
#
# Total GULP energy -347120.808041 kJ/mol
# GULP energy per Si atom -12397.171716 kJ/mol
# Density = 2.023428 g / cm^3
# Si number density = 20.280435 Si / 1000 Ang^3
#
#
#
# Elastic Constant Matrix: (Units=GPa)
#
#
# Indices 1 2 3 4 5 6 
#
# 1 108.0685 52.4324 44.2329 0.0000 0.9070 0.0000
# 2 52.4324 88.9348 35.1072 0.0000 7.1536 0.0000
# 3 44.2329 35.1072 134.4059 0.0000 15.7669 0.0000
# 4 0.0000 0.0000 0.0000 28.8485 0.0000 3.8700
# 5 0.9070 7.1536 15.7669 0.0000 26.9034 0.0000
# 6 0.0000 0.0000 0.0000 3.8700 0.0000 33.1413
#
#
#
# Elastic Compliance Matrix: (Units=1/GPa)
#
#
# Indices 1 2 3 4 5 6 
#
# 1 0.014046 -0.007323 -0.003095 0.000000 0.003288 0.000000
# 2 -0.007323 0.016413 -0.001497 0.000000 -0.003240 0.000000
# 3 -0.003095 -0.001497 0.009440 0.000000 -0.005030 0.000000
# 4 0.000000 0.000000 0.000000 0.035216 0.000000 -0.004112
# 5 0.003288 -0.003240 -0.005030 0.000000 0.040869 0.000000
# 6 0.000000 0.000000 0.000000 -0.004112 0.000000 0.030654
#
#
# Mechanical properties :
#
#
# Convention : Reuss Voigt Hill
#
# Bulk Modulus (GPa) = 62.23676 66.10603 64.17140
# Shear Modulus (GPa) = 28.43743 31.08774 29.76259
#
# Velocity S-wave (km/s) = 3.74867 3.91947 3.83502
# Velocity P-wave (km/s) = 7.03501 7.29038 7.16384
#
# Compressibility (1/GPa) = 0.01606767
#
# Stress axis : x y z
#
# Youngs Moduli (GPa) = 71.19517 60.92593 105.93372
#
# Poissons Ratio (x) = 0.44619 0.32789
# Poissons Ratio (y) = 0.52140 0.15858
# Poissons Ratio (z) = 0.22037 0.09120
#
# Static dielectric constant tensor:
#      x y z
#    x 3.615990 0.000000 0.133200 
#    y 0.000000 3.809490 0.000000 
#    z 0.133200 0.000000 3.758050 
# 
# 
# High freq. dielectric constant tensor:
#      x y z
#    x 1.794320 0.000000 0.000660 
#    y 0.000000 1.788480 0.000000 
#    z 0.000660 0.000000 1.793720 
# 
# From -- ./inp_files/73569.got.cif
#   From: 2010.06.25/outbox.cif.g09.slc.cpg/sg10_37_cif.got.tgz:73569.got - 2010.06.27 22:07:45.
