data_PCOD8065696
_publ_section_title
;
Structure prediction by ZEFSAII (Michael W. Deem and Ramdas Pophale) SiO2 
 PCOD8065696
Probable space group: P 2/M
;
_chemical_formula_sum "Si O2"
_cell_formula_units_Z 32
_cell_length_a 14.041059
_cell_length_b 13.683310
_cell_length_c 18.253861
_cell_angle_alpha 90.000000
_cell_angle_beta 27.418888
_cell_angle_gamma 90.000000
_cell_volume 1614.984169
_symmetry_space_group_name_H-M "P 2/M"
_symmetry_group_IT_number 10
_symmetry_cell_setting 'monoclinic'
loop_
_space_group_symop_operation_xyz
x,y,z
-x,y,-z
-x,-y,-z
x,-y,z
loop_
_atom_site_type_symbol
_atom_site_label
_atom_site_fract_x
_atom_site_fract_y
_atom_site_fract_z
Si Si1 0.724798 0.718954 0.815169
Si Si2 0.352382 0.245023 0.391181
Si Si3 0.018445 0.889567 0.400925
Si Si4 0.113857 0.385256 0.158872
Si Si5 0.562868 0.385572 0.791073
Si Si6 0.696523 0.288127 0.408928
Si Si7 0.157740 0.110498 0.782262
Si Si8 0.283479 0.110317 0.861685
O O1 0.884755 0.671666 0.764208
O O2 0.720004 0.654174 0.745304
O O3 0.774264 0.831838 0.762813
O O4 0.500000 0.716235 0.000000
O O5 0.158341 0.174778 0.514873
O O6 0.351672 0.342279 0.343127
O O7 0.374942 0.277773 0.459078
O O8 0.544371 0.184007 0.228746
O O9 0.000000 0.893539 0.500000
O O10 0.021614 0.000000 0.366632
O O11 0.104920 0.500000 0.181110
O O12 0.904915 0.353261 0.258400
O O13 0.320553 0.359295 0.971485
O O14 0.591257 0.500000 0.766958
O O15 0.500000 0.335779 0.500000
O O16 0.738308 0.180789 0.347642
O O17 0.235416 0.134126 0.810326
O O18 0.214275 0.000000 0.720556
O O19 0.910984 0.125075 0.952014
O O20 0.366289 0.000000 0.812134
#
# Coordination Sequence:
#
# PCOD8065696 Si02
#       8
#     4   4   4   4   4   4   4   4
#     4  10  20  41  68  93 120 153 195 245 302 359
#     4  12  22  38  60  85 122 161 201 247 298 353
#     4  11  23  40  59  88 128 164 193 232 297 365
#     4  10  22  42  65  90 120 154 196 250 309 366
#     4  10  22  41  67  93 116 150 202 253 302 366
#     4  12  24  38  57  87 122 163 201 250 305 351
#     4   9  19  36  57  82 113 150 202 253 295 345
#     4   9  18  35  59  83 110 154 201 247 297 350
#
# _framework density 19.814435
#
# number of rings (size 3 to 8) (size 9 to 14) (size 15 to 20)
#    0.000    1.625    3.750    2.250    0.000    3.750 
#    0.000    0.625    0.000    1.500    0.000    0.000 
#    0.000    0.000    0.000    0.000    0.000    0.000 
#
# Total GULP energy -396751.438062 kJ/mol
# GULP energy per Si atom -12398.482439 kJ/mol
# Density = 1.976934 g / cm^3
# Si number density = 19.814435 Si / 1000 Ang^3
#
#
#
# Elastic Constant Matrix: (Units=GPa)
#
#
# Indices 1 2 3 4 5 6 
#
# 1 98.1821 36.0169 32.4798 0.0000 2.1043 0.0000
# 2 36.0169 113.9906 34.6907 0.0000 8.6326 0.0000
# 3 32.4798 34.6907 40.4895 0.0000 11.3830 0.0000
# 4 0.0000 0.0000 0.0000 36.4698 0.0000 -1.5987
# 5 2.1043 8.6326 11.3830 0.0000 34.8628 0.0000
# 6 0.0000 0.0000 0.0000 -1.5987 0.0000 25.6710
#
#
#
# Elastic Compliance Matrix: (Units=1/GPa)
#
#
# Indices 1 2 3 4 5 6 
#
# 1 0.014323 -0.001350 -0.011213 0.000000 0.003131 0.000000
# 2 -0.001350 0.012000 -0.009233 0.000000 0.000125 0.000000
# 3 -0.011213 -0.009233 0.044891 0.000000 -0.011694 0.000000
# 4 0.000000 0.000000 0.000000 0.027495 0.000000 0.001712
# 5 0.003131 0.000125 -0.011694 0.000000 0.032282 0.000000
# 6 0.000000 0.000000 0.000000 0.001712 0.000000 0.039061
#
#
# Mechanical properties :
#
#
# Convention : Reuss Voigt Hill
#
# Bulk Modulus (GPa) = 36.20428 51.00410 43.60419
# Shear Modulus (GPa) = 22.43659 29.36573 25.90116
#
# Velocity S-wave (km/s) = 3.36867 3.85390 3.61943
# Velocity P-wave (km/s) = 5.78290 6.75279 6.28658
#
# Compressibility (1/GPa) = 0.02762104
#
# Stress axis : x y z
#
# Youngs Moduli (GPa) = 69.81958 83.33530 22.27635
#
# Poissons Ratio (x) = 0.11252 0.24978
# Poissons Ratio (y) = 0.09427 0.20568
# Poissons Ratio (z) = 0.78286 0.76945
#
# Static dielectric constant tensor:
#      x y z
#    x 3.737910 0.000000 -0.183270 
#    y 0.000000 3.648900 0.000000 
#    z -0.183270 0.000000 3.697000 
# 
# 
# High freq. dielectric constant tensor:
#      x y z
#    x 1.768170 0.000000 -0.007370 
#    y 0.000000 1.769340 0.000000 
#    z -0.007370 0.000000 1.778010 
# 
# From -- ./inp_files/78175.got.cif
#   From: 2010.06.25/outbox.cif.g09.slc.cpg/sg10_40_cif.got.tgz:78175.got - 2010.06.27 22:07:45.
