data_PCOD8065077
_publ_section_title
;
Structure prediction by ZEFSAII (Michael W. Deem and Ramdas Pophale) SiO2 
 PCOD8065077
Probable space group: P 2/M
;
_chemical_formula_sum "Si O2"
_cell_formula_units_Z 20
_cell_length_a 8.460533
_cell_length_b 20.556785
_cell_length_c 7.121559
_cell_angle_alpha 90.000000
_cell_angle_beta 50.850850
_cell_angle_gamma 90.000000
_cell_volume 960.533813
_symmetry_space_group_name_H-M "P 2/M"
_symmetry_group_IT_number 10
_symmetry_cell_setting 'monoclinic'
loop_
_space_group_symop_operation_xyz
x,y,z
-x,y,-z
-x,-y,-z
x,-y,z
loop_
_atom_site_type_symbol
_atom_site_label
_atom_site_fract_x
_atom_site_fract_y
_atom_site_fract_z
Si Si1 0.519836 0.880715 0.271724
Si Si2 0.000000 0.328262 0.500000
Si Si3 0.193388 0.073902 0.241814
Si Si4 0.500000 0.636927 0.500000
Si Si5 0.917484 0.427439 0.267795
Si Si6 0.580835 0.735987 0.733521
O O1 0.500000 0.907257 0.500000
O O2 0.376805 0.925524 0.252360
O O3 0.442179 0.806899 0.337145
O O4 0.743397 0.887210 0.999589
O O5 0.052365 0.377346 0.289218
O O6 0.818025 0.282780 0.566493
O O7 0.000000 0.105055 0.500000
O O8 0.142617 0.000000 0.221481
O O9 0.318691 0.591711 0.565883
O O10 0.447314 0.684931 0.713277
O O11 0.934947 0.500000 0.340179
O O12 0.000000 0.425321 0.000000
O O13 0.500000 0.736480 0.000000
#
# Coordination Sequence:
#
# PCOD8065077 Si02
#       6
#     4   2   4   2   4   4
#     4  11  22  38  62  91 119 158 199 244 293 351
#     4  10  23  36  56  84 113 152 192 242 294 344
#     4  10  23  43  64  89 123 158 196 242 294 350
#     4  10  21  36  56  86 115 148 190 240 298 346
#     4  10  20  37  58  82 112 149 192 238 290 349
#     4  11  21  37  57  81 119 152 193 239 294 351
#
# _framework density 20.821756000000001
#
# number of rings (size 3 to 8) (size 9 to 14) (size 15 to 20)
#    0.000    1.600    3.000    3.000    1.400    2.400 
#    0.000    2.000    0.000    9.600    0.000    0.000 
#    0.000    0.000    0.000    0.000    0.000    0.000 
#
# Total GULP energy -247837.652115 kJ/mol
# GULP energy per Si atom -12391.882606 kJ/mol
# Density = 2.077436 g / cm^3
# Si number density = 20.821756 Si / 1000 Ang^3
#
#
#
# Elastic Constant Matrix: (Units=GPa)
#
#
# Indices 1 2 3 4 5 6 
#
# 1 47.4811 16.6299 34.1020 0.0000 8.1958 0.0000
# 2 16.6299 95.9320 22.3843 0.0000 -5.4579 0.0000
# 3 34.1020 22.3843 119.4807 0.0000 5.0083 0.0000
# 4 0.0000 0.0000 0.0000 26.1117 0.0000 6.7372
# 5 8.1958 -5.4579 5.0083 0.0000 34.1580 0.0000
# 6 0.0000 0.0000 0.0000 6.7372 0.0000 25.7965
#
#
#
# Elastic Compliance Matrix: (Units=1/GPa)
#
#
# Indices 1 2 3 4 5 6 
#
# 1 0.028625 -0.003641 -0.007220 0.000000 -0.006391 0.000000
# 2 -0.003641 0.011509 -0.001238 0.000000 0.002894 0.000000
# 3 -0.007220 -0.001238 0.010663 0.000000 -0.000029 0.000000
# 4 0.000000 0.000000 0.000000 0.041064 0.000000 -0.010725
# 5 -0.006391 0.002894 -0.000029 0.000000 0.031276 0.000000
# 6 0.000000 0.000000 0.000000 -0.010725 0.000000 0.041566
#
#
# Mechanical properties :
#
#
# Convention : Reuss Voigt Hill
#
# Bulk Modulus (GPa) = 37.59591 45.45846 41.52719
# Shear Modulus (GPa) = 25.28207 29.86506 27.57356
#
# Velocity S-wave (km/s) = 3.48834 3.79135 3.64300
# Velocity P-wave (km/s) = 5.85832 6.40667 6.13862
#
# Compressibility (1/GPa) = 0.02659864
#
# Stress axis : x y z
#
# Youngs Moduli (GPa) = 34.93429 86.88991 93.77797
#
# Poissons Ratio (x) = 0.31638 0.67708
# Poissons Ratio (y) = 0.12720 0.11612
# Poissons Ratio (z) = 0.25223 0.10759
#
# Static dielectric constant tensor:
#      x y z
#    x 3.870550 0.000000 -0.059260 
#    y 0.000000 3.965690 0.000000 
#    z -0.059260 0.000000 4.209620 
# 
# 
# High freq. dielectric constant tensor:
#      x y z
#    x 1.798820 0.000000 0.012530 
#    y 0.000000 1.821460 0.000000 
#    z 0.012530 0.000000 1.820960 
# 
# From -- ./inp_files/5102.got.cif
#   From: 2010.06.25/outbox.cif.g09.slc.cpg/sg10_3_cif.got.tgz:5102.got - 2010.06.27 22:07:45.
