data_PCOD8065995
_publ_section_title
;
Structure prediction by ZEFSAII (Michael W. Deem and Ramdas Pophale) SiO2 
 PCOD8065995
Probable space group: P 2/M
;
_chemical_formula_sum "Si O2"
_cell_formula_units_Z 24
_cell_length_a 12.286325
_cell_length_b 9.071870
_cell_length_c 23.591654
_cell_angle_alpha 90.000000
_cell_angle_beta 153.492242
_cell_angle_gamma 90.000000
_cell_volume 1173.606669
_symmetry_space_group_name_H-M "P 2/M"
_symmetry_group_IT_number 10
_symmetry_cell_setting 'monoclinic'
loop_
_space_group_symop_operation_xyz
x,y,z
-x,y,-z
-x,-y,-z
x,-y,z
loop_
_atom_site_type_symbol
_atom_site_label
_atom_site_fract_x
_atom_site_fract_y
_atom_site_fract_z
Si Si1 0.079649 0.172113 0.976498
Si Si2 0.583013 0.830018 0.161689
Si Si3 0.898015 0.328330 0.221023
Si Si4 0.035885 0.168196 0.453093
Si Si5 0.655300 0.670477 0.487803
Si Si6 0.161617 0.171996 0.250740
O O1 0.872693 0.200982 0.832559
O O2 0.123590 0.000000 0.007092
O O3 0.334483 0.237877 0.071848
O O4 0.000000 0.243832 0.000000
O O5 0.663612 0.737967 0.143960
O O6 0.781835 0.812428 0.303103
O O7 0.549471 0.000000 0.127579
O O8 0.851026 0.500000 0.188763
O O9 0.143507 0.298401 0.370945
O O10 0.934441 0.245599 0.178210
O O11 0.000000 0.221011 0.500000
O O12 0.244244 0.272417 0.525154
O O13 0.129872 0.000000 0.493506
O O14 0.587433 0.500000 0.451731
O O15 0.410759 0.757115 0.389267
O O16 0.163662 0.000000 0.265828
#
# Coordination Sequence:
#
# PCOD8065995 Si02
#       6
#     4   4   4   4   4   4
#     4   9  20  37  58  83 112 147 184 228 280 328
#     4   9  18  35  58  82 111 144 184 232 276 327
#     4  10  21  38  58  81 114 149 183 227 283 337
#     4   9  18  31  54  85 110 141 186 233 277 323
#     4  10  21  36  54  80 115 151 183 223 280 338
#     4  11  22  35  58  86 112 145 189 233 274 327
#
# _framework density 20.449781000000002
#
# number of rings (size 3 to 8) (size 9 to 14) (size 15 to 20)
#    0.000    2.333    0.000    2.000    2.333    5.000 
#    0.000    5.000    0.000    2.500    0.000    0.000 
#    0.000    0.000    0.000    0.000    0.000    0.000 
#
# Total GULP energy -297632.222160 kJ/mol
# GULP energy per Si atom -12401.342590 kJ/mol
# Density = 2.040324 g / cm^3
# Si number density = 20.449781 Si / 1000 Ang^3
#
#
#
# Elastic Constant Matrix: (Units=GPa)
#
#
# Indices 1 2 3 4 5 6 
#
# 1 144.2927 52.9380 27.3101 0.0000 11.3760 0.0000
# 2 52.9380 88.4138 25.0082 0.0000 6.4377 0.0000
# 3 27.3101 25.0082 40.6971 0.0000 21.8823 0.0000
# 4 0.0000 0.0000 0.0000 16.9428 0.0000 1.7040
# 5 11.3760 6.4377 21.8823 0.0000 32.9660 0.0000
# 6 0.0000 0.0000 0.0000 1.7040 0.0000 18.4783
#
#
#
# Elastic Compliance Matrix: (Units=1/GPa)
#
#
# Indices 1 2 3 4 5 6 
#
# 1 0.009253 -0.004587 -0.003352 0.000000 -0.000073 0.000000
# 2 -0.004587 0.016412 -0.009540 0.000000 0.004710 0.000000
# 3 -0.003352 -0.009540 0.048297 0.000000 -0.029039 0.000000
# 4 0.000000 0.000000 0.000000 0.059575 0.000000 -0.005494
# 5 -0.000073 0.004710 -0.029039 0.000000 0.048715 0.000000
# 6 0.000000 0.000000 0.000000 -0.005494 0.000000 0.054624
#
#
# Mechanical properties :
#
#
# Convention : Reuss Voigt Hill
#
# Bulk Modulus (GPa) = 25.63734 53.76845 39.70290
# Shear Modulus (GPa) = 17.55396 24.88723 21.22060
#
# Velocity S-wave (km/s) = 2.93301 3.49233 3.22482
# Velocity P-wave (km/s) = 4.90245 6.52777 5.77260
#
# Compressibility (1/GPa) = 0.03900561
#
# Stress axis : x y z
#
# Youngs Moduli (GPa) = 108.06848 60.92950 20.70521
#
# Poissons Ratio (x) = 0.27949 0.06940
# Poissons Ratio (y) = 0.49573 0.19752
# Poissons Ratio (z) = 0.36222 0.58125
#
# Static dielectric constant tensor:
#      x y z
#    x 3.957500 0.000000 0.091650 
#    y 0.000000 3.498250 0.000000 
#    z 0.091650 0.000000 3.565610 
# 
# 
# High freq. dielectric constant tensor:
#      x y z
#    x 1.812870 0.000000 0.004120 
#    y 0.000000 1.775350 0.000000 
#    z 0.004120 0.000000 1.794570 
# 
# From -- ./inp_files/45162.got.cif
#   From: 2010.06.25/outbox.cif.g09.slc.cpg/sg10_23_cif.got.tgz:45162.got - 2010.06.27 22:07:45.
