data_PCOD8065967
_publ_section_title
;
Structure prediction by ZEFSAII (Michael W. Deem and Ramdas Pophale) SiO2 
 PCOD8065967
Probable space group: P 2/M
;
_chemical_formula_sum "Si O2"
_cell_formula_units_Z 28
_cell_length_a 18.672923
_cell_length_b 13.662345
_cell_length_c 9.093471
_cell_angle_alpha 90.000000
_cell_angle_beta 136.863954
_cell_angle_gamma 90.000000
_cell_volume 1586.184790
_symmetry_space_group_name_H-M "P 2/M"
_symmetry_group_IT_number 10
_symmetry_cell_setting 'monoclinic'
loop_
_space_group_symop_operation_xyz
x,y,z
-x,y,-z
-x,-y,-z
x,-y,z
loop_
_atom_site_type_symbol
_atom_site_label
_atom_site_fract_x
_atom_site_fract_y
_atom_site_fract_z
Si Si1 0.055393 0.389217 0.354799
Si Si2 0.837504 0.610625 0.175345
Si Si3 0.489798 0.892644 0.311890
Si Si4 0.278532 0.884850 0.337528
Si Si5 0.718375 0.797204 0.977579
Si Si6 0.904216 0.200792 0.753601
Si Si7 0.101318 0.886418 0.568237
O O1 0.072043 0.500000 0.323274
O O2 0.124781 0.369390 0.602502
O O3 0.091523 0.315621 0.281375
O O4 0.933655 0.370614 0.208717
O O5 0.796163 0.500000 0.097245
O O6 0.741365 0.681949 0.988438
O O7 0.500000 0.903542 0.500000
O O8 0.604479 0.860055 0.426816
O O9 0.459392 0.000000 0.201280
O O10 0.399845 0.813652 0.138238
O O11 0.203349 0.819612 0.323999
O O12 0.253848 0.000000 0.316676
O O13 0.263731 0.856727 0.145180
O O14 0.796095 0.833889 0.219138
O O15 0.912377 0.132588 0.623904
O O16 0.000000 0.170515 0.000000
O O17 0.000000 0.842779 0.500000
O O18 0.112726 0.000000 0.617714
#
# Coordination Sequence:
#
# PCOD8065967 Si02
#       7
#     4   4   4   4   4   4   4
#     4   9  18  34  53  75 104 137 175 218 263 312
#     4   9  17  31  55  81 103 130 173 226 266 302
#     4   8  16  32  54  77 100 135 181 219 255 304
#     4  10  21  36  53  77 110 143 175 214 262 313
#     4  11  18  33  59  78  99 136 182 221 257 309
#     4  12  23  34  51  76 110 144 170 210 269 319
#     4  11  22  33  48  74 105 137 176 214 253 310
#
# _framework density 17.652419999999999
#
# number of rings (size 3 to 8) (size 9 to 14) (size 15 to 20)
#    0.000    2.000    1.429    6.000    0.000    2.571 
#    0.000    1.429    0.000    7.286    0.000    2.000 
#    0.000    0.000    0.000    0.000    0.000    0.000 
#
# Total GULP energy -347162.250803 kJ/mol
# GULP energy per Si atom -12398.651814 kJ/mol
# Density = 1.761224 g / cm^3
# Si number density = 17.652420 Si / 1000 Ang^3
#
#
#
# Elastic Constant Matrix: (Units=GPa)
#
#
# Indices 1 2 3 4 5 6 
#
# 1 101.4471 45.1281 48.3011 0.0000 17.8143 0.0000
# 2 45.1281 112.5232 52.6121 0.0000 22.2589 0.0000
# 3 48.3011 52.6121 87.6363 0.0000 17.8060 0.0000
# 4 0.0000 0.0000 0.0000 30.2299 0.0000 -4.7602
# 5 17.8143 22.2589 17.8060 0.0000 30.7216 0.0000
# 6 0.0000 0.0000 0.0000 -4.7602 0.0000 21.4150
#
#
#
# Elastic Compliance Matrix: (Units=1/GPa)
#
#
# Indices 1 2 3 4 5 6 
#
# 1 0.014217 -0.002379 -0.005761 0.000000 -0.003181 0.000000
# 2 -0.002379 0.013556 -0.005794 0.000000 -0.005084 0.000000
# 3 -0.005761 -0.005794 0.018740 0.000000 -0.003323 0.000000
# 4 0.000000 0.000000 0.000000 0.034280 0.000000 0.007620
# 5 -0.003181 -0.005084 -0.003323 0.000000 0.040004 0.000000
# 6 0.000000 0.000000 0.000000 0.007620 0.000000 0.048390
#
#
# Mechanical properties :
#
#
# Convention : Reuss Voigt Hill
#
# Bulk Modulus (GPa) = 53.63579 65.96548 59.80064
# Shear Modulus (GPa) = 24.59770 26.84432 25.72101
#
# Velocity S-wave (km/s) = 3.73694 3.90387 3.82131
# Velocity P-wave (km/s) = 7.00500 7.60069 7.30891
#
# Compressibility (1/GPa) = 0.01864427
#
# Stress axis : x y z
#
# Youngs Moduli (GPa) = 70.33670 73.76814 53.36217
#
# Poissons Ratio (x) = 0.17548 0.30744
# Poissons Ratio (y) = 0.16731 0.30919
# Poissons Ratio (z) = 0.40524 0.42743
#
# Static dielectric constant tensor:
#      x y z
#    x 3.299340 0.000000 0.224090 
#    y 0.000000 3.378460 0.000000 
#    z 0.224090 0.000000 3.300450 
# 
# 
# High freq. dielectric constant tensor:
#      x y z
#    x 1.665250 0.000000 0.003130 
#    y 0.000000 1.684750 0.000000 
#    z 0.003130 0.000000 1.671150 
# 
# From -- ./inp_files/32773.got.cif
#   From: 2010.06.25/outbox.cif.g09.slc.cpg/sg10_17_cif.got.tgz:32773.got - 2010.06.27 22:07:45.
