data_PCOD8065208
_publ_section_title
;
Structure prediction by ZEFSAII (Michael W. Deem and Ramdas Pophale) SiO2 
 PCOD8065208
Probable space group: P 2/M
;
_chemical_formula_sum "Si O2"
_cell_formula_units_Z 22
_cell_length_a 12.719571
_cell_length_b 14.275300
_cell_length_c 11.039725
_cell_angle_alpha 90.000000
_cell_angle_beta 144.277800
_cell_angle_gamma 90.000000
_cell_volume 1170.365676
_symmetry_space_group_name_H-M "P 2/M"
_symmetry_group_IT_number 10
_symmetry_cell_setting 'monoclinic'
loop_
_space_group_symop_operation_xyz
x,y,z
-x,y,-z
-x,-y,-z
x,-y,z
loop_
_atom_site_type_symbol
_atom_site_label
_atom_site_fract_x
_atom_site_fract_y
_atom_site_fract_z
Si Si1 0.260069 0.896663 0.163004
Si Si2 0.107157 0.103473 0.288865
Si Si3 0.500000 0.243574 0.500000
Si Si4 0.276783 0.710592 0.500857
Si Si5 0.441045 0.395061 0.082154
Si Si6 0.036798 0.610186 0.668843
O O1 0.179625 0.897600 0.221454
O O2 0.418547 0.819661 0.313476
O O3 0.340212 0.000000 0.208518
O O4 0.106295 0.871681 0.920462
O O5 0.212893 0.181941 0.465095
O O6 0.132697 0.000000 0.372062
O O7 0.653478 0.303902 0.573811
O O8 0.439371 0.682072 0.739855
O O9 0.104760 0.645834 0.364081
O O10 0.465758 0.500000 0.161326
O O11 0.500000 0.399262 0.000000
O O12 0.234872 0.361767 0.899419
O O13 0.014265 0.500000 0.639445
O O14 0.000000 0.652933 0.500000
#
# Coordination Sequence:
#
# PCOD8065208 Si02
#       6
#     4   4   2   4   4   4
#     4   8  14  29  49  71 104 146 193 230 256 292
#     4   8  16  30  50  76 108 147 184 222 262 316
#     4  10  21  30  47  86 118 148 176 218 266 348
#     4  11  21  34  56  83 117 145 179 220 278 329
#     4  10  20  37  61  86 104 130 186 243 276 312
#     4  10  20  37  61  84 104 134 184 240 280 310
#
# _framework density 18.797543999999998
#
# number of rings (size 3 to 8) (size 9 to 14) (size 15 to 20)
#    0.000    2.545    1.818    1.909    2.545    0.727 
#    0.000    1.818    0.000    3.273    0.000    0.000 
#    0.000    0.000    0.000    0.000    0.000    0.000 
#
# Total GULP energy -272587.302638 kJ/mol
# GULP energy per Si atom -12390.331938 kJ/mol
# Density = 1.875476 g / cm^3
# Si number density = 18.797544 Si / 1000 Ang^3
#
#
#
# Elastic Constant Matrix: (Units=GPa)
#
#
# Indices 1 2 3 4 5 6 
#
# 1 84.1286 20.9388 35.9609 0.0000 24.6130 0.0000
# 2 20.9388 68.6390 77.0010 0.0000 5.4417 0.0000
# 3 35.9609 77.0010 122.6929 0.0000 19.8761 0.0000
# 4 0.0000 0.0000 0.0000 -729.6797 0.0000 -230.4013
# 5 24.6130 5.4417 19.8761 0.0000 25.6901 0.0000
# 6 0.0000 0.0000 0.0000 -230.4013 0.0000 -61.5234
#
#
#
# Elastic Compliance Matrix: (Units=1/GPa)
#
#
# Indices 1 2 3 4 5 6 
#
# 1 0.017580 -0.004125 0.000026 0.000000 -0.015989 0.000000
# 2 -0.004125 0.056177 -0.037454 0.000000 0.021030 0.000000
# 3 0.000026 -0.037454 0.034719 0.000000 -0.018953 0.000000
# 4 0.000000 0.000000 0.000000 0.007510 0.000000 -0.028124
# 5 -0.015989 0.021030 -0.018953 0.000000 0.064454 0.000000
# 6 0.000000 0.000000 0.000000 -0.028124 0.000000 0.089068
#
#
# Mechanical properties :
#
#
# Convention : Reuss Voigt Hill
#
# Bulk Modulus (GPa) = 39.41540 60.36242 49.88891
# Shear Modulus (GPa) = 13.84774 -143.66529 -64.90877
#
# Velocity S-wave (km/s) = 2.71713 -8.75178 -5.88264
# Velocity P-wave (km/s) = 5.55496 8.36321 4.42073
#
# Compressibility (1/GPa) = 0.02537079
#
# Stress axis : x y z
#
# Youngs Moduli (GPa) = 56.88333 17.80086 28.80263
#
# Poissons Ratio (x) = 0.07342 -0.00076
# Poissons Ratio (y) = 0.23463 1.07878
# Poissons Ratio (z) = -0.00150 0.66672
#
# Static dielectric constant tensor:
#      x y z
#    x 3.454370 0.000000 0.231650 
#    y 0.000000 3.699570 0.000000 
#    z 0.231650 0.000000 3.953150 
# 
# 
# High freq. dielectric constant tensor:
#      x y z
#    x 1.699400 0.000000 0.038910 
#    y 0.000000 1.719450 0.000000 
#    z 0.038910 0.000000 1.725790 
# 
# From -- ./inp_files/51452.got.cif
#   From: 2010.06.25/outbox.cif.g09.slc.cpg/sg10_26_cif.got.tgz:51452.got - 2010.06.27 22:07:45.
