data_PCOD8066791
_publ_section_title
;
Structure prediction by ZEFSAII (Michael W. Deem and Ramdas Pophale) SiO2 
 PCOD8066791
Probable space group: P 2/M
;
_chemical_formula_sum "Si O2"
_cell_formula_units_Z 24
_cell_length_a 10.141312
_cell_length_b 8.099251
_cell_length_c 21.109131
_cell_angle_alpha 90.000000
_cell_angle_beta 46.924502
_cell_angle_gamma 90.000000
_cell_volume 1266.492056
_symmetry_space_group_name_H-M "P 2/M"
_symmetry_group_IT_number 10
_symmetry_cell_setting 'monoclinic'
loop_
_space_group_symop_operation_xyz
x,y,z
-x,y,-z
-x,-y,-z
x,-y,z
loop_
_atom_site_type_symbol
_atom_site_label
_atom_site_fract_x
_atom_site_fract_y
_atom_site_fract_z
Si Si1 0.702204 0.500000 0.092167
Si Si2 0.464966 0.194952 0.206956
Si Si3 0.057664 0.185033 0.314069
Si Si4 0.121922 0.678160 0.742950
Si Si5 0.002374 0.500000 0.896052
Si Si6 0.141389 0.688605 0.504566
Si Si7 0.493793 0.187148 0.660650
O O1 0.591582 0.327677 0.129984
O O2 0.843369 0.500000 0.102356
O O3 0.804762 0.500000 0.991274
O O4 0.266737 0.234495 0.245523
O O5 0.468535 0.241408 0.279743
O O6 0.518615 0.000000 0.177498
O O7 0.982331 0.192892 0.267078
O O8 0.940556 0.299922 0.398423
O O9 0.036988 0.000000 0.346542
O O10 0.108426 0.500000 0.712986
O O11 0.332889 0.712662 0.681910
O O12 0.028106 0.664218 0.843521
O O13 0.185296 0.500000 0.473439
O O14 0.326662 0.789494 0.439679
O O15 0.000000 0.762082 0.500000
O O16 0.430963 0.000000 0.679285
#
# Coordination Sequence:
#
# PCOD8066791 Si02
#       7
#     2   4   4   4   2   4   4
#     4  11  20  41  71  92 124 153 200 255 312 370
#     4  10  22  37  62  94 122 159 204 250 301 362
#     4  11  23  39  58  87 125 164 200 247 300 356
#     4  10  21  40  60  85 119 152 204 239 303 365
#     4   9  22  39  65  96 117 154 196 253 309 365
#     4  11  23  35  57  88 120 157 210 254 292 346
#     4  11  21  37  59  85 122 162 198 251 300 349
#
# _framework density 18.94998
#
# number of rings (size 3 to 8) (size 9 to 14) (size 15 to 20)
#    0.500    1.000    3.333    2.000    3.500    1.333 
#    0.000    8.333    0.000    2.000    0.000    0.000 
#    0.000    0.000    0.000    0.000    0.000    0.000 
#
# Total GULP energy -297525.972126 kJ/mol
# GULP energy per Si atom -12396.915505 kJ/mol
# Density = 1.890685 g / cm^3
# Si number density = 18.949980 Si / 1000 Ang^3
#
#
#
# Elastic Constant Matrix: (Units=GPa)
#
#
# Indices 1 2 3 4 5 6 
#
# 1 117.6273 21.4150 50.2443 0.0000 -7.6592 0.0000
# 2 21.4150 65.9136 37.5051 0.0000 -11.0613 0.0000
# 3 50.2443 37.5051 126.3092 0.0000 -10.8449 0.0000
# 4 0.0000 0.0000 0.0000 14.7711 0.0000 0.2155
# 5 -7.6592 -11.0613 -10.8449 0.0000 26.9883 0.0000
# 6 0.0000 0.0000 0.0000 0.2155 0.0000 28.6146
#
#
#
# Elastic Compliance Matrix: (Units=1/GPa)
#
#
# Indices 1 2 3 4 5 6 
#
# 1 0.010348 -0.001084 -0.003708 0.000000 0.001002 0.000000
# 2 -0.001084 0.019191 -0.004783 0.000000 0.005636 0.000000
# 3 -0.003708 -0.004783 0.010931 0.000000 0.001380 0.000000
# 4 0.000000 0.000000 0.000000 0.067707 0.000000 -0.000510
# 5 0.001002 0.005636 0.001380 0.000000 0.040202 0.000000
# 6 0.000000 0.000000 0.000000 -0.000510 0.000000 0.034951
#
#
# Mechanical properties :
#
#
# Convention : Reuss Voigt Hill
#
# Bulk Modulus (GPa) = 46.90662 58.68655 52.79659
# Shear Modulus (GPa) = 23.85634 27.45383 25.65508
#
# Velocity S-wave (km/s) = 3.55196 3.81038 3.68344
# Velocity P-wave (km/s) = 6.45202 7.09895 6.78320
#
# Compressibility (1/GPa) = 0.02131895
#
# Stress axis : x y z
#
# Youngs Moduli (GPa) = 96.63643 52.10762 91.48228
#
# Poissons Ratio (x) = 0.05647 0.33926
# Poissons Ratio (y) = 0.10472 0.43760
# Poissons Ratio (z) = 0.35838 0.24925
#
# Static dielectric constant tensor:
#      x y z
#    x 3.380240 0.000000 -0.063330 
#    y 0.000000 3.388070 0.000000 
#    z -0.063330 0.000000 3.308380 
# 
# 
# High freq. dielectric constant tensor:
#      x y z
#    x 1.740220 0.000000 -0.007050 
#    y 0.000000 1.738100 0.000000 
#    z -0.007050 0.000000 1.718110 
# 
# From -- ./inp_files/81938.got.cif
#   From: 2010.06.25/outbox.cif.g09.slc.cpg/sg10_41_cif.got.tgz:81938.got - 2010.06.27 22:07:45.
