data_PCOD8066419
_publ_section_title
;
Structure prediction by ZEFSAII (Michael W. Deem and Ramdas Pophale) SiO2 
 PCOD8066419
Probable space group: P 2/M
;
_chemical_formula_sum "Si O2"
_cell_formula_units_Z 28
_cell_length_a 20.032110
_cell_length_b 9.414292
_cell_length_c 14.518616
_cell_angle_alpha 90.000000
_cell_angle_beta 147.193215
_cell_angle_gamma 90.000000
_cell_volume 1483.490570
_symmetry_space_group_name_H-M "P 2/M"
_symmetry_group_IT_number 10
_symmetry_cell_setting 'monoclinic'
loop_
_space_group_symop_operation_xyz
x,y,z
-x,y,-z
-x,-y,-z
x,-y,z
loop_
_atom_site_type_symbol
_atom_site_label
_atom_site_fract_x
_atom_site_fract_y
_atom_site_fract_z
Si Si1 0.812072 0.335943 0.524063
Si Si2 0.700128 0.331890 0.588556
Si Si3 0.276194 0.164786 0.917525
Si Si4 0.639121 0.334813 0.155207
Si Si5 0.453555 0.161890 0.287867
Si Si6 0.055996 0.165911 0.793002
Si Si7 0.773457 0.837250 0.843048
O O1 0.849197 0.500000 0.566508
O O2 0.765833 0.287559 0.570299
O O3 0.702577 0.303903 0.326158
O O4 0.930952 0.249149 0.631797
O O5 0.691577 0.500000 0.590822
O O6 0.563315 0.269941 0.432133
O O7 0.781255 0.265646 0.764522
O O8 0.286140 0.254799 0.836932
O O9 0.149206 0.208197 0.819663
O O10 0.274839 0.000000 0.889567
O O11 0.390175 0.198098 0.117159
O O12 0.639570 0.500000 0.130022
O O13 0.500000 0.276431 0.000000
O O14 0.356887 0.182257 0.257846
O O15 0.503076 0.000000 0.345428
O O16 0.027253 0.000000 0.756470
O O17 0.116167 0.206576 0.960802
O O18 0.788685 0.000000 0.828526
#
# Coordination Sequence:
#
# PCOD8066419 Si02
#       7
#     4   4   4   4   4   4   4
#     4  10  23  39  53  75 109 144 178 219 264 312
#     4  11  22  34  51  78 110 143 180 222 265 309
#     4   9  19  36  58  83 108 136 175 223 268 310
#     4  10  21  38  58  80 109 144 177 211 260 320
#     4   9  18  34  55  79 109 141 173 215 268 322
#     4   9  20  39  59  79 105 139 179 220 264 316
#     4   9  19  36  56  78 106 140 177 218 266 319
#
# _framework density 18.874403999999998
#
# number of rings (size 3 to 8) (size 9 to 14) (size 15 to 20)
#    0.000    2.429    0.000    3.429    0.000    8.286 
#    0.000    8.571    0.000    0.000    0.000    0.000 
#    0.000    0.000    0.000    0.000    0.000    0.000 
#
# Total GULP energy -347290.672510 kJ/mol
# GULP energy per Si atom -12403.238304 kJ/mol
# Density = 1.883145 g / cm^3
# Si number density = 18.874404 Si / 1000 Ang^3
#
#
#
# Elastic Constant Matrix: (Units=GPa)
#
#
# Indices 1 2 3 4 5 6 
#
# 1 104.2064 50.9901 51.4385 0.0000 -15.5073 0.0000
# 2 50.9901 66.5405 44.2708 0.0000 -3.8756 0.0000
# 3 51.4385 44.2708 90.4723 0.0000 10.2229 0.0000
# 4 0.0000 0.0000 0.0000 50.2649 0.0000 -1.7144
# 5 -15.5073 -3.8756 10.2229 0.0000 29.4519 0.0000
# 6 0.0000 0.0000 0.0000 -1.7144 0.0000 34.3049
#
#
#
# Elastic Compliance Matrix: (Units=1/GPa)
#
#
# Indices 1 2 3 4 5 6 
#
# 1 0.019919 -0.009053 -0.008270 0.000000 0.012167 0.000000
# 2 -0.009053 0.027872 -0.008709 0.000000 0.001924 0.000000
# 3 -0.008270 -0.008709 0.021480 0.000000 -0.012956 0.000000
# 4 0.000000 0.000000 0.000000 0.019929 0.000000 0.000996
# 5 0.012167 0.001924 -0.012956 0.000000 0.045111 0.000000
# 6 0.000000 0.000000 0.000000 0.000996 0.000000 0.029200
#
#
# Mechanical properties :
#
#
# Convention : Reuss Voigt Hill
#
# Bulk Modulus (GPa) = 58.11303 61.62422 59.86863
# Shear Modulus (GPa) = 22.59266 30.43898 26.51582
#
# Velocity S-wave (km/s) = 3.46352 4.02022 3.75221
# Velocity P-wave (km/s) = 6.84477 7.36682 7.11058
#
# Compressibility (1/GPa) = 0.01720784
#
# Stress axis : x y z
#
# Youngs Moduli (GPa) = 50.20303 35.87817 46.55385
#
# Poissons Ratio (x) = 0.32481 0.38500
# Poissons Ratio (y) = 0.45450 0.40543
# Poissons Ratio (z) = 0.41518 0.31246
#
# Static dielectric constant tensor:
#      x y z
#    x 3.443220 0.000000 -0.095170 
#    y 0.000000 3.339720 0.000000 
#    z -0.095170 0.000000 3.448110 
# 
# 
# High freq. dielectric constant tensor:
#      x y z
#    x 1.735280 0.000000 -0.006210 
#    y 0.000000 1.726740 0.000000 
#    z -0.006210 0.000000 1.737990 
# 
# From -- ./inp_files/49341.got.cif
#   From: 2010.06.25/outbox.cif.g09.slc.cpg/sg10_25_cif.got.tgz:49341.got - 2010.06.27 22:07:45.
