data_PCOD8066656
_publ_section_title
;
Structure prediction by ZEFSAII (Michael W. Deem and Ramdas Pophale) SiO2 
 PCOD8066656
Probable space group: P 2/M
;
_chemical_formula_sum "Si O2"
_cell_formula_units_Z 32
_cell_length_a 12.321990
_cell_length_b 8.387626
_cell_length_c 15.040773
_cell_angle_alpha 90.000000
_cell_angle_beta 87.925180
_cell_angle_gamma 90.000000
_cell_volume 1553.478510
_symmetry_space_group_name_H-M "P 2/M"
_symmetry_group_IT_number 10
_symmetry_cell_setting 'monoclinic'
loop_
_space_group_symop_operation_xyz
x,y,z
-x,y,-z
-x,-y,-z
x,-y,z
loop_
_atom_site_type_symbol
_atom_site_label
_atom_site_fract_x
_atom_site_fract_y
_atom_site_fract_z
Si Si1 0.530416 0.684616 0.374008
Si Si2 0.670890 0.186724 0.523248
Si Si3 0.113211 0.813005 0.240409
Si Si4 0.535287 0.183994 0.183986
Si Si5 0.098171 0.686635 0.433352
Si Si6 0.312578 0.682881 0.137505
Si Si7 0.956960 0.186268 0.093488
Si Si8 0.276331 0.814332 0.950937
O O1 0.540330 0.500000 0.398722
O O2 0.408632 0.744557 0.398393
O O3 0.618677 0.781351 0.428481
O O4 0.554771 0.710282 0.270250
O O5 0.787695 0.269221 0.524824
O O6 0.685270 0.000000 0.538851
O O7 0.079737 0.778640 0.341971
O O8 0.224939 0.723335 0.215346
O O9 0.019671 0.744234 0.177420
O O10 0.131575 0.000000 0.226608
O O11 0.416397 0.205773 0.147691
O O12 0.619505 0.243059 0.106980
O O13 0.555186 0.000000 0.207640
O O14 0.094538 0.500000 0.414398
O O15 0.000000 0.740216 0.500000
O O16 0.347713 0.500000 0.146774
O O17 0.264268 0.715206 0.041639
O O18 0.828979 0.221046 0.106668
O O19 0.982023 0.000000 0.089644
O O20 0.000000 0.263723 0.000000
O O21 0.283593 0.000000 0.976337
#
# Coordination Sequence:
#
# PCOD8066656 Si02
#       8
#     4   4   4   4   4   4   4   4
#     4  11  22  39  63  91 124 159 198 247 311 371
#     4  11  22  40  66  92 120 156 206 254 299 361
#     4  11  22  39  66  93 119 157 206 253 301 362
#     4  11  23  38  58  86 121 158 202 249 300 362
#     4  11  25  44  63  89 128 166 201 251 315 372
#     4  12  24  38  58  85 121 160 202 249 303 363
#     4   9  17  35  63  89 116 149 194 248 299 351
#     4  10  21  39  61  86 116 156 200 249 303 357
#
# _framework density 20.598932999999999
#
# number of rings (size 3 to 8) (size 9 to 14) (size 15 to 20)
#    0.000    1.250    1.250    6.375    0.000    4.500 
#    0.000    3.125    0.000    0.000    0.000    0.000 
#    0.000    0.000    0.000    0.000    0.000    0.000 
#
# Total GULP energy -396971.299135 kJ/mol
# GULP energy per Si atom -12405.353098 kJ/mol
# Density = 2.055205 g / cm^3
# Si number density = 20.598933 Si / 1000 Ang^3
#
#
#
# Elastic Constant Matrix: (Units=GPa)
#
#
# Indices 1 2 3 4 5 6 
#
# 1 124.1501 6.5768 61.9115 0.0000 -0.7311 0.0000
# 2 6.5768 54.5968 15.8848 0.0000 -6.1133 0.0000
# 3 61.9115 15.8848 109.3634 0.0000 -8.0463 0.0000
# 4 0.0000 0.0000 0.0000 27.0284 0.0000 -2.3985
# 5 -0.7311 -6.1133 -8.0463 0.0000 31.9862 0.0000
# 6 0.0000 0.0000 0.0000 -2.3985 0.0000 19.7432
#
#
#
# Elastic Compliance Matrix: (Units=1/GPa)
#
#
# Indices 1 2 3 4 5 6 
#
# 1 0.011290 0.000397 -0.006546 0.000000 -0.001313 0.000000
# 2 0.000397 0.019427 -0.002825 0.000000 0.003011 0.000000
# 3 -0.006546 -0.002825 0.013458 0.000000 0.002696 0.000000
# 4 0.000000 0.000000 0.000000 0.037401 0.000000 0.004544
# 5 -0.001313 0.003011 0.002696 0.000000 0.032487 0.000000
# 6 0.000000 0.000000 0.000000 0.004544 0.000000 0.051202
#
#
# Mechanical properties :
#
#
# Convention : Reuss Voigt Hill
#
# Bulk Modulus (GPa) = 38.12624 50.76185 44.44405
# Shear Modulus (GPa) = 26.04753 29.33404 27.69079
#
# Velocity S-wave (km/s) = 3.55985 3.77776 3.67042
# Velocity P-wave (km/s) = 5.95363 6.61249 6.29169
#
# Compressibility (1/GPa) = 0.02622866
#
# Stress axis : x y z
#
# Youngs Moduli (GPa) = 88.57183 51.47371 74.30428
#
# Poissons Ratio (x) = -0.02046 0.48638
# Poissons Ratio (y) = -0.03520 0.20993
# Poissons Ratio (z) = 0.57978 0.14543
#
# Static dielectric constant tensor:
#      x y z
#    x 3.809640 0.000000 0.031420 
#    y 0.000000 3.589690 0.000000 
#    z 0.031420 0.000000 3.718630 
# 
# 
# High freq. dielectric constant tensor:
#      x y z
#    x 1.812320 0.000000 0.005720 
#    y 0.000000 1.797310 0.000000 
#    z 0.005720 0.000000 1.809650 
# 
# From -- ./inp_files/63819.got.cif
#   From: 2010.06.25/outbox.cif.g09.slc.cpg/sg10_32_cif.got.tgz:63819.got - 2010.06.27 22:07:45.
