data_PCOD8066941
_publ_section_title
;
Structure prediction by ZEFSAII (Michael W. Deem and Ramdas Pophale) SiO2 
 PCOD8066941
Probable space group: P 2/M
;
_chemical_formula_sum "Si O2"
_cell_formula_units_Z 28
_cell_length_a 10.325637
_cell_length_b 13.786887
_cell_length_c 23.071565
_cell_angle_alpha 90.000000
_cell_angle_beta 26.480931
_cell_angle_gamma 90.000000
_cell_volume 1464.527521
_symmetry_space_group_name_H-M "P 2/M"
_symmetry_group_IT_number 10
_symmetry_cell_setting 'monoclinic'
loop_
_space_group_symop_operation_xyz
x,y,z
-x,y,-z
-x,-y,-z
x,-y,z
loop_
_atom_site_type_symbol
_atom_site_label
_atom_site_fract_x
_atom_site_fract_y
_atom_site_fract_z
Si Si1 0.253512 0.250001 0.249977
Si Si2 0.605074 0.886222 0.396079
Si Si3 0.189395 0.386225 0.103933
Si Si4 0.233206 0.610915 0.956389
Si Si5 0.941255 0.110936 0.456385
Si Si6 0.255800 0.888180 0.145216
Si Si7 0.163399 0.388152 0.645179
O O1 0.514164 0.318313 0.164933
O O2 0.349946 0.179088 0.160097
O O3 0.174023 0.181630 0.334982
O O4 0.990527 0.320977 0.339855
O O5 0.500000 0.840150 0.500000
O O6 0.384508 0.856002 0.432735
O O7 0.936983 0.854067 0.249501
O O8 0.599580 0.000000 0.405229
O O9 0.220534 0.500000 0.094818
O O10 0.935025 0.354049 0.250499
O O11 0.500000 0.340132 0.000000
O O12 0.115384 0.356051 0.067299
O O13 0.346236 0.500000 0.914814
O O14 0.000000 0.621894 0.000000
O O15 0.000000 0.122022 0.500000
O O16 0.994454 0.000000 0.414888
O O17 0.243761 0.000000 0.170483
O O18 0.500000 0.872276 0.000000
O O19 0.500000 0.372070 0.500000
O O20 0.074822 0.500000 0.670258
#
# Coordination Sequence:
#
# PCOD8066941 Si02
#       7
#     4   4   4   4   4   4   4
#     4  12  22  36  62  90 116 160 200 258 290 368
#     4   9  16  34  62  84 109 152 201 239 287 354
#     4   9  16  34  62  84 109 152 201 239 287 354
#     4  10  22  41  63  87 120 163 205 249 300 362
#     4  10  22  41  63  87 120 163 205 249 300 362
#     4  10  22  37  57  91 127 155 193 253 310 351
#     4  10  22  37  57  91 127 155 193 253 310 351
#
# _framework density 19.118794000000001
#
# number of rings (size 3 to 8) (size 9 to 14) (size 15 to 20)
#    0.000    2.000    2.857    0.857    4.000    0.000 
#    5.143    0.000    0.000    1.714    0.000    0.000 
#    0.000    0.000    0.000    0.000    0.000    0.000 
#
# Total GULP energy -347019.529872 kJ/mol
# GULP energy per Si atom -12393.554638 kJ/mol
# Density = 1.907528 g / cm^3
# Si number density = 19.118794 Si / 1000 Ang^3
#
#
#
# Elastic Constant Matrix: (Units=GPa)
#
#
# Indices 1 2 3 4 5 6 
#
# 1 124.8477 41.1356 64.2412 0.0000 -0.1572 0.0000
# 2 41.1356 95.9889 40.5691 0.0000 -0.0163 0.0000
# 3 64.2412 40.5691 154.8416 0.0000 0.4422 0.0000
# 4 0.0000 0.0000 0.0000 9.4878 0.0000 -0.0882
# 5 -0.1572 -0.0163 0.4422 0.0000 22.0957 0.0000
# 6 0.0000 0.0000 0.0000 -0.0882 0.0000 18.3199
#
#
#
# Elastic Compliance Matrix: (Units=1/GPa)
#
#
# Indices 1 2 3 4 5 6 
#
# 1 0.010956 -0.003119 -0.003729 0.000000 0.000150 0.000000
# 2 -0.003119 0.012603 -0.002008 0.000000 0.000027 0.000000
# 3 -0.003729 -0.002008 0.008532 0.000000 -0.000199 0.000000
# 4 0.000000 0.000000 0.000000 0.105403 0.000000 0.000508
# 5 0.000150 0.000027 -0.000199 0.000000 0.045263 0.000000
# 6 0.000000 0.000000 0.000000 0.000508 0.000000 0.054588
#
#
# Mechanical properties :
#
#
# Convention : Reuss Voigt Hill
#
# Bulk Modulus (GPa) = 69.54433 74.17446 71.85939
# Shear Modulus (GPa) = 19.24183 25.29619 22.26901
#
# Velocity S-wave (km/s) = 3.17588 3.64140 3.41658
# Velocity P-wave (km/s) = 7.06414 7.52067 7.29598
#
# Compressibility (1/GPa) = 0.01437932
#
# Stress axis : x y z
#
# Youngs Moduli (GPa) = 91.27092 79.34406 117.20716
#
# Poissons Ratio (x) = 0.24750 0.43704
# Poissons Ratio (y) = 0.28471 0.23536
# Poissons Ratio (z) = 0.34033 0.15933
#
# Static dielectric constant tensor:
#      x y z
#    x 3.413460 0.000000 0.001820 
#    y 0.000000 3.722220 0.000000 
#    z 0.001820 0.000000 3.613600 
# 
# 
# High freq. dielectric constant tensor:
#      x y z
#    x 1.723790 0.000000 0.000150 
#    y 0.000000 1.757110 0.000000 
#    z 0.000150 0.000000 1.740350 
# 
# From -- ./inp_files/82878.got.cif
#   From: 2010.06.25/outbox.cif.g09.slc.cpg/sg10_42_cif.got.tgz:82878.got - 2010.06.27 22:07:45.
