data_PCOD8066206
_publ_section_title
;
Structure prediction by ZEFSAII (Michael W. Deem and Ramdas Pophale) SiO2 
 PCOD8066206
Probable space group: P 2/M
;
_chemical_formula_sum "Si O2"
_cell_formula_units_Z 28
_cell_length_a 27.782881
_cell_length_b 8.734548
_cell_length_c 9.871379
_cell_angle_alpha 90.000000
_cell_angle_beta 38.307559
_cell_angle_gamma 90.000000
_cell_volume 1484.926508
_symmetry_space_group_name_H-M "P 2/M"
_symmetry_group_IT_number 10
_symmetry_cell_setting 'monoclinic'
loop_
_space_group_symop_operation_xyz
x,y,z
-x,y,-z
-x,-y,-z
x,-y,z
loop_
_atom_site_type_symbol
_atom_site_label
_atom_site_fract_x
_atom_site_fract_y
_atom_site_fract_z
Si Si1 0.178696 0.818323 0.209394
Si Si2 0.436201 0.679974 0.241440
Si Si3 0.725656 0.318683 0.509211
Si Si4 0.847632 0.181524 0.040471
Si Si5 0.305089 0.818663 0.137776
Si Si6 0.469825 0.320409 0.710478
Si Si7 0.986463 0.818921 0.381179
O O1 0.253873 0.756603 0.123877
O O2 0.100760 0.762469 0.465317
O O3 0.179458 0.000000 0.205723
O O4 0.177920 0.762737 0.054331
O O5 0.433618 0.500000 0.222293
O O6 0.351530 0.747337 0.394783
O O7 0.460485 0.719700 0.340747
O O8 0.500000 0.753511 0.000000
O O9 0.723418 0.500000 0.526476
O O10 0.798886 0.268817 0.260214
O O11 0.731571 0.249325 0.645372
O O12 0.835657 0.000000 0.081754
O O13 0.937915 0.230514 0.873294
O O14 0.301857 0.000000 0.154439
O O15 0.392962 0.766728 0.924136
O O16 0.500000 0.261152 0.500000
O O17 0.450517 0.500000 0.752262
O O18 0.000000 0.752260 0.500000
O O19 0.986788 0.000000 0.385431
#
# Coordination Sequence:
#
# PCOD8066206 Si02
#       7
#     4   4   4   4   4   4   4
#     4   8  16  31  53  80 108 136 168 212 262 310
#     4   9  17  34  55  72  94 132 177 212 244 296
#     4  11  22  36  54  75 105 141 177 213 255 309
#     4   9  17  32  56  83 105 129 171 220 260 303
#     4  11  22  36  53  77 110 140 170 213 263 306
#     4  10  21  37  57  77 101 134 174 214 255 309
#     4   7  11  25  51  78 102 132 169 208 253 306
#
# _framework density 18.856154
#
# number of rings (size 3 to 8) (size 9 to 14) (size 15 to 20)
#    0.000    2.714    1.429    2.571    2.000    0.286 
#    0.000    3.571    0.000    9.857    0.000    0.000 
#    0.000    0.000    0.000    0.000    0.000    0.000 
#
# Total GULP energy -346895.979294 kJ/mol
# GULP energy per Si atom -12389.142118 kJ/mol
# Density = 1.881324 g / cm^3
# Si number density = 18.856154 Si / 1000 Ang^3
#
#
#
# Elastic Constant Matrix: (Units=GPa)
#
#
# Indices 1 2 3 4 5 6 
#
# 1 54.2311 17.2337 28.7131 0.0000 9.4082 0.0000
# 2 17.2337 34.3119 19.8055 0.0000 2.7276 0.0000
# 3 28.7131 19.8055 116.6307 0.0000 6.4157 0.0000
# 4 0.0000 0.0000 0.0000 -34.1017 0.0000 5.5784
# 5 9.4082 2.7276 6.4157 0.0000 31.7005 0.0000
# 6 0.0000 0.0000 0.0000 5.5784 0.0000 14.0684
#
#
#
# Elastic Compliance Matrix: (Units=1/GPa)
#
#
# Indices 1 2 3 4 5 6 
#
# 1 0.024642 -0.009540 -0.004135 0.000000 -0.005656 0.000000
# 2 -0.009540 0.036095 -0.003808 0.000000 0.000496 0.000000
# 3 -0.004135 -0.003808 0.010268 0.000000 -0.000523 0.000000
# 4 0.000000 0.000000 0.000000 -0.027538 0.000000 0.010919
# 5 -0.005656 0.000496 -0.000523 0.000000 0.033287 0.000000
# 6 0.000000 0.000000 0.000000 0.010919 0.000000 0.066752
#
#
# Mechanical properties :
#
#
# Convention : Reuss Voigt Hill
#
# Bulk Modulus (GPa) = 27.74919 37.40870 32.57895
# Shear Modulus (GPa) = 26.24886 11.62819 18.93852
#
# Velocity S-wave (km/s) = 3.73508 2.48600 3.17262
# Velocity P-wave (km/s) = 5.77488 5.30305 5.54399
#
# Compressibility (1/GPa) = 0.03603708
#
# Stress axis : x y z
#
# Youngs Moduli (GPa) = 40.58116 27.70485 97.39399
#
# Poissons Ratio (x) = 0.26431 0.40276
# Poissons Ratio (y) = 0.38715 0.37088
# Poissons Ratio (z) = 0.16782 0.10550
#
# Static dielectric constant tensor:
#      x y z
#    x 3.832160 0.000000 -0.232470 
#    y 0.000000 3.008100 0.000000 
#    z -0.232470 0.000000 3.628620 
# 
# 
# High freq. dielectric constant tensor:
#      x y z
#    x 1.731260 0.000000 -0.014150 
#    y 0.000000 1.688050 0.000000 
#    z -0.014150 0.000000 1.740920 
# 
# From -- ./inp_files/37008.got.cif
#   From: 2010.06.25/outbox.cif.g09.slc.cpg/sg10_19_cif.got.tgz:37008.got - 2010.06.27 22:07:45.
