data_PCOD8066771
_publ_section_title
;
Structure prediction by ZEFSAII (Michael W. Deem and Ramdas Pophale) SiO2 
 PCOD8066771
Probable space group: P 2/M
;
_chemical_formula_sum "Si O2"
_cell_formula_units_Z 28
_cell_length_a 10.155957
_cell_length_b 13.392916
_cell_length_c 11.218493
_cell_angle_alpha 90.000000
_cell_angle_beta 67.465256
_cell_angle_gamma 90.000000
_cell_volume 1409.407852
_symmetry_space_group_name_H-M "P 2/M"
_symmetry_group_IT_number 10
_symmetry_cell_setting 'monoclinic'
loop_
_space_group_symop_operation_xyz
x,y,z
-x,y,-z
-x,-y,-z
x,-y,z
loop_
_atom_site_type_symbol
_atom_site_label
_atom_site_fract_x
_atom_site_fract_y
_atom_site_fract_z
Si Si1 0.353993 0.281754 0.282681
Si Si2 0.244692 0.886700 0.859470
Si Si3 0.347191 0.614358 0.849923
Si Si4 0.536476 0.111268 0.619556
Si Si5 0.118577 0.717253 0.766183
Si Si6 0.853736 0.387153 0.484433
Si Si7 0.211145 0.268358 0.083175
O O1 0.516836 0.316541 0.219596
O O2 0.343892 0.183676 0.368803
O O3 0.268433 0.370466 0.375474
O O4 0.284538 0.246889 0.183304
O O5 0.404978 0.887480 0.756598
O O6 0.150015 0.832278 0.790483
O O7 0.188904 0.000000 0.897133
O O8 0.231490 0.827262 0.989142
O O9 0.389300 0.500000 0.817825
O O10 0.216692 0.644203 0.810088
O O11 0.293251 0.635113 0.002510
O O12 0.500000 0.150538 0.500000
O O13 0.600565 0.000000 0.587520
O O14 0.157445 0.693723 0.616680
O O15 0.952431 0.698784 0.847519
O O16 0.840442 0.500000 0.438750
O O17 0.000000 0.369889 0.500000
#
# Coordination Sequence:
#
# PCOD8066771 Si02
#       7
#     4   4   4   4   4   4   4
#     4  12  23  41  64  93 130 163 207 274 313 368
#     4  10  21  40  67  94 126 168 212 259 317 382
#     4  11  24  39  61  92 123 164 215 261 312 370
#     4  10  21  39  65  94 125 165 210 257 317 376
#     4  11  22  43  63  91 128 164 214 267 311 374
#     4  11  24  42  65  92 126 173 215 254 320 383
#     4  11  24  39  61  93 131 168 206 258 323 374
#
# _framework density 19.866498
#
# number of rings (size 3 to 8) (size 9 to 14) (size 15 to 20)
#    0.000    1.143    4.286    3.857    0.000    5.143 
#    0.000    2.857    0.000    0.857    0.000    0.000 
#    0.000    0.000    0.000    0.000    0.000    0.000 
#
# Total GULP energy -347142.634098 kJ/mol
# GULP energy per Si atom -12397.951218 kJ/mol
# Density = 1.982128 g / cm^3
# Si number density = 19.866498 Si / 1000 Ang^3
#
#
#
# Elastic Constant Matrix: (Units=GPa)
#
#
# Indices 1 2 3 4 5 6 
#
# 1 106.9133 51.8992 45.9585 0.0000 14.3757 0.0000
# 2 51.8992 122.0806 44.1646 0.0000 23.4431 0.0000
# 3 45.9585 44.1646 115.3299 0.0000 19.6067 0.0000
# 4 0.0000 0.0000 0.0000 26.6827 0.0000 1.3382
# 5 14.3757 23.4431 19.6067 0.0000 36.9136 0.0000
# 6 0.0000 0.0000 0.0000 1.3382 0.0000 9.9549
#
#
#
# Elastic Compliance Matrix: (Units=1/GPa)
#
#
# Indices 1 2 3 4 5 6 
#
# 1 0.012928 -0.004130 -0.003474 0.000000 -0.000566 0.000000
# 2 -0.004130 0.011565 -0.001987 0.000000 -0.004681 0.000000
# 3 -0.003474 -0.001987 0.011401 0.000000 -0.003441 0.000000
# 4 0.000000 0.000000 0.000000 0.037732 0.000000 -0.005072
# 5 -0.000566 -0.004681 -0.003441 0.000000 0.032111 0.000000
# 6 0.000000 0.000000 0.000000 -0.005072 0.000000 0.101135
#
#
# Mechanical properties :
#
#
# Convention : Reuss Voigt Hill
#
# Bulk Modulus (GPa) = 59.83939 69.81872 64.82905
# Shear Modulus (GPa) = 21.58669 28.19701 24.89185
#
# Velocity S-wave (km/s) = 3.29992 3.77148 3.54355
# Velocity P-wave (km/s) = 6.68621 7.36109 7.03175
#
# Compressibility (1/GPa) = 0.01671140
#
# Stress axis : x y z
#
# Youngs Moduli (GPa) = 77.35257 86.46848 87.71253
#
# Poissons Ratio (x) = 0.35716 0.30468
# Poissons Ratio (y) = 0.31950 0.17428
# Poissons Ratio (z) = 0.26870 0.17181
#
# Static dielectric constant tensor:
#      x y z
#    x 3.568220 0.000000 0.005250 
#    y 0.000000 3.771290 0.000000 
#    z 0.005250 0.000000 3.791030 
# 
# 
# High freq. dielectric constant tensor:
#      x y z
#    x 1.772500 0.000000 -0.001870 
#    y 0.000000 1.774040 0.000000 
#    z -0.001870 0.000000 1.785810 
# 
# From -- ./inp_files/42650.got.cif
#   From: 2010.06.25/outbox.cif.g09.slc.cpg/sg10_22_cif.got.tgz:42650.got - 2010.06.27 22:07:45.
