data_PCOD8066786
_publ_section_title
;
Structure prediction by ZEFSAII (Michael W. Deem and Ramdas Pophale) SiO2 
 PCOD8066786
Probable space group: P 2/M
;
_chemical_formula_sum "Si O2"
_cell_formula_units_Z 16
_cell_length_a 22.123077
_cell_length_b 5.242740
_cell_length_c 14.603471
_cell_angle_alpha 90.000000
_cell_angle_beta 24.522033
_cell_angle_gamma 90.000000
_cell_volume 702.996528
_symmetry_space_group_name_H-M "P 2/M"
_symmetry_group_IT_number 10
_symmetry_cell_setting 'monoclinic'
loop_
_space_group_symop_operation_xyz
x,y,z
-x,y,-z
-x,-y,-z
x,-y,z
loop_
_atom_site_type_symbol
_atom_site_label
_atom_site_fract_x
_atom_site_fract_y
_atom_site_fract_z
Si Si1 0.168272 0.000000 0.282631
Si Si2 0.872395 0.000000 0.986955
Si Si3 0.693011 0.500000 0.913194
Si Si4 0.456516 0.500000 0.367144
Si Si5 0.860183 0.500000 0.128215
Si Si6 0.192291 0.000000 0.464528
Si Si7 0.667419 0.500000 0.743760
Si Si8 0.577048 0.000000 0.297699
O O1 0.237027 0.753071 0.137840
O O2 0.000000 0.000000 0.500000
O O3 0.209313 0.000000 0.332430
O O4 0.857361 0.249692 0.070008
O O5 0.751271 0.000000 0.074383
O O6 0.026934 0.000000 0.724111
O O7 0.742315 0.500000 0.740202
O O8 0.517771 0.500000 0.176887
O O9 0.282189 0.500000 0.610261
O O10 0.524874 0.747734 0.318887
O O11 0.000000 0.500000 0.000000
O O12 0.277351 0.248792 0.386574
O O13 0.500000 0.500000 0.000000
O O14 0.500000 0.000000 0.500000
#
# Coordination Sequence:
#
# PCOD8066786 Si02
#       8
#     2   2   2   2   2   2   2   2
#     4  10  21  40  56  88 128 159 195 247 308 365
#     4  12  25  43  67  98 130 170 217 261 327 386
#     4  10  23  37  60  91 122 160 208 251 302 373
#     4  12  24  41  65  98 129 171 218 260 327 383
#     4  12  26  46  66  93 133 169 214 271 323 381
#     4  10  23  38  63  95 122 162 211 254 307 376
#     4  10  21  43  64  89 126 167 213 262 306 362
#     4  12  23  43  67  92 132 173 211 272 315 383
#
# _framework density 22.759713999999999
#
# number of rings (size 3 to 8) (size 9 to 14) (size 15 to 20)
#    0.000    1.000    2.500    3.750    3.500    2.000 
#    0.000    0.000    0.000    0.000    0.000    0.000 
#    0.000    0.000    0.000    0.000    0.000    0.000 
#
# Total GULP energy -198333.510950 kJ/mol
# GULP energy per Si atom -12395.844434 kJ/mol
# Density = 2.270791 g / cm^3
# Si number density = 22.759714 Si / 1000 Ang^3
#
#
#
# Elastic Constant Matrix: (Units=GPa)
#
#
# Indices 1 2 3 4 5 6 
#
# 1 26.6492 20.9764 1.0870 0.0000 -21.0050 0.0000
# 2 20.9764 231.3426 64.1923 0.0000 -19.3884 0.0000
# 3 1.0870 64.1923 193.2233 0.0000 -26.7132 0.0000
# 4 0.0000 0.0000 0.0000 37.3326 0.0000 -11.2828
# 5 -21.0050 -19.3884 -26.7132 0.0000 50.2653 0.0000
# 6 0.0000 0.0000 0.0000 -11.2828 0.0000 16.6440
#
#
#
# Elastic Compliance Matrix: (Units=1/GPa)
#
#
# Indices 1 2 3 4 5 6 
#
# 1 0.062166 -0.004762 0.004932 0.000000 0.026763 0.000000
# 2 -0.004762 0.005181 -0.001828 0.000000 -0.000963 0.000000
# 3 0.004932 -0.001828 0.006413 0.000000 0.004765 0.000000
# 4 0.000000 0.000000 0.000000 0.033688 0.000000 0.022837
# 5 0.026763 -0.000963 0.004765 0.000000 0.033239 0.000000
# 6 0.000000 0.000000 0.000000 0.022837 0.000000 0.075563
#
#
# Mechanical properties :
#
#
# Convention : Reuss Voigt Hill
#
# Bulk Modulus (GPa) = 14.19537 69.30295 41.74916
# Shear Modulus (GPa) = 20.57214 45.17899 32.87557
#
# Velocity S-wave (km/s) = 3.00973 4.46021 3.80473
# Velocity P-wave (km/s) = 4.28119 7.55252 6.13878
#
# Compressibility (1/GPa) = 0.07044550
#
# Stress axis : x y z
#
# Youngs Moduli (GPa) = 16.08586 193.02046 155.92226
#
# Poissons Ratio (x) = 0.91925 -0.76907
# Poissons Ratio (y) = 0.07661 0.28495
# Poissons Ratio (z) = -0.07934 0.35275
#
# Static dielectric constant tensor:
#      x y z
#    x 3.439530 0.000000 -0.119040 
#    y 0.000000 5.028370 0.000000 
#    z -0.119040 0.000000 4.277710 
# 
# 
# High freq. dielectric constant tensor:
#      x y z
#    x 1.872040 0.000000 -0.000610 
#    y 0.000000 1.930420 0.000000 
#    z -0.000610 0.000000 1.918500 
# 
# From -- ./inp_files/70914.got.cif
#   From: 2010.06.25/outbox.cif.g09.slc.cpg/sg10_36_cif.got.tgz:70914.got - 2010.06.27 22:07:45.
