data_PCOD8066848
_publ_section_title
;
Structure prediction by ZEFSAII (Michael W. Deem and Ramdas Pophale) SiO2 
 PCOD8066848
Probable space group: P 2/M
;
_chemical_formula_sum "Si O2"
_cell_formula_units_Z 28
_cell_length_a 11.071876
_cell_length_b 13.564555
_cell_length_c 9.770018
_cell_angle_alpha 90.000000
_cell_angle_beta 63.451599
_cell_angle_gamma 90.000000
_cell_volume 1312.593356
_symmetry_space_group_name_H-M "P 2/M"
_symmetry_group_IT_number 10
_symmetry_cell_setting 'monoclinic'
loop_
_space_group_symop_operation_xyz
x,y,z
-x,y,-z
-x,-y,-z
x,-y,z
loop_
_atom_site_type_symbol
_atom_site_label
_atom_site_fract_x
_atom_site_fract_y
_atom_site_fract_z
Si Si1 0.097166 0.613992 0.228282
Si Si2 0.808327 0.889426 0.852259
Si Si3 0.792856 0.253404 0.614333
Si Si4 0.693000 0.885216 0.203741
Si Si5 0.502944 0.726756 0.652545
Si Si6 0.611863 0.386172 0.049434
Si Si7 0.080172 0.209725 0.728591
O O1 0.053068 0.500000 0.252169
O O2 0.122533 0.653457 0.370113
O O3 0.978305 0.678942 0.217166
O O4 0.236536 0.632089 0.077711
O O5 0.760431 0.821025 0.753631
O O6 0.962795 0.869000 0.815917
O O7 0.794074 0.000000 0.806971
O O8 0.714602 0.871604 0.031309
O O9 0.652952 0.291853 0.627495
O O10 0.876060 0.200105 0.452191
O O11 0.545180 0.841726 0.315793
O O12 0.798750 0.817046 0.232410
O O13 0.702713 0.000000 0.242538
O O14 0.500000 0.686710 0.500000
O O15 0.399715 0.665358 0.797811
O O16 0.580469 0.500000 0.087464
O O17 0.500000 0.342816 0.000000
#
# Coordination Sequence:
#
# PCOD8066848 Si02
#       7
#     4   4   4   4   4   4   4
#     4  10  21  40  70  99 126 165 212 262 318 376
#     4  10  22  39  63  90 118 161 214 266 319 375
#     4  11  23  39  61  95 126 165 212 261 320 373
#     4  11  25  43  64  92 128 172 216 264 320 375
#     4  12  24  42  63  93 129 171 211 263 321 379
#     4  10  21  40  68  95 122 163 209 256 313 375
#     4  11  22  40  62  93 129 168 209 258 318 379
#
# _framework density 21.331816
#
# number of rings (size 3 to 8) (size 9 to 14) (size 15 to 20)
#    0.000    1.286    2.857    4.286    0.000    5.143 
#    0.000    2.143    0.000   10.286    0.000    0.000 
#    0.000    0.000    0.000    0.000    0.000    0.000 
#
# Total GULP energy -347194.138993 kJ/mol
# GULP energy per Si atom -12399.790678 kJ/mol
# Density = 2.128326 g / cm^3
# Si number density = 21.331816 Si / 1000 Ang^3
#
#
#
# Elastic Constant Matrix: (Units=GPa)
#
#
# Indices 1 2 3 4 5 6 
#
# 1 53.6035 37.4343 10.2716 0.0000 1.7536 0.0000
# 2 37.4343 111.9463 42.1336 0.0000 16.3635 0.0000
# 3 10.2716 42.1336 103.1147 0.0000 13.2832 0.0000
# 4 0.0000 0.0000 0.0000 19.2855 0.0000 -0.1885
# 5 1.7536 16.3635 13.2832 0.0000 27.2370 0.0000
# 6 0.0000 0.0000 0.0000 -0.1885 0.0000 22.8622
#
#
#
# Elastic Compliance Matrix: (Units=1/GPa)
#
#
# Indices 1 2 3 4 5 6 
#
# 1 0.024728 -0.009077 0.000798 0.000000 0.003472 0.000000
# 2 -0.009077 0.014437 -0.004218 0.000000 -0.006032 0.000000
# 3 0.000798 -0.004218 0.011761 0.000000 -0.003253 0.000000
# 4 0.000000 0.000000 0.000000 0.051857 0.000000 0.000427
# 5 0.003472 -0.006032 -0.003253 0.000000 0.041702 0.000000
# 6 0.000000 0.000000 0.000000 0.000427 0.000000 0.043744
#
#
# Mechanical properties :
#
#
# Convention : Reuss Voigt Hill
#
# Bulk Modulus (GPa) = 38.56039 49.81593 44.18816
# Shear Modulus (GPa) = 22.53617 25.79862 24.16739
#
# Velocity S-wave (km/s) = 3.25385 3.48141 3.36955
# Velocity P-wave (km/s) = 5.67736 6.28998 5.99151
#
# Compressibility (1/GPa) = 0.02593335
#
# Stress axis : x y z
#
# Youngs Moduli (GPa) = 40.44036 69.26464 85.02702
#
# Poissons Ratio (x) = 0.62870 -0.06789
# Poissons Ratio (y) = 0.36707 0.35864
# Poissons Ratio (z) = -0.03229 0.29216
#
# Static dielectric constant tensor:
#      x y z
#    x 3.763110 0.000000 -0.090950 
#    y 0.000000 4.001440 0.000000 
#    z -0.090950 0.000000 4.088790 
# 
# 
# High freq. dielectric constant tensor:
#      x y z
#    x 1.831210 0.000000 -0.007470 
#    y 0.000000 1.829880 0.000000 
#    z -0.007470 0.000000 1.850590 
# 
# From -- ./inp_files/25186.got.cif
#   From: 2010.06.25/outbox.cif.g09.slc.cpg/sg10_13_cif.got.tgz:25186.got - 2010.06.27 22:07:45.
