data_PCOD8066968
_publ_section_title
;
Structure prediction by ZEFSAII (Michael W. Deem and Ramdas Pophale) SiO2 
 PCOD8066968
Probable space group: P 2/M
;
_chemical_formula_sum "Si O2"
_cell_formula_units_Z 20
_cell_length_a 15.138005
_cell_length_b 11.287193
_cell_length_c 19.171338
_cell_angle_alpha 90.000000
_cell_angle_beta 160.611134
_cell_angle_gamma 90.000000
_cell_volume 1087.467049
_symmetry_space_group_name_H-M "P 2/M"
_symmetry_group_IT_number 10
_symmetry_cell_setting 'monoclinic'
loop_
_space_group_symop_operation_xyz
x,y,z
-x,y,-z
-x,-y,-z
x,-y,z
loop_
_atom_site_type_symbol
_atom_site_label
_atom_site_fract_x
_atom_site_fract_y
_atom_site_fract_z
Si Si1 0.719183 0.742942 0.967781
Si Si2 0.149713 0.500000 0.716743
Si Si3 0.430708 0.500000 0.775680
Si Si4 0.251296 0.137608 0.363398
Si Si5 0.293764 0.863402 0.555430
Si Si6 0.245624 0.751215 0.848287
O O1 0.622673 0.607931 0.898157
O O2 0.536618 0.814947 0.780023
O O3 0.710588 0.791348 0.039878
O O4 0.021671 0.769816 0.168239
O O5 0.325167 0.500000 0.776627
O O6 0.229620 0.610429 0.824267
O O7 0.833698 0.500000 0.468531
O O8 0.500000 0.164643 0.500000
O O9 0.339544 0.165249 0.508230
O O10 0.157429 0.000000 0.286027
O O11 0.022960 0.806011 0.382742
O O12 0.272019 0.000000 0.554284
O O13 0.500000 0.806805 0.000000
#
# Coordination Sequence:
#
# PCOD8066968 Si02
#       6
#     4   2   2   4   4   4
#     4  11  21  36  58  87 114 150 188 237 283 333
#     4  11  20  37  58  84 111 152 203 242 265 327
#     4  11  21  34  62  83 113 152 198 235 281 324
#     4   9  20  40  65  88 110 143 188 236 289 346
#     4  10  22  38  56  84 117 148 187 234 285 338
#     4  11  21  35  57  81 115 152 194 235 277 325
#
# _framework density 18.391362999999998
#
# number of rings (size 3 to 8) (size 9 to 14) (size 15 to 20)
#    0.000    1.600    4.000    1.500    0.000    2.800 
#    0.000    4.500    0.000    1.200    0.000    0.000 
#    0.000    0.000    0.000    0.000    0.000    0.000 
#
# Total GULP energy -247905.052225 kJ/mol
# GULP energy per Si atom -12395.252611 kJ/mol
# Density = 1.834950 g / cm^3
# Si number density = 18.391363 Si / 1000 Ang^3
#
#
#
# Elastic Constant Matrix: (Units=GPa)
#
#
# Indices 1 2 3 4 5 6 
#
# 1 89.8450 38.9702 64.6327 0.0000 22.3006 0.0000
# 2 38.9702 80.8287 50.5189 0.0000 13.6709 0.0000
# 3 64.6327 50.5189 149.5621 0.0000 11.8977 0.0000
# 4 0.0000 0.0000 0.0000 64.9153 0.0000 -0.9745
# 5 22.3006 13.6709 11.8977 0.0000 33.9653 0.0000
# 6 0.0000 0.0000 0.0000 -0.9745 0.0000 28.5201
#
#
#
# Elastic Compliance Matrix: (Units=1/GPa)
#
#
# Indices 1 2 3 4 5 6 
#
# 1 0.019768 -0.003932 -0.006489 0.000000 -0.009124 0.000000
# 2 -0.003932 0.017191 -0.003870 0.000000 -0.002982 0.000000
# 3 -0.006489 -0.003870 0.010631 0.000000 0.002094 0.000000
# 4 0.000000 0.000000 0.000000 0.015413 0.000000 0.000527
# 5 -0.009124 -0.002982 0.002094 0.000000 0.035899 0.000000
# 6 0.000000 0.000000 0.000000 0.000527 0.000000 0.035081
#
#
# Mechanical properties :
#
#
# Convention : Reuss Voigt Hill
#
# Bulk Modulus (GPa) = 52.61016 69.83104 61.22060
# Shear Modulus (GPa) = 29.60309 36.55442 33.07875
#
# Velocity S-wave (km/s) = 4.01636 4.46307 4.24559
# Velocity P-wave (km/s) = 7.08352 8.03807 7.57584
#
# Compressibility (1/GPa) = 0.01900774
#
# Stress axis : x y z
#
# Youngs Moduli (GPa) = 50.58568 58.16997 94.06471
#
# Poissons Ratio (x) = 0.22874 0.61037
# Poissons Ratio (y) = 0.19892 0.36405
# Poissons Ratio (z) = 0.32824 0.22513
#
# Static dielectric constant tensor:
#      x y z
#    x 3.325790 0.000000 0.010410 
#    y 0.000000 3.432280 0.000000 
#    z 0.010410 0.000000 3.707670 
# 
# 
# High freq. dielectric constant tensor:
#      x y z
#    x 1.699440 0.000000 -0.003080 
#    y 0.000000 1.706650 0.000000 
#    z -0.003080 0.000000 1.736130 
# 
# From -- ./inp_files/69114.got.cif
#   From: 2010.06.25/outbox.cif.g09.slc.cpg/sg10_35_cif.got.tgz:69114.got - 2010.06.27 22:07:45.
