data_PCOD8066019
_publ_section_title
;
Structure prediction by ZEFSAII (Michael W. Deem and Ramdas Pophale) SiO2 
 PCOD8066019
Probable space group: P 2/M
;
_chemical_formula_sum "Si O2"
_cell_formula_units_Z 22
_cell_length_a 8.646344
_cell_length_b 25.806178
_cell_length_c 9.281237
_cell_angle_alpha 90.000000
_cell_angle_beta 147.388502
_cell_angle_gamma 90.000000
_cell_volume 1116.098044
_symmetry_space_group_name_H-M "P 2/M"
_symmetry_group_IT_number 10
_symmetry_cell_setting 'monoclinic'
loop_
_space_group_symop_operation_xyz
x,y,z
-x,y,-z
-x,-y,-z
x,-y,z
loop_
_atom_site_type_symbol
_atom_site_label
_atom_site_fract_x
_atom_site_fract_y
_atom_site_fract_z
Si Si1 0.817387 0.557845 0.714515
Si Si2 0.178964 0.372235 0.783458
Si Si3 0.814872 0.744473 0.211484
Si Si4 0.623166 0.099869 0.437959
Si Si5 0.673061 0.000000 0.284056
Si Si6 0.121625 0.162782 0.938404
O O1 0.500000 0.581435 0.500000
O O2 0.777256 0.500000 0.617030
O O3 0.003053 0.592043 0.752866
O O4 0.000000 0.554715 0.000000
O O5 0.195658 0.314015 0.860276
O O6 0.000000 0.370861 0.500000
O O7 0.500000 0.393504 0.000000
O O8 0.927180 0.782202 0.175988
O O9 0.000000 0.748408 0.500000
O O10 0.500000 0.764362 0.000000
O O11 0.500000 0.087991 0.500000
O O12 0.949516 0.119238 0.712258
O O13 0.599580 0.049139 0.323606
O O14 0.448769 0.144259 0.214211
O O15 0.000000 0.000000 0.500000
O O16 0.500000 0.000000 0.000000
O O17 0.000000 0.170871 0.000000
#
# Coordination Sequence:
#
# PCOD8066019 Si02
#       6
#     4   4   4   4   2   4
#     4  10  21  37  57  83 114 148 189 238 288 333
#     4  10  21  37  56  82 114 150 191 230 279 342
#     4  10  21  36  55  80 112 145 179 226 278 324
#     4  10  22  40  58  78 110 145 176 217 269 323
#     4  12  25  38  57  86 110 136 180 224 265 318
#     4  10  21  37  58  82 106 141 185 220 263 326
#
# _framework density 19.71153
#
# number of rings (size 3 to 8) (size 9 to 14) (size 15 to 20)
#    0.000    1.818    0.000    3.545    0.000    5.818 
#    0.000    6.364    0.000    0.000    0.000    0.000 
#    0.000    0.000    0.000    0.000    0.000    0.000 
#
# Total GULP energy -272739.521824 kJ/mol
# GULP energy per Si atom -12397.250992 kJ/mol
# Density = 1.966667 g / cm^3
# Si number density = 19.711530 Si / 1000 Ang^3
#
#
#
# Elastic Constant Matrix: (Units=GPa)
#
#
# Indices 1 2 3 4 5 6 
#
# 1 88.4492 71.7160 45.7814 0.0000 8.3359 0.0000
# 2 71.7160 114.4862 32.7704 0.0000 -7.5405 0.0000
# 3 45.7814 32.7704 128.7910 0.0000 12.7544 0.0000
# 4 0.0000 0.0000 0.0000 43.8315 0.0000 -20.5865
# 5 8.3359 -7.5405 12.7544 0.0000 34.7240 0.0000
# 6 0.0000 0.0000 0.0000 -20.5865 0.0000 50.9179
#
#
#
# Elastic Compliance Matrix: (Units=1/GPa)
#
#
# Indices 1 2 3 4 5 6 
#
# 1 0.028447 -0.016982 -0.004929 0.000000 -0.008706 0.000000
# 2 -0.016982 0.019878 0.000153 0.000000 0.008337 0.000000
# 3 -0.004929 0.000153 0.009710 0.000000 -0.002350 0.000000
# 4 0.000000 0.000000 0.000000 0.028163 0.000000 0.011386
# 5 -0.008706 0.008337 -0.002350 0.000000 0.033562 0.000000
# 6 0.000000 0.000000 0.000000 0.011386 0.000000 0.024243
#
#
# Mechanical properties :
#
#
# Convention : Reuss Voigt Hill
#
# Bulk Modulus (GPa) = 68.87279 70.25133 69.56206
# Shear Modulus (GPa) = 25.99302 37.99192 31.99247
#
# Velocity S-wave (km/s) = 3.63529 4.39497 4.03306
# Velocity P-wave (km/s) = 7.25511 7.84038 7.55341
#
# Compressibility (1/GPa) = 0.01451952
#
# Stress axis : x y z
#
# Youngs Moduli (GPa) = 35.15276 50.30689 102.98312
#
# Poissons Ratio (x) = 0.85433 0.50759
# Poissons Ratio (y) = 0.59698 -0.01578
# Poissons Ratio (z) = 0.17326 -0.00771
#
# Static dielectric constant tensor:
#      x y z
#    x 3.416740 0.000000 0.140700 
#    y 0.000000 3.859100 0.000000 
#    z 0.140700 0.000000 3.972240 
# 
# 
# High freq. dielectric constant tensor:
#      x y z
#    x 1.761060 0.000000 0.003350 
#    y 0.000000 1.767410 0.000000 
#    z 0.003350 0.000000 1.793700 
# 
# From -- ./inp_files/20801.got.cif
#   From: 2010.06.25/outbox.cif.g09.slc.cpg/sg10_11_cif.got.tgz:20801.got - 2010.06.27 22:07:45.
