data_PCOD8066451
_publ_section_title
;
Structure prediction by ZEFSAII (Michael W. Deem and Ramdas Pophale) SiO2 
 PCOD8066451
Probable space group: P 2/M
;
_chemical_formula_sum "Si O2"
_cell_formula_units_Z 18
_cell_length_a 21.762967
_cell_length_b 7.383898
_cell_length_c 5.207158
_cell_angle_alpha 90.000000
_cell_angle_beta 83.128583
_cell_angle_gamma 90.000000
_cell_volume 830.756636
_symmetry_space_group_name_H-M "P 2/M"
_symmetry_group_IT_number 10
_symmetry_cell_setting 'monoclinic'
loop_
_space_group_symop_operation_xyz
x,y,z
-x,y,-z
-x,-y,-z
x,-y,z
loop_
_atom_site_type_symbol
_atom_site_label
_atom_site_fract_x
_atom_site_fract_y
_atom_site_fract_z
Si Si1 0.279111 0.786262 0.860401
Si Si2 0.930223 0.215625 0.534883
Si Si3 0.859581 0.784002 0.070206
Si Si4 0.541664 0.500000 0.729166
Si Si5 0.646624 0.785132 0.676749
O O1 0.209995 0.704720 0.895000
O O2 0.315126 0.720277 0.590475
O O3 0.274176 0.000000 0.862943
O O4 0.315155 0.720235 0.094205
O O5 0.894974 0.290096 0.302443
O O6 0.000000 0.291392 0.500000
O O7 0.930748 0.000000 0.534620
O O8 0.894971 0.290095 0.802572
O O9 0.858588 0.000000 0.070708
O O10 0.500000 0.500000 0.500000
O O11 0.581652 0.683119 0.709163
O O12 0.500000 0.500000 0.000000
O O13 0.633900 0.000000 0.683124
#
# Coordination Sequence:
#
# PCOD8066451 Si02
#       5
#     4   4   4   2   4
#     4   9  17  31  52  76 102 138 183 228 276 321
#     4   9  15  21  30  50  86 132 176 217 265 318
#     4   9  15  23  37  58  86 126 176 220 262 318
#     4  12  26  42  62  88 116 148 181 214 261 318
#     4  10  21  38  59  83 112 145 181 223 269 317
#
# _framework density 21.666996999999999
#
# number of rings (size 3 to 8) (size 9 to 14) (size 15 to 20)
#    0.000    2.444    0.000    3.333    0.000    8.889 
#    0.000    0.000    0.000    0.000    0.000    0.000 
#    0.000    0.000    0.000   70.000    0.000  171.111 
#
# Total GULP energy -223212.276087 kJ/mol
# GULP energy per Si atom -12400.682005 kJ/mol
# Density = 2.161768 g / cm^3
# Si number density = 21.666997 Si / 1000 Ang^3
#
#
#
# Elastic Constant Matrix: (Units=GPa)
#
#
# Indices 1 2 3 4 5 6 
#
# 1 225.6878 34.7465 130.4664 0.0000 2.0975 0.0000
# 2 34.7465 54.3884 20.6706 0.0000 -2.5233 0.0000
# 3 130.4664 20.6706 250.1270 0.0000 2.3337 0.0000
# 4 0.0000 0.0000 0.0000 -2.6359 0.0000 4.0192
# 5 2.0975 -2.5233 2.3337 0.0000 53.4599 0.0000
# 6 0.0000 0.0000 0.0000 4.0192 0.0000 -25.1555
#
#
#
# Elastic Compliance Matrix: (Units=1/GPa)
#
#
# Indices 1 2 3 4 5 6 
#
# 1 0.006819 -0.003116 -0.003297 0.000000 -0.000271 0.000000
# 2 -0.003116 0.020456 -0.000075 0.000000 0.001091 0.000000
# 3 -0.003297 -0.000075 0.005725 0.000000 -0.000124 0.000000
# 4 0.000000 0.000000 0.000000 -0.501570 0.000000 -0.080137
# 5 -0.000271 0.001091 -0.000124 0.000000 0.018773 0.000000
# 6 0.000000 0.000000 0.000000 -0.080137 0.000000 -0.052556
#
#
# Mechanical properties :
#
#
# Convention : Reuss Voigt Hill
#
# Bulk Modulus (GPa) = 49.94037 100.21892 75.07964
# Shear Modulus (GPa) = -10.35834 28.08837 8.86501
#
# Velocity S-wave (km/s) = -2.18885 3.60441 2.02494
# Velocity P-wave (km/s) = 4.08791 7.97979 6.33987
#
# Compressibility (1/GPa) = 0.02002388
#
# Stress axis : x y z
#
# Youngs Moduli (GPa) = 146.65081 48.88498 174.67461
#
# Poissons Ratio (x) = 0.15232 0.57585
# Poissons Ratio (y) = 0.45696 0.01317
# Poissons Ratio (z) = 0.48347 0.00369
#
# Static dielectric constant tensor:
#      x y z
#    x 4.062350 0.000000 0.035470 
#    y 0.000000 3.326170 0.000000 
#    z 0.035470 0.000000 4.260820 
# 
# 
# High freq. dielectric constant tensor:
#      x y z
#    x 1.857890 0.000000 0.001940 
#    y 0.000000 1.823220 0.000000 
#    z 0.001940 0.000000 1.868720 
# 
# From -- ./inp_files/10535.got.cif
#   From: 2010.06.25/outbox.cif.g09.slc.cpg/sg10_6_cif.got.tgz:10535.got - 2010.06.27 22:07:45.
