data_PCOD8066930
_publ_section_title
;
Structure prediction by ZEFSAII (Michael W. Deem and Ramdas Pophale) SiO2 
 PCOD8066930
Probable space group: P 2/M
;
_chemical_formula_sum "Si O2"
_cell_formula_units_Z 28
_cell_length_a 12.870462
_cell_length_b 14.094369
_cell_length_c 8.479563
_cell_angle_alpha 90.000000
_cell_angle_beta 107.228782
_cell_angle_gamma 90.000000
_cell_volume 1469.181980
_symmetry_space_group_name_H-M "P 2/M"
_symmetry_group_IT_number 10
_symmetry_cell_setting 'monoclinic'
loop_
_space_group_symop_operation_xyz
x,y,z
-x,y,-z
-x,-y,-z
x,-y,z
loop_
_atom_site_type_symbol
_atom_site_label
_atom_site_fract_x
_atom_site_fract_y
_atom_site_fract_z
Si Si1 0.102272 0.890237 0.656172
Si Si2 0.288299 0.702866 0.235624
Si Si3 0.326876 0.500000 0.347625
Si Si4 0.480093 0.703119 0.816666
Si Si5 0.734021 0.762549 0.430548
Si Si6 0.888645 0.391689 0.355913
Si Si7 0.902523 0.739735 0.078238
Si Si8 0.558122 0.500000 0.288513
O O1 0.208227 0.856790 0.608039
O O2 0.088897 0.834310 0.813475
O O3 0.000000 0.868143 0.500000
O O4 0.113593 0.000000 0.703634
O O5 0.260614 0.592913 0.263021
O O6 0.412947 0.712497 0.240657
O O7 0.268321 0.766101 0.381399
O O8 0.212260 0.740979 0.062996
O O9 0.445728 0.500000 0.329789
O O10 0.341245 0.500000 0.543374
O O11 0.388246 0.764573 0.689893
O O12 0.437222 0.594514 0.815311
O O13 0.500000 0.743774 0.000000
O O14 0.796155 0.668875 0.399580
O O15 0.848638 0.500000 0.327753
O O16 0.908724 0.353647 0.188800
O O17 0.000000 0.381870 0.500000
O O18 0.000000 0.737047 0.000000
#
# Coordination Sequence:
#
# PCOD8066930 Si02
#       8
#     4   4   2   4   4   4   4   2
#     4  10  22  43  68  91 113 142 188 247 305 352
#     4  11  22  36  55  83 122 160 200 242 283 338
#     4   9  18  32  49  76 115 162 205 235 272 318
#     4  11  21  34  53  83 118 160 204 247 288 331
#     4  11  21  37  61  82 115 155 197 242 290 351
#     4  10  22  37  52  77 114 157 197 234 282 339
#     4  11  22  39  60  87 118 150 192 240 290 353
#     4   9  17  32  48  74 112 158 208 245 268 318
#
# _framework density 19.058225
#
# number of rings (size 3 to 8) (size 9 to 14) (size 15 to 20)
#    0.000    1.571    1.429    5.786    3.000    0.571 
#    2.571    0.714    0.000    5.571    0.000    0.000 
#    0.000    0.000    0.000    0.000    0.000    0.000 
#
# Total GULP energy -347269.812187 kJ/mol
# GULP energy per Si atom -12402.493292 kJ/mol
# Density = 1.901485 g / cm^3
# Si number density = 19.058225 Si / 1000 Ang^3
#
#
#
# Elastic Constant Matrix: (Units=GPa)
#
#
# Indices 1 2 3 4 5 6 
#
# 1 97.5678 28.6531 44.8299 0.0000 2.5178 0.0000
# 2 28.6531 74.2979 44.0360 0.0000 8.5107 0.0000
# 3 44.8299 44.0360 145.7868 0.0000 4.6518 0.0000
# 4 0.0000 0.0000 0.0000 21.8866 0.0000 2.1629
# 5 2.5178 8.5107 4.6518 0.0000 39.1893 0.0000
# 6 0.0000 0.0000 0.0000 2.1629 0.0000 20.1217
#
#
#
# Elastic Compliance Matrix: (Units=1/GPa)
#
#
# Indices 1 2 3 4 5 6 
#
# 1 0.012496 -0.003121 -0.002907 0.000000 0.000220 0.000000
# 2 -0.003121 0.017529 -0.004236 0.000000 -0.003103 0.000000
# 3 -0.002907 -0.004236 0.009032 0.000000 0.000035 0.000000
# 4 0.000000 0.000000 0.000000 0.046181 0.000000 -0.004964
# 5 0.000220 -0.003103 0.000035 0.000000 0.026173 0.000000
# 6 0.000000 0.000000 0.000000 -0.004964 0.000000 0.050231
#
#
# Mechanical properties :
#
#
# Convention : Reuss Voigt Hill
#
# Bulk Modulus (GPa) = 53.97111 61.41006 57.69058
# Shear Modulus (GPa) = 26.54691 29.58173 28.06432
#
# Velocity S-wave (km/s) = 3.73626 3.94404 3.84155
# Velocity P-wave (km/s) = 6.85517 7.28237 7.07200
#
# Compressibility (1/GPa) = 0.01852843
#
# Stress axis : x y z
#
# Youngs Moduli (GPa) = 80.02664 57.04749 110.72303
#
# Poissons Ratio (x) = 0.17807 0.32184
# Poissons Ratio (y) = 0.24980 0.46902
# Poissons Ratio (z) = 0.23261 0.24165
#
# Static dielectric constant tensor:
#      x y z
#    x 3.509510 0.000000 0.041540 
#    y 0.000000 3.301490 0.000000 
#    z 0.041540 0.000000 3.629730 
# 
# 
# High freq. dielectric constant tensor:
#      x y z
#    x 1.749870 0.000000 0.000870 
#    y 0.000000 1.704650 0.000000 
#    z 0.000870 0.000000 1.754760 
# 
# From -- ./inp_files/25088.got.cif
#   From: 2010.06.25/outbox.cif.g09.slc.cpg/sg10_13_cif.got.tgz:25088.got - 2010.06.27 22:07:45.
