data_PCOD8066239
_publ_section_title
;
Structure prediction by ZEFSAII (Michael W. Deem and Ramdas Pophale) SiO2 
 PCOD8066239
Probable space group: P 2/M
;
_chemical_formula_sum "Si O2"
_cell_formula_units_Z 24
_cell_length_a 14.803035
_cell_length_b 12.990368
_cell_length_c 8.901820
_cell_angle_alpha 90.000000
_cell_angle_beta 42.442513
_cell_angle_gamma 90.000000
_cell_volume 1155.203150
_symmetry_space_group_name_H-M "P 2/M"
_symmetry_group_IT_number 10
_symmetry_cell_setting 'monoclinic'
loop_
_space_group_symop_operation_xyz
x,y,z
-x,y,-z
-x,-y,-z
x,-y,z
loop_
_atom_site_type_symbol
_atom_site_label
_atom_site_fract_x
_atom_site_fract_y
_atom_site_fract_z
Si Si1 0.871060 0.384219 0.254510
Si Si2 0.279052 0.804668 0.012976
Si Si3 0.963812 0.114836 0.883886
Si Si4 0.359224 0.686071 0.662734
Si Si5 0.207167 0.798812 0.440703
Si Si6 0.570589 0.880221 0.623831
O O1 0.888218 0.500000 0.295856
O O2 0.743079 0.381863 0.303565
O O3 0.844495 0.309141 0.426723
O O4 0.000000 0.350658 0.000000
O O5 0.218870 0.784493 0.249277
O O6 0.166395 0.844308 0.037897
O O7 0.315747 0.696180 0.890381
O O8 0.412460 0.875071 0.856285
O O9 0.091409 0.118937 0.617273
O O10 0.927420 0.000000 0.970751
O O11 0.000000 0.171587 0.000000
O O12 0.500000 0.626293 0.500000
O O13 0.382762 0.803360 0.567026
O O14 0.347376 0.841618 0.331030
O O15 0.604567 0.000000 0.541897
#
# Coordination Sequence:
#
# PCOD8066239 Si02
#       6
#     4   4   4   4   4   4
#     4  10  21  40  64  84 106 143 189 235 287 345
#     4  11  22  35  56  84 118 151 185 231 280 331
#     4  11  23  37  54  78 112 155 195 228 270 329
#     4   9  20  37  57  82 112 148 190 230 276 331
#     4  11  22  37  57  83 117 148 183 236 290 335
#     4  10  21  37  57  83 118 159 197 229 268 328
#
# _framework density 20.775566999999999
#
# number of rings (size 3 to 8) (size 9 to 14) (size 15 to 20)
#    0.000    1.667    0.000    5.500    0.000    9.333 
#    0.000    0.833    0.000   17.500    0.000    0.000 
#    0.000    0.000    0.000    0.000    0.000    0.000 
#
# Total GULP energy -297362.293037 kJ/mol
# GULP energy per Si atom -12390.095543 kJ/mol
# Density = 2.072828 g / cm^3
# Si number density = 20.775567 Si / 1000 Ang^3
#
#
#
# Elastic Constant Matrix: (Units=GPa)
#
#
# Indices 1 2 3 4 5 6 
#
# 1 143.9977 19.7444 74.0038 0.0000 -19.4927 0.0000
# 2 19.7444 75.4156 20.0022 0.0000 -2.9832 0.0000
# 3 74.0038 20.0022 137.9851 0.0000 4.1207 0.0000
# 4 0.0000 0.0000 0.0000 20.1956 0.0000 3.2300
# 5 -19.4927 -2.9832 4.1207 0.0000 44.7286 0.0000
# 6 0.0000 0.0000 0.0000 3.2300 0.0000 2.7635
#
#
#
# Elastic Compliance Matrix: (Units=1/GPa)
#
#
# Indices 1 2 3 4 5 6 
#
# 1 0.010751 -0.001083 -0.005763 0.000000 0.005144 0.000000
# 2 -0.001083 0.013954 -0.001460 0.000000 0.000593 0.000000
# 3 -0.005763 -0.001460 0.010657 0.000000 -0.003590 0.000000
# 4 0.000000 0.000000 0.000000 0.060900 0.000000 -0.071181
# 5 0.005144 0.000593 -0.003590 0.000000 0.024969 0.000000
# 6 0.000000 0.000000 0.000000 -0.071181 0.000000 0.445054
#
#
# Mechanical properties :
#
#
# Convention : Reuss Voigt Hill
#
# Bulk Modulus (GPa) = 53.32992 64.98881 59.15937
# Shear Modulus (GPa) = 8.48687 29.78074 19.13380
#
# Velocity S-wave (km/s) = 2.02334 3.79020 3.03805
# Velocity P-wave (km/s) = 5.58424 7.10658 6.39090
#
# Compressibility (1/GPa) = 0.01875120
#
# Stress axis : x y z
#
# Youngs Moduli (GPa) = 93.01600 71.66419 93.83921
#
# Poissons Ratio (x) = 0.07760 0.54075
# Poissons Ratio (y) = 0.10072 0.13698
# Poissons Ratio (z) = 0.53601 0.10461
#
# Static dielectric constant tensor:
#      x y z
#    x 4.101150 0.000000 -0.187050 
#    y 0.000000 3.422990 0.000000 
#    z -0.187050 0.000000 3.947720 
# 
# 
# High freq. dielectric constant tensor:
#      x y z
#    x 1.829470 0.000000 -0.020400 
#    y 0.000000 1.783700 0.000000 
#    z -0.020400 0.000000 1.818590 
# 
# From -- ./inp_files/29241.got.cif
#   From: 2010.06.25/outbox.cif.g09.slc.cpg/sg10_15_cif.got.tgz:29241.got - 2010.06.27 22:07:45.
