data_PCOD8066308
_publ_section_title
;
Structure prediction by ZEFSAII (Michael W. Deem and Ramdas Pophale) SiO2 
 PCOD8066308
Probable space group: P 2/M
;
_chemical_formula_sum "Si O2"
_cell_formula_units_Z 32
_cell_length_a 14.783179
_cell_length_b 8.745829
_cell_length_c 22.346896
_cell_angle_alpha 90.000000
_cell_angle_beta 31.838493
_cell_angle_gamma 90.000000
_cell_volume 1524.159571
_symmetry_space_group_name_H-M "P 2/M"
_symmetry_group_IT_number 10
_symmetry_cell_setting 'monoclinic'
loop_
_space_group_symop_operation_xyz
x,y,z
-x,y,-z
-x,-y,-z
x,-y,z
loop_
_atom_site_type_symbol
_atom_site_label
_atom_site_fract_x
_atom_site_fract_y
_atom_site_fract_z
Si Si1 0.505987 0.178986 0.744999
Si Si2 0.112853 0.320959 0.758068
Si Si3 0.492445 0.677843 0.130179
Si Si4 0.133271 0.678031 0.273594
Si Si5 0.351634 0.829736 0.535148
Si Si6 0.600960 0.320314 0.309565
Si Si7 0.895779 0.820482 0.500535
Si Si8 0.790216 0.179269 0.894989
O O1 0.456888 0.230942 0.838827
O O2 0.379420 0.265300 0.769761
O O3 0.700080 0.226279 0.621068
O O4 0.475022 0.000000 0.756493
O O5 0.075718 0.500000 0.779487
O O6 0.201901 0.277445 0.644907
O O7 0.230684 0.269966 0.747813
O O8 0.933642 0.230795 0.862874
O O9 0.523736 0.500000 0.123680
O O10 0.297004 0.712986 0.223016
O O11 0.612467 0.735770 0.008991
O O12 0.120197 0.500000 0.264400
O O13 0.147281 0.774689 0.205636
O O14 0.964055 0.731491 0.403961
O O15 0.500000 0.838645 0.500000
O O16 0.428609 0.759153 0.431489
O O17 0.279547 0.000000 0.561967
O O18 0.576148 0.500000 0.328529
O O19 0.000000 0.765562 0.500000
O O20 0.919958 0.000000 0.476123
O O21 0.759938 0.000000 0.916075
#
# Coordination Sequence:
#
# PCOD8066308 Si02
#       8
#     4   4   4   4   4   4   4   4
#     4  11  23  39  63  92 126 167 209 254 306 365
#     4  10  21  39  60  85 120 160 205 256 309 363
#     4  11  24  44  66  90 123 161 207 257 308 367
#     4  11  24  41  65  94 126 163 204 252 307 368
#     4   9  17  31  53  81 115 154 195 243 299 358
#     4  10  21  37  59  87 122 164 205 251 307 366
#     4  10  21  39  62  91 129 166 203 250 304 365
#     4  12  26  42  65  92 122 161 207 258 312 366
#
# _framework density 20.995177999999999
#
# number of rings (size 3 to 8) (size 9 to 14) (size 15 to 20)
#    0.000    1.500    1.250    3.750    1.750    7.250 
#    0.000    0.625    0.000    3.750    0.000    0.000 
#    0.000    0.000    0.000    0.000    0.000    0.000 
#
# Total GULP energy -396978.665490 kJ/mol
# GULP energy per Si atom -12405.583297 kJ/mol
# Density = 2.094739 g / cm^3
# Si number density = 20.995178 Si / 1000 Ang^3
#
#
#
# Elastic Constant Matrix: (Units=GPa)
#
#
# Indices 1 2 3 4 5 6 
#
# 1 82.6922 25.2897 9.1087 0.0000 13.6089 0.0000
# 2 25.2897 67.0639 16.9671 0.0000 -9.7036 0.0000
# 3 9.1087 16.9671 67.1273 0.0000 6.9800 0.0000
# 4 0.0000 0.0000 0.0000 37.0204 0.0000 4.2333
# 5 13.6089 -9.7036 6.9800 0.0000 22.8110 0.0000
# 6 0.0000 0.0000 0.0000 4.2333 0.0000 33.3406
#
#
#
# Elastic Compliance Matrix: (Units=1/GPa)
#
#
# Indices 1 2 3 4 5 6 
#
# 1 0.017002 -0.008846 0.001420 0.000000 -0.014341 0.000000
# 2 -0.008846 0.022201 -0.006137 0.000000 0.016600 0.000000
# 3 0.001420 -0.006137 0.017161 0.000000 -0.008709 0.000000
# 4 0.000000 0.000000 0.000000 0.027410 0.000000 -0.003480
# 5 -0.014341 0.016600 -0.008709 0.000000 0.062121 0.000000
# 6 0.000000 0.000000 0.000000 -0.003480 0.000000 0.030435
#
#
# Mechanical properties :
#
#
# Convention : Reuss Voigt Hill
#
# Bulk Modulus (GPa) = 34.20151 35.51273 34.85712
# Shear Modulus (GPa) = 23.45181 29.66891 26.56036
#
# Velocity S-wave (km/s) = 3.34579 3.76324 3.56064
# Velocity P-wave (km/s) = 5.59029 5.98616 5.79161
#
# Compressibility (1/GPa) = 0.02923848
#
# Stress axis : x y z
#
# Youngs Moduli (GPa) = 58.81660 45.04210 58.27066
#
# Poissons Ratio (x) = 0.39843 -0.08274
# Poissons Ratio (y) = 0.52027 0.35763
# Poissons Ratio (z) = -0.08352 0.27644
#
# Static dielectric constant tensor:
#      x y z
#    x 3.887280 0.000000 -0.094030 
#    y 0.000000 3.759780 0.000000 
#    z -0.094030 0.000000 3.695280 
# 
# 
# High freq. dielectric constant tensor:
#      x y z
#    x 1.830540 0.000000 -0.002850 
#    y 0.000000 1.828350 0.000000 
#    z -0.002850 0.000000 1.808320 
# 
# From -- ./inp_files/89553.got.cif
#   From: 2010.06.25/outbox.cif.g09.slc.cpg/sg10_45_cif.got.tgz:89553.got - 2010.06.27 22:07:45.
