data_PCOD8066028
_publ_section_title
;
Structure prediction by ZEFSAII (Michael W. Deem and Ramdas Pophale) SiO2 
 PCOD8066028
Probable space group: P 2/M
;
_chemical_formula_sum "Si O2"
_cell_formula_units_Z 20
_cell_length_a 26.643758
_cell_length_b 8.979255
_cell_length_c 9.446931
_cell_angle_alpha 90.000000
_cell_angle_beta 151.704472
_cell_angle_gamma 90.000000
_cell_volume 1071.328660
_symmetry_space_group_name_H-M "P 2/M"
_symmetry_group_IT_number 10
_symmetry_cell_setting 'monoclinic'
loop_
_space_group_symop_operation_xyz
x,y,z
-x,y,-z
-x,-y,-z
x,-y,z
loop_
_atom_site_type_symbol
_atom_site_label
_atom_site_fract_x
_atom_site_fract_y
_atom_site_fract_z
Si Si1 0.685095 0.824843 0.799618
Si Si2 0.085871 0.829466 0.328177
Si Si3 0.097921 0.325608 0.647264
Si Si4 0.497859 0.674105 0.830144
Si Si5 0.674272 0.830137 0.098412
O O1 0.597075 0.761633 0.477913
O O2 0.693167 0.000000 0.799461
O O3 0.797797 0.756479 0.036693
O O4 0.656531 0.784461 0.890706
O O5 0.069220 0.720573 0.417419
O O6 0.203082 0.810412 0.554449
O O7 0.070131 0.000000 0.339474
O O8 0.000000 0.781889 0.000000
O O9 0.119661 0.500000 0.708020
O O10 0.000000 0.276666 0.500000
O O11 0.480193 0.500000 0.762783
O O12 0.500000 0.716491 0.000000
O O13 0.608420 0.721300 0.034725
O O14 0.636528 0.000000 0.028520
#
# Coordination Sequence:
#
# PCOD8066028 Si02
#       5
#     4   4   4   4   4
#     4  10  21  38  60  82 105 139 184 227 267 319
#     4   9  19  36  57  82 111 143 183 227 267 314
#     4  10  21  36  55  82 114 145 179 220 267 321
#     4  11  24  38  53  79 113 144 177 220 271 325
#     4   9  19  36  57  81 107 139 183 227 266 316
#
# _framework density 18.668406999999998
#
# number of rings (size 3 to 8) (size 9 to 14) (size 15 to 20)
#    0.000    2.200    0.000    3.600    0.000   11.600 
#    0.000    4.000    0.000    0.000    0.000    0.000 
#    0.000    0.000    0.000    0.000    0.000    0.000 
#
# Total GULP energy -248073.190640 kJ/mol
# GULP energy per Si atom -12403.659532 kJ/mol
# Density = 1.862592 g / cm^3
# Si number density = 18.668407 Si / 1000 Ang^3
#
#
#
# Elastic Constant Matrix: (Units=GPa)
#
#
# Indices 1 2 3 4 5 6 
#
# 1 111.4781 52.0463 60.6260 0.0000 16.9015 0.0000
# 2 52.0463 65.4480 41.1243 0.0000 8.8776 0.0000
# 3 60.6260 41.1243 141.0649 0.0000 -0.4087 0.0000
# 4 0.0000 0.0000 0.0000 28.9223 0.0000 7.2678
# 5 16.9015 8.8776 -0.4087 0.0000 24.0715 0.0000
# 6 0.0000 0.0000 0.0000 7.2678 0.0000 25.7958
#
#
#
# Elastic Compliance Matrix: (Units=1/GPa)
#
#
# Indices 1 2 3 4 5 6 
#
# 1 0.017340 -0.009688 -0.004653 0.000000 -0.008681 0.000000
# 2 -0.009688 0.025374 -0.003241 0.000000 -0.002611 0.000000
# 3 -0.004653 -0.003241 0.010047 0.000000 0.004633 0.000000
# 4 0.000000 0.000000 0.000000 0.037210 0.000000 -0.010484
# 5 -0.008681 -0.002611 0.004633 0.000000 0.048680 0.000000
# 6 0.000000 0.000000 0.000000 -0.010484 0.000000 0.041720
#
#
# Mechanical properties :
#
#
# Convention : Reuss Voigt Hill
#
# Bulk Modulus (GPa) = 56.82888 69.50935 63.16912
# Shear Modulus (GPa) = 22.58338 26.70421 24.64379
#
# Velocity S-wave (km/s) = 3.48186 3.78623 3.63723
# Velocity P-wave (km/s) = 6.83167 7.51190 7.17985
#
# Compressibility (1/GPa) = 0.01759669
#
# Stress axis : x y z
#
# Youngs Moduli (GPa) = 57.66904 39.40989 99.53149
#
# Poissons Ratio (x) = 0.38181 0.46314
# Poissons Ratio (y) = 0.55871 0.32260
# Poissons Ratio (z) = 0.26835 0.12773
#
# Static dielectric constant tensor:
#      x y z
#    x 3.383000 0.000000 0.051900 
#    y 0.000000 3.442580 0.000000 
#    z 0.051900 0.000000 3.543480 
# 
# 
# High freq. dielectric constant tensor:
#      x y z
#    x 1.717430 0.000000 0.006930 
#    y 0.000000 1.730910 0.000000 
#    z 0.006930 0.000000 1.737030 
# 
# From -- ./inp_files/22165.got.cif
#   From: 2010.06.25/outbox.cif.g09.slc.cpg/sg10_12_cif.got.tgz:22165.got - 2010.06.27 22:07:45.
