data_PCOD8066253
_publ_section_title
;
Structure prediction by ZEFSAII (Michael W. Deem and Ramdas Pophale) SiO2 
 PCOD8066253
Probable space group: P 2/M
;
_chemical_formula_sum "Si O2"
_cell_formula_units_Z 24
_cell_length_a 7.675831
_cell_length_b 8.793715
_cell_length_c 20.446501
_cell_angle_alpha 90.000000
_cell_angle_beta 111.953167
_cell_angle_gamma 90.000000
_cell_volume 1280.046967
_symmetry_space_group_name_H-M "P 2/M"
_symmetry_group_IT_number 10
_symmetry_cell_setting 'monoclinic'
loop_
_space_group_symop_operation_xyz
x,y,z
-x,y,-z
-x,-y,-z
x,-y,z
loop_
_atom_site_type_symbol
_atom_site_label
_atom_site_fract_x
_atom_site_fract_y
_atom_site_fract_z
Si Si1 0.008058 0.320704 0.331696
Si Si2 0.928986 0.681480 0.920975
Si Si3 0.476124 0.679967 0.180097
Si Si4 0.570077 0.676422 0.582380
Si Si5 0.359125 0.821030 0.670090
Si Si6 0.856975 0.679170 0.173257
O O1 0.976231 0.500000 0.334399
O O2 0.213889 0.269930 0.383172
O O3 0.853400 0.240482 0.355310
O O4 0.980545 0.267809 0.252627
O O5 0.936467 0.500000 0.923205
O O6 0.717376 0.737872 0.878365
O O7 0.060993 0.750084 0.882051
O O8 0.000000 0.748127 0.000000
O O9 0.476076 0.500000 0.191114
O O10 0.506872 0.753268 0.255068
O O11 0.641399 0.730071 0.153507
O O12 0.500000 0.707641 0.500000
O O13 0.552228 0.500000 0.599667
O O14 0.441971 0.775238 0.611939
O O15 0.355627 0.000000 0.676840
O O16 0.870454 0.500000 0.168609
#
# Coordination Sequence:
#
# PCOD8066253 Si02
#       6
#     4   4   4   4   4   4
#     4   9  18  35  57  77 101 136 178 219 257 306
#     4   9  16  25  42  72 104 129 159 208 266 312
#     4   9  17  31  50  70  96 131 172 214 254 304
#     4  10  21  37  58  82 107 138 175 214 259 314
#     4  11  22  35  54  79 107 138 175 220 265 310
#     4   8  14  25  43  67  93 124 161 202 248 294
#
# _framework density 18.749310999999999
#
# number of rings (size 3 to 8) (size 9 to 14) (size 15 to 20)
#    0.000    2.667    0.000    3.500    0.000    5.000 
#    0.000    6.667    0.000    0.500    0.000    4.667 
#    0.000    0.000    0.000    0.000    0.000    0.000 
#
# Total GULP energy -297576.613166 kJ/mol
# GULP energy per Si atom -12399.025549 kJ/mol
# Density = 1.870664 g / cm^3
# Si number density = 18.749311 Si / 1000 Ang^3
#
#
#
# Elastic Constant Matrix: (Units=GPa)
#
#
# Indices 1 2 3 4 5 6 
#
# 1 153.4446 28.7702 96.6802 0.0000 -2.3428 0.0000
# 2 28.7702 37.6930 27.2176 0.0000 -5.7555 0.0000
# 3 96.6802 27.2176 126.5472 0.0000 -1.0651 0.0000
# 4 0.0000 0.0000 0.0000 6.5656 0.0000 -1.1933
# 5 -2.3428 -5.7555 -1.0651 0.0000 19.9134 0.0000
# 6 0.0000 0.0000 0.0000 -1.1933 0.0000 5.0715
#
#
#
# Elastic Compliance Matrix: (Units=1/GPa)
#
#
# Indices 1 2 3 4 5 6 
#
# 1 0.012889 -0.003212 -0.009156 0.000000 0.000098 0.000000
# 2 -0.003212 0.033799 -0.004739 0.000000 0.009137 0.000000
# 3 -0.009156 -0.004739 0.015903 0.000000 -0.001596 0.000000
# 4 0.000000 0.000000 0.000000 0.159114 0.000000 0.037438
# 5 0.000098 0.009137 -0.001596 0.000000 0.052785 0.000000
# 6 0.000000 0.000000 0.000000 0.037438 0.000000 0.205988
#
#
# Mechanical properties :
#
#
# Convention : Reuss Voigt Hill
#
# Bulk Modulus (GPa) = 35.23812 69.22454 52.23133
# Shear Modulus (GPa) = 9.53927 17.31121 13.42524
#
# Velocity S-wave (km/s) = 2.25806 3.04188 2.67879
# Velocity P-wave (km/s) = 5.06296 7.02415 6.12259
#
# Compressibility (1/GPa) = 0.02837836
#
# Stress axis : x y z
#
# Youngs Moduli (GPa) = 77.58293 29.58699 62.88227
#
# Poissons Ratio (x) = 0.09503 0.57573
# Poissons Ratio (y) = 0.24920 0.29797
# Poissons Ratio (z) = 0.71032 0.14020
#
# Static dielectric constant tensor:
#      x y z
#    x 3.720640 0.000000 0.028490 
#    y 0.000000 2.959990 0.000000 
#    z 0.028490 0.000000 3.615550 
# 
# 
# High freq. dielectric constant tensor:
#      x y z
#    x 1.744160 0.000000 0.000570 
#    y 0.000000 1.678850 0.000000 
#    z 0.000570 0.000000 1.726060 
# 
# From -- ./inp_files/81787.got.cif
#   From: 2010.06.25/outbox.cif.g09.slc.cpg/sg10_41_cif.got.tgz:81787.got - 2010.06.27 22:07:45.
