data_PCOD8066361
_publ_section_title
;
Structure prediction by ZEFSAII (Michael W. Deem and Ramdas Pophale) SiO2 
 PCOD8066361
Probable space group: P 2/M
;
_chemical_formula_sum "Si O2"
_cell_formula_units_Z 30
_cell_length_a 16.036899
_cell_length_b 16.566005
_cell_length_c 12.621017
_cell_angle_alpha 90.000000
_cell_angle_beta 26.737055
_cell_angle_gamma 90.000000
_cell_volume 1508.500014
_symmetry_space_group_name_H-M "P 2/M"
_symmetry_group_IT_number 10
_symmetry_cell_setting 'monoclinic'
loop_
_space_group_symop_operation_xyz
x,y,z
-x,y,-z
-x,-y,-z
x,-y,z
loop_
_atom_site_type_symbol
_atom_site_label
_atom_site_fract_x
_atom_site_fract_y
_atom_site_fract_z
Si Si1 0.355089 0.591991 0.351724
Si Si2 0.845692 0.908065 0.880409
Si Si3 0.174590 0.237635 0.238874
Si Si4 0.081473 0.161530 0.797064
Si Si5 0.498148 0.164119 0.380931
Si Si6 0.661982 0.330658 0.135029
Si Si7 0.999159 0.650511 0.121522
Si Si8 0.500000 0.298675 0.000000
O O1 0.358933 0.500000 0.308917
O O2 0.517401 0.605158 0.253296
O O3 0.159389 0.609410 0.628943
O O4 0.387885 0.647132 0.211503
O O5 0.871837 0.852809 0.747064
O O6 0.001784 0.890215 0.791058
O O7 0.863775 0.000000 0.823148
O O8 0.641862 0.892273 0.157502
O O9 0.357456 0.238964 0.103964
O O10 0.000000 0.272465 0.500000
O O11 0.202721 0.296744 0.108760
O O12 0.301790 0.151850 0.547358
O O13 0.019959 0.253335 0.850770
O O14 0.000000 0.128182 0.000000
O O15 0.500000 0.136282 0.500000
O O16 0.549570 0.258233 0.317259
O O17 0.797945 0.373809 0.064336
O O18 0.000000 0.619075 0.000000
#
# Coordination Sequence:
#
# PCOD8066361 Si02
#       8
#     4   4   4   4   4   4   4   2
#     4  11  24  40  62  93 127 155 196 257 315 359
#     4  11  25  39  56  92 129 155 198 253 306 358
#     4  10  21  40  65  87 112 153 206 251 304 361
#     4  11  20  37  62  89 119 169 212 244 288 355
#     4  11  19  36  61  85 118 165 210 244 283 348
#     4  10  21  37  61  91 119 157 206 249 292 359
#     4  11  21  37  64  91 123 168 210 244 287 364
#     4  10  23  42  69  90 112 158 208 256 305 368
#
# _framework density 19.887304
#
# number of rings (size 3 to 8) (size 9 to 14) (size 15 to 20)
#    0.000    1.333    5.333    1.800    0.000    2.133 
#    0.000    1.000    0.000    4.400    0.000    0.000 
#    0.000    0.000    0.000    0.000    0.000    0.000 
#
# Total GULP energy -372091.847614 kJ/mol
# GULP energy per Si atom -12403.061587 kJ/mol
# Density = 1.984204 g / cm^3
# Si number density = 19.887304 Si / 1000 Ang^3
#
#
#
# Elastic Constant Matrix: (Units=GPa)
#
#
# Indices 1 2 3 4 5 6 
#
# 1 139.3144 31.1082 45.0740 0.0000 -20.9043 0.0000
# 2 31.1082 74.0052 14.6141 0.0000 -0.8103 0.0000
# 3 45.0740 14.6141 108.4796 0.0000 -18.1861 0.0000
# 4 0.0000 0.0000 0.0000 5.6006 0.0000 -0.7923
# 5 -20.9043 -0.8103 -18.1861 0.0000 29.4641 0.0000
# 6 0.0000 0.0000 0.0000 -0.7923 0.0000 14.0755
#
#
#
# Elastic Compliance Matrix: (Units=1/GPa)
#
#
# Indices 1 2 3 4 5 6 
#
# 1 0.009566 -0.003439 -0.002665 0.000000 0.005047 0.000000
# 2 -0.003439 0.015138 -0.001059 0.000000 -0.002678 0.000000
# 3 -0.002665 -0.001059 0.011318 0.000000 0.005066 0.000000
# 4 0.000000 0.000000 0.000000 0.179985 0.000000 0.010131
# 5 0.005047 -0.002678 0.005066 0.000000 0.040573 0.000000
# 6 0.000000 0.000000 0.000000 0.010131 0.000000 0.071616
#
#
# Mechanical properties :
#
#
# Convention : Reuss Voigt Hill
#
# Bulk Modulus (GPa) = 46.09564 55.93243 51.01404
# Shear Modulus (GPa) = 14.29575 25.22825 19.76200
#
# Velocity S-wave (km/s) = 2.68402 3.56555 3.15572
# Velocity P-wave (km/s) = 5.73010 6.71838 6.24382
#
# Compressibility (1/GPa) = 0.02169402
#
# Stress axis : x y z
#
# Youngs Moduli (GPa) = 104.54142 66.05833 88.35789
#
# Poissons Ratio (x) = 0.22720 0.23548
# Poissons Ratio (y) = 0.35956 0.09359
# Poissons Ratio (z) = 0.27861 0.06997
#
# Static dielectric constant tensor:
#      x y z
#    x 3.887680 0.000000 -0.019730 
#    y 0.000000 3.278130 0.000000 
#    z -0.019730 0.000000 3.691240 
# 
# 
# High freq. dielectric constant tensor:
#      x y z
#    x 1.788890 0.000000 -0.006360 
#    y 0.000000 1.741510 0.000000 
#    z -0.006360 0.000000 1.786750 
# 
# From -- ./inp_files/51875.got.cif
#   From: 2010.06.25/outbox.cif.g09.slc.cpg/sg10_26_cif.got.tgz:51875.got - 2010.06.27 22:07:45.
