data_PCOD8066112
_publ_section_title
;
Structure prediction by ZEFSAII (Michael W. Deem and Ramdas Pophale) SiO2 
 PCOD8066112
Probable space group: P 2/M
;
_chemical_formula_sum "Si O2"
_cell_formula_units_Z 26
_cell_length_a 19.996336
_cell_length_b 8.379992
_cell_length_c 9.148816
_cell_angle_alpha 90.000000
_cell_angle_beta 125.356421
_cell_angle_gamma 90.000000
_cell_volume 1250.314262
_symmetry_space_group_name_H-M "P 2/M"
_symmetry_group_IT_number 10
_symmetry_cell_setting 'monoclinic'
loop_
_space_group_symop_operation_xyz
x,y,z
-x,y,-z
-x,-y,-z
x,-y,z
loop_
_atom_site_type_symbol
_atom_site_label
_atom_site_fract_x
_atom_site_fract_y
_atom_site_fract_z
Si Si1 0.500000 0.756691 0.000000
Si Si2 0.496208 0.000000 0.739721
Si Si3 0.973237 0.184223 0.813593
Si Si4 0.290996 0.684425 0.128883
Si Si5 0.675257 0.674075 0.154776
Si Si6 0.111647 0.678917 0.803003
Si Si7 0.631589 0.000000 0.662614
Si Si8 0.835045 0.185483 0.434525
O O1 0.584929 0.659661 0.111376
O O2 0.496135 0.849791 0.146076
O O3 0.567143 0.000000 0.711304
O O4 0.409412 0.000000 0.548311
O O5 0.885920 0.248951 0.640259
O O6 0.043133 0.205052 0.780546
O O7 0.960885 0.000000 0.831680
O O8 0.000000 0.270662 0.000000
O O9 0.318026 0.500000 0.209034
O O10 0.318833 0.830955 0.268958
O O11 0.328936 0.729632 0.018793
O O12 0.193122 0.693208 0.003405
O O13 0.716272 0.500000 0.209347
O O14 0.736870 0.785609 0.326905
O O15 0.076813 0.500000 0.764326
O O16 0.131050 0.722359 0.662038
O O17 0.851770 0.000000 0.431879
#
# Coordination Sequence:
#
# PCOD8066112 Si02
#       8
#     2   2   4   4   4   4   2   4
#     4  11  21  40  60  88 120 156 192 259 289 362
#     4  10  24  36  62  92 114 150 218 231 303 371
#     4  10  22  40  57  83 119 154 191 241 299 355
#     4   9  20  37  60  92 122 156 204 249 297 356
#     4  10  21  37  60  88 118 155 197 245 305 358
#     4  10  21  36  59  87 114 153 199 241 288 350
#     4  11  20  42  62  90 118 168 195 256 303 354
#     4  10  21  36  60  88 112 150 200 246 289 348
#
# _framework density 20.794771000000001
#
# number of rings (size 3 to 8) (size 9 to 14) (size 15 to 20)
#    0.000    2.000    1.538    2.538    7.538    3.385 
#    2.769    3.077    0.000    0.000    0.000    0.000 
#    0.000    0.000    0.000    0.000    0.000    0.000 
#
# Total GULP energy -322150.735828 kJ/mol
# GULP energy per Si atom -12390.412916 kJ/mol
# Density = 2.074744 g / cm^3
# Si number density = 20.794771 Si / 1000 Ang^3
#
#
#
# Elastic Constant Matrix: (Units=GPa)
#
#
# Indices 1 2 3 4 5 6 
#
# 1 74.2109 -1.3735 32.0594 0.0000 18.8562 0.0000
# 2 -1.3735 82.4069 49.5174 0.0000 6.2980 0.0000
# 3 32.0594 49.5174 143.3924 0.0000 13.0257 0.0000
# 4 0.0000 0.0000 0.0000 6.2700 0.0000 12.2544
# 5 18.8562 6.2980 13.0257 0.0000 25.8766 0.0000
# 6 0.0000 0.0000 0.0000 12.2544 0.0000 17.6317
#
#
#
# Elastic Compliance Matrix: (Units=1/GPa)
#
#
# Indices 1 2 3 4 5 6 
#
# 1 0.018550 0.003873 -0.004371 0.000000 -0.012260 0.000000
# 2 0.003873 0.016152 -0.006109 0.000000 -0.003678 0.000000
# 3 -0.004371 -0.006109 0.010098 0.000000 -0.000411 0.000000
# 4 0.000000 0.000000 0.000000 -0.445027 0.000000 0.309302
# 5 -0.012260 -0.003678 -0.000411 0.000000 0.048681 0.000000
# 6 0.000000 0.000000 0.000000 0.309302 0.000000 -0.158255
#
#
# Mechanical properties :
#
#
# Convention : Reuss Voigt Hill
#
# Bulk Modulus (GPa) = 31.66118 51.15742 41.40930
# Shear Modulus (GPa) = -10.28685 24.60945 7.16130
#
# Velocity S-wave (km/s) = -2.22656 3.44385 1.85776
# Velocity P-wave (km/s) = 2.94083 6.36145 4.95563
#
# Compressibility (1/GPa) = 0.03158442
#
# Stress axis : x y z
#
# Youngs Moduli (GPa) = 53.90788 61.91350 99.02730
#
# Poissons Ratio (x) = -0.23977 0.43286
# Poissons Ratio (y) = -0.20877 0.60499
# Poissons Ratio (z) = 0.23564 0.37825
#
# Static dielectric constant tensor:
#      x y z
#    x 3.587100 0.000000 0.212320 
#    y 0.000000 3.757160 0.000000 
#    z 0.212320 0.000000 4.017890 
# 
# 
# High freq. dielectric constant tensor:
#      x y z
#    x 1.800600 0.000000 0.017620 
#    y 0.000000 1.812120 0.000000 
#    z 0.017620 0.000000 1.809500 
# 
# From -- ./inp_files/34338.got.cif
#   From: 2010.06.25/outbox.cif.g09.slc.cpg/sg10_18_cif.got.tgz:34338.got - 2010.06.27 22:07:45.
