data_PCOD8066366
_publ_section_title
;
Structure prediction by ZEFSAII (Michael W. Deem and Ramdas Pophale) SiO2 
 PCOD8066366
Probable space group: P 2/M
;
_chemical_formula_sum "Si O2"
_cell_formula_units_Z 28
_cell_length_a 8.492048
_cell_length_b 13.909818
_cell_length_c 20.376876
_cell_angle_alpha 90.000000
_cell_angle_beta 30.719126
_cell_angle_gamma 90.000000
_cell_volume 1229.554590
_symmetry_space_group_name_H-M "P 2/M"
_symmetry_group_IT_number 10
_symmetry_cell_setting 'monoclinic'
loop_
_space_group_symop_operation_xyz
x,y,z
-x,y,-z
-x,-y,-z
x,-y,z
loop_
_atom_site_type_symbol
_atom_site_label
_atom_site_fract_x
_atom_site_fract_y
_atom_site_fract_z
Si Si1 0.439396 0.390920 0.950636
Si Si2 0.756412 0.392233 0.216026
Si Si3 0.209591 0.787698 0.717424
Si Si4 0.759297 0.105650 0.963001
Si Si5 0.098000 0.211873 0.538853
Si Si6 0.762214 0.613329 0.704112
Si Si7 0.205839 0.886993 0.239651
O O1 0.552080 0.500000 0.918587
O O2 0.635686 0.348588 0.819884
O O3 0.500000 0.337457 0.000000
O O4 0.080198 0.384548 0.061348
O O5 0.703899 0.500000 0.260921
O O6 0.760076 0.326559 0.280208
O O7 0.491577 0.362592 0.260220
O O8 0.552846 0.825762 0.580438
O O9 0.050364 0.827727 0.841424
O O10 0.011022 0.818500 0.726491
O O11 0.899918 0.000000 0.922406
O O12 0.500000 0.105409 0.000000
O O13 0.567945 0.138627 0.096437
O O14 0.000000 0.208705 0.500000
O O15 0.058432 0.321215 0.581028
O O16 0.874915 0.137550 0.656762
O O17 0.845971 0.500000 0.674155
O O18 0.146677 0.000000 0.244868
#
# Coordination Sequence:
#
# PCOD8066366 Si02
#       7
#     4   4   4   4   4   4   4
#     4   9  19  35  60  96 128 166 226 284 329 377
#     4  10  21  37  61  94 135 181 224 265 325 388
#     4  11  22  39  67 100 131 171 217 278 323 394
#     4   8  17  38  69  99 121 154 209 266 333 402
#     4  12  26  43  61  99 134 176 230 268 323 392
#     4  10  22  42  65  88 135 192 227 266 324 391
#     4  10  24  47  73  97 129 170 215 273 346 412
#
# _framework density 22.772473000000002
#
# number of rings (size 3 to 8) (size 9 to 14) (size 15 to 20)
#    0.000    2.000    1.429    2.143    4.000    5.143 
#    0.000    0.714    0.000    3.429    0.000    0.000 
#    0.000    0.000    0.000    0.000    0.000    0.000 
#
# Total GULP energy -347015.480621 kJ/mol
# GULP energy per Si atom -12393.410022 kJ/mol
# Density = 2.272064 g / cm^3
# Si number density = 22.772473 Si / 1000 Ang^3
#
#
#
# Elastic Constant Matrix: (Units=GPa)
#
#
# Indices 1 2 3 4 5 6 
#
# 1 53.5019 36.6636 35.7973 0.0000 17.3614 0.0000
# 2 36.6636 94.0342 52.1515 0.0000 10.0263 0.0000
# 3 35.7973 52.1515 163.3597 0.0000 9.6651 0.0000
# 4 0.0000 0.0000 0.0000 31.3283 0.0000 4.4907
# 5 17.3614 10.0263 9.6651 0.0000 38.0990 0.0000
# 6 0.0000 0.0000 0.0000 4.4907 0.0000 24.5621
#
#
#
# Elastic Compliance Matrix: (Units=1/GPa)
#
#
# Indices 1 2 3 4 5 6 
#
# 1 0.030429 -0.008963 -0.003173 0.000000 -0.010703 0.000000
# 2 -0.008963 0.015781 -0.003116 0.000000 0.000722 0.000000
# 3 -0.003173 -0.003116 0.007795 0.000000 0.000289 0.000000
# 4 0.000000 0.000000 0.000000 0.032779 0.000000 -0.005993
# 5 -0.010703 0.000722 0.000289 0.000000 0.030861 0.000000
# 6 0.000000 0.000000 0.000000 -0.005993 0.000000 0.041809
#
#
# Mechanical properties :
#
#
# Convention : Reuss Voigt Hill
#
# Bulk Modulus (GPa) = 42.55583 62.23563 52.39573
# Shear Modulus (GPa) = 25.27902 31.21679 28.24790
#
# Velocity S-wave (km/s) = 3.33538 3.70647 3.52581
# Velocity P-wave (km/s) = 5.79319 6.76061 6.29551
#
# Compressibility (1/GPa) = 0.02349855
#
# Stress axis : x y z
#
# Youngs Moduli (GPa) = 32.86293 63.36921 128.29285
#
# Poissons Ratio (x) = 0.56799 0.40712
# Poissons Ratio (y) = 0.29456 0.39982
# Poissons Ratio (z) = 0.10429 0.19749
#
# Static dielectric constant tensor:
#      x y z
#    x 3.833280 0.000000 0.174270 
#    y 0.000000 4.127190 0.000000 
#    z 0.174270 0.000000 4.605350 
# 
# 
# High freq. dielectric constant tensor:
#      x y z
#    x 1.865340 0.000000 0.009790 
#    y 0.000000 1.898380 0.000000 
#    z 0.009790 0.000000 1.909300 
# 
# From -- ./inp_files/82890.got.cif
#   From: 2010.06.25/outbox.cif.g09.slc.cpg/sg10_42_cif.got.tgz:82890.got - 2010.06.27 22:07:45.
