data_PCOD8066817
_publ_section_title
;
Structure prediction by ZEFSAII (Michael W. Deem and Ramdas Pophale) SiO2 
 PCOD8066817
Probable space group: P 2/M
;
_chemical_formula_sum "Si O2"
_cell_formula_units_Z 24
_cell_length_a 20.562564
_cell_length_b 11.335354
_cell_length_c 20.449216
_cell_angle_alpha 90.000000
_cell_angle_beta 14.227817
_cell_angle_gamma 90.000000
_cell_volume 1171.472397
_symmetry_space_group_name_H-M "P 2/M"
_symmetry_group_IT_number 10
_symmetry_cell_setting 'monoclinic'
loop_
_space_group_symop_operation_xyz
x,y,z
-x,y,-z
-x,-y,-z
x,-y,z
loop_
_atom_site_type_symbol
_atom_site_label
_atom_site_fract_x
_atom_site_fract_y
_atom_site_fract_z
Si Si1 0.813795 0.301651 0.838112
Si Si2 0.231775 0.500000 0.222981
Si Si3 0.765382 0.500000 0.280344
Si Si4 0.323171 0.735347 0.555507
Si Si5 0.766200 0.139110 0.772962
Si Si6 0.650237 0.639558 0.612507
Si Si7 0.138056 0.137214 0.934464
O O1 0.784416 0.386790 0.805818
O O2 0.799892 0.174426 0.816666
O O3 0.082844 0.322202 0.613463
O O4 0.584405 0.318397 0.113325
O O5 0.000000 0.500000 0.500000
O O6 0.500000 0.500000 0.000000
O O7 0.500000 0.500000 0.500000
O O8 0.777550 0.615626 0.312817
O O9 0.000000 0.500000 0.000000
O O10 0.383172 0.710452 0.421848
O O11 0.590818 0.787853 0.326549
O O12 0.077064 0.826222 0.800944
O O13 0.000000 0.190678 0.500000
O O14 0.765520 0.000000 0.772937
O O15 0.500000 0.190607 0.000000
O O16 0.640136 0.500000 0.609673
O O17 0.211035 0.000000 0.871977
O O18 0.000000 0.164198 0.000000
#
# Coordination Sequence:
#
# PCOD8066817 Si02
#       7
#     4   2   2   4   4   4   4
#     4  12  23  40  63  89 126 163 214 250 314 379
#     4  12  22  34  58  90 122 154 201 266 315 372
#     4  12  24  38  64  98 130 160 210 276 324 378
#     4  12  24  43  67  96 132 173 222 261 326 389
#     4  10  21  40  64  90 122 159 201 258 321 370
#     4  12  24  44  61  89 127 179 205 255 314 379
#     4  11  24  44  70  98 132 171 213 272 334 386
#
# _framework density 20.487038999999999
#
# number of rings (size 3 to 8) (size 9 to 14) (size 15 to 20)
#    0.000    0.500    2.500    7.500    0.000    1.333 
#    0.000    5.000    0.000    0.000    0.000    0.000 
#    0.000    0.000    0.000    0.000    0.000    0.000 
#
# Total GULP energy -297685.547648 kJ/mol
# GULP energy per Si atom -12403.564485 kJ/mol
# Density = 2.044041 g / cm^3
# Si number density = 20.487039 Si / 1000 Ang^3
#
#
#
# Elastic Constant Matrix: (Units=GPa)
#
#
# Indices 1 2 3 4 5 6 
#
# 1 130.7072 52.9957 69.7125 0.0000 16.4937 0.0000
# 2 52.9957 84.4497 52.6764 0.0000 4.7239 0.0000
# 3 69.7125 52.6764 192.9136 0.0000 10.9957 0.0000
# 4 0.0000 0.0000 0.0000 27.0433 0.0000 6.3449
# 5 16.4937 4.7239 10.9957 0.0000 36.2398 0.0000
# 6 0.0000 0.0000 0.0000 6.3449 0.0000 39.1901
#
#
#
# Elastic Compliance Matrix: (Units=1/GPa)
#
#
# Indices 1 2 3 4 5 6 
#
# 1 0.011735 -0.005593 -0.002494 0.000000 -0.003855 0.000000
# 2 -0.005593 0.016955 -0.002674 0.000000 0.001147 0.000000
# 3 -0.002494 -0.002674 0.006849 0.000000 -0.000595 0.000000
# 4 0.000000 0.000000 0.000000 0.038438 0.000000 -0.006223
# 5 -0.003855 0.001147 -0.000595 0.000000 0.029379 0.000000
# 6 0.000000 0.000000 0.000000 -0.006223 0.000000 0.026524
#
#
# Mechanical properties :
#
#
# Convention : Reuss Voigt Hill
#
# Bulk Modulus (GPa) = 71.33944 84.31553 77.82748
# Shear Modulus (GPa) = 32.03614 36.00702 34.02158
#
# Velocity S-wave (km/s) = 3.95869 4.19686 4.07952
# Velocity P-wave (km/s) = 7.46942 8.04548 7.76280
#
# Compressibility (1/GPa) = 0.01401749
#
# Stress axis : x y z
#
# Youngs Moduli (GPa) = 85.21622 58.97982 146.01100
#
# Poissons Ratio (x) = 0.32988 0.36410
# Poissons Ratio (y) = 0.47662 0.39042
# Poissons Ratio (z) = 0.21250 0.15771
#
# Static dielectric constant tensor:
#      x y z
#    x 3.865650 0.000000 0.024910 
#    y 0.000000 3.941410 0.000000 
#    z 0.024910 0.000000 4.004640 
# 
# 
# High freq. dielectric constant tensor:
#      x y z
#    x 1.806000 0.000000 0.002950 
#    y 0.000000 1.807530 0.000000 
#    z 0.002950 0.000000 1.826070 
# 
# From -- ./inp_files/90802.got.cif
#   From: 2010.06.25/outbox.cif.g09.slc.cpg/sg10_46_cif.got.tgz:90802.got - 2010.06.27 22:07:45.
