data_PCOD8066592
_publ_section_title
;
Structure prediction by ZEFSAII (Michael W. Deem and Ramdas Pophale) SiO2 
 PCOD8066592
Probable space group: P 2/M
;
_chemical_formula_sum "Si O2"
_cell_formula_units_Z 20
_cell_length_a 6.209934
_cell_length_b 13.236156
_cell_length_c 10.754534
_cell_angle_alpha 90.000000
_cell_angle_beta 99.979185
_cell_angle_gamma 90.000000
_cell_volume 870.602095
_symmetry_space_group_name_H-M "P 2/M"
_symmetry_group_IT_number 10
_symmetry_cell_setting 'monoclinic'
loop_
_space_group_symop_operation_xyz
x,y,z
-x,y,-z
-x,-y,-z
x,-y,z
loop_
_atom_site_type_symbol
_atom_site_label
_atom_site_fract_x
_atom_site_fract_y
_atom_site_fract_z
Si Si1 0.030360 0.730593 0.708641
Si Si2 0.653627 0.116434 0.632506
Si Si3 0.660319 0.610646 0.414520
Si Si4 0.692061 0.389627 0.825517
Si Si5 0.537359 0.799369 0.133776
O O1 0.136861 0.683249 0.594456
O O2 0.208470 0.772718 0.823227
O O3 0.874635 0.819661 0.646018
O O4 0.899863 0.640238 0.762790
O O5 0.500000 0.142522 0.500000
O O6 0.533248 0.139965 0.750602
O O7 0.722206 0.000000 0.636892
O O8 0.500000 0.662868 0.500000
O O9 0.738107 0.500000 0.471297
O O10 0.525034 0.598072 0.276530
O O11 0.738938 0.500000 0.894255
O O12 0.625589 0.297452 0.908937
O O13 0.500000 0.861265 0.000000
#
# Coordination Sequence:
#
# PCOD8066592 Si02
#       5
#     4   4   4   4   4
#     4  10  21  38  63  87 120 168 210 253 310 370
#     4  10  24  45  67  93 122 156 205 261 319 383
#     4   9  18  32  53  86 125 163 207 255 303 360
#     4   9  19  34  54  85 124 166 210 251 296 358
#     4  10  23  41  62  93 129 163 206 259 311 366
#
# _framework density 22.972607
#
# number of rings (size 3 to 8) (size 9 to 14) (size 15 to 20)
#    0.000    2.400    0.000    0.600    0.000   16.000 
#    0.000    7.000    0.000    6.000    0.000    0.000 
#    0.000    0.000    0.000    0.000    0.000    0.000 
#
# Total GULP energy -247803.171208 kJ/mol
# GULP energy per Si atom -12390.158560 kJ/mol
# Density = 2.292032 g / cm^3
# Si number density = 22.972607 Si / 1000 Ang^3
#
#
#
# Elastic Constant Matrix: (Units=GPa)
#
#
# Indices 1 2 3 4 5 6 
#
# 1 146.1969 63.0474 49.5439 0.0000 -3.6062 0.0000
# 2 63.0474 108.6073 35.2059 0.0000 3.3718 0.0000
# 3 49.5439 35.2059 138.6034 0.0000 -1.5755 0.0000
# 4 0.0000 0.0000 0.0000 6.5357 0.0000 10.3479
# 5 -3.6062 3.3718 -1.5755 0.0000 30.2588 0.0000
# 6 0.0000 0.0000 0.0000 10.3479 0.0000 -7.7654
#
#
#
# Elastic Compliance Matrix: (Units=1/GPa)
#
#
# Indices 1 2 3 4 5 6 
#
# 1 0.009792 -0.005019 -0.002207 0.000000 0.001611 0.000000
# 2 -0.005019 0.012654 -0.001444 0.000000 -0.002083 0.000000
# 3 -0.002207 -0.001444 0.008374 0.000000 0.000334 0.000000
# 4 0.000000 0.000000 0.000000 0.049201 0.000000 0.065563
# 5 0.001611 -0.002083 0.000334 0.000000 0.033490 0.000000
# 6 0.000000 0.000000 0.000000 0.065563 0.000000 -0.041409
#
#
# Mechanical properties :
#
#
# Convention : Reuss Voigt Hill
#
# Bulk Modulus (GPa) = 74.18094 76.55579 75.36837
# Shear Modulus (GPa) = 53.22864 22.17985 37.70425
#
# Velocity S-wave (km/s) = 4.81879 3.11061 4.05565
# Velocity P-wave (km/s) = 7.95752 6.80429 7.40340
#
# Compressibility (1/GPa) = 0.01348055
#
# Stress axis : x y z
#
# Youngs Moduli (GPa) = 102.12157 79.02785 119.41361
#
# Poissons Ratio (x) = 0.39665 0.26355
# Poissons Ratio (y) = 0.51256 0.17240
# Poissons Ratio (z) = 0.22539 0.11409
#
# Static dielectric constant tensor:
#      x y z
#    x 4.179990 0.000000 -0.077450 
#    y 0.000000 4.544380 0.000000 
#    z -0.077450 0.000000 3.936060 
# 
# 
# High freq. dielectric constant tensor:
#      x y z
#    x 1.915190 0.000000 -0.003520 
#    y 0.000000 1.898030 0.000000 
#    z -0.003520 0.000000 1.897310 
# 
# From -- ./inp_files/39066.got.cif
#   From: 2010.06.25/outbox.cif.g09.slc.cpg/sg10_20_cif.got.tgz:39066.got - 2010.06.27 22:07:45.
