data_PCOD8066757
_publ_section_title
;
Structure prediction by ZEFSAII (Michael W. Deem and Ramdas Pophale) SiO2 
 PCOD8066757
Probable space group: P 2/M
;
_chemical_formula_sum "Si O2"
_cell_formula_units_Z 32
_cell_length_a 12.072225
_cell_length_b 9.313052
_cell_length_c 30.707559
_cell_angle_alpha 90.000000
_cell_angle_beta 25.978679
_cell_angle_gamma 90.000000
_cell_volume 1512.290063
_symmetry_space_group_name_H-M "P 2/M"
_symmetry_group_IT_number 10
_symmetry_cell_setting 'monoclinic'
loop_
_space_group_symop_operation_xyz
x,y,z
-x,y,-z
-x,-y,-z
x,-y,z
loop_
_atom_site_type_symbol
_atom_site_label
_atom_site_fract_x
_atom_site_fract_y
_atom_site_fract_z
Si Si1 0.045530 0.842969 0.568197
Si Si2 0.271144 0.333421 0.883550
Si Si3 0.190306 0.161428 0.704859
Si Si4 0.501236 0.836381 0.267579
Si Si5 0.287934 0.670043 0.110018
Si Si6 0.326562 0.342014 0.192418
Si Si7 0.598473 0.670850 0.608947
Si Si8 0.788250 0.751926 0.398248
O O1 0.126132 0.716951 0.506152
O O2 0.171709 0.839330 0.571467
O O3 0.744189 0.829728 0.676780
O O4 0.120886 0.000000 0.522268
O O5 0.321767 0.500000 0.854020
O O6 0.274424 0.240262 0.838239
O O7 0.490558 0.265771 0.837317
O O8 0.000000 0.310129 0.000000
O O9 0.425266 0.263127 0.632278
O O10 0.171481 0.150883 0.658976
O O11 0.960244 0.236843 0.812137
O O12 0.220177 0.000000 0.712460
O O13 0.462941 0.744621 0.324235
O O14 0.574027 0.000000 0.253696
O O15 0.222386 0.500000 0.132349
O O16 0.370897 0.723843 0.128742
O O17 0.500000 0.709534 0.000000
O O18 0.440284 0.500000 0.149546
O O19 0.028411 0.356203 0.311320
O O20 0.574960 0.500000 0.620566
O O21 0.500000 0.684608 0.500000
#
# Coordination Sequence:
#
# PCOD8066757 Si02
#       8
#     4   4   4   4   4   4   4   4
#     4  11  23  41  64  92 126 166 209 257 318 379
#     4  10  21  39  64  93 125 167 216 263 318 377
#     4  11  23  39  61  91 127 162 210 264 314 376
#     4  11  24  43  66  91 125 166 213 268 322 375
#     4   9  19  37  60  86 122 166 209 254 314 375
#     4   9  19  36  57  88 128 161 204 264 312 366
#     4  12  26  42  62  89 125 167 212 258 318 387
#     4  11  21  37  62  94 125 170 209 253 312 378
#
# _framework density 21.159960999999999
#
# number of rings (size 3 to 8) (size 9 to 14) (size 15 to 20)
#    0.000    1.500    2.500    2.625    0.000    5.750 
#    0.000    2.500    0.000    0.000    0.000    0.000 
#    0.000    0.000    0.000    0.000    0.000    0.000 
#
# Total GULP energy -396450.956691 kJ/mol
# GULP energy per Si atom -12389.092397 kJ/mol
# Density = 2.111180 g / cm^3
# Si number density = 21.159961 Si / 1000 Ang^3
#
#
#
# Elastic Constant Matrix: (Units=GPa)
#
#
# Indices 1 2 3 4 5 6 
#
# 1 78.8398 38.7963 35.1455 0.0000 11.3677 0.0000
# 2 38.7963 139.0764 50.7434 0.0000 13.5161 0.0000
# 3 35.1455 50.7434 125.2657 0.0000 19.6437 0.0000
# 4 0.0000 0.0000 0.0000 28.2452 0.0000 0.7219
# 5 11.3677 13.5161 19.6437 0.0000 32.3355 0.0000
# 6 0.0000 0.0000 0.0000 0.7219 0.0000 21.3818
#
#
#
# Elastic Compliance Matrix: (Units=1/GPa)
#
#
# Indices 1 2 3 4 5 6 
#
# 1 0.015841 -0.003162 -0.002761 0.000000 -0.002570 0.000000
# 2 -0.003162 0.009144 -0.002644 0.000000 -0.001105 0.000000
# 3 -0.002761 -0.002644 0.010504 0.000000 -0.004305 0.000000
# 4 0.000000 0.000000 0.000000 0.035435 0.000000 -0.001196
# 5 -0.002570 -0.001105 -0.004305 0.000000 0.034907 0.000000
# 6 0.000000 0.000000 0.000000 -0.001196 0.000000 0.046809
#
#
# Mechanical properties :
#
#
# Convention : Reuss Voigt Hill
#
# Bulk Modulus (GPa) = 54.47716 65.83917 60.15817
# Shear Modulus (GPa) = 28.42661 30.95892 29.69276
#
# Velocity S-wave (km/s) = 3.66924 3.82919 3.75006
# Velocity P-wave (km/s) = 6.61456 7.12269 6.87332
#
# Compressibility (1/GPa) = 0.01835632
#
# Stress axis : x y z
#
# Youngs Moduli (GPa) = 63.12668 109.35725 95.20436
#
# Poissons Ratio (x) = 0.34579 0.26282
# Poissons Ratio (y) = 0.19961 0.25171
# Poissons Ratio (z) = 0.17427 0.28913
#
# Static dielectric constant tensor:
#      x y z
#    x 3.937870 0.000000 -0.100170 
#    y 0.000000 3.626440 0.000000 
#    z -0.100170 0.000000 3.846010 
# 
# 
# High freq. dielectric constant tensor:
#      x y z
#    x 1.834850 0.000000 0.004950 
#    y 0.000000 1.808350 0.000000 
#    z 0.004950 0.000000 1.830250 
# 
# From -- ./inp_files/94963.got.cif
#   From: 2010.06.25/outbox.cif.g09.slc.cpg/sg10_48_cif.got.tgz:94963.got - 2010.06.27 22:07:45.
