data_PCOD8066125
_publ_section_title
;
Structure prediction by ZEFSAII (Michael W. Deem and Ramdas Pophale) SiO2 
 PCOD8066125
Probable space group: P 2/M
;
_chemical_formula_sum "Si O2"
_cell_formula_units_Z 28
_cell_length_a 19.091979
_cell_length_b 12.685036
_cell_length_c 16.190167
_cell_angle_alpha 90.000000
_cell_angle_beta 20.070088
_cell_angle_gamma 90.000000
_cell_volume 1345.558278
_symmetry_space_group_name_H-M "P 2/M"
_symmetry_group_IT_number 10
_symmetry_cell_setting 'monoclinic'
loop_
_space_group_symop_operation_xyz
x,y,z
-x,y,-z
-x,-y,-z
x,-y,z
loop_
_atom_site_type_symbol
_atom_site_label
_atom_site_fract_x
_atom_site_fract_y
_atom_site_fract_z
Si Si1 0.852236 0.120732 0.409196
Si Si2 0.521789 0.745388 0.167416
Si Si3 0.352432 0.616157 0.823006
Si Si4 0.310357 0.377819 0.268327
Si Si5 0.001105 0.300215 0.869392
Si Si6 0.971184 0.790390 0.621014
Si Si7 0.283373 0.381003 0.686486
O O1 0.611649 0.147599 0.684300
O O2 0.948334 0.187738 0.227421
O O3 0.965432 0.137598 0.371714
O O4 0.876537 0.000000 0.356759
O O5 0.564527 0.708640 0.212488
O O6 0.380768 0.656032 0.281689
O O7 0.733271 0.762062 0.886858
O O8 0.392283 0.500000 0.816403
O O9 0.469055 0.626324 0.603226
O O10 0.109572 0.630247 0.079380
O O11 0.254330 0.500000 0.327296
O O12 0.106232 0.315955 0.468899
O O13 0.500000 0.348516 0.000000
O O14 0.199397 0.359000 0.685706
O O15 0.826827 0.292665 0.134580
O O16 0.000000 0.848622 0.500000
O O17 0.219574 0.500000 0.784605
#
# Coordination Sequence:
#
# PCOD8066125 Si02
#       7
#     4   4   4   4   4   4   4
#     4  11  26  45  66  90 120 164 217 276 330 370
#     4  11  22  42  59  89 127 167 211 266 311 374
#     4  11  21  35  61  95 129 166 205 244 305 379
#     4  10  21  36  59  92 132 169 202 242 306 388
#     4  11  20  39  61  89 127 162 204 255 306 369
#     4  11  23  43  67  92 124 162 212 268 320 376
#     4  10  21  37  61  96 136 169 201 247 306 376
#
# _framework density 20.809207000000001
#
# number of rings (size 3 to 8) (size 9 to 14) (size 15 to 20)
#    0.000    1.286    4.286    2.571    0.000    3.429 
#    0.000    2.143    0.000    0.857    0.000    0.000 
#    0.000    0.000    0.000    0.000    0.000    0.000 
#
# Total GULP energy -347026.491546 kJ/mol
# GULP energy per Si atom -12393.803270 kJ/mol
# Density = 2.076184 g / cm^3
# Si number density = 20.809207 Si / 1000 Ang^3
#
#
#
# Elastic Constant Matrix: (Units=GPa)
#
#
# Indices 1 2 3 4 5 6 
#
# 1 95.2443 38.8032 28.3231 0.0000 2.2022 0.0000
# 2 38.8032 116.4140 53.4974 0.0000 5.2199 0.0000
# 3 28.3231 53.4974 128.8491 0.0000 -6.5861 0.0000
# 4 0.0000 0.0000 0.0000 23.8675 0.0000 3.8684
# 5 2.2022 5.2199 -6.5861 0.0000 37.1147 0.0000
# 6 0.0000 0.0000 0.0000 3.8684 0.0000 19.0215
#
#
#
# Elastic Compliance Matrix: (Units=1/GPa)
#
#
# Indices 1 2 3 4 5 6 
#
# 1 0.012315 -0.003496 -0.001279 0.000000 -0.000466 0.000000
# 2 -0.003496 0.011805 -0.004246 0.000000 -0.002206 0.000000
# 3 -0.001279 -0.004246 0.009930 0.000000 0.002435 0.000000
# 4 0.000000 0.000000 0.000000 0.043326 0.000000 -0.008811
# 5 -0.000466 -0.002206 0.002435 0.000000 0.027714 0.000000
# 6 0.000000 0.000000 0.000000 -0.008811 0.000000 0.054364
#
#
# Mechanical properties :
#
#
# Convention : Reuss Voigt Hill
#
# Bulk Modulus (GPa) = 62.47071 64.63943 63.55507
# Shear Modulus (GPa) = 27.34758 30.65964 29.00361
#
# Velocity S-wave (km/s) = 3.62913 3.84261 3.73740
# Velocity P-wave (km/s) = 6.90266 7.12867 7.01657
#
# Compressibility (1/GPa) = 0.01600750
#
# Stress axis : x y z
#
# Youngs Moduli (GPa) = 81.20299 84.70693 100.70956
#
# Poissons Ratio (x) = 0.29614 0.12884
# Poissons Ratio (y) = 0.28389 0.42760
# Poissons Ratio (z) = 0.10388 0.35965
#
# Static dielectric constant tensor:
#      x y z
#    x 4.166480 0.000000 -0.187250 
#    y 0.000000 3.249170 0.000000 
#    z -0.187250 0.000000 4.001580 
# 
# 
# High freq. dielectric constant tensor:
#      x y z
#    x 1.843230 0.000000 -0.012730 
#    y 0.000000 1.759290 0.000000 
#    z -0.012730 0.000000 1.835350 
# 
# From -- ./inp_files/79498.got.cif
#   From: 2010.06.25/outbox.cif.g09.slc.cpg/sg10_40_cif.got.tgz:79498.got - 2010.06.27 22:07:45.
