data_PCOD8066713
_publ_section_title
;
Structure prediction by ZEFSAII (Michael W. Deem and Ramdas Pophale) SiO2 
 PCOD8066713
Probable space group: P 2/M
;
_chemical_formula_sum "Si O2"
_cell_formula_units_Z 24
_cell_length_a 14.974705
_cell_length_b 8.889527
_cell_length_c 8.685370
_cell_angle_alpha 90.000000
_cell_angle_beta 90.052815
_cell_angle_gamma 90.000000
_cell_volume 1156.178978
_symmetry_space_group_name_H-M "P 2/M"
_symmetry_group_IT_number 10
_symmetry_cell_setting 'monoclinic'
loop_
_space_group_symop_operation_xyz
x,y,z
-x,y,-z
-x,-y,-z
x,-y,z
loop_
_atom_site_type_symbol
_atom_site_label
_atom_site_fract_x
_atom_site_fract_y
_atom_site_fract_z
Si Si1 0.147567 0.176800 0.670818
Si Si2 0.689845 0.677209 0.173700
Si Si3 0.636220 0.324496 0.831298
Si Si4 0.012238 0.326359 0.173993
Si Si5 0.526473 0.176306 0.328130
Si Si6 0.188533 0.672482 0.354378
O O1 0.213823 0.254024 0.791726
O O2 0.047846 0.230168 0.709743
O O3 0.170957 0.219781 0.496909
O O4 0.154978 0.000000 0.688805
O O5 0.695917 0.500000 0.193562
O O6 0.618877 0.740736 0.294545
O O7 0.663193 0.724369 0.002175
O O8 0.611832 0.500000 0.824093
O O9 0.549490 0.229669 0.788886
O O10 0.716290 0.283913 0.716497
O O11 0.982965 0.500000 0.186649
O O12 0.114762 0.303160 0.222220
O O13 0.000000 0.267555 0.000000
O O14 0.500000 0.221757 0.500000
O O15 0.541267 0.000000 0.308779
O O16 0.187647 0.500000 0.411831
#
# Coordination Sequence:
#
# PCOD8066713 Si02
#       6
#     4   4   4   4   4   4
#     4  12  25  39  58  88 124 158 195 241 296 354
#     4  11  23  41  64  88 116 153 201 249 292 346
#     4  10  22  40  63  90 116 150 198 247 293 345
#     4  10  21  40  65  90 117 154 201 247 291 345
#     4  11  24  40  59  88 124 158 193 237 293 354
#     4  10  21  39  63  88 117 155 198 243 291 345
#
# _framework density 20.758030999999999
#
# number of rings (size 3 to 8) (size 9 to 14) (size 15 to 20)
#    0.000    1.333    0.000    5.500    0.000   13.667 
#    0.000    1.667    0.000    0.000    0.000    0.000 
#    0.000    0.000    0.000    0.000    0.000    0.000 
#
# Total GULP energy -297803.156450 kJ/mol
# GULP energy per Si atom -12408.464852 kJ/mol
# Density = 2.071078 g / cm^3
# Si number density = 20.758031 Si / 1000 Ang^3
#
#
#
# Elastic Constant Matrix: (Units=GPa)
#
#
# Indices 1 2 3 4 5 6 
#
# 1 66.6537 11.7774 -7.6630 0.0000 0.2277 0.0000
# 2 11.7774 70.7747 26.5519 0.0000 0.7652 0.0000
# 3 -7.6630 26.5519 77.7276 0.0000 1.3230 0.0000
# 4 0.0000 0.0000 0.0000 14.9859 0.0000 -1.3796
# 5 0.2277 0.7652 1.3230 0.0000 39.6865 0.0000
# 6 0.0000 0.0000 0.0000 -1.3796 0.0000 15.3230
#
#
#
# Elastic Compliance Matrix: (Units=1/GPa)
#
#
# Indices 1 2 3 4 5 6 
#
# 1 0.015990 -0.003730 0.002853 0.000000 -0.000115 0.000000
# 2 -0.003730 0.017077 -0.006199 0.000000 -0.000101 0.000000
# 3 0.002853 -0.006199 0.015271 0.000000 -0.000406 0.000000
# 4 0.000000 0.000000 0.000000 0.067287 0.000000 0.006058
# 5 -0.000115 -0.000101 -0.000406 0.000000 0.025214 0.000000
# 6 0.000000 0.000000 0.000000 0.006058 0.000000 0.065807
#
#
# Mechanical properties :
#
#
# Convention : Reuss Voigt Hill
#
# Bulk Modulus (GPa) = 29.25261 30.72095 29.98678
# Shear Modulus (GPa) = 21.53366 26.29840 23.91603
#
# Velocity S-wave (km/s) = 3.22431 3.56322 3.39799
# Velocity P-wave (km/s) = 5.29002 5.63563 5.46556
#
# Compressibility (1/GPa) = 0.03418498
#
# Stress axis : x y z
#
# Youngs Moduli (GPa) = 62.53787 58.55863 65.48211
#
# Poissons Ratio (x) = 0.21841 -0.18679
# Poissons Ratio (y) = 0.23325 0.40596
# Poissons Ratio (z) = -0.17839 0.36303
#
# Static dielectric constant tensor:
#      x y z
#    x 3.875950 0.000000 0.015640 
#    y 0.000000 3.636890 0.000000 
#    z 0.015640 0.000000 3.823580 
# 
# 
# High freq. dielectric constant tensor:
#      x y z
#    x 1.828140 0.000000 0.001440 
#    y 0.000000 1.804070 0.000000 
#    z 0.001440 0.000000 1.824630 
# 
# From -- ./inp_files/27025.got.cif
#   From: 2010.06.25/outbox.cif.g09.slc.cpg/sg10_14_cif.got.tgz:27025.got - 2010.06.27 22:07:45.
