data_PCOD8066012
_publ_section_title
;
Structure prediction by ZEFSAII (Michael W. Deem and Ramdas Pophale) SiO2 
 PCOD8066012
Probable space group: P 2/M
;
_chemical_formula_sum "Si O2"
_cell_formula_units_Z 32
_cell_length_a 9.837560
_cell_length_b 13.455693
_cell_length_c 25.817051
_cell_angle_alpha 90.000000
_cell_angle_beta 30.474317
_cell_angle_gamma 90.000000
_cell_volume 1733.158619
_symmetry_space_group_name_H-M "P 2/M"
_symmetry_group_IT_number 10
_symmetry_cell_setting 'monoclinic'
loop_
_space_group_symop_operation_xyz
x,y,z
-x,y,-z
-x,-y,-z
x,-y,z
loop_
_atom_site_type_symbol
_atom_site_label
_atom_site_fract_x
_atom_site_fract_y
_atom_site_fract_z
Si Si1 0.038086 0.112796 0.929829
Si Si2 0.461598 0.113013 0.070210
Si Si3 0.184929 0.385996 0.599603
Si Si4 0.969703 0.204845 0.285213
Si Si5 0.131137 0.613382 0.401280
Si Si6 0.495785 0.882849 0.382155
Si Si7 0.023263 0.113630 0.610942
Si Si8 0.462415 0.796440 0.283057
O O1 0.235599 0.187277 0.835166
O O2 0.155172 0.000000 0.890166
O O3 0.000000 0.152192 0.000000
O O4 0.751188 0.116370 0.999111
O O5 0.265665 0.184826 0.166261
O O6 0.346338 0.000000 0.108162
O O7 0.500000 0.154104 0.000000
O O8 0.500000 0.363621 0.500000
O O9 0.122636 0.500000 0.634359
O O10 0.040224 0.317801 0.690308
O O11 0.076484 0.360517 0.577338
O O12 0.758925 0.181659 0.308937
O O13 0.894338 0.130712 0.356813
O O14 0.225670 0.500000 0.365720
O O15 0.400901 0.679506 0.310356
O O16 0.000000 0.634604 0.500000
O O17 0.409124 0.859046 0.352364
O O18 0.257395 0.844892 0.497311
O O19 0.554769 0.000000 0.369004
O O20 0.742616 0.167012 0.693293
O O21 0.979896 0.000000 0.612966
#
# Coordination Sequence:
#
# PCOD8066012 Si02
#       8
#     4   4   4   4   4   4   4   4
#     4  10  21  36  55  79 109 147 196 245 284 334
#     4  10  21  38  57  79 110 150 197 244 288 335
#     4  10  22  40  62  89 118 150 193 242 291 346
#     4  12  22  36  59  83 112 154 193 238 292 342
#     4  10  22  40  62  88 118 152 193 241 290 346
#     4  11  23  35  51  82 122 155 186 224 277 354
#     4  11  21  33  51  80 116 150 185 223 278 353
#     4  12  22  36  57  81 113 156 192 234 287 340
#
# _framework density 18.4634
#
# number of rings (size 3 to 8) (size 9 to 14) (size 15 to 20)
#    0.000    1.250    1.250    6.000    1.750    4.000 
#    0.000    0.000    0.000    1.500    0.000    0.000 
#    0.000    0.000    0.000    0.000    0.000    0.000 
#
# Total GULP energy -396875.264785 kJ/mol
# GULP energy per Si atom -12402.352025 kJ/mol
# Density = 1.842138 g / cm^3
# Si number density = 18.463400 Si / 1000 Ang^3
#
#
#
# Elastic Constant Matrix: (Units=GPa)
#
#
# Indices 1 2 3 4 5 6 
#
# 1 83.4621 28.2992 25.3128 0.0000 11.0376 0.0000
# 2 28.2992 101.2672 55.9198 0.0000 4.6456 0.0000
# 3 25.3128 55.9198 118.3914 0.0000 11.1633 0.0000
# 4 0.0000 0.0000 0.0000 32.6978 0.0000 0.0850
# 5 11.0376 4.6456 11.1633 0.0000 27.6205 0.0000
# 6 0.0000 0.0000 0.0000 0.0850 0.0000 27.8153
#
#
#
# Elastic Compliance Matrix: (Units=1/GPa)
#
#
# Indices 1 2 3 4 5 6 
#
# 1 0.013971 -0.003089 -0.001092 0.000000 -0.004622 0.000000
# 2 -0.003089 0.014045 -0.006099 0.000000 0.001337 0.000000
# 3 -0.001092 -0.006099 0.011876 0.000000 -0.003337 0.000000
# 4 0.000000 0.000000 0.000000 0.030583 0.000000 -0.000093
# 5 -0.004622 0.001337 -0.003337 0.000000 0.039176 0.000000
# 6 0.000000 0.000000 0.000000 -0.000093 0.000000 0.035952
#
#
# Mechanical properties :
#
#
# Convention : Reuss Voigt Hill
#
# Bulk Modulus (GPa) = 51.73205 58.02047 54.87626
# Shear Modulus (GPa) = 28.96731 30.53264 29.74998
#
# Velocity S-wave (km/s) = 3.96524 4.07096 4.01845
# Velocity P-wave (km/s) = 7.00312 7.32051 7.16357
#
# Compressibility (1/GPa) = 0.01933038
#
# Stress axis : x y z
#
# Youngs Moduli (GPa) = 71.57452 71.20023 84.20535
#
# Poissons Ratio (x) = 0.21995 0.09197
# Poissons Ratio (y) = 0.22110 0.51361
# Poissons Ratio (z) = 0.07818 0.43428
#
# Static dielectric constant tensor:
#      x y z
#    x 3.531830 0.000000 0.035920 
#    y 0.000000 3.400400 0.000000 
#    z 0.035920 0.000000 3.231650 
# 
# 
# High freq. dielectric constant tensor:
#      x y z
#    x 1.737110 0.000000 0.001150 
#    y 0.000000 1.700500 0.000000 
#    z 0.001150 0.000000 1.701040 
# 
# From -- ./inp_files/88228.got.cif
#   From: 2010.06.25/outbox.cif.g09.slc.cpg/sg10_45_cif.got.tgz:88228.got - 2010.06.27 22:07:45.
