data_PCOD8067027
_publ_section_title
;
Structure prediction by ZEFSAII (Michael W. Deem and Ramdas Pophale) SiO2 
 PCOD8067027
Probable space group: P 2/M
;
_chemical_formula_sum "Si O2"
_cell_formula_units_Z 32
_cell_length_a 17.651222
_cell_length_b 13.805171
_cell_length_c 11.785529
_cell_angle_alpha 90.000000
_cell_angle_beta 147.149731
_cell_angle_gamma 90.000000
_cell_volume 1557.836029
_symmetry_space_group_name_H-M "P 2/M"
_symmetry_group_IT_number 10
_symmetry_cell_setting 'monoclinic'
loop_
_space_group_symop_operation_xyz
x,y,z
-x,y,-z
-x,-y,-z
x,-y,z
loop_
_atom_site_type_symbol
_atom_site_label
_atom_site_fract_x
_atom_site_fract_y
_atom_site_fract_z
Si Si1 0.165672 0.736844 0.983224
Si Si2 0.387502 0.389718 0.652611
Si Si3 0.975057 0.391237 0.600746
Si Si4 0.346387 0.888704 0.642996
Si Si5 0.590598 0.241323 0.869723
Si Si6 0.040508 0.889070 0.178279
Si Si7 0.297529 0.273081 0.743476
Si Si8 0.162545 0.609813 0.187095
O O1 0.109796 0.649116 0.834973
O O2 0.048831 0.819783 0.851990
O O3 0.298413 0.785926 0.087952
O O4 0.217628 0.687836 0.165531
O O5 0.429624 0.500000 0.720902
O O6 0.504338 0.336840 0.722552
O O7 0.397078 0.338643 0.788315
O O8 0.238066 0.374735 0.403318
O O9 0.938500 0.500000 0.600837
O O10 0.000000 0.398531 0.500000
O O11 0.854184 0.314986 0.472700
O O12 0.481963 0.847054 0.748778
O O13 0.206666 0.870981 0.393629
O O14 0.318298 0.837250 0.728212
O O15 0.375034 0.000000 0.704750
O O16 0.671269 0.272543 0.085300
O O17 0.004571 0.000000 0.165671
O O18 0.000000 0.863967 0.000000
O O19 0.189930 0.500000 0.178830
O O20 0.000000 0.629965 0.000000
#
# Coordination Sequence:
#
# PCOD8067027 Si02
#       8
#     4   4   4   4   4   4   4   4
#     4  12  23  40  64  94 130 164 201 261 315 377
#     4  10  22  39  58  85 123 166 212 256 304 360
#     4  11  22  37  61  91 129 171 210 253 308 367
#     4  10  22  43  68  91 121 162 208 259 315 375
#     4  11  26  38  58  94 132 160 205 252 311 382
#     4  10  23  43  69  96 119 157 211 261 313 373
#     4  11  21  40  61  91 124 160 216 262 297 369
#     4  10  22  39  62  90 120 162 217 263 301 366
#
# _framework density 20.541314
#
# number of rings (size 3 to 8) (size 9 to 14) (size 15 to 20)
#    0.000    1.375    2.500    3.375    5.250    5.500 
#    0.000    1.250    0.000    4.500    0.000    0.000 
#    0.000    0.000    0.000    0.000    0.000    0.000 
#
# Total GULP energy -396719.723096 kJ/mol
# GULP energy per Si atom -12397.491347 kJ/mol
# Density = 2.049456 g / cm^3
# Si number density = 20.541314 Si / 1000 Ang^3
#
#
#
# Elastic Constant Matrix: (Units=GPa)
#
#
# Indices 1 2 3 4 5 6 
#
# 1 105.4357 56.1336 35.4134 0.0000 14.3734 0.0000
# 2 56.1336 151.2216 35.7855 0.0000 8.8225 0.0000
# 3 35.4134 35.7855 74.1950 0.0000 3.9272 0.0000
# 4 0.0000 0.0000 0.0000 29.5869 0.0000 1.7975
# 5 14.3734 8.8225 3.9272 0.0000 34.0922 0.0000
# 6 0.0000 0.0000 0.0000 1.7975 0.0000 16.1455
#
#
#
# Elastic Compliance Matrix: (Units=1/GPa)
#
#
# Indices 1 2 3 4 5 6 
#
# 1 0.013537 -0.003727 -0.004439 0.000000 -0.004231 0.000000
# 2 -0.003727 0.008571 -0.002335 0.000000 -0.000378 0.000000
# 3 -0.004439 -0.002335 0.016694 0.000000 0.000553 0.000000
# 4 0.000000 0.000000 0.000000 0.034029 0.000000 -0.003789
# 5 -0.004231 -0.000378 0.000553 0.000000 0.031150 0.000000
# 6 0.000000 0.000000 0.000000 -0.003789 0.000000 0.062359
#
#
# Mechanical properties :
#
#
# Convention : Reuss Voigt Hill
#
# Bulk Modulus (GPa) = 56.18526 65.05747 60.62137
# Shear Modulus (GPa) = 25.86983 29.53291 27.70137
#
# Velocity S-wave (km/s) = 3.55266 3.79586 3.67627
# Velocity P-wave (km/s) = 6.65133 7.13804 6.89898
#
# Compressibility (1/GPa) = 0.01779826
#
# Stress axis : x y z
#
# Youngs Moduli (GPa) = 73.87241 116.67246 59.90260
#
# Poissons Ratio (x) = 0.43490 0.26593
# Poissons Ratio (y) = 0.27536 0.13986
# Poissons Ratio (z) = 0.32795 0.27241
#
# Static dielectric constant tensor:
#      x y z
#    x 3.639400 0.000000 0.077150 
#    y 0.000000 3.870930 0.000000 
#    z 0.077150 0.000000 3.817660 
# 
# 
# High freq. dielectric constant tensor:
#      x y z
#    x 1.785650 0.000000 -0.000010 
#    y 0.000000 1.807410 0.000000 
#    z -0.000010 0.000000 1.813590 
# 
# From -- ./inp_files/54070.got.cif
#   From: 2010.06.25/outbox.cif.g09.slc.cpg/sg10_28_cif.got.tgz:54070.got - 2010.06.27 22:07:45.
