data_PCOD8067081
_publ_section_title
;
Structure prediction by ZEFSAII (Michael W. Deem and Ramdas Pophale) SiO2 
 PCOD8067081
Probable space group: P 2/M
;
_chemical_formula_sum "Si O2"
_cell_formula_units_Z 20
_cell_length_a 15.853215
_cell_length_b 7.553840
_cell_length_c 22.821013
_cell_angle_alpha 90.000000
_cell_angle_beta 156.930019
_cell_angle_gamma 90.000000
_cell_volume 1070.891812
_symmetry_space_group_name_H-M "P 2/M"
_symmetry_group_IT_number 10
_symmetry_cell_setting 'monoclinic'
loop_
_space_group_symop_operation_xyz
x,y,z
-x,y,-z
-x,-y,-z
x,-y,z
loop_
_atom_site_type_symbol
_atom_site_label
_atom_site_fract_x
_atom_site_fract_y
_atom_site_fract_z
Si Si1 0.670353 0.798447 0.914494
Si Si2 0.213742 0.210490 0.666447
Si Si3 0.753554 0.500000 0.667566
Si Si4 0.061116 0.500000 0.971323
Si Si5 0.017551 0.200200 0.780483
Si Si6 0.725114 0.789911 0.165359
O O1 0.423932 0.732911 0.763512
O O2 0.683008 0.000000 0.898792
O O3 0.796589 0.674150 0.949936
O O4 0.772863 0.785172 0.044490
O O5 0.220195 0.289637 0.736111
O O6 0.000000 0.289252 0.500000
O O7 0.204945 0.000000 0.663780
O O8 0.500000 0.500000 0.500000
O O9 0.829082 0.324680 0.682545
O O10 0.846022 0.500000 0.793271
O O11 0.000000 0.500000 0.000000
O O12 0.087091 0.262426 0.760136
O O13 0.927863 0.000000 0.722832
O O14 0.703604 0.000000 0.154739
O O15 0.500000 0.707359 0.000000
#
# Coordination Sequence:
#
# PCOD8067081 Si02
#       6
#     4   4   2   2   4   4
#     4   9  17  33  56  78 103 137 174 208 250 307
#     4   9  16  27  46  76 111 139 164 202 249 295
#     4  10  22  40  56  75 104 130 166 227 275 298
#     4  10  22  40  58  74  98 134 176 220 263 308
#     4   9  17  32  56  80 102 136 175 206 249 310
#     4   9  14  25  48  75 104 136 168 201 239 297
#
# _framework density 18.676024000000002
#
# number of rings (size 3 to 8) (size 9 to 14) (size 15 to 20)
#    0.000    2.800    2.000    0.000    0.000    0.800 
#    3.600    2.000    0.000    0.000    0.000    0.000 
#    0.000    0.000    0.000    0.000    0.000    0.000 
#
# Total GULP energy -247940.027890 kJ/mol
# GULP energy per Si atom -12397.001394 kJ/mol
# Density = 1.863352 g / cm^3
# Si number density = 18.676024 Si / 1000 Ang^3
#
#
#
# Elastic Constant Matrix: (Units=GPa)
#
#
# Indices 1 2 3 4 5 6 
#
# 1 159.7264 50.0180 76.0001 0.0000 3.3006 0.0000
# 2 50.0180 80.4255 42.5882 0.0000 14.0036 0.0000
# 3 76.0001 42.5882 157.7818 0.0000 9.8824 0.0000
# 4 0.0000 0.0000 0.0000 85.9195 0.0000 137.9684
# 5 3.3006 14.0036 9.8824 0.0000 25.3785 0.0000
# 6 0.0000 0.0000 0.0000 137.9684 0.0000 255.3109
#
#
#
# Elastic Compliance Matrix: (Units=1/GPa)
#
#
# Indices 1 2 3 4 5 6 
#
# 1 0.009195 -0.004353 -0.003413 0.000000 0.002535 0.000000
# 2 -0.004353 0.017749 -0.002169 0.000000 -0.008383 0.000000
# 3 -0.003413 -0.002169 0.008676 0.000000 -0.001738 0.000000
# 4 0.000000 0.000000 0.000000 0.088011 0.000000 -0.047561
# 5 0.002535 -0.008383 -0.001738 0.000000 0.044376 0.000000
# 6 0.000000 0.000000 0.000000 -0.047561 0.000000 0.029618
#
#
# Mechanical properties :
#
#
# Convention : Reuss Voigt Hill
#
# Bulk Modulus (GPa) = 63.48899 81.68293 72.58596
# Shear Modulus (GPa) = 22.44701 88.61028 55.52864
#
# Velocity S-wave (km/s) = 3.47063 6.89558 5.45867
# Velocity P-wave (km/s) = 7.08019 10.35521 8.87016
#
# Compressibility (1/GPa) = 0.01575076
#
# Stress axis : x y z
#
# Youngs Moduli (GPa) = 108.75018 56.34048 115.25774
#
# Poissons Ratio (x) = 0.24524 0.39339
# Poissons Ratio (y) = 0.47337 0.25001
# Poissons Ratio (z) = 0.37117 0.12221
#
# Static dielectric constant tensor:
#      x y z
#    x 3.386420 0.000000 -0.130710 
#    y 0.000000 3.430750 0.000000 
#    z -0.130710 0.000000 3.396480 
# 
# 
# High freq. dielectric constant tensor:
#      x y z
#    x 1.713650 0.000000 0.002520 
#    y 0.000000 1.717520 0.000000 
#    z 0.002520 0.000000 1.707720 
# 
# From -- ./inp_files/26942.got.cif
#   From: 2010.06.25/outbox.cif.g09.slc.cpg/sg10_14_cif.got.tgz:26942.got - 2010.06.27 22:07:45.
