data_PCOD8067929
_publ_section_title
;
Structure prediction by ZEFSAII (Michael W. Deem and Ramdas Pophale) SiO2 
 PCOD8067929
Probable space group: P 2/M
;
_chemical_formula_sum "Si O2"
_cell_formula_units_Z 32
_cell_length_a 17.781479
_cell_length_b 9.372655
_cell_length_c 21.885981
_cell_angle_alpha 90.000000
_cell_angle_beta 35.663023
_cell_angle_gamma 90.000000
_cell_volume 2126.560512
_symmetry_space_group_name_H-M "P 2/M"
_symmetry_group_IT_number 10
_symmetry_cell_setting 'monoclinic'
loop_
_space_group_symop_operation_xyz
x,y,z
-x,y,-z
-x,-y,-z
x,-y,z
loop_
_atom_site_type_symbol
_atom_site_label
_atom_site_fract_x
_atom_site_fract_y
_atom_site_fract_z
Si Si1 0.579442 0.830363 0.616113
Si Si2 0.885709 0.166741 0.201650
Si Si3 0.736944 0.841424 0.624371
Si Si4 0.188331 0.830363 0.616113
Si Si5 0.125211 0.660054 0.374790
Si Si6 0.014315 0.158576 0.624371
Si Si7 0.910704 0.338675 0.000000
Si Si8 0.710992 0.833259 0.201650
O O1 0.624457 0.780554 0.654161
O O2 0.435440 0.776630 0.697468
O O3 0.677020 0.768444 0.500000
O O4 0.585998 0.000000 0.609731
O O5 0.776050 0.196700 0.223951
O O6 0.830377 0.223369 0.302531
O O7 0.922246 0.000000 0.179532
O O8 0.015411 0.254990 0.102435
O O9 0.755946 0.738194 0.669748
O O10 0.867350 0.850247 0.500000
O O11 0.702040 0.000000 0.671520
O O12 0.067222 0.780553 0.654160
O O13 0.194538 0.000000 0.609731
O O14 0.169230 0.500000 0.330770
O O15 0.095443 0.738195 0.330252
O O16 0.000000 0.661155 0.500000
O O17 0.954920 0.000000 0.671520
O O18 0.878828 0.500000 0.000000
O O19 0.779719 0.254990 0.102435
O O20 0.000000 0.339219 0.000000
O O21 0.718689 0.000000 0.179533
#
# Coordination Sequence:
#
# PCOD8067929 Si02
#       8
#     4   4   4   4   4   4   4   4
#     4   8  14  24  38  58  83 108 133 161 193 232
#     4   9  16  26  42  62  81 102 131 167 202 233
#     4   8  13  22  35  49  69 100 132 156 183 225
#     4   8  14  24  38  58  83 108 133 161 193 232
#     4   9  15  21  31  49  71  94 125 164 197 221
#     4   8  13  22  35  49  69 100 132 156 183 225
#     4   9  17  29  43  57  75 100 131 168 207 241
#     4   9  16  26  42  62  81 102 131 167 202 233
#
# _framework density 15.047772999999999
#
# number of rings (size 3 to 8) (size 9 to 14) (size 15 to 20)
#    0.000    3.500    0.000    2.250    0.000    3.500 
#    0.000    3.750    0.000    2.250    0.000    3.500 
#    0.000    1.000    0.000   11.500    0.000    7.500 
#
# Total GULP energy -396576.358819 kJ/mol
# GULP energy per Si atom -12393.011213 kJ/mol
# Density = 1.501352 g / cm^3
# Si number density = 15.047773 Si / 1000 Ang^3
#
#
#
# Elastic Constant Matrix: (Units=GPa)
#
#
# Indices 1 2 3 4 5 6 
#
# 1 97.2666 43.3732 56.6644 0.0000 -4.1507 0.0000
# 2 43.3732 68.9060 36.6840 0.0000 -0.7569 0.0000
# 3 56.6644 36.6840 81.0887 0.0000 2.3199 0.0000
# 4 0.0000 0.0000 0.0000 8.3498 0.0000 -0.1219
# 5 -4.1507 -0.7569 2.3199 0.0000 2.6943 0.0000
# 6 0.0000 0.0000 0.0000 -0.1219 0.0000 9.4273
#
#
#
# Elastic Compliance Matrix: (Units=1/GPa)
#
#
# Indices 1 2 3 4 5 6 
#
# 1 0.024225 -0.006533 -0.015367 0.000000 0.048718 0.000000
# 2 -0.006533 0.021343 -0.005100 0.000000 0.000323 0.000000
# 3 -0.015367 -0.005100 0.026755 0.000000 -0.048144 0.000000
# 4 0.000000 0.000000 0.000000 0.119786 0.000000 0.001549
# 5 0.048718 0.000323 -0.048144 0.000000 0.487758 0.000000
# 6 0.000000 0.000000 0.000000 0.001549 0.000000 0.106095
#
#
# Mechanical properties :
#
#
# Convention : Reuss Voigt Hill
#
# Bulk Modulus (GPa) = 54.57119 57.85607 56.21363
# Shear Modulus (GPa) = 5.90968 11.46359 8.68664
#
# Velocity S-wave (km/s) = 1.98389 2.76309 2.40525
# Velocity P-wave (km/s) = 6.44917 6.97935 6.71949
#
# Compressibility (1/GPa) = 0.01832469
#
# Stress axis : x y z
#
# Youngs Moduli (GPa) = 41.27916 46.85371 37.37614
#
# Poissons Ratio (x) = 0.30607 0.57436
# Poissons Ratio (y) = 0.26966 0.19061
# Poissons Ratio (z) = 0.63434 0.23894
#
# Static dielectric constant tensor:
#      x y z
#    x 3.058560 0.000000 -0.036030 
#    y 0.000000 2.858080 0.000000 
#    z -0.036030 0.000000 2.740220 
# 
# 
# High freq. dielectric constant tensor:
#      x y z
#    x 1.571050 0.000000 -0.004670 
#    y 0.000000 1.556690 0.000000 
#    z -0.004670 0.000000 1.529810 
# 
# From -- ./inp_files/83220.got.cif
#   From: 2010.06.25/outbox.cif.g09.slc.cpg/sg10_42_cif.got.tgz:83220.got - 2010.06.27 22:07:45.
