data_PCOD8067843
_publ_section_title
;
Structure prediction by ZEFSAII (Michael W. Deem and Ramdas Pophale) SiO2 
 PCOD8067843
Probable space group: P 2/M
;
_chemical_formula_sum "Si O2"
_cell_formula_units_Z 28
_cell_length_a 17.198081
_cell_length_b 18.058170
_cell_length_c 10.073816
_cell_angle_alpha 90.000000
_cell_angle_beta 153.208725
_cell_angle_gamma 90.000000
_cell_volume 1410.182742
_symmetry_space_group_name_H-M "P 2/M"
_symmetry_group_IT_number 10
_symmetry_cell_setting 'monoclinic'
loop_
_space_group_symop_operation_xyz
x,y,z
-x,y,-z
-x,-y,-z
x,-y,z
loop_
_atom_site_type_symbol
_atom_site_label
_atom_site_fract_x
_atom_site_fract_y
_atom_site_fract_z
Si Si1 0.294367 0.581729 0.336446
Si Si2 0.701027 0.582383 0.958609
Si Si3 0.996901 0.914071 0.838013
Si Si4 0.310360 0.182235 0.240252
Si Si5 0.803323 0.727970 0.691119
Si Si6 0.307253 0.812555 0.721192
Si Si7 0.803835 0.264345 0.189553
O O1 0.243943 0.500000 0.311338
O O2 0.497593 0.593246 0.654018
O O3 0.232081 0.591361 0.090099
O O4 0.200660 0.640460 0.288296
O O5 0.751545 0.500000 0.088776
O O6 0.785210 0.646576 0.177369
O O7 0.828678 0.877367 0.515911
O O8 0.987294 0.000000 0.789314
O O9 0.000000 0.899579 0.000000
O O10 0.170973 0.883381 0.035219
O O11 0.500000 0.148216 0.500000
O O12 0.313715 0.227944 0.382105
O O13 0.265886 0.241477 0.059870
O O14 0.728416 0.743810 0.431652
O O15 0.000000 0.756916 0.000000
O O16 0.298385 0.780536 0.855116
O O17 0.500000 0.845142 0.000000
O O18 0.000000 0.240440 0.500000
#
# Coordination Sequence:
#
# PCOD8067843 Si02
#       7
#     4   4   4   4   4   4   4
#     4   9  18  33  57  87 116 158 215 266 303 352
#     4   9  18  34  56  85 120 160 210 260 309 361
#     4  11  24  46  70  96 127 162 204 249 306 375
#     4  12  22  41  69  94 122 164 213 253 294 362
#     4  12  21  39  63  89 126 164 214 260 302 363
#     4  12  24  41  63  94 129 164 201 249 316 372
#     4  12  23  37  61  94 126 162 208 261 307 361
#
# _framework density 19.855581999999998
#
# number of rings (size 3 to 8) (size 9 to 14) (size 15 to 20)
#    0.000    1.000    5.714    3.429    0.000    1.143 
#    0.000    2.143    0.000    2.571    0.000    0.000 
#    0.000    0.000    0.000    0.000    0.000    0.000 
#
# Total GULP energy -347248.255056 kJ/mol
# GULP energy per Si atom -12401.723395 kJ/mol
# Density = 1.981039 g / cm^3
# Si number density = 19.855582 Si / 1000 Ang^3
#
#
#
# Elastic Constant Matrix: (Units=GPa)
#
#
# Indices 1 2 3 4 5 6 
#
# 1 80.2662 43.2585 27.2142 0.0000 14.0499 0.0000
# 2 43.2585 143.7826 33.2285 0.0000 10.0352 0.0000
# 3 27.2142 33.2285 86.0027 0.0000 24.1905 0.0000
# 4 0.0000 0.0000 0.0000 23.7312 0.0000 1.2552
# 5 14.0499 10.0352 24.1905 0.0000 36.1269 0.0000
# 6 0.0000 0.0000 0.0000 1.2552 0.0000 12.9871
#
#
#
# Elastic Compliance Matrix: (Units=1/GPa)
#
#
# Indices 1 2 3 4 5 6 
#
# 1 0.016091 -0.004006 -0.002583 0.000000 -0.003415 0.000000
# 2 -0.004006 0.008635 -0.002257 0.000000 0.000671 0.000000
# 3 -0.002583 -0.002257 0.015842 0.000000 -0.008976 0.000000
# 4 0.000000 0.000000 0.000000 0.042355 0.000000 -0.004094
# 5 -0.003415 0.000671 -0.008976 0.000000 0.034832 0.000000
# 6 0.000000 0.000000 0.000000 -0.004094 0.000000 0.077395
#
#
# Mechanical properties :
#
#
# Convention : Reuss Voigt Hill
#
# Bulk Modulus (GPa) = 43.71609 57.49488 50.60548
# Shear Modulus (GPa) = 22.67895 28.32573 25.50234
#
# Velocity S-wave (km/s) = 3.38330 3.78112 3.58773
# Velocity P-wave (km/s) = 6.10960 6.93411 6.53487
#
# Compressibility (1/GPa) = 0.02287487
#
# Stress axis : x y z
#
# Youngs Moduli (GPa) = 62.14600 115.80782 63.12359
#
# Poissons Ratio (x) = 0.46390 0.16308
# Poissons Ratio (y) = 0.24894 0.14249
# Poissons Ratio (z) = 0.16055 0.26142
#
# Static dielectric constant tensor:
#      x y z
#    x 3.614040 0.000000 0.077400 
#    y 0.000000 3.645130 0.000000 
#    z 0.077400 0.000000 3.598630 
# 
# 
# High freq. dielectric constant tensor:
#      x y z
#    x 1.768700 0.000000 0.009310 
#    y 0.000000 1.770610 0.000000 
#    z 0.009310 0.000000 1.769190 
# 
# From -- ./inp_files/30491.got.cif
#   From: 2010.06.25/outbox.cif.g09.slc.cpg/sg10_16_cif.got.tgz:30491.got - 2010.06.27 22:07:45.
