data_PCOD8067550
_publ_section_title
;
Structure prediction by ZEFSAII (Michael W. Deem and Ramdas Pophale) SiO2 
 PCOD8067550
Probable space group: P 2/M
;
_chemical_formula_sum "Si O2"
_cell_formula_units_Z 28
_cell_length_a 12.476493
_cell_length_b 8.641936
_cell_length_c 15.046158
_cell_angle_alpha 90.000000
_cell_angle_beta 52.734262
_cell_angle_gamma 90.000000
_cell_volume 1291.078395
_symmetry_space_group_name_H-M "P 2/M"
_symmetry_group_IT_number 10
_symmetry_cell_setting 'monoclinic'
loop_
_space_group_symop_operation_xyz
x,y,z
-x,y,-z
-x,-y,-z
x,-y,z
loop_
_atom_site_type_symbol
_atom_site_label
_atom_site_fract_x
_atom_site_fract_y
_atom_site_fract_z
Si Si1 0.949946 0.816622 0.776704
Si Si2 0.754853 0.180761 0.029648
Si Si3 0.483944 0.668013 0.109801
Si Si4 0.770957 0.178687 0.704872
Si Si5 0.745349 0.818422 0.372952
Si Si6 0.653576 0.321656 0.241916
Si Si7 0.655476 0.677382 0.596722
O O1 0.878328 0.753231 0.722452
O O2 0.101539 0.754573 0.703005
O O3 0.944131 0.000000 0.774176
O O4 0.876558 0.762406 0.905105
O O5 0.626852 0.282956 0.073491
O O6 0.766119 0.222055 0.129281
O O7 0.729760 0.000000 0.027951
O O8 0.442167 0.500000 0.174740
O O9 0.375427 0.802812 0.177940
O O10 0.500000 0.637875 0.000000
O O11 0.767176 0.274114 0.614463
O O12 0.800195 0.000000 0.668385
O O13 0.662099 0.730649 0.339425
O O14 0.675423 0.784489 0.501426
O O15 0.741555 0.000000 0.355711
O O16 0.693085 0.500000 0.214436
O O17 0.496877 0.294121 0.289379
O O18 0.677642 0.500000 0.557759
#
# Coordination Sequence:
#
# PCOD8067550 Si02
#       7
#     4   4   4   4   4   4   4
#     4   9  22  41  61  91 127 162 201 256 303 350
#     4  11  21  37  63  92 122 160 207 249 300 365
#     4  11  21  33  53  88 129 162 195 247 311 360
#     4  11  21  37  63  92 122 160 207 249 300 365
#     4  11  24  44  66  87 118 162 213 256 302 362
#     4  11  24  42  63  91 126 158 198 258 318 361
#     4  11  24  42  63  91 126 158 198 258 318 361
#
# _framework density 21.687297000000001
#
# number of rings (size 3 to 8) (size 9 to 14) (size 15 to 20)
#    0.000    1.286    2.857    3.000    0.000    5.143 
#    0.000   11.429    0.000    0.000    0.000    0.000 
#    0.000    0.000    0.000    0.000    0.000    0.000 
#
# Total GULP energy -347091.958144 kJ/mol
# GULP energy per Si atom -12396.141362 kJ/mol
# Density = 2.163794 g / cm^3
# Si number density = 21.687297 Si / 1000 Ang^3
#
#
#
# Elastic Constant Matrix: (Units=GPa)
#
#
# Indices 1 2 3 4 5 6 
#
# 1 69.7443 20.5193 25.9050 0.0000 5.2458 0.0000
# 2 20.5193 65.5784 18.4130 0.0000 0.5366 0.0000
# 3 25.9050 18.4130 94.5922 0.0000 12.3527 0.0000
# 4 0.0000 0.0000 0.0000 28.7224 0.0000 8.4449
# 5 5.2458 0.5366 12.3527 0.0000 34.7838 0.0000
# 6 0.0000 0.0000 0.0000 8.4449 0.0000 23.9084
#
#
#
# Elastic Compliance Matrix: (Units=1/GPa)
#
#
# Indices 1 2 3 4 5 6 
#
# 1 0.017058 -0.004295 -0.003679 0.000000 -0.001200 0.000000
# 2 -0.004295 0.017239 -0.002338 0.000000 0.001212 0.000000
# 3 -0.003679 -0.002338 0.012539 0.000000 -0.003862 0.000000
# 4 0.000000 0.000000 0.000000 0.038851 0.000000 -0.013723
# 5 -0.001200 0.001212 -0.003862 0.000000 0.030283 0.000000
# 6 0.000000 0.000000 0.000000 -0.013723 0.000000 0.046674
#
#
# Mechanical properties :
#
#
# Convention : Reuss Voigt Hill
#
# Bulk Modulus (GPa) = 38.14871 39.95438 39.05154
# Shear Modulus (GPa) = 26.04114 28.48810 27.26462
#
# Velocity S-wave (km/s) = 3.46895 3.62827 3.54951
# Velocity P-wave (km/s) = 5.80288 6.00128 5.90291
#
# Compressibility (1/GPa) = 0.02621321
#
# Stress axis : x y z
#
# Youngs Moduli (GPa) = 58.62238 58.00721 79.75376
#
# Poissons Ratio (x) = 0.24913 0.29341
# Poissons Ratio (y) = 0.25177 0.18645
# Poissons Ratio (z) = 0.21567 0.13561
#
# Static dielectric constant tensor:
#      x y z
#    x 3.989950 0.000000 0.119000 
#    y 0.000000 3.702310 0.000000 
#    z 0.119000 0.000000 3.867650 
# 
# 
# High freq. dielectric constant tensor:
#      x y z
#    x 1.846500 0.000000 0.022400 
#    y 0.000000 1.841570 0.000000 
#    z 0.022400 0.000000 1.863060 
# 
# From -- ./inp_files/63653.got.cif
#   From: 2010.06.25/outbox.cif.g09.slc.cpg/sg10_32_cif.got.tgz:63653.got - 2010.06.27 22:07:45.
