data_PCOD8067293
_publ_section_title
;
Structure prediction by ZEFSAII (Michael W. Deem and Ramdas Pophale) SiO2 
 PCOD8067293
Probable space group: P 2/M
;
_chemical_formula_sum "Si O2"
_cell_formula_units_Z 32
_cell_length_a 27.505864
_cell_length_b 8.510443
_cell_length_c 11.675976
_cell_angle_alpha 90.000000
_cell_angle_beta 146.300964
_cell_angle_gamma 90.000000
_cell_volume 1516.459878
_symmetry_space_group_name_H-M "P 2/M"
_symmetry_group_IT_number 10
_symmetry_cell_setting 'monoclinic'
loop_
_space_group_symop_operation_xyz
x,y,z
-x,y,-z
-x,-y,-z
x,-y,z
loop_
_atom_site_type_symbol
_atom_site_label
_atom_site_fract_x
_atom_site_fract_y
_atom_site_fract_z
Si Si1 0.739417 0.316971 0.366936
Si Si2 0.828612 0.180558 0.152147
Si Si3 0.894845 0.318577 0.507335
Si Si4 0.358110 0.321714 0.195467
Si Si5 0.598283 0.318291 0.463549
Si Si6 0.415967 0.818208 0.080811
Si Si7 0.907820 0.319753 0.086370
Si Si8 0.761564 0.817685 0.655644
O O1 0.745111 0.500000 0.407874
O O2 0.823488 0.260329 0.459339
O O3 0.735577 0.219559 0.475521
O O4 0.652039 0.283505 0.124828
O O5 0.887619 0.217226 0.378115
O O6 0.884852 0.212065 0.149381
O O7 0.798949 0.000000 0.096063
O O8 0.744075 0.290793 0.985990
O O9 0.878080 0.500000 0.443007
O O10 0.990949 0.292468 0.749142
O O11 0.369814 0.500000 0.173951
O O12 0.409450 0.298311 0.414842
O O13 0.397904 0.204765 0.180006
O O14 0.604739 0.500000 0.440363
O O15 0.513031 0.240809 0.239097
O O16 0.683702 0.229009 0.587919
O O17 0.406371 0.000000 0.029734
O O18 0.890588 0.500000 0.086455
O O19 0.849528 0.275099 0.862398
O O20 0.780436 0.000000 0.707415
#
# Coordination Sequence:
#
# PCOD8067293 Si02
#       8
#     4   4   4   4   4   4   4   4
#     4  11  24  45  69  91 123 169 219 264 314 380
#     4  12  23  36  62  97 133 168 207 261 324 377
#     4  10  23  42  67  94 126 170 217 261 311 380
#     4  11  22  39  65  94 129 171 214 255 310 383
#     4  11  24  43  68  95 127 171 216 258 310 383
#     4  12  25  41  65  99 134 166 207 264 322 375
#     4  11  23  42  66  94 128 170 216 259 313 385
#     4  12  26  44  66  94 128 164 211 271 325 372
#
# _framework density 21.101776999999998
#
# number of rings (size 3 to 8) (size 9 to 14) (size 15 to 20)
#    0.000    0.750    2.500    5.625    0.000    7.000 
#    0.000    5.000    0.000    0.000    0.000    0.000 
#    0.000    0.000    0.000    0.000    0.000    0.000 
#
# Total GULP energy -397070.927182 kJ/mol
# GULP energy per Si atom -12408.466474 kJ/mol
# Density = 2.105375 g / cm^3
# Si number density = 21.101777 Si / 1000 Ang^3
#
#
#
# Elastic Constant Matrix: (Units=GPa)
#
#
# Indices 1 2 3 4 5 6 
#
# 1 42.3937 16.9570 34.6718 0.0000 -9.4152 0.0000
# 2 16.9570 72.2172 24.4854 0.0000 0.4671 0.0000
# 3 34.6718 24.4854 115.9946 0.0000 15.6682 0.0000
# 4 0.0000 0.0000 0.0000 22.2240 0.0000 -3.0114
# 5 -9.4152 0.4671 15.6682 0.0000 33.4712 0.0000
# 6 0.0000 0.0000 0.0000 -3.0114 0.0000 26.7505
#
#
#
# Elastic Compliance Matrix: (Units=1/GPa)
#
#
# Indices 1 2 3 4 5 6 
#
# 1 0.040578 -0.005080 -0.013459 0.000000 0.017786 0.000000
# 2 -0.005080 0.015608 -0.001659 0.000000 -0.000870 0.000000
# 3 -0.013459 -0.001659 0.014414 0.000000 -0.010510 0.000000
# 4 0.000000 0.000000 0.000000 0.045693 0.000000 0.005144
# 5 0.017786 -0.000870 -0.010510 0.000000 0.039811 0.000000
# 6 0.000000 0.000000 0.000000 0.005144 0.000000 0.037961
#
#
# Mechanical properties :
#
#
# Convention : Reuss Voigt Hill
#
# Bulk Modulus (GPa) = 33.10761 42.53711 37.82236
# Shear Modulus (GPa) = 20.44744 26.78857 23.61800
#
# Velocity S-wave (km/s) = 3.11624 3.56686 3.34914
# Velocity P-wave (km/s) = 5.35458 6.09632 5.73745
#
# Compressibility (1/GPa) = 0.03020454
#
# Stress axis : x y z
#
# Youngs Moduli (GPa) = 24.64397 64.07027 69.37683
#
# Poissons Ratio (x) = 0.32545 0.93376
# Poissons Ratio (y) = 0.12518 0.11508
# Poissons Ratio (z) = 0.33169 0.10628
#
# Static dielectric constant tensor:
#      x y z
#    x 3.700140 0.000000 0.072260 
#    y 0.000000 3.785350 0.000000 
#    z 0.072260 0.000000 3.888330 
# 
# 
# High freq. dielectric constant tensor:
#      x y z
#    x 1.819680 0.000000 0.008240 
#    y 0.000000 1.832190 0.000000 
#    z 0.008240 0.000000 1.838660 
# 
# From -- ./inp_files/58253.got.cif
#   From: 2010.06.25/outbox.cif.g09.slc.cpg/sg10_30_cif.got.tgz:58253.got - 2010.06.27 22:07:45.
