data_PCOD8067586
_publ_section_title
;
Structure prediction by ZEFSAII (Michael W. Deem and Ramdas Pophale) SiO2 
 PCOD8067586
Probable space group: P 2/M
;
_chemical_formula_sum "Si O2"
_cell_formula_units_Z 28
_cell_length_a 9.829860
_cell_length_b 10.979623
_cell_length_c 16.008254
_cell_angle_alpha 90.000000
_cell_angle_beta 116.986302
_cell_angle_gamma 90.000000
_cell_volume 1539.616296
_symmetry_space_group_name_H-M "P 2/M"
_symmetry_group_IT_number 10
_symmetry_cell_setting 'monoclinic'
loop_
_space_group_symop_operation_xyz
x,y,z
-x,y,-z
-x,-y,-z
x,-y,z
loop_
_atom_site_type_symbol
_atom_site_label
_atom_site_fract_x
_atom_site_fract_y
_atom_site_fract_z
Si Si1 0.816993 0.253204 0.246077
Si Si2 0.369865 0.745342 0.528787
Si Si3 0.055434 0.361362 0.428637
Si Si4 0.541562 0.644317 0.270982
Si Si5 0.098843 0.644699 0.902782
Si Si6 0.785584 0.000000 0.503714
Si Si7 0.121678 0.000000 0.661913
Si Si8 0.781628 0.356567 0.886740
O O1 0.672053 0.326624 0.240306
O O2 0.826553 0.276766 0.150179
O O3 0.974740 0.300177 0.328526
O O4 0.808859 0.111660 0.266423
O O5 0.500000 0.714586 0.500000
O O6 0.235524 0.651245 0.469842
O O7 0.428096 0.721471 0.637898
O O8 0.313141 0.882566 0.500789
O O9 0.003545 0.500000 0.416116
O O10 0.000000 0.297052 0.500000
O O11 0.540156 0.500000 0.289424
O O12 0.379587 0.693372 0.191334
O O13 0.115964 0.500000 0.890374
O O14 0.920429 0.681429 0.864144
O O15 0.188689 0.688016 0.010597
O O16 0.816323 0.000000 0.414283
O O17 0.937586 0.000000 0.603495
O O18 0.776084 0.500000 0.888840
#
# Coordination Sequence:
#
# PCOD8067586 Si02
#       8
#     4   4   4   4   4   2   2   4
#     4  12  22  36  58  85 108 145 196 236 278 333
#     4  12  25  38  56  83 118 154 194 237 282 334
#     4  11  21  36  55  82 118 151 182 228 284 345
#     4  11  22  36  55  85 120 148 181 233 292 340
#     4   9  18  36  61  88 115 146 185 227 278 345
#     4  11  21  44  58  75 106 159 207 237 271 322
#     4  11  22  38  64  77 105 150 202 242 277 323
#     4   8  18  36  58  85 119 152 179 220 283 347
#
# _framework density 18.186349
#
# number of rings (size 3 to 8) (size 9 to 14) (size 15 to 20)
#    0.000    1.429    4.286    2.786    2.000    1.714 
#    0.000    2.143    0.000    4.286    0.000    0.000 
#    0.000    0.000    0.000    0.000    0.000    0.000 
#
# Total GULP energy -347209.808009 kJ/mol
# GULP energy per Si atom -12400.350286 kJ/mol
# Density = 1.814496 g / cm^3
# Si number density = 18.186349 Si / 1000 Ang^3
#
#
#
# Elastic Constant Matrix: (Units=GPa)
#
#
# Indices 1 2 3 4 5 6 
#
# 1 111.5259 2.4123 34.8434 0.0000 1.4719 0.0000
# 2 2.4123 55.5601 4.7811 0.0000 -0.3854 0.0000
# 3 34.8434 4.7811 59.6215 0.0000 5.9449 0.0000
# 4 0.0000 0.0000 0.0000 17.1466 0.0000 -7.0869
# 5 1.4719 -0.3854 5.9449 0.0000 38.6102 0.0000
# 6 0.0000 0.0000 0.0000 -7.0869 0.0000 7.6869
#
#
#
# Elastic Compliance Matrix: (Units=1/GPa)
#
#
# Indices 1 2 3 4 5 6 
#
# 1 0.010982 0.000085 -0.006483 0.000000 0.000580 0.000000
# 2 0.000085 0.018131 -0.001545 0.000000 0.000416 0.000000
# 3 -0.006483 -0.001545 0.020984 0.000000 -0.002999 0.000000
# 4 0.000000 0.000000 0.000000 0.094225 0.000000 0.086870
# 5 0.000580 0.000416 -0.002999 0.000000 0.026344 0.000000
# 6 0.000000 0.000000 0.000000 0.086870 0.000000 0.210181
#
#
# Mechanical properties :
#
#
# Convention : Reuss Voigt Hill
#
# Bulk Modulus (GPa) = 29.23003 34.53122 31.88062
# Shear Modulus (GPa) = 12.25079 25.00011 18.62545
#
# Velocity S-wave (km/s) = 2.59824 3.71167 3.20370
# Velocity P-wave (km/s) = 5.01085 6.11533 5.59043
#
# Compressibility (1/GPa) = 0.03421139
#
# Stress axis : x y z
#
# Youngs Moduli (GPa) = 91.05431 55.15510 47.65503
#
# Poissons Ratio (x) = -0.00469 0.30895
# Poissons Ratio (y) = -0.00774 0.07363
# Poissons Ratio (z) = 0.59030 0.08522
#
# Static dielectric constant tensor:
#      x y z
#    x 3.249480 0.000000 0.100950 
#    y 0.000000 3.204890 0.000000 
#    z 0.100950 0.000000 3.485080 
# 
# 
# High freq. dielectric constant tensor:
#      x y z
#    x 1.711780 0.000000 0.003260 
#    y 0.000000 1.683880 0.000000 
#    z 0.003260 0.000000 1.702700 
# 
# From -- ./inp_files/61046.got.cif
#   From: 2010.06.25/outbox.cif.g09.slc.cpg/sg10_31_cif.got.tgz:61046.got - 2010.06.27 22:07:45.
