data_PCOD8067244
_publ_section_title
;
Structure prediction by ZEFSAII (Michael W. Deem and Ramdas Pophale) SiO2 
 PCOD8067244
Probable space group: P 2/M
;
_chemical_formula_sum "Si O2"
_cell_formula_units_Z 22
_cell_length_a 9.672582
_cell_length_b 18.941216
_cell_length_c 5.354677
_cell_angle_alpha 90.000000
_cell_angle_beta 105.871674
_cell_angle_gamma 90.000000
_cell_volume 943.632586
_symmetry_space_group_name_H-M "P 2/M"
_symmetry_group_IT_number 10
_symmetry_cell_setting 'monoclinic'
loop_
_space_group_symop_operation_xyz
x,y,z
-x,y,-z
-x,-y,-z
x,-y,z
loop_
_atom_site_type_symbol
_atom_site_label
_atom_site_fract_x
_atom_site_fract_y
_atom_site_fract_z
Si Si1 0.856045 0.078449 0.582920
Si Si2 0.335568 0.133084 0.932081
Si Si3 0.669938 0.421149 0.080656
Si Si4 0.329584 0.659660 0.420316
Si Si5 0.405143 0.000000 0.209406
Si Si6 0.849912 0.220286 0.855952
O O1 0.717711 0.098428 0.348885
O O2 0.893322 0.143266 0.779017
O O3 0.000000 0.066126 0.500000
O O4 0.818472 0.000000 0.686797
O O5 0.500000 0.157196 0.000000
O O6 0.315450 0.074226 0.146452
O O7 0.248065 0.204761 0.948905
O O8 0.736037 0.500000 0.111205
O O9 0.720676 0.382271 0.358297
O O10 0.500000 0.426307 0.000000
O O11 0.720698 0.381355 0.854956
O O12 0.500000 0.674084 0.500000
O O13 0.242554 0.733246 0.383198
O O14 0.500000 0.000000 0.500000
O O15 0.500000 0.000000 0.000000
O O16 0.000000 0.259130 0.000000
#
# Coordination Sequence:
#
# PCOD8067244 Si02
#       6
#     4   4   4   4   2   4
#     4  11  25  45  66  93 129 175 238 297 357 417
#     4  11  26  41  65  93 124 168 223 291 349 415
#     4   9  18  38  69 106 141 174 219 274 329 391
#     4  10  23  39  67 103 138 180 225 274 331 404
#     4  10  24  42  62  94 126 156 207 284 359 404
#     4  12  28  43  64  93 135 184 227 285 355 415
#
# _framework density 23.314159
#
# number of rings (size 3 to 8) (size 9 to 14) (size 15 to 20)
#    0.000    1.455    2.727    0.545   11.455    3.273 
#    0.000    0.000    0.000    3.273    0.000    0.000 
#    0.000    0.000    0.000    0.000    0.000    0.000 
#
# Total GULP energy -272745.479493 kJ/mol
# GULP energy per Si atom -12397.521795 kJ/mol
# Density = 2.326110 g / cm^3
# Si number density = 23.314159 Si / 1000 Ang^3
#
#
#
# Elastic Constant Matrix: (Units=GPa)
#
#
# Indices 1 2 3 4 5 6 
#
# 1 95.3963 38.2796 33.0291 0.0000 18.5762 0.0000
# 2 38.2796 130.1467 46.7982 0.0000 -2.8305 0.0000
# 3 33.0291 46.7982 140.2357 0.0000 -0.6338 0.0000
# 4 0.0000 0.0000 0.0000 47.4494 0.0000 -0.5116
# 5 18.5762 -2.8305 -0.6338 0.0000 30.9571 0.0000
# 6 0.0000 0.0000 0.0000 -0.5116 0.0000 13.6282
#
#
#
# Elastic Compliance Matrix: (Units=1/GPa)
#
#
# Indices 1 2 3 4 5 6 
#
# 1 0.014490 -0.003656 -0.002234 0.000000 -0.009075 0.000000
# 2 -0.003656 0.009671 -0.002352 0.000000 0.003030 0.000000
# 3 -0.002234 -0.002352 0.008448 0.000000 0.001298 0.000000
# 4 0.000000 0.000000 0.000000 0.021084 0.000000 0.000792
# 5 -0.009075 0.003030 0.001298 0.000000 0.038052 0.000000
# 6 0.000000 0.000000 0.000000 0.000792 0.000000 0.073407
#
#
# Mechanical properties :
#
#
# Convention : Reuss Voigt Hill
#
# Bulk Modulus (GPa) = 62.01836 66.88805 64.45320
# Shear Modulus (GPa) = 26.73640 34.91840 30.82740
#
# Velocity S-wave (km/s) = 3.39010 3.87425 3.64024
# Velocity P-wave (km/s) = 6.47940 6.98322 6.73602
#
# Compressibility (1/GPa) = 0.01612426
#
# Stress axis : x y z
#
# Youngs Moduli (GPa) = 69.01203 103.40425 118.37315
#
# Poissons Ratio (x) = 0.37806 0.26442
# Poissons Ratio (y) = 0.25232 0.27847
# Poissons Ratio (z) = 0.15416 0.24325
#
# Static dielectric constant tensor:
#      x y z
#    x 4.323530 0.000000 -0.203440 
#    y 0.000000 4.376730 0.000000 
#    z -0.203440 0.000000 4.335840 
# 
# 
# High freq. dielectric constant tensor:
#      x y z
#    x 1.922340 0.000000 -0.011910 
#    y 0.000000 1.916330 0.000000 
#    z -0.011910 0.000000 1.926030 
# 
# From -- ./inp_files/7298.got.cif
#   From: 2010.06.25/outbox.cif.g09.slc.cpg/sg10_4_cif.got.tgz:7298.got - 2010.06.27 22:07:45.
