data_PCOD8067122
_publ_section_title
;
Structure prediction by ZEFSAII (Michael W. Deem and Ramdas Pophale) SiO2 
 PCOD8067122
Probable space group: P 2/M
;
_chemical_formula_sum "Si O2"
_cell_formula_units_Z 32
_cell_length_a 14.287965
_cell_length_b 8.559912
_cell_length_c 23.203490
_cell_angle_alpha 90.000000
_cell_angle_beta 31.825338
_cell_angle_gamma 90.000000
_cell_volume 1496.500204
_symmetry_space_group_name_H-M "P 2/M"
_symmetry_group_IT_number 10
_symmetry_cell_setting 'monoclinic'
loop_
_space_group_symop_operation_xyz
x,y,z
-x,y,-z
-x,-y,-z
x,-y,z
loop_
_atom_site_type_symbol
_atom_site_label
_atom_site_fract_x
_atom_site_fract_y
_atom_site_fract_z
Si Si1 0.465009 0.818143 0.190979
Si Si2 0.090619 0.678328 0.392128
Si Si3 0.468183 0.321566 0.725146
Si Si4 0.780725 0.821282 0.491059
Si Si5 0.993545 0.818024 0.183762
Si Si6 0.072364 0.319633 0.901266
Si Si7 0.614629 0.184262 0.993025
Si Si8 0.698604 0.320574 0.415350
O O1 0.254712 0.793964 0.300274
O O2 0.556722 0.725972 0.195359
O O3 0.542739 0.747983 0.090986
O O4 0.509358 0.000000 0.174699
O O5 0.155824 0.500000 0.353363
O O6 0.000000 0.713964 0.500000
O O7 0.949159 0.713599 0.416511
O O8 0.533851 0.500000 0.687546
O O9 0.614599 0.214874 0.618726
O O10 0.284315 0.299714 0.787888
O O11 0.734370 0.793868 0.449261
O O12 0.834138 0.000000 0.472631
O O13 0.013849 0.778894 0.105415
O O14 0.834500 0.715778 0.292748
O O15 0.950060 0.000000 0.213734
O O16 0.176416 0.774983 0.121446
O O17 0.016488 0.500000 0.923452
O O18 0.000000 0.254232 0.000000
O O19 0.585227 0.000000 0.008910
O O20 0.500000 0.257201 0.000000
O O21 0.500000 0.285835 0.500000
O O22 0.719924 0.500000 0.423361
#
# Coordination Sequence:
#
# PCOD8067122 Si02
#       8
#     4   4   4   4   4   4   4   4
#     4  11  22  37  63  92 122 163 211 259 311 369
#     4  11  23  40  62  90 128 167 204 254 316 378
#     4  11  22  38  60  88 124 163 200 250 314 374
#     4  12  25  40  63  92 123 160 208 258 310 373
#     4  11  23  40  66  96 127 165 211 265 316 369
#     4  10  22  40  63  89 122 165 207 252 312 376
#     4   9  21  41  62  89 126 166 207 256 316 372
#     4  11  25  45  67  92 129 172 210 257 317 379
#
# _framework density 21.383224999999999
#
# number of rings (size 3 to 8) (size 9 to 14) (size 15 to 20)
#    0.000    1.250    1.250    4.500    1.750    5.750 
#    0.000    1.875    0.000    3.000    0.000    0.000 
#    0.000    0.000    0.000    0.000    0.000    0.000 
#
# Total GULP energy -396989.301323 kJ/mol
# GULP energy per Si atom -12405.915666 kJ/mol
# Density = 2.133456 g / cm^3
# Si number density = 21.383225 Si / 1000 Ang^3
#
#
#
# Elastic Constant Matrix: (Units=GPa)
#
#
# Indices 1 2 3 4 5 6 
#
# 1 125.7653 23.6141 32.1781 0.0000 1.6105 0.0000
# 2 23.6141 48.9538 21.4724 0.0000 -4.8359 0.0000
# 3 32.1781 21.4724 82.7994 0.0000 3.4600 0.0000
# 4 0.0000 0.0000 0.0000 17.6893 0.0000 15.4958
# 5 1.6105 -4.8359 3.4600 0.0000 37.6130 0.0000
# 6 0.0000 0.0000 0.0000 15.4958 0.0000 12.3493
#
#
#
# Elastic Compliance Matrix: (Units=1/GPa)
#
#
# Indices 1 2 3 4 5 6 
#
# 1 0.009281 -0.003343 -0.002716 0.000000 -0.000577 0.000000
# 2 -0.003343 0.024729 -0.005273 0.000000 0.003808 0.000000
# 3 -0.002716 -0.005273 0.014580 0.000000 -0.001903 0.000000
# 4 0.000000 0.000000 0.000000 -0.569898 0.000000 0.715102
# 5 -0.000577 0.003808 -0.001903 0.000000 0.027276 0.000000
# 6 0.000000 0.000000 0.000000 0.715102 0.000000 -0.816327
#
#
# Mechanical properties :
#
#
# Convention : Reuss Voigt Hill
#
# Bulk Modulus (GPa) = 38.57045 45.78308 42.17676
# Shear Modulus (GPa) = -3.90914 25.54727 10.81906
#
# Velocity S-wave (km/s) = -1.35355 3.46024 2.25180
# Velocity P-wave (km/s) = 3.95399 6.11732 5.15052
#
# Compressibility (1/GPa) = 0.02592658
#
# Stress axis : x y z
#
# Youngs Moduli (GPa) = 107.74395 40.43856 68.58805
#
# Poissons Ratio (x) = 0.13518 0.18628
# Poissons Ratio (y) = 0.36017 0.36166
# Poissons Ratio (z) = 0.29262 0.21323
#
# Static dielectric constant tensor:
#      x y z
#    x 4.026700 0.000000 0.048410 
#    y 0.000000 3.634970 0.000000 
#    z 0.048410 0.000000 3.959930 
# 
# 
# High freq. dielectric constant tensor:
#      x y z
#    x 1.851400 0.000000 -0.003030 
#    y 0.000000 1.827050 0.000000 
#    z -0.003030 0.000000 1.844710 
# 
# From -- ./inp_files/89550.got.cif
#   From: 2010.06.25/outbox.cif.g09.slc.cpg/sg10_45_cif.got.tgz:89550.got - 2010.06.27 22:07:45.
