data_PCOD8067939
_publ_section_title
;
Structure prediction by ZEFSAII (Michael W. Deem and Ramdas Pophale) SiO2 
 PCOD8067939
Probable space group: P 2/M
;
_chemical_formula_sum "Si O2"
_cell_formula_units_Z 32
_cell_length_a 22.903660
_cell_length_b 9.394355
_cell_length_c 11.449787
_cell_angle_alpha 90.000000
_cell_angle_beta 129.581805
_cell_angle_gamma 90.000000
_cell_volume 1898.730940
_symmetry_space_group_name_H-M "P 2/M"
_symmetry_group_IT_number 10
_symmetry_cell_setting 'monoclinic'
loop_
_space_group_symop_operation_xyz
x,y,z
-x,y,-z
-x,-y,-z
x,-y,z
loop_
_atom_site_type_symbol
_atom_site_label
_atom_site_fract_x
_atom_site_fract_y
_atom_site_fract_z
Si Si1 0.191478 0.841175 0.773959
Si Si2 0.867835 0.660160 0.107220
Si Si3 0.731708 0.169344 0.355869
Si Si4 0.578467 0.830394 0.051325
Si Si5 0.295543 0.339740 0.219056
Si Si6 0.232161 0.166091 0.340103
Si Si7 0.926685 0.835119 0.978295
Si Si8 0.354483 0.841488 0.100123
O O1 0.133967 0.737469 0.769040
O O2 0.206827 0.780178 0.662886
O O3 0.155895 0.000000 0.724515
O O4 0.270762 0.848873 0.941511
O O5 0.897979 0.500000 0.162885
O O6 0.784946 0.660296 0.946500
O O7 0.924507 0.744031 0.093990
O O8 0.648054 0.229328 0.218103
O O9 0.756965 0.224079 0.514783
O O10 0.729459 0.000000 0.348331
O O11 0.577837 0.000000 0.057778
O O12 0.500000 0.765498 0.000000
O O13 0.588985 0.784892 0.929126
O O14 0.322686 0.500000 0.280199
O O15 0.289964 0.252356 0.332098
O O16 0.357430 0.264622 0.214189
O O17 0.145775 0.195530 0.194744
O O18 0.252641 0.000000 0.355105
O O19 0.930778 0.000000 0.019889
O O20 0.000000 0.787000 0.000000
O O21 0.378238 0.000000 0.172079
#
# Coordination Sequence:
#
# PCOD8067939 Si02
#       8
#     4   4   4   4   4   4   4   4
#     4   8  13  23  39  58  80 103 129 162 197 234
#     4   9  16  25  39  60  82 103 131 167 203 236
#     4   8  14  24  40  62  84 107 133 162 200 241
#     4   8  13  22  39  64  89 107 127 162 204 241
#     4   9  16  25  38  58  82 105 133 169 203 234
#     4   9  16  27  43  61  82 106 133 166 201 239
#     4   9  17  28  42  60  81 106 135 166 201 239
#     4   8  13  22  38  59  80 103 131 162 197 234
#
# _framework density 16.853362000000001
#
# number of rings (size 3 to 8) (size 9 to 14) (size 15 to 20)
#    0.000    3.500    0.000    2.250    0.000    3.250 
#    0.000    0.625    0.000    2.625    0.000   10.500 
#    0.000    0.000    0.000    0.000    0.000    0.000 
#
# Total GULP energy -396607.262790 kJ/mol
# GULP energy per Si atom -12393.976962 kJ/mol
# Density = 1.681500 g / cm^3
# Si number density = 16.853362 Si / 1000 Ang^3
#
#
#
# Elastic Constant Matrix: (Units=GPa)
#
#
# Indices 1 2 3 4 5 6 
#
# 1 156.2602 64.8245 50.8158 0.0000 -32.4987 0.0000
# 2 64.8245 79.4059 30.7280 0.0000 -19.9664 0.0000
# 3 50.8158 30.7280 55.8887 0.0000 -26.6043 0.0000
# 4 0.0000 0.0000 0.0000 7.2486 0.0000 -0.0242
# 5 -32.4987 -19.9664 -26.6043 0.0000 28.6029 0.0000
# 6 0.0000 0.0000 0.0000 -0.0242 0.0000 7.4818
#
#
#
# Elastic Compliance Matrix: (Units=1/GPa)
#
#
# Indices 1 2 3 4 5 6 
#
# 1 0.011551 -0.006487 -0.005104 0.000000 0.003849 0.000000
# 2 -0.006487 0.020111 -0.003562 0.000000 0.003355 0.000000
# 3 -0.005104 -0.003562 0.036874 0.000000 0.026012 0.000000
# 4 0.000000 0.000000 0.000000 0.137958 0.000000 0.000447
# 5 0.003849 0.003355 0.026012 0.000000 0.065871 0.000000
# 6 0.000000 0.000000 0.000000 0.000447 0.000000 0.133659
#
#
# Mechanical properties :
#
#
# Convention : Reuss Voigt Hill
#
# Bulk Modulus (GPa) = 26.15703 64.92125 45.53914
# Shear Modulus (GPa) = 11.13402 18.34577 14.73990
#
# Velocity S-wave (km/s) = 2.57308 3.30290 2.96057
# Velocity P-wave (km/s) = 4.93778 7.29043 6.22624
#
# Compressibility (1/GPa) = 0.03823064
#
# Stress axis : x y z
#
# Youngs Moduli (GPa) = 86.57310 49.72308 27.11938
#
# Poissons Ratio (x) = 0.32256 0.13841
# Poissons Ratio (y) = 0.56160 0.09660
# Poissons Ratio (z) = 0.44185 0.17711
#
# Static dielectric constant tensor:
#      x y z
#    x 3.395820 0.000000 -0.304290 
#    y 0.000000 3.070620 0.000000 
#    z -0.304290 0.000000 2.901860 
# 
# 
# High freq. dielectric constant tensor:
#      x y z
#    x 1.653590 0.000000 -0.030350 
#    y 0.000000 1.623040 0.000000 
#    z -0.030350 0.000000 1.602310 
# 
# From -- ./inp_files/54506.got.cif
#   From: 2010.06.25/outbox.cif.g09.slc.cpg/sg10_28_cif.got.tgz:54506.got - 2010.06.27 22:07:45.
