data_PCOD8067031
_publ_section_title
;
Structure prediction by ZEFSAII (Michael W. Deem and Ramdas Pophale) SiO2 
 PCOD8067031
Probable space group: P 2/M
;
_chemical_formula_sum "Si O2"
_cell_formula_units_Z 28
_cell_length_a 9.386745
_cell_length_b 19.220638
_cell_length_c 15.093228
_cell_angle_alpha 90.000000
_cell_angle_beta 30.369244
_cell_angle_gamma 90.000000
_cell_volume 1376.723889
_symmetry_space_group_name_H-M "P 2/M"
_symmetry_group_IT_number 10
_symmetry_cell_setting 'monoclinic'
loop_
_space_group_symop_operation_xyz
x,y,z
-x,y,-z
-x,-y,-z
x,-y,z
loop_
_atom_site_type_symbol
_atom_site_label
_atom_site_fract_x
_atom_site_fract_y
_atom_site_fract_z
Si Si1 0.620973 0.830887 0.531727
Si Si2 0.668630 0.076843 0.671396
Si Si3 0.716606 0.295407 0.197306
Si Si4 0.257739 0.692027 0.306303
Si Si5 0.754065 0.577740 0.303210
Si Si6 0.771235 0.577012 0.808717
Si Si7 0.293760 0.174778 0.188573
O O1 0.500000 0.852035 0.500000
O O2 0.558210 0.890361 0.638190
O O3 0.459019 0.760668 0.650190
O O4 0.961458 0.826112 0.341965
O O5 0.592315 0.126194 0.793703
O O6 0.000000 0.068750 0.500000
O O7 0.529772 0.000000 0.754813
O O8 0.515956 0.327212 0.230197
O O9 0.812903 0.363083 0.199981
O O10 0.000000 0.262882 0.000000
O O11 0.134514 0.623626 0.324838
O O12 0.365756 0.746821 0.176650
O O13 0.000000 0.726372 0.500000
O O14 0.500000 0.603043 0.500000
O O15 0.700863 0.500000 0.290025
O O16 0.009939 0.573439 0.231323
O O17 0.707312 0.500000 0.805424
O O18 0.500000 0.611160 0.000000
O O19 0.500000 0.151900 0.000000
#
# Coordination Sequence:
#
# PCOD8067031 Si02
#       7
#     4   4   4   4   4   4   4
#     4  11  24  40  64  97 131 165 209 257 314 370
#     4   9  19  42  68  94 131 167 206 255 307 370
#     4  12  25  38  61  90 128 165 207 265 318 371
#     4  12  22  39  60  87 124 158 211 264 306 369
#     4  10  22  41  60  84 120 163 209 259 320 381
#     4  10  22  39  59  84 117 157 207 260 313 374
#     4  11  23  41  66  95 127 169 211 257 309 371
#
# _framework density 20.338138000000001
#
# number of rings (size 3 to 8) (size 9 to 14) (size 15 to 20)
#    0.000    1.286    2.857    3.000    4.000    1.714 
#    0.000    0.000    0.000    3.000    0.000    0.000 
#    0.000    0.000    0.000    0.000    0.000    0.000 
#
# Total GULP energy -347013.148224 kJ/mol
# GULP energy per Si atom -12393.326722 kJ/mol
# Density = 2.029185 g / cm^3
# Si number density = 20.338138 Si / 1000 Ang^3
#
#
#
# Elastic Constant Matrix: (Units=GPa)
#
#
# Indices 1 2 3 4 5 6 
#
# 1 133.2551 59.0828 34.6379 0.0000 13.1362 0.0000
# 2 59.0828 123.7535 27.6490 0.0000 14.2406 0.0000
# 3 34.6379 27.6490 112.6583 0.0000 3.2402 0.0000
# 4 0.0000 0.0000 0.0000 -275.4092 0.0000 98.6357
# 5 13.1362 14.2406 3.2402 0.0000 26.9041 0.0000
# 6 0.0000 0.0000 0.0000 98.6357 0.0000 -9.2944
#
#
#
# Elastic Compliance Matrix: (Units=1/GPa)
#
#
# Indices 1 2 3 4 5 6 
#
# 1 0.010086 -0.004071 -0.002029 0.000000 -0.002525 0.000000
# 2 -0.004071 0.010716 -0.001277 0.000000 -0.003530 0.000000
# 3 -0.002029 -0.001277 0.009800 0.000000 0.000486 0.000000
# 4 0.000000 0.000000 0.000000 0.001296 0.000000 0.013758
# 5 -0.002525 -0.003530 0.000486 0.000000 0.040212 0.000000
# 6 0.000000 0.000000 0.000000 0.013758 0.000000 0.038416
#
#
# Mechanical properties :
#
#
# Convention : Reuss Voigt Hill
#
# Bulk Modulus (GPa) = 63.10295 68.04512 65.57404
# Shear Modulus (GPa) = 38.29596 -35.00678 1.64459
#
# Velocity S-wave (km/s) = 4.34402 -4.15328 0.90021
# Velocity P-wave (km/s) = 7.50033 3.24498 5.77862
#
# Compressibility (1/GPa) = 0.01584712
#
# Stress axis : x y z
#
# Youngs Moduli (GPa) = 99.14790 93.32027 102.04479
#
# Poissons Ratio (x) = 0.37994 0.20707
# Poissons Ratio (y) = 0.40366 0.13027
# Poissons Ratio (z) = 0.20119 0.11913
#
# Static dielectric constant tensor:
#      x y z
#    x 3.757020 0.000000 0.043370 
#    y 0.000000 3.848920 0.000000 
#    z 0.043370 0.000000 3.660890 
# 
# 
# High freq. dielectric constant tensor:
#      x y z
#    x 1.800080 0.000000 -0.000620 
#    y 0.000000 1.791220 0.000000 
#    z -0.000620 0.000000 1.789630 
# 
# From -- ./inp_files/62543.got.cif
#   From: 2010.06.25/outbox.cif.g09.slc.cpg/sg10_32_cif.got.tgz:62543.got - 2010.06.27 22:07:45.
