data_PCOD8067962
_publ_section_title
;
Structure prediction by ZEFSAII (Michael W. Deem and Ramdas Pophale) SiO2 
 PCOD8067962
Probable space group: P 2/M
;
_chemical_formula_sum "Si O2"
_cell_formula_units_Z 28
_cell_length_a 20.210946
_cell_length_b 9.615125
_cell_length_c 17.690566
_cell_angle_alpha 90.000000
_cell_angle_beta 151.078414
_cell_angle_gamma 90.000000
_cell_volume 1662.572269
_symmetry_space_group_name_H-M "P 2/M"
_symmetry_group_IT_number 10
_symmetry_cell_setting 'monoclinic'
loop_
_space_group_symop_operation_xyz
x,y,z
-x,y,-z
-x,-y,-z
x,-y,z
loop_
_atom_site_type_symbol
_atom_site_label
_atom_site_fract_x
_atom_site_fract_y
_atom_site_fract_z
Si Si1 0.662621 0.154510 0.797663
Si Si2 0.336587 0.343231 0.336593
Si Si3 0.656383 0.163281 0.352284
Si Si4 0.842631 0.659561 0.255445
Si Si5 0.337397 0.154510 0.472451
Si Si6 0.842602 0.340438 0.429776
Si Si7 0.656422 0.836720 0.960509
O O1 0.720310 0.264340 0.794565
O O2 0.500009 0.148760 0.631386
O O3 0.707083 0.200375 0.926322
O O4 0.719715 0.000000 0.835985
O O5 0.500000 0.343820 0.500000
O O6 0.278910 0.500000 0.278918
O O7 0.279700 0.264339 0.353970
O O8 0.707055 0.200376 0.487801
O O9 0.749019 0.242771 0.385985
O O10 0.499979 0.211004 0.184516
O O11 0.670792 0.000000 0.352146
O O12 0.812569 0.500000 0.204531
O O13 0.807285 0.687529 0.307278
O O14 0.000017 0.696066 0.396559
O O15 0.749071 0.757229 0.112084
O O16 0.280300 0.000000 0.396587
O O17 0.812532 0.500000 0.420556
O O18 0.670832 0.000000 0.989467
#
# Coordination Sequence:
#
# PCOD8067962 Si02
#       7
#     4   4   4   4   4   4   4
#     4   8  14  25  39  56  84 120 150 178 219 268
#     4   9  15  21  33  57  86 115 150 187 218 254
#     4   9  18  31  47  70  97 122 152 191 232 274
#     4   9  19  35  51  67  90 121 156 191 228 275
#     4   8  14  25  39  56  84 120 150 178 219 268
#     4   9  19  35  51  67  90 121 156 191 228 275
#     4   9  18  31  47  70  97 122 152 191 232 274
#
# _framework density 16.841373000000001
#
# number of rings (size 3 to 8) (size 9 to 14) (size 15 to 20)
#    0.000    3.286    0.000    3.000    0.000    5.143 
#    0.000    7.143    0.000    0.000    0.000    1.000 
#    0.000    8.000    0.000    0.000    0.000    0.000 
#
# Total GULP energy -347077.267536 kJ/mol
# GULP energy per Si atom -12395.616698 kJ/mol
# Density = 1.680304 g / cm^3
# Si number density = 16.841373 Si / 1000 Ang^3
#
#
#
# Elastic Constant Matrix: (Units=GPa)
#
#
# Indices 1 2 3 4 5 6 
#
# 1 85.8690 69.0340 70.0696 0.0000 -28.6587 0.0000
# 2 69.0340 97.8701 50.4156 0.0000 -16.8731 0.0000
# 3 70.0696 50.4156 46.1161 0.0000 -7.3779 0.0000
# 4 0.0000 0.0000 0.0000 21.9336 0.0000 3.4417
# 5 -28.6587 -16.8731 -7.3779 0.0000 11.3165 0.0000
# 6 0.0000 0.0000 0.0000 3.4417 0.0000 18.1080
#
#
#
# Elastic Compliance Matrix: (Units=1/GPa)
#
#
# Indices 1 2 3 4 5 6 
#
# 1 -0.015302 -0.009909 0.028491 0.000000 -0.034951 0.000000
# 2 -0.009909 0.022073 -0.008736 0.000000 0.002122 0.000000
# 3 0.028491 -0.008736 -0.002898 0.000000 0.057238 0.000000
# 4 0.000000 0.000000 0.000000 0.046994 0.000000 -0.008932
# 5 -0.034951 0.002122 0.057238 0.000000 0.040335 0.000000
# 6 0.000000 0.000000 0.000000 -0.008932 0.000000 0.056922
#
#
# Mechanical properties :
#
#
# Convention : Reuss Voigt Hill
#
# Bulk Modulus (GPa) = 42.43380 67.65483 55.04432
# Shear Modulus (GPa) = 36.68774 12.96069 24.82421
#
# Velocity S-wave (km/s) = 4.67243 2.77713 3.84344
# Velocity P-wave (km/s) = 7.37290 7.10931 7.24230
#
# Compressibility (1/GPa) = 0.02356612
#
# Stress axis : x y z
#
# Youngs Moduli (GPa) = -65.35075 45.30495 -345.07052
#
# Poissons Ratio (x) = 0.44891 9.83141
# Poissons Ratio (y) = -0.64754 -3.01440
# Poissons Ratio (z) = 1.86191 0.39577
#
# Static dielectric constant tensor:
#      x y z
#    x 3.168340 0.000000 -0.284430 
#    y 0.000000 3.232560 0.000000 
#    z -0.284430 0.000000 2.853650 
# 
# 
# High freq. dielectric constant tensor:
#      x y z
#    x 1.644280 0.000000 -0.028330 
#    y 0.000000 1.651620 0.000000 
#    z -0.028330 0.000000 1.612940 
# 
# From -- ./inp_files/79232.got.cif
#   From: 2010.06.25/outbox.cif.g09.slc.cpg/sg10_40_cif.got.tgz:79232.got - 2010.06.27 22:07:45.
