data_PCOD8067163
_publ_section_title
;
Structure prediction by ZEFSAII (Michael W. Deem and Ramdas Pophale) SiO2 
 PCOD8067163
Probable space group: P 2/M
;
_chemical_formula_sum "Si O2"
_cell_formula_units_Z 28
_cell_length_a 10.906901
_cell_length_b 9.340202
_cell_length_c 14.904972
_cell_angle_alpha 90.000000
_cell_angle_beta 69.919243
_cell_angle_gamma 90.000000
_cell_volume 1426.104453
_symmetry_space_group_name_H-M "P 2/M"
_symmetry_group_IT_number 10
_symmetry_cell_setting 'monoclinic'
loop_
_space_group_symop_operation_xyz
x,y,z
-x,y,-z
-x,-y,-z
x,-y,z
loop_
_atom_site_type_symbol
_atom_site_label
_atom_site_fract_x
_atom_site_fract_y
_atom_site_fract_z
Si Si1 0.314171 0.169973 0.763292
Si Si2 0.102507 0.163107 0.244809
Si Si3 0.644911 0.663622 0.425638
Si Si4 0.397426 0.658939 0.902671
Si Si5 0.072759 0.333708 0.574384
Si Si6 0.043414 0.837265 0.896864
Si Si7 0.308818 0.341772 0.112545
O O1 0.351524 0.230703 0.658145
O O2 0.404646 0.228335 0.819799
O O3 0.172269 0.233708 0.823459
O O4 0.323292 0.000000 0.754426
O O5 0.241160 0.242695 0.205898
O O6 0.993942 0.240407 0.331542
O O7 0.067948 0.171432 0.148793
O O8 0.116307 0.000000 0.275386
O O9 0.500000 0.690398 0.500000
O O10 0.657695 0.500000 0.390248
O O11 0.768810 0.696223 0.462709
O O12 0.351178 0.500000 0.882877
O O13 0.542917 0.646768 0.899072
O O14 0.305412 0.712881 0.008985
O O15 0.045197 0.500000 0.600229
O O16 0.000000 0.288880 0.500000
O O17 0.081059 0.000000 0.911095
O O18 0.000000 0.758784 0.000000
O O19 0.244027 0.500000 0.133586
#
# Coordination Sequence:
#
# PCOD8067163 Si02
#       7
#     4   4   4   4   4   4   4
#     4  11  21  35  57  85 118 152 190 239 296 354
#     4  11  21  35  57  85 118 152 190 239 296 354
#     4  10  22  41  63  85 113 153 202 253 306 365
#     4   9  19  36  56  80 115 158 200 241 286 343
#     4  10  22  41  63  85 113 153 202 253 306 365
#     4   9  18  32  51  79 117 155 185 221 280 345
#     4   9  19  36  56  80 115 158 200 241 286 343
#
# _framework density 19.633904999999999
#
# number of rings (size 3 to 8) (size 9 to 14) (size 15 to 20)
#    0.000    2.143    1.429    2.571    0.000    4.000 
#    0.000    4.286    0.000    3.429    0.000    0.000 
#    0.000    0.000    0.000    0.000    0.000    0.000 
#
# Total GULP energy -346874.985861 kJ/mol
# GULP energy per Si atom -12388.392352 kJ/mol
# Density = 1.958922 g / cm^3
# Si number density = 19.633905 Si / 1000 Ang^3
#
#
#
# Elastic Constant Matrix: (Units=GPa)
#
#
# Indices 1 2 3 4 5 6 
#
# 1 85.1797 38.1492 49.8725 0.0000 -5.6042 0.0000
# 2 38.1492 90.1782 59.9551 0.0000 -3.8091 0.0000
# 3 49.8725 59.9551 111.1090 0.0000 -7.9040 0.0000
# 4 0.0000 0.0000 0.0000 24.3533 0.0000 1.9050
# 5 -5.6042 -3.8091 -7.9040 0.0000 34.1130 0.0000
# 6 0.0000 0.0000 0.0000 1.9050 0.0000 21.5483
#
#
#
# Elastic Compliance Matrix: (Units=1/GPa)
#
#
# Indices 1 2 3 4 5 6 
#
# 1 0.016536 -0.003222 -0.005609 0.000000 0.001057 0.000000
# 2 -0.003222 0.017923 -0.008256 0.000000 -0.000441 0.000000
# 3 -0.005609 -0.008256 0.016107 0.000000 0.001889 0.000000
# 4 0.000000 0.000000 0.000000 0.041348 0.000000 -0.003655
# 5 0.001057 -0.000441 0.001889 0.000000 0.029876 0.000000
# 6 0.000000 0.000000 0.000000 -0.003655 0.000000 0.046731
#
#
# Mechanical properties :
#
#
# Convention : Reuss Voigt Hill
#
# Bulk Modulus (GPa) = 61.00440 64.71339 62.85890
# Shear Modulus (GPa) = 24.02000 25.23560 24.62780
#
# Velocity S-wave (km/s) = 3.50150 3.58901 3.54552
# Velocity P-wave (km/s) = 6.89099 7.08563 6.98899
#
# Compressibility (1/GPa) = 0.01639226
#
# Stress axis : x y z
#
# Youngs Moduli (GPa) = 60.47291 55.79470 62.08367
#
# Poissons Ratio (x) = 0.17977 0.34821
# Poissons Ratio (y) = 0.19484 0.51259
# Poissons Ratio (z) = 0.33918 0.46067
#
# Static dielectric constant tensor:
#      x y z
#    x 3.646330 0.000000 -0.068540 
#    y 0.000000 3.563490 0.000000 
#    z -0.068540 0.000000 3.602080 
# 
# 
# High freq. dielectric constant tensor:
#      x y z
#    x 1.764540 0.000000 -0.005950 
#    y 0.000000 1.753530 0.000000 
#    z -0.005950 0.000000 1.763140 
# 
# From -- ./inp_files/63631.got.cif
#   From: 2010.06.25/outbox.cif.g09.slc.cpg/sg10_32_cif.got.tgz:63631.got - 2010.06.27 22:07:45.
