data_PCOD8067742
_publ_section_title
;
Structure prediction by ZEFSAII (Michael W. Deem and Ramdas Pophale) SiO2 
 PCOD8067742
Probable space group: P 2/M
;
_chemical_formula_sum "Si O2"
_cell_formula_units_Z 24
_cell_length_a 15.529691
_cell_length_b 13.639494
_cell_length_c 9.155113
_cell_angle_alpha 90.000000
_cell_angle_beta 38.240192
_cell_angle_gamma 90.000000
_cell_volume 1200.292304
_symmetry_space_group_name_H-M "P 2/M"
_symmetry_group_IT_number 10
_symmetry_cell_setting 'monoclinic'
loop_
_space_group_symop_operation_xyz
x,y,z
-x,y,-z
-x,-y,-z
x,-y,z
loop_
_atom_site_type_symbol
_atom_site_label
_atom_site_fract_x
_atom_site_fract_y
_atom_site_fract_z
Si Si1 0.921356 0.500000 0.953144
Si Si2 0.382216 0.500000 0.540096
Si Si3 0.103119 0.805407 0.724630
Si Si4 0.938224 0.682676 0.732509
Si Si5 0.790414 0.000000 0.890912
Si Si6 0.894329 0.000000 0.426991
Si Si7 0.666743 0.209890 0.129490
Si Si8 0.624793 0.281510 0.515959
O O1 0.962204 0.597098 0.815149
O O2 0.758454 0.500000 0.183886
O O3 0.000000 0.500000 0.000000
O O4 0.500000 0.500000 0.500000
O O5 0.393649 0.398738 0.435318
O O6 0.150207 0.913622 0.621788
O O7 0.244404 0.745120 0.558764
O O8 0.023910 0.773007 0.683418
O O9 0.000000 0.798452 0.000000
O O10 0.000000 0.644448 0.500000
O O11 0.782162 0.718654 0.906328
O O12 0.805363 0.000000 0.695230
O O13 0.941204 0.000000 0.762935
O O14 0.706346 0.904348 0.058438
O O15 0.657608 0.244039 0.309472
O O16 0.519843 0.229750 0.243263
#
# Coordination Sequence:
#
# PCOD8067742 Si02
#       8
#     2   2   4   4   2   2   4   4
#     4  12  23  39  66  95 126 166 219 283 320 379
#     4  12  18  39  66  93 126 167 213 256 324 391
#     4  12  22  40  64  97 129 170 224 272 319 378
#     4  12  23  40  62  94 133 171 215 265 334 395
#     4  11  22  42  63  91 126 177 221 258 336 395
#     4  11  23  39  67  90 125 178 220 267 322 397
#     4  11  22  40  63  94 129 172 212 270 323 388
#     4  11  23  38  65 100 129 168 219 272 325 380
#
# _framework density 19.995128999999999
#
# number of rings (size 3 to 8) (size 9 to 14) (size 15 to 20)
#    0.000    0.500    6.667    3.000    0.000    2.667 
#    0.000    4.167    0.000    0.000    0.000   10.500 
#    0.000    0.000    0.000    0.000    0.000    0.000 
#
# Total GULP energy -297535.511219 kJ/mol
# GULP energy per Si atom -12397.312967 kJ/mol
# Density = 1.994962 g / cm^3
# Si number density = 19.995129 Si / 1000 Ang^3
#
#
#
# Elastic Constant Matrix: (Units=GPa)
#
#
# Indices 1 2 3 4 5 6 
#
# 1 94.1055 35.0110 53.1643 0.0000 -15.8585 0.0000
# 2 35.0110 163.2265 46.6698 0.0000 -8.2469 0.0000
# 3 53.1643 46.6698 102.1122 0.0000 -16.8206 0.0000
# 4 0.0000 0.0000 0.0000 21.4270 0.0000 -2.8893
# 5 -15.8585 -8.2469 -16.8206 0.0000 31.4311 0.0000
# 6 0.0000 0.0000 0.0000 -2.8893 0.0000 37.5062
#
#
#
# Elastic Compliance Matrix: (Units=1/GPa)
#
#
# Indices 1 2 3 4 5 6 
#
# 1 0.015655 -0.001167 -0.006982 0.000000 0.003856 0.000000
# 2 -0.001167 0.007135 -0.002678 0.000000 -0.000150 0.000000
# 3 -0.006982 -0.002678 0.015306 0.000000 0.003965 0.000000
# 4 0.000000 0.000000 0.000000 0.047160 0.000000 0.003633
# 5 0.003856 -0.000150 0.003965 0.000000 0.035844 0.000000
# 6 0.000000 0.000000 0.000000 0.003633 0.000000 0.026942
#
#
# Mechanical properties :
#
#
# Convention : Reuss Voigt Hill
#
# Bulk Modulus (GPa) = 60.82309 69.90383 65.36346
# Shear Modulus (GPa) = 28.54272 33.04612 30.79442
#
# Velocity S-wave (km/s) = 3.78230 4.06976 3.92866
# Velocity P-wave (km/s) = 7.03985 7.55780 7.30341
#
# Compressibility (1/GPa) = 0.01644113
#
# Stress axis : x y z
#
# Youngs Moduli (GPa) = 63.87827 140.15642 65.33518
#
# Poissons Ratio (x) = 0.16352 0.45618
# Poissons Ratio (y) = 0.07453 0.17498
# Poissons Ratio (z) = 0.44601 0.37537
#
# Static dielectric constant tensor:
#      x y z
#    x 3.573030 0.000000 -0.282070 
#    y 0.000000 4.286860 0.000000 
#    z -0.282070 0.000000 3.784180 
# 
# 
# High freq. dielectric constant tensor:
#      x y z
#    x 1.772320 0.000000 -0.019770 
#    y 0.000000 1.801520 0.000000 
#    z -0.019770 0.000000 1.772490 
# 
# From -- ./inp_files/29374.got.cif
#   From: 2010.06.25/outbox.cif.g09.slc.cpg/sg10_15_cif.got.tgz:29374.got - 2010.06.27 22:07:45.
