data_PCOD8067115
_publ_section_title
;
Structure prediction by ZEFSAII (Michael W. Deem and Ramdas Pophale) SiO2 
 PCOD8067115
Probable space group: P 2/M
;
_chemical_formula_sum "Si O2"
_cell_formula_units_Z 24
_cell_length_a 13.337804
_cell_length_b 8.706297
_cell_length_c 9.912270
_cell_angle_alpha 90.000000
_cell_angle_beta 117.318568
_cell_angle_gamma 90.000000
_cell_volume 1022.664056
_symmetry_space_group_name_H-M "P 2/M"
_symmetry_group_IT_number 10
_symmetry_cell_setting 'monoclinic'
loop_
_space_group_symop_operation_xyz
x,y,z
-x,y,-z
-x,-y,-z
x,-y,z
loop_
_atom_site_type_symbol
_atom_site_label
_atom_site_fract_x
_atom_site_fract_y
_atom_site_fract_z
Si Si1 0.246571 0.325296 0.947458
Si Si2 0.797656 0.324071 0.792591
Si Si3 0.399442 0.319882 0.526793
Si Si4 0.110460 0.671134 0.483532
Si Si5 0.680934 0.178817 0.262396
Si Si6 0.005232 0.180358 0.834080
O O1 0.249617 0.500000 0.898892
O O2 0.332140 0.232694 0.902163
O O3 0.116391 0.273197 0.866266
O O4 0.284884 0.306579 0.127530
O O5 0.838843 0.500000 0.806586
O O6 0.721679 0.276543 0.615673
O O7 0.914034 0.222269 0.900013
O O8 0.500000 0.245808 0.500000
O O9 0.418060 0.500000 0.545606
O O10 0.403985 0.255732 0.682457
O O11 0.162032 0.500000 0.485410
O O12 0.192177 0.774013 0.624258
O O13 0.087830 0.761737 0.332160
O O14 0.000000 0.649736 0.500000
O O15 0.660487 0.000000 0.256479
O O16 0.029644 0.000000 0.843778
#
# Coordination Sequence:
#
# PCOD8067115 Si02
#       6
#     4   4   4   4   4   4
#     4  11  23  39  59  86 123 168 205 241 289 354
#     4  10  22  40  62  87 120 161 205 248 296 353
#     4  10  22  43  70  93 114 149 199 254 306 361
#     4  11  21  34  56  83 118 162 203 245 287 346
#     4  12  24  38  60  90 121 156 196 249 306 355
#     4  12  23  34  55  88 125 164 201 243 293 351
#
# _framework density 23.468115000000001
#
# number of rings (size 3 to 8) (size 9 to 14) (size 15 to 20)
#    0.000    1.000    3.333    4.500    0.000    4.333 
#    0.000    0.833    0.000    5.000    0.000    0.000 
#    0.000    0.000    0.000    0.000    0.000    0.000 
#
# Total GULP energy -297422.049140 kJ/mol
# GULP energy per Si atom -12392.585381 kJ/mol
# Density = 2.341470 g / cm^3
# Si number density = 23.468115 Si / 1000 Ang^3
#
#
#
# Elastic Constant Matrix: (Units=GPa)
#
#
# Indices 1 2 3 4 5 6 
#
# 1 108.3028 28.2995 12.0799 0.0000 -39.7401 0.0000
# 2 28.2995 97.0015 12.0657 0.0000 -8.0395 0.0000
# 3 12.0799 12.0657 33.2716 0.0000 -29.3267 0.0000
# 4 0.0000 0.0000 0.0000 22.0537 0.0000 -7.1155
# 5 -39.7401 -8.0395 -29.3267 0.0000 39.9881 0.0000
# 6 0.0000 0.0000 0.0000 -7.1155 0.0000 19.8952
#
#
#
# Elastic Compliance Matrix: (Units=1/GPa)
#
#
# Indices 1 2 3 4 5 6 
#
# 1 0.028765 -0.009134 0.046517 0.000000 0.060865 0.000000
# 2 -0.009134 0.013752 -0.020462 0.000000 -0.021318 0.000000
# 3 0.046517 -0.020462 0.163215 0.000000 0.161814 0.000000
# 4 0.000000 0.000000 0.000000 0.051259 0.000000 0.018333
# 5 0.060865 -0.021318 0.161814 0.000000 0.199881 0.000000
# 6 0.000000 0.000000 0.000000 0.018333 0.000000 0.056820
#
#
# Mechanical properties :
#
#
# Convention : Reuss Voigt Hill
#
# Bulk Modulus (GPa) = 4.17404 38.16290 21.16847
# Shear Modulus (GPa) = 8.93324 28.79612 18.86468
#
# Velocity S-wave (km/s) = 1.95315 3.50670 2.83829
# Velocity P-wave (km/s) = 2.62085 5.71777 4.44757
#
# Compressibility (1/GPa) = 0.23957620
#
# Stress axis : x y z
#
# Youngs Moduli (GPa) = 34.76422 72.71632 6.12689
#
# Poissons Ratio (x) = 0.66416 -0.28501
# Poissons Ratio (y) = 0.31752 0.12537
# Poissons Ratio (z) = -1.61713 1.48789
#
# Static dielectric constant tensor:
#      x y z
#    x 4.511240 0.000000 -0.818360 
#    y 0.000000 3.939150 0.000000 
#    z -0.818360 0.000000 4.955960 
# 
# 
# High freq. dielectric constant tensor:
#      x y z
#    x 1.935600 0.000000 -0.040530 
#    y 0.000000 1.904130 0.000000 
#    z -0.040530 0.000000 1.942110 
# 
# From -- ./inp_files/48876.got.cif
#   From: 2010.06.25/outbox.cif.g09.slc.cpg/sg10_25_cif.got.tgz:48876.got - 2010.06.27 22:07:45.
