data_PCOD8067524
_publ_section_title
;
Structure prediction by ZEFSAII (Michael W. Deem and Ramdas Pophale) SiO2 
 PCOD8067524
Probable space group: P 2/M
;
_chemical_formula_sum "Si O2"
_cell_formula_units_Z 28
_cell_length_a 19.191983
_cell_length_b 8.562160
_cell_length_c 15.196458
_cell_angle_alpha 90.000000
_cell_angle_beta 142.424919
_cell_angle_gamma 90.000000
_cell_volume 1522.766652
_symmetry_space_group_name_H-M "P 2/M"
_symmetry_group_IT_number 10
_symmetry_cell_setting 'monoclinic'
loop_
_space_group_symop_operation_xyz
x,y,z
-x,y,-z
-x,-y,-z
x,-y,z
loop_
_atom_site_type_symbol
_atom_site_label
_atom_site_fract_x
_atom_site_fract_y
_atom_site_fract_z
Si Si1 0.679690 0.681981 0.842935
Si Si2 0.078021 0.327185 0.209192
Si Si3 0.765446 0.670417 0.464101
Si Si4 0.728983 0.182918 0.704380
Si Si5 0.107103 0.818082 0.861973
Si Si6 0.971120 0.313319 0.567731
Si Si7 0.580698 0.313818 0.401860
O O1 0.702377 0.500000 0.880560
O O2 0.700993 0.722213 0.763460
O O3 0.551104 0.728646 0.740616
O O4 0.760613 0.778813 0.989365
O O5 0.048092 0.500000 0.142942
O O6 0.157648 0.343679 0.372774
O O7 0.143905 0.229285 0.200512
O O8 0.961796 0.241158 0.121219
O O9 0.734655 0.500000 0.395477
O O10 0.646918 0.748921 0.379126
O O11 0.845544 0.756613 0.471388
O O12 0.631265 0.226011 0.536689
O O13 0.725942 0.000000 0.721480
O O14 0.068835 0.737787 0.733022
O O15 0.087315 0.000000 0.831514
O O16 0.965040 0.500000 0.563264
O O17 0.000000 0.248336 0.500000
O O18 0.600976 0.500000 0.433869
#
# Coordination Sequence:
#
# PCOD8067524 Si02
#       7
#     4   4   4   4   4   4   4
#     4  11  22  35  50  68  96 138 182 216 251 299
#     4   9  17  33  53  71  97 133 171 208 248 300
#     4   7  12  26  49  75  98 121 157 205 246 282
#     4  11  21  32  49  75 103 131 170 218 263 299
#     4  11  22  35  51  75 105 132 163 207 264 314
#     4   9  17  32  57  84 106 130 161 198 246 310
#     4   9  18  33  52  71  96 136 181 217 249 293
#
# _framework density 18.387584
#
# number of rings (size 3 to 8) (size 9 to 14) (size 15 to 20)
#    0.000    2.429    0.000    5.571    0.000    3.714 
#    0.000    2.857    0.000    0.857    0.000    6.000 
#    0.000    0.000    0.000    0.000    0.000    0.000 
#
# Total GULP energy -346992.315796 kJ/mol
# GULP energy per Si atom -12392.582707 kJ/mol
# Density = 1.834573 g / cm^3
# Si number density = 18.387584 Si / 1000 Ang^3
#
#
#
# Elastic Constant Matrix: (Units=GPa)
#
#
# Indices 1 2 3 4 5 6 
#
# 1 142.3918 8.9057 60.4329 0.0000 6.6271 0.0000
# 2 8.9057 39.8251 6.9282 0.0000 0.3696 0.0000
# 3 60.4329 6.9282 74.1204 0.0000 14.0730 0.0000
# 4 0.0000 0.0000 0.0000 16.3998 0.0000 3.6525
# 5 6.6271 0.3696 14.0730 0.0000 12.6632 0.0000
# 6 0.0000 0.0000 0.0000 3.6525 0.0000 12.8673
#
#
#
# Elastic Compliance Matrix: (Units=1/GPa)
#
#
# Indices 1 2 3 4 5 6 
#
# 1 0.011042 -0.000790 -0.009932 0.000000 0.005282 0.000000
# 2 -0.000790 0.025640 -0.002140 0.000000 0.002044 0.000000
# 3 -0.009932 -0.002140 0.026351 0.000000 -0.024024 0.000000
# 4 0.000000 0.000000 0.000000 0.065092 0.000000 -0.018477
# 5 0.005282 0.002044 -0.024024 0.000000 0.102845 0.000000
# 6 0.000000 0.000000 0.000000 -0.018477 0.000000 0.082961
#
#
# Mechanical properties :
#
#
# Convention : Reuss Voigt Hill
#
# Bulk Modulus (GPa) = 26.80413 45.43010 36.11712
# Shear Modulus (GPa) = 14.20092 20.39074 17.29583
#
# Velocity S-wave (km/s) = 2.78206 3.33369 3.07029
# Velocity P-wave (km/s) = 4.99287 6.29115 5.67923
#
# Compressibility (1/GPa) = 0.03730768
#
# Stress axis : x y z
#
# Youngs Moduli (GPa) = 90.56686 39.00172 37.94977
#
# Poissons Ratio (x) = 0.03083 0.37690
# Poissons Ratio (y) = 0.07158 0.08122
# Poissons Ratio (z) = 0.89947 0.08347
#
# Static dielectric constant tensor:
#      x y z
#    x 3.953890 0.000000 0.322710 
#    y 0.000000 3.239350 0.000000 
#    z 0.322710 0.000000 3.165930 
# 
# 
# High freq. dielectric constant tensor:
#      x y z
#    x 1.717270 0.000000 0.022650 
#    y 0.000000 1.699000 0.000000 
#    z 0.022650 0.000000 1.683510 
# 
# From -- ./inp_files/54686.got.cif
#   From: 2010.06.25/outbox.cif.g09.slc.cpg/sg10_28_cif.got.tgz:54686.got - 2010.06.27 22:07:45.
