data_PCOD8067707
_publ_section_title
;
Structure prediction by ZEFSAII (Michael W. Deem and Ramdas Pophale) SiO2 
 PCOD8067707
Probable space group: P 2/M
;
_chemical_formula_sum "Si O2"
_cell_formula_units_Z 28
_cell_length_a 26.245522
_cell_length_b 8.498781
_cell_length_c 22.681021
_cell_angle_alpha 90.000000
_cell_angle_beta 16.103616
_cell_angle_gamma 90.000000
_cell_volume 1403.273168
_symmetry_space_group_name_H-M "P 2/M"
_symmetry_group_IT_number 10
_symmetry_cell_setting 'monoclinic'
loop_
_space_group_symop_operation_xyz
x,y,z
-x,y,-z
-x,-y,-z
x,-y,z
loop_
_atom_site_type_symbol
_atom_site_label
_atom_site_fract_x
_atom_site_fract_y
_atom_site_fract_z
Si Si1 0.259340 0.687203 0.170366
Si Si2 0.202706 0.317855 0.793936
Si Si3 0.189529 0.683609 0.605805
Si Si4 0.809186 0.818703 0.067005
Si Si5 0.351381 0.687644 0.302981
Si Si6 0.126328 0.687163 0.443127
Si Si7 0.426143 0.820271 0.444201
O O1 0.265158 0.500000 0.163629
O O2 0.239939 0.745779 0.259561
O O3 0.084379 0.746714 0.326983
O O4 0.444574 0.755920 0.935544
O O5 0.238656 0.500000 0.740195
O O6 0.227567 0.287998 0.835296
O O7 0.346758 0.214988 0.597228
O O8 0.000000 0.266087 0.000000
O O9 0.143279 0.500000 0.653418
O O10 0.281668 0.748056 0.443583
O O11 0.330974 0.709679 0.501875
O O12 0.000510 0.775878 0.824038
O O13 0.644961 0.787915 0.202912
O O14 0.812457 0.000000 0.083275
O O15 0.354607 0.500000 0.297892
O O16 0.217450 0.755447 0.401074
O O17 0.130232 0.500000 0.440220
O O18 0.383852 0.000000 0.474453
#
# Coordination Sequence:
#
# PCOD8067707 Si02
#       7
#     4   4   4   4   4   4   4
#     4   8  13  22  38  61  91 130 173 213 257 314
#     4  11  22  37  62  93 118 139 170 221 283 333
#     4  11  23  37  54  80 112 149 187 228 277 325
#     4  11  24  41  61  83 109 146 188 227 271 324
#     4   9  17  27  41  64  98 137 176 214 261 318
#     4   8  13  22  38  61  91 130 173 213 257 314
#     4  11  24  41  61  83 109 146 188 227 271 324
#
# _framework density 19.95335
#
# number of rings (size 3 to 8) (size 9 to 14) (size 15 to 20)
#    0.000    2.143    1.429    3.429    0.000    7.429 
#    0.000    2.857    0.000    0.000    0.000    0.000 
#    0.000    9.143    0.000   25.143    0.000   20.571 
#
# Total GULP energy -347207.652971 kJ/mol
# GULP energy per Si atom -12400.273320 kJ/mol
# Density = 1.990794 g / cm^3
# Si number density = 19.953350 Si / 1000 Ang^3
#
#
#
# Elastic Constant Matrix: (Units=GPa)
#
#
# Indices 1 2 3 4 5 6 
#
# 1 100.7003 10.3998 91.8049 0.0000 5.9006 0.0000
# 2 10.3998 27.2669 13.2746 0.0000 -7.7547 0.0000
# 3 91.8049 13.2746 145.5364 0.0000 -6.1259 0.0000
# 4 0.0000 0.0000 0.0000 18.0243 0.0000 -5.5297
# 5 5.9006 -7.7547 -6.1259 0.0000 33.7903 0.0000
# 6 0.0000 0.0000 0.0000 -5.5297 0.0000 1.7902
#
#
#
# Elastic Compliance Matrix: (Units=1/GPa)
#
#
# Indices 1 2 3 4 5 6 
#
# 1 0.025476 -0.004284 -0.016030 0.000000 -0.008338 0.000000
# 2 -0.004284 0.041517 -0.000657 0.000000 0.010157 0.000000
# 3 -0.016030 -0.000657 0.017287 0.000000 0.005782 0.000000
# 4 0.000000 0.000000 0.000000 1.060135 0.000000 3.274691
# 5 -0.008338 0.010157 0.005782 0.000000 0.034430 0.000000
# 6 0.000000 0.000000 0.000000 3.274691 0.000000 10.673918
#
#
# Mechanical properties :
#
#
# Convention : Reuss Voigt Hill
#
# Bulk Modulus (GPa) = 23.62020 56.05135 39.83578
# Shear Modulus (GPa) = 0.41986 21.25591 10.83788
#
# Velocity S-wave (km/s) = 0.45921 3.26740 2.33311
# Velocity P-wave (km/s) = 3.48491 6.51051 5.22165
#
# Compressibility (1/GPa) = 0.04233664
#
# Stress axis : x y z
#
# Youngs Moduli (GPa) = 39.25286 24.08659 57.84841
#
# Poissons Ratio (x) = 0.10318 0.92734
# Poissons Ratio (y) = 0.16815 0.03802
# Poissons Ratio (z) = 0.62924 0.01583
#
# Static dielectric constant tensor:
#      x y z
#    x 3.716460 0.000000 -0.099880 
#    y 0.000000 3.166040 0.000000 
#    z -0.099880 0.000000 3.924990 
# 
# 
# High freq. dielectric constant tensor:
#      x y z
#    x 1.777630 0.000000 -0.010110 
#    y 0.000000 1.736180 0.000000 
#    z -0.010110 0.000000 1.789720 
# 
# From -- ./inp_files/86471.got.cif
#   From: 2010.06.25/outbox.cif.g09.slc.cpg/sg10_44_cif.got.tgz:86471.got - 2010.06.27 22:07:45.
