data_PCOD8067382
_publ_section_title
;
Structure prediction by ZEFSAII (Michael W. Deem and Ramdas Pophale) SiO2 
 PCOD8067382
Probable space group: P 2/M
;
_chemical_formula_sum "Si O2"
_cell_formula_units_Z 32
_cell_length_a 12.438577
_cell_length_b 9.047626
_cell_length_c 20.251415
_cell_angle_alpha 90.000000
_cell_angle_beta 65.805140
_cell_angle_gamma 90.000000
_cell_volume 2078.883986
_symmetry_space_group_name_H-M "P 2/M"
_symmetry_group_IT_number 10
_symmetry_cell_setting 'monoclinic'
loop_
_space_group_symop_operation_xyz
x,y,z
-x,y,-z
-x,-y,-z
x,-y,z
loop_
_atom_site_type_symbol
_atom_site_label
_atom_site_fract_x
_atom_site_fract_y
_atom_site_fract_z
Si Si1 0.405721 0.666066 0.382449
Si Si2 0.130466 0.325161 0.962173
Si Si3 0.320124 0.663533 0.652754
Si Si4 0.705310 0.673677 0.197254
Si Si5 0.362175 0.165580 0.518791
Si Si6 0.458475 0.824342 0.240141
Si Si7 0.427040 0.674779 0.117361
Si Si8 0.671082 0.325375 0.993438
O O1 0.358464 0.500000 0.383090
O O2 0.541982 0.663817 0.366686
O O3 0.333350 0.739117 0.460959
O O4 0.387500 0.761632 0.320974
O O5 0.121786 0.500000 0.972318
O O6 0.186427 0.283812 0.877298
O O7 0.212110 0.259868 0.000731
O O8 0.000000 0.254293 0.000000
O O9 0.279376 0.500000 0.641646
O O10 0.255893 0.712278 0.737130
O O11 0.289919 0.771989 0.599940
O O12 0.671762 0.500000 0.200019
O O13 0.592107 0.766664 0.204381
O O14 0.500000 0.170293 0.500000
O O15 0.318507 0.000000 0.516915
O O16 0.391980 0.765382 0.191529
O O17 0.457119 0.000000 0.243510
O O18 0.424649 0.500000 0.132796
O O19 0.334376 0.717938 0.082595
O O20 0.555733 0.729743 0.061422
O O21 0.670546 0.500000 0.999945
#
# Coordination Sequence:
#
# PCOD8067382 Si02
#       8
#     4   4   4   4   4   4   4   4
#     4   9  16  25  36  49  70 100 130 158 190 234
#     4   9  15  24  42  65  82  97 128 174 211 236
#     4   8  14  22  33  47  65  95 130 160 188 226
#     4   9  16  27  40  54  75 102 133 164 199 242
#     4   9  15  22  32  48  70  95 125 161 194 225
#     4  11  19  25  36  56  78 101 130 167 202 231
#     4   9  15  26  42  56  75 103 133 163 196 240
#     4   8  14  24  41  60  76  99 131 164 200 241
#
# _framework density 15.392873
#
# number of rings (size 3 to 8) (size 9 to 14) (size 15 to 20)
#    0.000    3.000    1.250    3.375    0.000    4.500 
#    0.000    1.250    0.000    0.375    0.000    0.000 
#    0.000    0.000    0.000    1.125    0.000   26.625 
#
# Total GULP energy -396561.434347 kJ/mol
# GULP energy per Si atom -12392.544823 kJ/mol
# Density = 1.535784 g / cm^3
# Si number density = 15.392873 Si / 1000 Ang^3
#
#
#
# Elastic Constant Matrix: (Units=GPa)
#
#
# Indices 1 2 3 4 5 6 
#
# 1 61.2316 20.3365 48.6476 0.0000 11.1500 0.0000
# 2 20.3365 83.7287 52.0008 0.0000 16.6803 0.0000
# 3 48.6476 52.0008 127.7588 0.0000 31.8797 0.0000
# 4 0.0000 0.0000 0.0000 11.0739 0.0000 3.8768
# 5 11.1500 16.6803 31.8797 0.0000 19.6237 0.0000
# 6 0.0000 0.0000 0.0000 3.8768 0.0000 6.7765
#
#
#
# Elastic Compliance Matrix: (Units=1/GPa)
#
#
# Indices 1 2 3 4 5 6 
#
# 1 0.023467 -0.000325 -0.009326 0.000000 0.002092 0.000000
# 2 -0.000325 0.016295 -0.005211 0.000000 -0.005201 0.000000
# 3 -0.009326 -0.005211 0.018620 0.000000 -0.020521 0.000000
# 4 0.000000 0.000000 0.000000 0.112917 0.000000 -0.064599
# 5 0.002092 -0.005201 -0.020521 0.000000 0.087527 0.000000
# 6 0.000000 0.000000 0.000000 -0.064599 0.000000 0.184525
#
#
# Mechanical properties :
#
#
# Convention : Reuss Voigt Hill
#
# Bulk Modulus (GPa) = 34.89325 57.18766 46.04046
# Shear Modulus (GPa) = 10.35997 17.61044 13.98521
#
# Velocity S-wave (km/s) = 2.59711 3.38607 3.01749
# Velocity P-wave (km/s) = 5.63125 7.24707 6.48964
#
# Compressibility (1/GPa) = 0.02865884
#
# Stress axis : x y z
#
# Youngs Moduli (GPa) = 42.61213 61.37017 53.70653
#
# Poissons Ratio (x) = 0.01994 0.50085
# Poissons Ratio (y) = 0.01384 0.27986
# Poissons Ratio (z) = 0.39739 0.31979
#
# Static dielectric constant tensor:
#      x y z
#    x 2.733090 0.000000 0.322130 
#    y 0.000000 2.790480 0.000000 
#    z 0.322130 0.000000 3.188250 
# 
# 
# High freq. dielectric constant tensor:
#      x y z
#    x 1.524170 0.000000 0.039350 
#    y 0.000000 1.571180 0.000000 
#    z 0.039350 0.000000 1.594910 
# 
# From -- ./inp_files/83367.got.cif
#   From: 2010.06.25/outbox.cif.g09.slc.cpg/sg10_42_cif.got.tgz:83367.got - 2010.06.27 22:07:45.
