data_PCOD8067811
_publ_section_title
;
Structure prediction by ZEFSAII (Michael W. Deem and Ramdas Pophale) SiO2 
 PCOD8067811
Probable space group: P 2/M
;
_chemical_formula_sum "Si O2"
_cell_formula_units_Z 24
_cell_length_a 24.981015
_cell_length_b 7.663699
_cell_length_c 19.084433
_cell_angle_alpha 90.000000
_cell_angle_beta 160.910577
_cell_angle_gamma 90.000000
_cell_volume 1194.904618
_symmetry_space_group_name_H-M "P 2/M"
_symmetry_group_IT_number 10
_symmetry_cell_setting 'monoclinic'
loop_
_space_group_symop_operation_xyz
x,y,z
-x,y,-z
-x,-y,-z
x,-y,z
loop_
_atom_site_type_symbol
_atom_site_label
_atom_site_fract_x
_atom_site_fract_y
_atom_site_fract_z
Si Si1 0.597430 0.500000 0.012587
Si Si2 0.996139 0.801749 0.308808
Si Si3 0.169370 0.696477 0.184050
Si Si4 0.502604 0.197042 0.655372
Si Si5 0.213890 0.798471 0.085597
Si Si6 0.749074 0.500000 0.352420
Si Si7 0.676792 0.203245 0.004661
O O1 0.401535 0.500000 0.779465
O O2 0.655735 0.324297 0.045944
O O3 0.686614 0.500000 0.196577
O O4 0.146455 0.673765 0.506428
O O5 0.059958 0.000000 0.395256
O O6 0.929362 0.770403 0.147800
O O7 0.854972 0.765964 0.191193
O O8 0.181558 0.500000 0.227369
O O9 0.314702 0.799888 0.401338
O O10 0.175285 0.693396 0.107780
O O11 0.000000 0.783546 0.000000
O O12 0.617101 0.282498 0.737024
O O13 0.539516 0.270952 0.778594
O O14 0.569256 0.000000 0.742579
O O15 0.233601 0.000000 0.131813
O O16 0.653032 0.000000 0.996993
#
# Coordination Sequence:
#
# PCOD8067811 Si02
#       7
#     2   4   4   4   4   2   4
#     4  11  25  41  59  88 125 160 191 231 290 359
#     4   9  20  40  65  91 117 150 197 249 296 344
#     4  11  24  35  46  76 118 153 188 229 274 330
#     4   9  19  37  59  81 106 141 188 238 285 333
#     4   9  19  37  59  81 106 141 188 238 285 333
#     4  11  25  41  59  88 125 160 191 231 290 359
#     4   9  20  40  65  91 117 150 197 249 296 344
#
# _framework density 20.085286
#
# number of rings (size 3 to 8) (size 9 to 14) (size 15 to 20)
#    0.000    2.333    0.000    3.500    2.333    8.000 
#    0.000    6.667    0.000    0.000    0.000    0.000 
#    0.000    0.000    0.000    0.000    0.000    0.000 
#
# Total GULP energy -297548.880588 kJ/mol
# GULP energy per Si atom -12397.870024 kJ/mol
# Density = 2.003957 g / cm^3
# Si number density = 20.085286 Si / 1000 Ang^3
#
#
#
# Elastic Constant Matrix: (Units=GPa)
#
#
# Indices 1 2 3 4 5 6 
#
# 1 16.9327 10.2317 7.9584 0.0000 0.7827 0.0000
# 2 10.2317 81.5527 32.0812 0.0000 3.8131 0.0000
# 3 7.9584 32.0812 106.8055 0.0000 10.0270 0.0000
# 4 0.0000 0.0000 0.0000 32.7407 0.0000 -6.5929
# 5 0.7827 3.8131 10.0270 0.0000 23.1171 0.0000
# 6 0.0000 0.0000 0.0000 -6.5929 0.0000 35.2308
#
#
#
# Elastic Compliance Matrix: (Units=1/GPa)
#
#
# Indices 1 2 3 4 5 6 
#
# 1 0.064580 -0.007043 -0.002711 0.000000 0.000151 0.000000
# 2 -0.007043 0.014679 -0.003836 0.000000 -0.000519 0.000000
# 3 -0.002711 -0.003836 0.011101 0.000000 -0.004091 0.000000
# 4 0.000000 0.000000 0.000000 0.031739 0.000000 0.005939
# 5 0.000151 -0.000519 -0.004091 0.000000 0.045113 0.000000
# 6 0.000000 0.000000 0.000000 0.005939 0.000000 0.029496
#
#
# Mechanical properties :
#
#
# Convention : Reuss Voigt Hill
#
# Bulk Modulus (GPa) = 15.82749 33.98150 24.90450
# Shear Modulus (GPa) = 20.41265 28.55237 24.48251
#
# Velocity S-wave (km/s) = 3.19140 3.77444 3.49510
# Velocity P-wave (km/s) = 4.63436 5.99588 5.35854
#
# Compressibility (1/GPa) = 0.06318121
#
# Stress axis : x y z
#
# Youngs Moduli (GPa) = 15.48464 68.12579 90.08276
#
# Poissons Ratio (x) = 0.47981 0.24418
# Poissons Ratio (y) = 0.10906 0.34551
# Poissons Ratio (z) = 0.04197 0.26130
#
# Static dielectric constant tensor:
#      x y z
#    x 3.620330 0.000000 0.051320 
#    y 0.000000 3.514940 0.000000 
#    z 0.051320 0.000000 3.529570 
# 
# 
# High freq. dielectric constant tensor:
#      x y z
#    x 1.780470 0.000000 -0.002490 
#    y 0.000000 1.784190 0.000000 
#    z -0.002490 0.000000 1.779320 
# 
# From -- ./inp_files/80141.got.cif
#   From: 2010.06.25/outbox.cif.g09.slc.cpg/sg10_41_cif.got.tgz:80141.got - 2010.06.27 22:07:45.
