data_PCOD8067455
_publ_section_title
;
Structure prediction by ZEFSAII (Michael W. Deem and Ramdas Pophale) SiO2 
 PCOD8067455
Probable space group: P 2/M
;
_chemical_formula_sum "Si O2"
_cell_formula_units_Z 28
_cell_length_a 11.163312
_cell_length_b 13.601122
_cell_length_c 15.047540
_cell_angle_alpha 90.000000
_cell_angle_beta 40.973750
_cell_angle_gamma 90.000000
_cell_volume 1498.122152
_symmetry_space_group_name_H-M "P 2/M"
_symmetry_group_IT_number 10
_symmetry_cell_setting 'monoclinic'
loop_
_space_group_symop_operation_xyz
x,y,z
-x,y,-z
-x,-y,-z
x,-y,z
loop_
_atom_site_type_symbol
_atom_site_label
_atom_site_fract_x
_atom_site_fract_y
_atom_site_fract_z
Si Si1 0.917741 0.384908 0.952830
Si Si2 0.011341 0.300467 0.721848
Si Si3 0.532145 0.692829 0.210777
Si Si4 0.393437 0.384009 0.469715
Si Si5 0.199473 0.109970 0.178310
Si Si6 0.349228 0.614046 0.152281
Si Si7 0.517608 0.110183 0.136035
O O1 0.947621 0.500000 0.918414
O O2 0.705711 0.358508 0.068033
O O3 0.027545 0.324286 0.817184
O O4 0.000000 0.351136 0.000000
O O5 0.968882 0.185733 0.728138
O O6 0.852969 0.368113 0.770231
O O7 0.202681 0.326767 0.569527
O O8 0.515155 0.654141 0.320051
O O9 0.364165 0.661657 0.241710
O O10 0.544222 0.811985 0.201215
O O11 0.500000 0.357821 0.500000
O O12 0.359317 0.500000 0.480891
O O13 0.332785 0.134311 0.185651
O O14 0.119271 0.000000 0.233069
O O15 0.309976 0.119559 0.025240
O O16 0.386790 0.500000 0.140797
O O17 0.500000 0.660815 0.000000
O O18 0.508252 0.000000 0.181392
#
# Coordination Sequence:
#
# PCOD8067455 Si02
#       7
#     4   4   4   4   4   4   4
#     4  11  22  35  56  83 110 153 207 246 286 348
#     4  12  21  37  60  85 120 154 194 246 298 347
#     4  12  21  37  60  85 120 154 194 246 298 347
#     4  11  26  45  60  79 116 167 213 244 280 344
#     4   9  17  33  59  91 122 152 188 234 295 361
#     4  11  20  31  54  90 123 146 179 242 311 363
#     4   9  17  33  59  91 122 152 188 234 295 361
#
# _framework density 18.690065000000001
#
# number of rings (size 3 to 8) (size 9 to 14) (size 15 to 20)
#    0.000    1.286    4.286    4.286    0.000    2.857 
#    0.000    2.143    0.000    6.857    0.000    0.000 
#    0.000    0.000    0.000    0.000    0.000    0.000 
#
# Total GULP energy -347262.745840 kJ/mol
# GULP energy per Si atom -12402.240923 kJ/mol
# Density = 1.864753 g / cm^3
# Si number density = 18.690065 Si / 1000 Ang^3
#
#
#
# Elastic Constant Matrix: (Units=GPa)
#
#
# Indices 1 2 3 4 5 6 
#
# 1 62.1248 26.9030 8.1269 0.0000 7.0262 0.0000
# 2 26.9030 110.0854 18.8974 0.0000 3.1276 0.0000
# 3 8.1269 18.8974 50.1816 0.0000 2.2810 0.0000
# 4 0.0000 0.0000 0.0000 26.7538 0.0000 2.3137
# 5 7.0262 3.1276 2.2810 0.0000 32.1270 0.0000
# 6 0.0000 0.0000 0.0000 2.3137 0.0000 22.1178
#
#
#
# Elastic Compliance Matrix: (Units=1/GPa)
#
#
# Indices 1 2 3 4 5 6 
#
# 1 0.018480 -0.004201 -0.001250 0.000000 -0.003544 0.000000
# 2 -0.004201 0.010682 -0.003348 0.000000 0.000117 0.000000
# 3 -0.001250 -0.003348 0.021433 0.000000 -0.000923 0.000000
# 4 0.000000 0.000000 0.000000 0.037719 0.000000 -0.003946
# 5 -0.003544 0.000117 -0.000923 0.000000 0.031956 0.000000
# 6 0.000000 0.000000 0.000000 -0.003946 0.000000 0.045625
#
#
# Mechanical properties :
#
#
# Convention : Reuss Voigt Hill
#
# Bulk Modulus (GPa) = 30.30487 36.69404 33.49945
# Shear Modulus (GPa) = 25.70821 27.43069 26.56945
#
# Velocity S-wave (km/s) = 3.71280 3.83516 3.77448
# Velocity P-wave (km/s) = 5.88468 6.26792 6.07932
#
# Compressibility (1/GPa) = 0.03299800
#
# Stress axis : x y z
#
# Youngs Moduli (GPa) = 54.11209 93.61681 46.65799
#
# Poissons Ratio (x) = 0.39329 0.05831
# Poissons Ratio (y) = 0.22733 0.15619
# Poissons Ratio (z) = 0.06763 0.31338
#
# Static dielectric constant tensor:
#      x y z
#    x 3.376190 0.000000 0.057390 
#    y 0.000000 3.583050 0.000000 
#    z 0.057390 0.000000 3.218060 
# 
# 
# High freq. dielectric constant tensor:
#      x y z
#    x 1.718620 0.000000 0.002050 
#    y 0.000000 1.731820 0.000000 
#    z 0.002050 0.000000 1.697660 
# 
# From -- ./inp_files/35247.got.cif
#   From: 2010.06.25/outbox.cif.g09.slc.cpg/sg10_18_cif.got.tgz:35247.got - 2010.06.27 22:07:45.
