data_PCOD8067084
_publ_section_title
;
Structure prediction by ZEFSAII (Michael W. Deem and Ramdas Pophale) SiO2 
 PCOD8067084
Probable space group: P 2/M
;
_chemical_formula_sum "Si O2"
_cell_formula_units_Z 24
_cell_length_a 24.254612
_cell_length_b 8.902213
_cell_length_c 18.204972
_cell_angle_alpha 90.000000
_cell_angle_beta 18.409001
_cell_angle_gamma 90.000000
_cell_volume 1241.343113
_symmetry_space_group_name_H-M "P 2/M"
_symmetry_group_IT_number 10
_symmetry_cell_setting 'monoclinic'
loop_
_space_group_symop_operation_xyz
x,y,z
-x,y,-z
-x,-y,-z
x,-y,z
loop_
_atom_site_type_symbol
_atom_site_label
_atom_site_fract_x
_atom_site_fract_y
_atom_site_fract_z
Si Si1 0.021710 0.179692 0.152083
Si Si2 0.333818 0.820449 0.470002
Si Si3 0.187184 0.836131 0.800238
Si Si4 0.964585 0.326684 0.712324
Si Si5 0.695837 0.822465 0.945678
Si Si6 0.323311 0.672624 0.183725
O O1 0.082552 0.248158 0.151692
O O2 0.824868 0.233593 0.381630
O O3 0.030916 0.000000 0.144346
O O4 0.156338 0.242499 0.918726
O O5 0.309962 0.753915 0.583923
O O6 0.330128 0.000000 0.479357
O O7 0.514249 0.760241 0.208715
O O8 0.268628 0.000000 0.713051
O O9 0.000000 0.856534 0.000000
O O10 0.913665 0.500000 0.781943
O O11 0.855812 0.252521 0.784888
O O12 0.168251 0.303638 0.437670
O O13 0.708500 0.779232 0.844939
O O14 0.709407 0.000000 0.936728
O O15 0.333366 0.500000 0.144339
O O16 0.500000 0.723782 0.000000
#
# Coordination Sequence:
#
# PCOD8067084 Si02
#       6
#     4   4   4   4   4   4
#     4   9  16  30  55  81 102 129 170 216 254 293
#     4   8  15  29  51  80 107 130 164 211 259 301
#     4   7  11  23  47  77 104 129 161 206 256 299
#     4  11  23  37  52  72 104 141 170 203 252 307
#     4  11  22  35  54  79 106 135 168 209 252 296
#     4  10  22  40  59  77  99 131 169 207 253 308
#
# _framework density 19.333895999999999
#
# number of rings (size 3 to 8) (size 9 to 14) (size 15 to 20)
#    0.000    2.667    0.000    4.500    0.000    3.667 
#    0.000    1.667    0.000   11.500    0.000    0.000 
#    0.000    0.000    0.000    0.000    0.000    0.000 
#
# Total GULP energy -297435.609620 kJ/mol
# GULP energy per Si atom -12393.150401 kJ/mol
# Density = 1.928989 g / cm^3
# Si number density = 19.333896 Si / 1000 Ang^3
#
#
#
# Elastic Constant Matrix: (Units=GPa)
#
#
# Indices 1 2 3 4 5 6 
#
# 1 124.0709 32.3543 32.1559 0.0000 11.6098 0.0000
# 2 32.3543 46.8633 16.6808 0.0000 3.7757 0.0000
# 3 32.1559 16.6808 37.0728 0.0000 10.5918 0.0000
# 4 0.0000 0.0000 0.0000 8.5092 0.0000 -12.0518
# 5 11.6098 3.7757 10.5918 0.0000 34.8027 0.0000
# 6 0.0000 0.0000 0.0000 -12.0518 0.0000 9.9749
#
#
#
# Elastic Compliance Matrix: (Units=1/GPa)
#
#
# Indices 1 2 3 4 5 6 
#
# 1 0.011391 -0.005202 -0.007245 0.000000 -0.001031 0.000000
# 2 -0.005202 0.027804 -0.008359 0.000000 0.001263 0.000000
# 3 -0.007245 -0.008359 0.039504 0.000000 -0.008699 0.000000
# 4 0.000000 0.000000 0.000000 -0.165236 0.000000 -0.199639
# 5 -0.001031 0.001263 -0.008699 0.000000 0.031588 0.000000
# 6 0.000000 0.000000 0.000000 -0.199639 0.000000 -0.140955
#
#
# Mechanical properties :
#
#
# Convention : Reuss Voigt Hill
#
# Bulk Modulus (GPa) = 26.96355 41.15433 34.05894
# Shear Modulus (GPa) = -35.22847 19.11176 -8.05835
#
# Velocity S-wave (km/s) = -4.27325 3.14747 -2.04378
# Velocity P-wave (km/s) = 3.22040 5.87717 3.47635
#
# Compressibility (1/GPa) = 0.03708710
#
# Stress axis : x y z
#
# Youngs Moduli (GPa) = 87.79173 35.96632 25.31385
#
# Poissons Ratio (x) = 0.18711 0.18339
# Poissons Ratio (y) = 0.45672 0.21159
# Poissons Ratio (z) = 0.63602 0.30063
#
# Static dielectric constant tensor:
#      x y z
#    x 3.552100 0.000000 0.268670 
#    y 0.000000 3.128630 0.000000 
#    z 0.268670 0.000000 3.806130 
# 
# 
# High freq. dielectric constant tensor:
#      x y z
#    x 1.756090 0.000000 0.020420 
#    y 0.000000 1.709860 0.000000 
#    z 0.020420 0.000000 1.755670 
# 
# From -- ./inp_files/27036.got.cif
#   From: 2010.06.25/outbox.cif.g09.slc.cpg/sg10_14_cif.got.tgz:27036.got - 2010.06.27 22:07:45.
