data_PCOD8067554
_publ_section_title
;
Structure prediction by ZEFSAII (Michael W. Deem and Ramdas Pophale) SiO2 
 PCOD8067554
Probable space group: P 2/M
;
_chemical_formula_sum "Si O2"
_cell_formula_units_Z 30
_cell_length_a 14.308075
_cell_length_b 30.108585
_cell_length_c 12.181802
_cell_angle_alpha 90.000000
_cell_angle_beta 159.469861
_cell_angle_gamma 90.000000
_cell_volume 1840.428340
_symmetry_space_group_name_H-M "P 2/M"
_symmetry_group_IT_number 10
_symmetry_cell_setting 'monoclinic'
loop_
_space_group_symop_operation_xyz
x,y,z
-x,y,-z
-x,-y,-z
x,-y,z
loop_
_atom_site_type_symbol
_atom_site_label
_atom_site_fract_x
_atom_site_fract_y
_atom_site_fract_z
Si Si1 0.936308 0.449888 0.801629
Si Si2 0.804712 0.157956 0.877457
Si Si3 0.033062 0.254325 0.159275
Si Si4 0.792017 0.000000 0.867782
Si Si5 0.855021 0.919238 0.097483
Si Si6 0.543160 0.701085 0.677739
Si Si7 0.561703 0.600418 0.695919
Si Si8 0.415857 0.948732 0.782236
O O1 0.945592 0.500000 0.766037
O O2 0.643803 0.429630 0.461594
O O3 0.000000 0.449466 0.000000
O O4 0.144489 0.419701 0.962770
O O5 0.500000 0.166686 0.500000
O O6 0.793799 0.127544 0.972846
O O7 0.000000 0.135800 0.000000
O O8 0.958586 0.202575 0.081998
O O9 0.339165 0.267514 0.523000
O O10 0.000000 0.273133 0.000000
O O11 0.838616 0.280432 0.028131
O O12 0.500000 0.000000 0.500000
O O13 0.832567 0.043685 0.981625
O O14 0.000000 0.000000 0.000000
O O15 0.148127 0.920526 0.472051
O O16 0.644556 0.926599 0.961929
O O17 0.500000 0.705446 0.500000
O O18 0.532355 0.650554 0.707551
O O19 0.500000 0.599123 0.500000
O O20 0.370677 0.000000 0.696764
O O21 0.500000 0.946052 0.000000
#
# Coordination Sequence:
#
# PCOD8067554 Si02
#       8
#     4   4   4   2   4   4   4   4
#     4   9  15  21  27  36  53  76 101 135 186 246
#     4  11  21  34  48  68  95 124 148 171 206 262
#     4   9  16  26  39  53  73 100 129 158 194 235
#     4  12  22  34  49  72 101 128 152 176 206 248
#     4  12  22  37  54  75  97 124 151 181 217 257
#     4   9  15  23  35  49  64  86 120 161 195 230
#     4   9  15  21  29  41  55  74 106 146 188 232
#     4  11  22  39  58  76  94 117 151 190 224 253
#
# _framework density 16.300553000000001
#
# number of rings (size 3 to 8) (size 9 to 14) (size 15 to 20)
#    0.000    1.867    1.333    6.000    0.000    5.867 
#    0.000    0.000    0.000    0.000    0.000    0.000 
#    0.000    0.000    0.000    0.000    0.000    0.000 
#
# Total GULP energy -371838.176629 kJ/mol
# GULP energy per Si atom -12394.605888 kJ/mol
# Density = 1.626345 g / cm^3
# Si number density = 16.300553 Si / 1000 Ang^3
#
#
#
# Elastic Constant Matrix: (Units=GPa)
#
#
# Indices 1 2 3 4 5 6 
#
# 1 85.7263 40.9284 41.0624 0.0000 32.6852 0.0000
# 2 40.9284 114.6975 44.6884 0.0000 19.1562 0.0000
# 3 41.0624 44.6884 84.4613 0.0000 33.5662 0.0000
# 4 0.0000 0.0000 0.0000 24.1598 0.0000 16.0606
# 5 32.6852 19.1562 33.5662 0.0000 34.8932 0.0000
# 6 0.0000 0.0000 0.0000 16.0606 0.0000 59.7364
#
#
#
# Elastic Compliance Matrix: (Units=1/GPa)
#
#
# Indices 1 2 3 4 5 6 
#
# 1 0.020114 -0.004012 -0.001690 0.000000 -0.015013 0.000000
# 2 -0.004012 0.011794 -0.005197 0.000000 0.002282 0.000000
# 3 -0.001690 -0.005197 0.022095 0.000000 -0.016819 0.000000
# 4 0.000000 0.000000 0.000000 0.050399 0.000000 -0.013550
# 5 -0.015013 0.002282 -0.016819 0.000000 0.057649 0.000000
# 6 0.000000 0.000000 0.000000 -0.013550 0.000000 0.020383
#
#
# Mechanical properties :
#
#
# Convention : Reuss Voigt Hill
#
# Bulk Modulus (GPa) = 31.04961 59.80483 45.42722
# Shear Modulus (GPa) = 23.25970 34.30493 28.78231
#
# Velocity S-wave (km/s) = 3.78157 4.59249 4.20661
# Velocity P-wave (km/s) = 6.17710 8.05542 7.17796
#
# Compressibility (1/GPa) = 0.03220652
#
# Stress axis : x y z
#
# Youngs Moduli (GPa) = 49.71717 84.79140 45.25941
#
# Poissons Ratio (x) = 0.34015 0.07647
# Poissons Ratio (y) = 0.19944 0.23520
# Poissons Ratio (z) = 0.08400 0.44063
#
# Static dielectric constant tensor:
#      x y z
#    x 2.909000 0.000000 0.547440 
#    y 0.000000 3.107200 0.000000 
#    z 0.547440 0.000000 3.113540 
# 
# 
# High freq. dielectric constant tensor:
#      x y z
#    x 1.587690 0.000000 0.062780 
#    y 0.000000 1.632470 0.000000 
#    z 0.062780 0.000000 1.607480 
# 
# From -- ./inp_files/52137.got.cif
#   From: 2010.06.25/outbox.cif.g09.slc.cpg/sg10_27_cif.got.tgz:52137.got - 2010.06.27 22:07:45.
