data_PCOD8067821
_publ_section_title
;
Structure prediction by ZEFSAII (Michael W. Deem and Ramdas Pophale) SiO2 
 PCOD8067821
Probable space group: P 2/M
;
_chemical_formula_sum "Si O2"
_cell_formula_units_Z 28
_cell_length_a 9.326034
_cell_length_b 14.081237
_cell_length_c 17.374566
_cell_angle_alpha 90.000000
_cell_angle_beta 36.375704
_cell_angle_gamma 90.000000
_cell_volume 1353.203872
_symmetry_space_group_name_H-M "P 2/M"
_symmetry_group_IT_number 10
_symmetry_cell_setting 'monoclinic'
loop_
_space_group_symop_operation_xyz
x,y,z
-x,y,-z
-x,-y,-z
x,-y,z
loop_
_atom_site_type_symbol
_atom_site_label
_atom_site_fract_x
_atom_site_fract_y
_atom_site_fract_z
Si Si1 0.896427 0.294279 0.625918
Si Si2 0.617396 0.387885 0.146627
Si Si3 0.970523 0.106444 0.244357
Si Si4 0.159959 0.112802 0.000000
Si Si5 0.225820 0.705721 0.625918
Si Si6 0.057276 0.612115 0.853373
Si Si7 0.296407 0.106444 0.244357
O O1 0.641437 0.341560 0.755079
O O2 0.866238 0.179547 0.636523
O O3 0.000000 0.329933 0.500000
O O4 0.084476 0.325400 0.610350
O O5 0.589391 0.500000 0.151192
O O6 0.720237 0.361036 0.186508
O O7 0.806095 0.350743 1.000000
O O8 0.046014 0.147874 0.128932
O O9 0.210247 0.104513 0.193169
O O10 0.775806 0.179547 0.363477
O O11 0.857296 0.000000 0.288409
O O12 0.159900 0.000000 0.000000
O O13 0.432811 0.147874 0.871068
O O14 0.000000 0.155262 0.000000
O O15 0.500000 0.670067 0.500000
O O16 0.093325 0.658440 0.755079
O O17 0.042966 0.500000 0.848808
O O18 0.277477 0.000000 0.288409
#
# Coordination Sequence:
#
# PCOD8067821 Si02
#       7
#     4   4   4   4   4   4   4
#     4  11  24  39  58  86 119 157 200 242 291 345
#     4   9  20  41  67  92 118 150 188 235 294 353
#     4   9  19  36  55  77 112 156 197 238 286 341
#     4   9  17  29  49  79 108 139 186 239 287 334
#     4  11  24  39  58  86 119 157 200 242 291 345
#     4   9  20  41  67  92 118 150 188 235 294 353
#     4   9  19  36  55  77 112 156 197 238 286 341
#
# _framework density 20.691635000000002
#
# number of rings (size 3 to 8) (size 9 to 14) (size 15 to 20)
#    0.000    2.429    0.000    2.143    2.000    6.286 
#    0.000    1.429    0.000    0.000    0.000    0.000 
#    0.000    0.000    0.000    0.000    0.000    0.000 
#
# Total GULP energy -347172.282627 kJ/mol
# GULP energy per Si atom -12399.010094 kJ/mol
# Density = 2.064454 g / cm^3
# Si number density = 20.691635 Si / 1000 Ang^3
#
#
#
# Elastic Constant Matrix: (Units=GPa)
#
#
# Indices 1 2 3 4 5 6 
#
# 1 143.7170 33.2921 76.1930 0.0000 0.0702 0.0000
# 2 33.2921 36.5564 33.4810 0.0000 0.0026 0.0000
# 3 76.1930 33.4810 116.1564 0.0000 -0.4402 0.0000
# 4 0.0000 0.0000 0.0000 21.8289 0.0000 -0.0537
# 5 0.0702 0.0026 -0.4402 0.0000 36.3692 0.0000
# 6 0.0000 0.0000 0.0000 -0.0537 0.0000 25.8284
#
#
#
# Elastic Compliance Matrix: (Units=1/GPa)
#
#
# Indices 1 2 3 4 5 6 
#
# 1 0.011240 -0.004733 -0.006009 0.000000 -0.000094 0.000000
# 2 -0.004733 0.039160 -0.008183 0.000000 -0.000093 0.000000
# 3 -0.006009 -0.008183 0.014910 0.000000 0.000193 0.000000
# 4 0.000000 0.000000 0.000000 0.045811 0.000000 0.000095
# 5 -0.000094 -0.000093 0.000193 0.000000 0.027498 0.000000
# 6 0.000000 0.000000 0.000000 0.000095 0.000000 0.038717
#
#
# Mechanical properties :
#
#
# Convention : Reuss Voigt Hill
#
# Bulk Modulus (GPa) = 36.41676 64.70687 50.56182
# Shear Modulus (GPa) = 22.28737 27.03621 24.66179
#
# Velocity S-wave (km/s) = 3.28551 3.61865 3.45610
# Velocity P-wave (km/s) = 5.65957 6.98566 6.35728
#
# Compressibility (1/GPa) = 0.02745988
#
# Stress axis : x y z
#
# Youngs Moduli (GPa) = 88.96432 25.53610 67.06730
#
# Poissons Ratio (x) = 0.12086 0.40303
# Poissons Ratio (y) = 0.42107 0.54883
# Poissons Ratio (z) = 0.53461 0.20897
#
# Static dielectric constant tensor:
#      x y z
#    x 3.818560 0.000000 -0.004450 
#    y 0.000000 3.736440 0.000000 
#    z -0.004450 0.000000 3.486930 
# 
# 
# High freq. dielectric constant tensor:
#      x y z
#    x 1.810790 0.000000 -0.000250 
#    y 0.000000 1.814160 0.000000 
#    z -0.000250 0.000000 1.792190 
# 
# From -- ./inp_files/75278.got.cif
#   From: 2010.06.25/outbox.cif.g09.slc.cpg/sg10_38_cif.got.tgz:75278.got - 2010.06.27 22:07:45.
