data_PCOD8067486
_publ_section_title
;
Structure prediction by ZEFSAII (Michael W. Deem and Ramdas Pophale) SiO2 
 PCOD8067486
Probable space group: P 2/M
;
_chemical_formula_sum "Si O2"
_cell_formula_units_Z 20
_cell_length_a 20.431606
_cell_length_b 7.847575
_cell_length_c 10.237712
_cell_angle_alpha 90.000000
_cell_angle_beta 140.646468
_cell_angle_gamma 90.000000
_cell_volume 1040.881066
_symmetry_space_group_name_H-M "P 2/M"
_symmetry_group_IT_number 10
_symmetry_cell_setting 'monoclinic'
loop_
_space_group_symop_operation_xyz
x,y,z
-x,y,-z
-x,-y,-z
x,-y,z
loop_
_atom_site_type_symbol
_atom_site_label
_atom_site_fract_x
_atom_site_fract_y
_atom_site_fract_z
Si Si1 0.247386 0.694591 0.359614
Si Si2 0.102525 0.805784 0.916183
Si Si3 0.122620 0.692088 0.417061
Si Si4 0.379665 0.000000 0.166261
Si Si5 0.613129 0.000000 0.512615
Si Si6 0.804401 0.811699 0.204218
O O1 0.290189 0.500000 0.433090
O O2 0.200355 0.755176 0.425216
O O3 0.338087 0.826400 0.467487
O O4 0.156866 0.697734 0.112660
O O5 0.134409 0.729233 0.823998
O O6 0.979722 0.805701 0.742912
O O7 0.143793 0.000000 0.990033
O O8 0.087980 0.500000 0.334751
O O9 0.181268 0.697637 0.646111
O O10 0.493950 0.000000 0.283732
O O11 0.379012 0.000000 0.320606
O O12 0.317549 0.831476 0.020284
O O13 0.851852 0.000000 0.306201
#
# Coordination Sequence:
#
# PCOD8067486 Si02
#       6
#     4   4   4   2   2   4
#     4  11  23  39  58  90 121 153 201 238 286 352
#     4  11  20  36  59  86 116 161 203 233 284 347
#     4  11  24  35  52  86 127 159 191 237 283 348
#     4   9  20  41  66  90 109 142 205 245 296 358
#     4  11  20  43  68  86 115 150 189 255 308 332
#     4   9  19  38  56  86 111 151 198 236 286 348
#
# _framework density 19.214490000000001
#
# number of rings (size 3 to 8) (size 9 to 14) (size 15 to 20)
#    0.600    1.000    3.000    2.400    2.800    6.400 
#    0.000    5.000    0.000    2.400    0.000    0.000 
#    0.000    0.000    0.000    0.000    0.000    0.000 
#
# Total GULP energy -247971.073737 kJ/mol
# GULP energy per Si atom -12398.553687 kJ/mol
# Density = 1.917076 g / cm^3
# Si number density = 19.214490 Si / 1000 Ang^3
#
#
#
# Elastic Constant Matrix: (Units=GPa)
#
#
# Indices 1 2 3 4 5 6 
#
# 1 148.7593 46.2374 62.1838 0.0000 -1.4525 0.0000
# 2 46.2374 67.0946 23.4632 0.0000 5.6924 0.0000
# 3 62.1838 23.4632 57.0853 0.0000 3.4539 0.0000
# 4 0.0000 0.0000 0.0000 24.3439 0.0000 26.3477
# 5 -1.4525 5.6924 3.4539 0.0000 43.1630 0.0000
# 6 0.0000 0.0000 0.0000 26.3477 0.0000 264.9139
#
#
#
# Elastic Compliance Matrix: (Units=1/GPa)
#
#
# Indices 1 2 3 4 5 6 
#
# 1 0.013791 -0.005126 -0.013048 0.000000 0.002184 0.000000
# 2 -0.005126 0.019442 -0.002252 0.000000 -0.002556 0.000000
# 3 -0.013048 -0.002252 0.032824 0.000000 -0.002769 0.000000
# 4 0.000000 0.000000 0.000000 0.046033 0.000000 -0.004578
# 5 0.002184 -0.002556 -0.002769 0.000000 0.023800 0.000000
# 6 0.000000 0.000000 0.000000 -0.004578 0.000000 0.004230
#
#
# Mechanical properties :
#
#
# Convention : Reuss Voigt Hill
#
# Bulk Modulus (GPa) = 39.67605 59.63421 49.65513
# Shear Modulus (GPa) = 26.40261 75.88781 51.14521
#
# Velocity S-wave (km/s) = 3.71091 6.29133 5.16486
# Velocity P-wave (km/s) = 6.24940 9.15849 7.84005
#
# Compressibility (1/GPa) = 0.02520412
#
# Stress axis : x y z
#
# Youngs Moduli (GPa) = 72.50922 51.43625 30.46524
#
# Poissons Ratio (x) = 0.26369 0.39752
# Poissons Ratio (y) = 0.37171 0.06860
# Poissons Ratio (z) = 0.94611 0.11583
#
# Static dielectric constant tensor:
#      x y z
#    x 3.569080 0.000000 -0.098790 
#    y 0.000000 3.278240 0.000000 
#    z -0.098790 0.000000 3.397880 
# 
# 
# High freq. dielectric constant tensor:
#      x y z
#    x 1.747690 0.000000 -0.014830 
#    y 0.000000 1.732690 0.000000 
#    z -0.014830 0.000000 1.739060 
# 
# From -- ./inp_files/31713.got.cif
#   From: 2010.06.25/outbox.cif.g09.slc.cpg/sg10_16_cif.got.tgz:31713.got - 2010.06.27 22:07:45.
