data_PCOD8067665
_publ_section_title
;
Structure prediction by ZEFSAII (Michael W. Deem and Ramdas Pophale) SiO2 
 PCOD8067665
Probable space group: P 2/M
;
_chemical_formula_sum "Si O2"
_cell_formula_units_Z 32
_cell_length_a 15.631285
_cell_length_b 9.163761
_cell_length_c 27.871944
_cell_angle_alpha 90.000000
_cell_angle_beta 26.932114
_cell_angle_gamma 90.000000
_cell_volume 1808.302510
_symmetry_space_group_name_H-M "P 2/M"
_symmetry_group_IT_number 10
_symmetry_cell_setting 'monoclinic'
loop_
_space_group_symop_operation_xyz
x,y,z
-x,y,-z
-x,-y,-z
x,-y,z
loop_
_atom_site_type_symbol
_atom_site_label
_atom_site_fract_x
_atom_site_fract_y
_atom_site_fract_z
Si Si1 0.302024 0.327458 0.848988
Si Si2 1.000000 0.835049 0.826688
Si Si3 0.693814 0.832818 0.653093
Si Si4 0.000000 0.673530 0.677914
Si Si5 0.285205 0.830557 0.601699
Si Si6 0.714795 0.830556 0.886905
Si Si7 0.000001 0.831537 0.578677
Si Si8 0.999999 0.672310 0.075134
O O1 0.318550 0.500000 0.840725
O O2 0.509781 0.264640 0.745110
O O3 0.187307 0.273851 0.859295
O O4 0.187306 0.273851 0.953399
O O5 0.185180 0.803493 0.702541
O O6 0.814822 0.803490 0.887720
O O7 0.000001 0.729566 0.871361
O O8 0.999997 0.000000 0.845762
O O9 0.814808 0.798133 0.639912
O O10 0.814811 0.798128 0.545279
O O11 0.630236 0.000000 0.684881
O O12 0.999999 0.500000 0.681084
O O13 0.812001 0.734994 0.797142
O O14 0.000001 0.722635 0.623054
O O15 0.187998 0.734993 0.609145
O O16 0.500000 0.779567 0.500000
O O17 0.268946 0.000000 0.594658
O O18 0.731057 0.000000 0.863604
O O19 0.500000 0.779569 0.000000
O O20 0.000004 0.000000 0.595736
O O21 0.999999 0.500000 0.077245
#
# Coordination Sequence:
#
# PCOD8067665 Si02
#       8
#     4   4   4   4   4   4   4   4
#     4   9  19  35  52  72 102 137 169 203 250 306
#     4   9  18  32  52  78 101 126 168 216 257 296
#     4   9  19  35  56  78  98 129 173 215 252 294
#     4  11  22  34  52  80 109 136 170 212 257 306
#     4   9  19  37  57  75 101 138 175 213 259 308
#     4   9  19  37  57  75 101 138 175 213 259 308
#     4   9  19  37  55  73 103 138 170 206 253 307
#     4   9  19  35  51  69 101 142 170 196 249 311
#
# _framework density 17.696154
#
# number of rings (size 3 to 8) (size 9 to 14) (size 15 to 20)
#    0.000    2.750    0.000    3.375    0.000    6.500 
#    0.000   10.000    0.000    0.000    0.000    0.000 
#    0.000    0.000    0.000    0.000    0.000    0.000 
#
# Total GULP energy -396800.458462 kJ/mol
# GULP energy per Si atom -12400.014327 kJ/mol
# Density = 1.765588 g / cm^3
# Si number density = 17.696154 Si / 1000 Ang^3
#
#
#
# Elastic Constant Matrix: (Units=GPa)
#
#
# Indices 1 2 3 4 5 6 
#
# 1 107.1617 54.6599 77.0356 0.0000 5.2435 0.0000
# 2 54.6599 77.9202 53.3250 0.0000 0.9872 0.0000
# 3 77.0356 53.3250 129.6951 0.0000 -21.9058 0.0000
# 4 0.0000 0.0000 0.0000 28.0021 0.0000 -0.9737
# 5 5.2435 0.9872 -21.9058 0.0000 31.5933 0.0000
# 6 0.0000 0.0000 0.0000 -0.9737 0.0000 26.6837
#
#
#
# Elastic Compliance Matrix: (Units=1/GPa)
#
#
# Indices 1 2 3 4 5 6 
#
# 1 0.022575 -0.007083 -0.012563 0.000000 -0.012236 0.000000
# 2 -0.007083 0.021301 -0.005057 0.000000 -0.002996 0.000000
# 3 -0.012563 -0.005057 0.019969 0.000000 0.016089 0.000000
# 4 0.000000 0.000000 0.000000 0.035757 0.000000 0.001305
# 5 -0.012236 -0.002996 0.016089 0.000000 0.044932 0.000000
# 6 0.000000 0.000000 0.000000 0.001305 0.000000 0.037524
#
#
# Mechanical properties :
#
#
# Convention : Reuss Voigt Hill
#
# Bulk Modulus (GPa) = 69.25962 76.09089 72.67526
# Shear Modulus (GPa) = 21.16154 25.90626 23.53390
#
# Velocity S-wave (km/s) = 3.46182 3.83031 3.65072
# Velocity P-wave (km/s) = 7.42982 7.91540 7.67645
#
# Compressibility (1/GPa) = 0.01443843
#
# Stress axis : x y z
#
# Youngs Moduli (GPa) = 44.29740 46.94608 50.07664
#
# Poissons Ratio (x) = 0.33252 0.62913
# Poissons Ratio (y) = 0.31376 0.25324
# Poissons Ratio (z) = 0.55652 0.23741
#
# Static dielectric constant tensor:
#      x y z
#    x 3.287550 0.000000 -0.110190 
#    y 0.000000 3.117560 0.000000 
#    z -0.110190 0.000000 3.436560 
# 
# 
# High freq. dielectric constant tensor:
#      x y z
#    x 1.686750 0.000000 -0.002240 
#    y 0.000000 1.674750 0.000000 
#    z -0.002240 0.000000 1.689780 
# 
# From -- ./inp_files/72214.got.cif
#   From: 2010.06.25/outbox.cif.g09.slc.cpg/sg10_37_cif.got.tgz:72214.got - 2010.06.27 22:07:45.
