data_PCOD8068677
_publ_section_title
;
Structure prediction by ZEFSAII (Michael W. Deem and Ramdas Pophale) SiO2 
 PCOD8068677
Probable space group: P 21/M
;
_chemical_formula_sum "Si O2"
_cell_formula_units_Z 32
_cell_length_a 25.529565
_cell_length_b 8.916628
_cell_length_c 20.457107
_cell_angle_alpha 90.000000
_cell_angle_beta 22.841702
_cell_angle_gamma 90.000000
_cell_volume 1807.709548
_symmetry_space_group_name_H-M "P 21/M"
_symmetry_group_IT_number 11
_symmetry_cell_setting 'monoclinic'
loop_
_space_group_symop_operation_xyz
x,y,z
-x,1/2+y,-z
-x,-y,-z
x,1/2-y,z
loop_
_atom_site_type_symbol
_atom_site_label
_atom_site_fract_x
_atom_site_fract_y
_atom_site_fract_z
Si Si1 0.074088 0.073946 0.565150
Si Si2 0.680242 0.927950 0.463933
Si Si3 0.123440 0.427152 0.650656
Si Si4 0.860795 0.923397 0.646969
Si Si5 0.143914 0.572576 0.848117
Si Si6 0.162841 0.573000 0.973850
Si Si7 0.787676 0.573375 0.867669
Si Si8 0.374695 0.927571 0.835373
O O1 0.037386 0.250000 0.609776
O O2 0.149276 0.025093 0.545519
O O3 0.176549 0.037970 0.386012
O O4 0.933984 0.985788 0.721006
O O5 0.694511 0.750000 0.438622
O O6 0.756600 0.986840 0.441285
O O7 0.526183 0.979886 0.646497
O O8 0.742885 0.007928 0.329336
O O9 0.117802 0.250000 0.664102
O O10 0.980968 0.495785 0.838693
O O11 0.890152 0.750000 0.619847
O O12 0.758998 0.967972 0.823195
O O13 0.000000 0.000000 0.500000
O O14 0.130026 0.750000 0.855452
O O15 0.192037 0.528546 0.865615
O O16 0.000000 0.500000 0.000000
O O17 0.157978 0.750000 0.987818
O O18 0.280498 0.508971 0.885307
O O19 0.782722 0.750000 0.885742
O O20 0.670365 0.495754 0.043747
O O21 0.365671 0.750000 0.851691
#
# Coordination Sequence:
#
# PCOD8068677 Si02
#       8
#     4   4   4   4   4   4   4   4
#     4   9  15  27  49  71  94 128 167 196 234 288
#     4  10  21  36  53  75  99 124 161 205 243 284
#     4   9  15  28  51  74  96 122 159 204 239 276
#     4   8  15  25  40  67  97 126 158 196 237 282
#     4  11  21  35  55  75 100 129 160 198 244 289
#     4   9  17  31  52  74  95 124 162 200 236 279
#     4  10  18  28  44  70 104 129 155 201 248 280
#     4  10  20  35  53  71  95 131 168 197 234 290
#
# _framework density 17.701958999999999
#
# number of rings (size 3 to 8) (size 9 to 14) (size 15 to 20)
#    0.000    2.500    2.500    0.750    0.000    1.500 
#    0.000    3.125    0.000    0.750    0.000    0.000 
#    0.000    0.000    0.000    0.000    0.000    0.625 
#
# Total GULP energy -396492.364009 kJ/mol
# GULP energy per Si atom -12390.386375 kJ/mol
# Density = 1.766167 g / cm^3
# Si number density = 17.701959 Si / 1000 Ang^3
#
#
#
# Elastic Constant Matrix: (Units=GPa)
#
#
# Indices 1 2 3 4 5 6 
#
# 1 153.2962 25.7318 89.4116 0.0000 22.3980 0.0000
# 2 25.7318 29.8695 34.2603 0.0000 7.4673 0.0000
# 3 89.4116 34.2603 129.7353 0.0000 14.4840 0.0000
# 4 0.0000 0.0000 0.0000 21.9275 0.0000 7.8857
# 5 22.3980 7.4673 14.4840 0.0000 36.3713 0.0000
# 6 0.0000 0.0000 0.0000 7.8857 0.0000 17.6811
#
#
#
# Elastic Compliance Matrix: (Units=1/GPa)
#
#
# Indices 1 2 3 4 5 6 
#
# 1 0.011467 -0.000459 -0.007330 0.000000 -0.004048 0.000000
# 2 -0.000459 0.048941 -0.012053 0.000000 -0.004965 0.000000
# 3 -0.007330 -0.012053 0.015868 0.000000 0.000669 0.000000
# 4 0.000000 0.000000 0.000000 0.054317 0.000000 -0.024225
# 5 -0.004048 -0.004965 0.000669 0.000000 0.030740 0.000000
# 6 0.000000 0.000000 0.000000 -0.024225 0.000000 0.067362
#
#
# Mechanical properties :
#
#
# Convention : Reuss Voigt Hill
#
# Bulk Modulus (GPa) = 27.32898 67.96759 47.64829
# Shear Modulus (GPa) = 17.82043 26.09581 21.95812
#
# Velocity S-wave (km/s) = 3.17628 3.84367 3.52580
# Velocity P-wave (km/s) = 5.37807 7.62740 6.59927
#
# Compressibility (1/GPa) = 0.03659119
#
# Stress axis : x y z
#
# Youngs Moduli (GPa) = 87.20678 20.43267 63.02078
#
# Poissons Ratio (x) = 0.00939 0.46192
# Poissons Ratio (y) = 0.04006 0.75962
# Poissons Ratio (z) = 0.63919 0.24628
#
# Static dielectric constant tensor:
#      x y z
#    x 3.810880 0.000000 0.355160 
#    y 0.000000 3.030780 0.000000 
#    z 0.355160 0.000000 3.317900 
# 
# 
# High freq. dielectric constant tensor:
#      x y z
#    x 1.694580 0.000000 0.029550 
#    y 0.000000 1.660470 0.000000 
#    z 0.029550 0.000000 1.665130 
# 
# From -- ./inp_files/66926.got.cif
#   From: 2010.06.25/outbox.cif.g09.slc.cpg/sg11_34_cif.got.tgz:66926.got - 2010.06.27 23:14:04.
