data_PCOD8068054
_publ_section_title
;
Structure prediction by ZEFSAII (Michael W. Deem and Ramdas Pophale) SiO2 
 PCOD8068054
Probable space group: P 2/M
;
_chemical_formula_sum "Si O2"
_cell_formula_units_Z 28
_cell_length_a 29.856040
_cell_length_b 9.406934
_cell_length_c 9.556959
_cell_angle_alpha 90.000000
_cell_angle_beta 36.845575
_cell_angle_gamma 90.000000
_cell_volume 1609.553248
_symmetry_space_group_name_H-M "P 2/M"
_symmetry_group_IT_number 10
_symmetry_cell_setting 'monoclinic'
loop_
_space_group_symop_operation_xyz
x,y,z
-x,y,-z
-x,-y,-z
x,-y,z
loop_
_atom_site_type_symbol
_atom_site_label
_atom_site_fract_x
_atom_site_fract_y
_atom_site_fract_z
Si Si1 0.929524 0.665158 0.587882
Si Si2 0.784887 0.835008 0.949022
Si Si3 0.642255 0.835244 0.807383
Si Si4 0.500000 0.339254 0.833698
Si Si5 0.070476 0.665158 0.735503
Si Si6 0.215113 0.835008 0.373458
Si Si7 0.642255 0.835244 0.481342
O O1 0.914322 0.500000 0.653620
O O2 0.856851 0.749134 0.821554
O O3 0.946538 0.697189 0.383654
O O4 0.000000 0.719989 0.500000
O O5 0.766781 0.800852 0.833048
O O6 0.802036 0.000000 0.929896
O O7 0.714841 0.784774 0.215684
O O8 0.714841 0.784775 0.710110
O O9 0.657392 0.807223 0.606521
O O10 0.623659 0.000000 0.882399
O O11 0.573228 0.742812 0.037428
O O12 0.500000 0.500000 0.775037
O O13 0.573228 0.257187 0.596432
O O14 0.500000 0.338035 0.000000
O O15 0.085678 0.500000 0.725229
O O16 0.143149 0.749134 0.605807
O O17 0.000000 0.719990 0.000000
O O18 0.197964 0.000000 0.440077
O O19 0.623659 0.000000 0.499306
#
# Coordination Sequence:
#
# PCOD8068054 Si02
#       7
#     4   4   4   4   4   4   4
#     4   9  18  32  48  66  90 120 151 183 222 267
#     4   9  18  32  48  67  92 120 149 183 224 267
#     4   9  17  30  48  68  90 118 151 185 222 265
#     4   9  17  29  46  69  94 118 148 187 226 262
#     4   9  18  32  48  66  90 120 151 183 222 267
#     4   9  18  32  48  67  92 120 149 183 224 267
#     4   9  17  30  48  68  90 118 151 185 222 265
#
# _framework density 17.396132999999999
#
# number of rings (size 3 to 8) (size 9 to 14) (size 15 to 20)
#    0.000    3.000    0.000    0.429    0.000    4.571 
#    0.000    0.714    0.000    4.286    0.000    0.000 
#    0.000    0.000    0.000    0.000    0.000    0.000 
#
# Total GULP energy -347251.907378 kJ/mol
# GULP energy per Si atom -12401.853835 kJ/mol
# Density = 1.735654 g / cm^3
# Si number density = 17.396133 Si / 1000 Ang^3
#
#
#
# Elastic Constant Matrix: (Units=GPa)
#
#
# Indices 1 2 3 4 5 6 
#
# 1 121.6405 58.1535 64.8686 0.0000 -37.3701 0.0000
# 2 58.1535 77.2060 65.6405 0.0000 -25.1241 0.0000
# 3 64.8686 65.6405 143.2987 0.0000 -35.3130 0.0000
# 4 0.0000 0.0000 0.0000 24.0858 0.0000 -5.7168
# 5 -37.3701 -25.1241 -35.3130 0.0000 27.0504 0.0000
# 6 0.0000 0.0000 0.0000 -5.7168 0.0000 22.3820
#
#
#
# Elastic Compliance Matrix: (Units=1/GPa)
#
#
# Indices 1 2 3 4 5 6 
#
# 1 0.016731 -0.007045 -0.000388 0.000000 0.016064 0.000000
# 2 -0.007045 0.026345 -0.007736 0.000000 0.004638 0.000000
# 3 -0.000388 -0.007736 0.012966 0.000000 0.009206 0.000000
# 4 0.000000 0.000000 0.000000 0.044198 0.000000 0.011289
# 5 0.016064 0.004638 0.009206 0.000000 0.075486 0.000000
# 6 0.000000 0.000000 0.000000 0.011289 0.000000 0.047562
#
#
# Mechanical properties :
#
#
# Convention : Reuss Voigt Hill
#
# Bulk Modulus (GPa) = 38.90334 79.94115 59.42225
# Shear Modulus (GPa) = 19.06990 24.93580 22.00285
#
# Velocity S-wave (km/s) = 3.31451 3.79015 3.56028
# Velocity P-wave (km/s) = 6.08767 8.07507 7.15075
#
# Compressibility (1/GPa) = 0.02570473
#
# Stress axis : x y z
#
# Youngs Moduli (GPa) = 59.76913 37.95823 77.12356
#
# Poissons Ratio (x) = 0.26740 0.02994
# Poissons Ratio (y) = 0.42105 0.59661
# Poissons Ratio (z) = 0.02320 0.29364
#
# Static dielectric constant tensor:
#      x y z
#    x 3.199760 0.000000 -0.144030 
#    y 0.000000 3.245530 0.000000 
#    z -0.144030 0.000000 3.242660 
# 
# 
# High freq. dielectric constant tensor:
#      x y z
#    x 1.663470 0.000000 -0.014090 
#    y 0.000000 1.668770 0.000000 
#    z -0.014090 0.000000 1.667670 
# 
# From -- ./inp_files/37902.got.cif
#   From: 2010.06.25/outbox.cif.g09.slc.cpg/sg10_19_cif.got.tgz:37902.got - 2010.06.27 22:07:45.
