data_PCOD8068767
_publ_section_title
;
Structure prediction by ZEFSAII (Michael W. Deem and Ramdas Pophale) SiO2 
 PCOD8068767
Probable space group: P 21/M
;
_chemical_formula_sum "Si O2"
_cell_formula_units_Z 32
_cell_length_a 14.990796
_cell_length_b 9.345209
_cell_length_c 15.194117
_cell_angle_alpha 90.000000
_cell_angle_beta 101.846410
_cell_angle_gamma 90.000000
_cell_volume 2083.240449
_symmetry_space_group_name_H-M "P 21/M"
_symmetry_group_IT_number 11
_symmetry_cell_setting 'monoclinic'
loop_
_space_group_symop_operation_xyz
x,y,z
-x,1/2+y,-z
-x,-y,-z
x,1/2-y,z
loop_
_atom_site_type_symbol
_atom_site_label
_atom_site_fract_x
_atom_site_fract_y
_atom_site_fract_z
Si Si1 0.738819 0.915323 0.242418
Si Si2 0.879959 0.583803 0.410521
Si Si3 0.198767 0.081436 0.075952
Si Si4 0.591189 0.416100 0.123255
Si Si5 0.930062 0.582510 0.799343
Si Si6 0.946599 0.914650 0.608329
Si Si7 0.886356 0.917444 0.123210
Si Si8 0.611086 0.915523 0.949147
O O1 0.709601 0.750000 0.234112
O O2 0.784152 0.957229 0.345546
O O3 0.809741 0.951228 0.179642
O O4 0.648366 0.010742 0.213016
O O5 0.899378 0.750000 0.397965
O O6 0.877896 0.545055 0.514257
O O7 0.961101 0.503464 0.378095
O O8 0.190837 0.250000 0.076420
O O9 0.148401 0.019391 0.152286
O O10 0.305664 0.037424 0.097560
O O11 0.149901 0.025168 0.977837
O O12 0.616643 0.250000 0.122720
O O13 0.483762 0.438537 0.121621
O O14 0.616657 0.488750 0.036672
O O15 0.946436 0.750000 0.819658
O O16 0.898225 0.554289 0.692043
O O17 0.023607 0.503218 0.836270
O O18 0.975643 0.750000 0.606447
O O19 0.909828 0.750000 0.126030
O O20 0.622107 0.750000 0.981316
#
# Coordination Sequence:
#
# PCOD8068767 Si02
#       8
#     4   4   4   4   4   4   4   4
#     4  10  18  29  45  62  85 119 146 167 206 262
#     4   9  17  29  44  60  82 114 144 168 209 261
#     4   9  17  30  45  59  82 117 148 169 203 251
#     4  10  19  28  45  68  87 107 139 183 219 246
#     4  10  19  29  43  63  86 112 142 181 213 235
#     4   9  17  28  42  63  86 106 138 183 215 240
#     4  10  18  29  43  59  84 120 151 169 194 249
#     4   9  17  32  47  61  85 116 144 171 210 261
#
# _framework density 15.360683999999999
#
# number of rings (size 3 to 8) (size 9 to 14) (size 15 to 20)
#    0.000    2.500    2.500    0.750    0.000    1.500 
#    0.000    0.625    0.000    0.000    0.000    0.875 
#    0.000    0.000    0.000    0.000    0.000    0.000 
#
# Total GULP energy -396659.486717 kJ/mol
# GULP energy per Si atom -12395.608960 kJ/mol
# Density = 1.532572 g / cm^3
# Si number density = 15.360684 Si / 1000 Ang^3
#
#
#
# Elastic Constant Matrix: (Units=GPa)
#
#
# Indices 1 2 3 4 5 6 
#
# 1 85.9188 37.0934 61.2753 0.0000 13.5384 0.0000
# 2 37.0934 46.1882 34.1277 0.0000 10.5631 0.0000
# 3 61.2753 34.1277 111.8817 0.0000 9.9735 0.0000
# 4 0.0000 0.0000 0.0000 17.5704 0.0000 6.8954
# 5 13.5384 10.5631 9.9735 0.0000 22.7030 0.0000
# 6 0.0000 0.0000 0.0000 6.8954 0.0000 20.2189
#
#
#
# Elastic Compliance Matrix: (Units=1/GPa)
#
#
# Indices 1 2 3 4 5 6 
#
# 1 0.023799 -0.011200 -0.009176 0.000000 -0.004949 0.000000
# 2 -0.011200 0.035405 -0.003947 0.000000 -0.008060 0.000000
# 3 -0.009176 -0.003947 0.015108 0.000000 0.000672 0.000000
# 4 0.000000 0.000000 0.000000 0.065708 0.000000 -0.022409
# 5 -0.004949 -0.008060 0.000672 0.000000 0.050454 0.000000
# 6 0.000000 0.000000 0.000000 -0.022409 0.000000 0.057101
#
#
# Mechanical properties :
#
#
# Convention : Reuss Voigt Hill
#
# Bulk Modulus (GPa) = 38.96491 56.55348 47.75920
# Shear Modulus (GPa) = 16.40548 19.53130 17.96839
#
# Velocity S-wave (km/s) = 3.27160 3.56970 3.42389
# Velocity P-wave (km/s) = 6.30023 7.34079 6.84033
#
# Compressibility (1/GPa) = 0.02566412
#
# Stress axis : x y z
#
# Youngs Moduli (GPa) = 42.01929 28.24448 66.19093
#
# Poissons Ratio (x) = 0.31635 0.60739
# Poissons Ratio (y) = 0.47063 0.26126
# Poissons Ratio (z) = 0.38558 0.11148
#
# Static dielectric constant tensor:
#      x y z
#    x 3.024280 0.000000 0.018760 
#    y 0.000000 2.908310 0.000000 
#    z 0.018760 0.000000 3.207250 
# 
# 
# High freq. dielectric constant tensor:
#      x y z
#    x 1.569550 0.000000 0.011710 
#    y 0.000000 1.581950 0.000000 
#    z 0.011710 0.000000 1.581600 
# 
# From -- ./inp_files/51371.got.cif
#   From: 2010.06.25/outbox.cif.g09.slc.cpg/sg11_26_cif.got.tgz:51371.got - 2010.06.27 23:14:04.
