data_PCOD8068124
_publ_section_title
;
Structure prediction by ZEFSAII (Michael W. Deem and Ramdas Pophale) SiO2 
 PCOD8068124
Probable space group: P 21/M
;
_chemical_formula_sum "Si O2"
_cell_formula_units_Z 32
_cell_length_a 16.279462
_cell_length_b 21.728407
_cell_length_c 9.749250
_cell_angle_alpha 90.000000
_cell_angle_beta 27.281284
_cell_angle_gamma 90.000000
_cell_volume 1580.684340
_symmetry_space_group_name_H-M "P 21/M"
_symmetry_group_IT_number 11
_symmetry_cell_setting 'monoclinic'
loop_
_space_group_symop_operation_xyz
x,y,z
-x,1/2+y,-z
-x,-y,-z
x,1/2-y,z
loop_
_atom_site_type_symbol
_atom_site_label
_atom_site_fract_x
_atom_site_fract_y
_atom_site_fract_z
Si Si1 0.776204 0.431590 0.313050
Si Si2 0.144609 0.382346 0.415502
Si Si3 0.401175 0.683937 0.720311
Si Si4 0.225448 0.589305 0.151651
Si Si5 0.954901 0.319483 0.927247
Si Si6 0.291779 0.492449 0.835169
Si Si7 0.394122 0.123544 0.808087
Si Si8 0.710432 0.488481 0.694561
O O1 0.823140 0.480277 0.121194
O O2 0.572198 0.410588 0.595983
O O3 0.796613 0.470094 0.421414
O O4 0.910903 0.372011 0.107590
O O5 0.191350 0.451772 0.391046
O O6 0.964808 0.378872 0.591402
O O7 0.124765 0.340599 0.582236
O O8 0.295997 0.352492 0.091412
O O9 0.433118 0.750000 0.743104
O O10 0.555944 0.675749 0.376148
O O11 0.391781 0.632514 0.853124
O O12 0.213518 0.681233 0.922037
O O13 0.255044 0.572245 0.265332
O O14 0.230606 0.526295 0.061977
O O15 0.987882 0.250000 0.939301
O O16 0.500000 0.500000 0.500000
O O17 0.259803 0.421263 0.921241
O O18 0.500000 0.500000 0.000000
#
# Coordination Sequence:
#
# PCOD8068124 Si02
#       8
#     4   4   4   4   4   4   4   4
#     4  10  19  35  54  84 111 150 192 222 279 344
#     4  11  21  35  56  89 116 144 186 239 292 334
#     4   9  18  34  57  81 106 151 203 229 268 344
#     4  11  20  36  57  83 116 148 183 237 289 334
#     4   9  19  37  57  78 112 153 195 235 278 340
#     4  10  15  31  54  78 107 146 181 220 281 334
#     4  10  18  30  56  82 114 145 181 233 280 339
#     4  12  23  34  56  89 123 145 185 237 292 347
#
# _framework density 20.244395999999998
#
# number of rings (size 3 to 8) (size 9 to 14) (size 15 to 20)
#    0.000    1.750    7.500    1.125    0.000    1.000 
#    0.000    0.625    0.000    0.750    0.000    0.000 
#    0.000    0.000    0.000    0.000    0.000    0.000 
#
# Total GULP energy -396455.708343 kJ/mol
# GULP energy per Si atom -12389.240886 kJ/mol
# Density = 2.019832 g / cm^3
# Si number density = 20.244396 Si / 1000 Ang^3
#
#
#
# Elastic Constant Matrix: (Units=GPa)
#
#
# Indices 1 2 3 4 5 6 
#
# 1 57.6002 25.3298 14.5989 0.0000 16.0852 0.0000
# 2 25.3298 99.3231 36.8955 0.0000 17.8851 0.0000
# 3 14.5989 36.8955 96.4133 0.0000 16.4857 0.0000
# 4 0.0000 0.0000 0.0000 22.3761 0.0000 7.2037
# 5 16.0852 17.8851 16.4857 0.0000 23.6012 0.0000
# 6 0.0000 0.0000 0.0000 7.2037 0.0000 12.8630
#
#
#
# Elastic Compliance Matrix: (Units=1/GPa)
#
#
# Indices 1 2 3 4 5 6 
#
# 1 0.022410 -0.003464 0.000108 0.000000 -0.012724 0.000000
# 2 -0.003464 0.013233 -0.003666 0.000000 -0.005106 0.000000
# 3 0.000108 -0.003666 0.012828 0.000000 -0.006256 0.000000
# 4 0.000000 0.000000 0.000000 0.054520 0.000000 -0.030533
# 5 -0.012724 -0.005106 -0.006256 0.000000 0.059282 0.000000
# 6 0.000000 0.000000 0.000000 -0.030533 0.000000 0.094841
#
#
# Mechanical properties :
#
#
# Convention : Reuss Voigt Hill
#
# Bulk Modulus (GPa) = 29.04734 45.22058 37.13396
# Shear Modulus (GPa) = 17.69062 23.53556 20.61309
#
# Velocity S-wave (km/s) = 2.95931 3.41335 3.19441
# Velocity P-wave (km/s) = 5.10452 6.15796 5.65582
#
# Compressibility (1/GPa) = 0.03442656
#
# Stress axis : x y z
#
# Youngs Moduli (GPa) = 44.62239 75.56879 77.95186
#
# Poissons Ratio (x) = 0.26178 -0.00841
# Poissons Ratio (y) = 0.15458 0.28580
# Poissons Ratio (z) = -0.00482 0.27706
#
# Static dielectric constant tensor:
#      x y z
#    x 3.153210 0.000000 0.329200 
#    y 0.000000 3.895400 0.000000 
#    z 0.329200 0.000000 3.904300 
# 
# 
# High freq. dielectric constant tensor:
#      x y z
#    x 1.746300 0.000000 0.019680 
#    y 0.000000 1.772950 0.000000 
#    z 0.019680 0.000000 1.803260 
# 
# From -- ./inp_files/23351.got.cif
#   From: 2010.06.25/outbox.cif.g09.slc.cpg/sg11_12_cif.got.tgz:23351.got - 2010.06.27 23:14:04.
