data_PCOD8068441
_publ_section_title
;
Structure prediction by ZEFSAII (Michael W. Deem and Ramdas Pophale) SiO2 
 PCOD8068441
Probable space group: P 21/M
;
_chemical_formula_sum "Si O2"
_cell_formula_units_Z 32
_cell_length_a 29.697799
_cell_length_b 8.876119
_cell_length_c 23.689323
_cell_angle_alpha 90.000000
_cell_angle_beta 16.403115
_cell_angle_gamma 90.000000
_cell_volume 1763.416486
_symmetry_space_group_name_H-M "P 21/M"
_symmetry_group_IT_number 11
_symmetry_cell_setting 'monoclinic'
loop_
_space_group_symop_operation_xyz
x,y,z
-x,1/2+y,-z
-x,-y,-z
x,1/2-y,z
loop_
_atom_site_type_symbol
_atom_site_label
_atom_site_fract_x
_atom_site_fract_y
_atom_site_fract_z
Si Si1 0.115215 0.925588 0.233462
Si Si2 0.090925 0.427110 0.839082
Si Si3 0.562050 0.574902 0.606123
Si Si4 0.356189 0.573572 0.038069
Si Si5 0.128236 0.425568 0.386156
Si Si6 0.023630 0.571592 0.800547
Si Si7 0.663478 0.927520 0.605220
Si Si8 0.218849 0.929672 0.988032
O O1 0.151932 0.750000 0.185568
O O2 0.248196 0.992087 0.116555
O O3 0.935075 0.956830 0.473685
O O4 0.135206 0.989433 0.146409
O O5 0.056427 0.250000 0.877987
O O6 0.279870 0.459663 0.620639
O O7 0.030636 0.500320 0.853991
O O8 0.000000 0.500000 0.000000
O O9 0.532778 0.750000 0.649308
O O10 0.584851 0.510294 0.641869
O O11 0.402894 0.512392 0.767698
O O12 0.327909 0.750000 0.078782
O O13 0.301397 0.496630 0.163221
O O14 0.541836 0.537343 0.802689
O O15 0.135660 0.250000 0.364922
O O16 0.000000 0.500000 0.500000
O O17 0.025348 0.750000 0.803578
O O18 0.170880 0.514852 0.584556
O O19 0.860761 0.515511 0.968196
O O20 0.701861 0.750000 0.554847
O O21 0.202066 0.750000 0.999911
#
# Coordination Sequence:
#
# PCOD8068441 Si02
#       8
#     4   4   4   4   4   4   4   4
#     4   8  14  25  45  69  95 129 168 208 256 308
#     4  10  20  38  62  86 108 137 172 206 248 298
#     4   8  15  29  55  82 101 127 171 215 249 294
#     4   9  15  26  46  71  97 126 167 217 265 313
#     4   9  16  25  38  63  97 131 167 211 260 312
#     4  11  23  36  50  77 112 140 168 208 253 303
#     4   9  16  31  53  75  98 132 176 218 260 311
#     4  10  17  32  55  76 100 135 174 214 256 302
#
# _framework density 18.146594
#
# number of rings (size 3 to 8) (size 9 to 14) (size 15 to 20)
#    0.000    2.750    1.250    3.375    0.000    0.500 
#    0.000    6.875    0.000    0.750    0.000    0.000 
#    0.000    0.000    0.000    0.000    0.000    0.000 
#
# Total GULP energy -396524.167088 kJ/mol
# GULP energy per Si atom -12391.380221 kJ/mol
# Density = 1.810529 g / cm^3
# Si number density = 18.146594 Si / 1000 Ang^3
#
#
#
# Elastic Constant Matrix: (Units=GPa)
#
#
# Indices 1 2 3 4 5 6 
#
# 1 69.3790 33.3353 53.3642 0.0000 -4.4527 0.0000
# 2 33.3353 78.0472 52.9067 0.0000 4.1198 0.0000
# 3 53.3642 52.9067 133.8067 0.0000 7.7047 0.0000
# 4 0.0000 0.0000 0.0000 27.0705 0.0000 5.6265
# 5 -4.4527 4.1198 7.7047 0.0000 30.6131 0.0000
# 6 0.0000 0.0000 0.0000 5.6265 0.0000 18.8408
#
#
#
# Elastic Compliance Matrix: (Units=1/GPa)
#
#
# Indices 1 2 3 4 5 6 
#
# 1 0.022998 -0.005037 -0.007521 0.000000 0.005916 0.000000
# 2 -0.005037 0.018619 -0.005243 0.000000 -0.001919 0.000000
# 3 -0.007521 -0.005243 0.012753 0.000000 -0.003598 0.000000
# 4 0.000000 0.000000 0.000000 0.039385 0.000000 -0.011762
# 5 0.005916 -0.001919 -0.003598 0.000000 0.034690 0.000000
# 6 0.000000 0.000000 0.000000 -0.011762 0.000000 0.056589
#
#
# Mechanical properties :
#
#
# Convention : Reuss Voigt Hill
#
# Bulk Modulus (GPa) = 53.27832 62.27170 57.77501
# Shear Modulus (GPa) = 22.03680 24.74667 23.39174
#
# Velocity S-wave (km/s) = 3.48857 3.69685 3.59422
# Velocity P-wave (km/s) = 6.75652 7.25346 7.00939
#
# Compressibility (1/GPa) = 0.01876936
#
# Stress axis : x y z
#
# Youngs Moduli (GPa) = 43.48111 53.70765 78.41153
#
# Poissons Ratio (x) = 0.27051 0.58975
# Poissons Ratio (y) = 0.21901 0.41109
# Poissons Ratio (z) = 0.32703 0.28158
#
# Static dielectric constant tensor:
#      x y z
#    x 3.168440 0.000000 0.075110 
#    y 0.000000 3.155750 0.000000 
#    z 0.075110 0.000000 3.765190 
# 
# 
# High freq. dielectric constant tensor:
#      x y z
#    x 1.665620 0.000000 0.009550 
#    y 0.000000 1.677110 0.000000 
#    z 0.009550 0.000000 1.714000 
# 
# From -- ./inp_files/67034.got.cif
#   From: 2010.06.25/outbox.cif.g09.slc.cpg/sg11_34_cif.got.tgz:67034.got - 2010.06.27 23:14:04.
