data_PCOD8068143
_publ_section_title
;
Structure prediction by ZEFSAII (Michael W. Deem and Ramdas Pophale) SiO2 
 PCOD8068143
Probable space group: P 21/M
;
_chemical_formula_sum "Si O2"
_cell_formula_units_Z 24
_cell_length_a 24.847900
_cell_length_b 8.721381
_cell_length_c 18.584805
_cell_angle_alpha 90.000000
_cell_angle_beta 18.370117
_cell_angle_gamma 90.000000
_cell_volume 1269.275572
_symmetry_space_group_name_H-M "P 21/M"
_symmetry_group_IT_number 11
_symmetry_cell_setting 'monoclinic'
loop_
_space_group_symop_operation_xyz
x,y,z
-x,1/2+y,-z
-x,-y,-z
x,1/2-y,z
loop_
_atom_site_type_symbol
_atom_site_label
_atom_site_fract_x
_atom_site_fract_y
_atom_site_fract_z
Si Si1 0.501404 0.430969 0.848586
Si Si2 0.993931 0.072758 0.164344
Si Si3 0.854724 0.929402 0.635828
Si Si4 0.837495 0.425187 0.507496
Si Si5 0.665691 0.929715 0.511303
Si Si6 0.167963 0.567993 0.824980
O O1 0.505189 0.250000 0.831614
O O2 0.659184 0.481270 0.698931
O O3 0.511457 0.508924 0.756874
O O4 0.329541 0.490573 0.104480
O O5 0.965846 0.250000 0.177296
O O6 0.992360 0.058018 0.253012
O O7 0.839020 0.970639 0.332317
O O8 0.166355 0.004402 0.908330
O O9 0.863635 0.750000 0.634027
O O10 0.884833 0.970991 0.514808
O O11 0.000000 0.000000 0.500000
O O12 0.820878 0.250000 0.554471
O O13 0.647199 0.750000 0.523081
O O14 0.668021 0.011313 0.429346
O O15 0.164083 0.750000 0.834057
O O16 0.000000 0.500000 0.000000
#
# Coordination Sequence:
#
# PCOD8068143 Si02
#       6
#     4   4   4   4   4   4
#     4   9  19  35  52  73 100 132 166 206 251 295
#     4   9  16  27  42  64  96 130 162 200 243 290
#     4  11  23  37  54  74 100 131 166 206 251 300
#     4   9  18  33  53  75 101 130 165 207 251 294
#     4  10  17  25  41  66  95 128 163 201 243 291
#     4  10  16  23  37  60  94 131 163 198 239 288
#
# _framework density 18.908422999999999
#
# number of rings (size 3 to 8) (size 9 to 14) (size 15 to 20)
#    0.000    2.333    0.000    7.500    0.000    4.667 
#    0.000    0.000    0.000    0.000    0.000    1.167 
#    0.000    0.000    0.000    0.000    0.000    0.000 
#
# Total GULP energy -297444.536380 kJ/mol
# GULP energy per Si atom -12393.522349 kJ/mol
# Density = 1.886539 g / cm^3
# Si number density = 18.908423 Si / 1000 Ang^3
#
#
#
# Elastic Constant Matrix: (Units=GPa)
#
#
# Indices 1 2 3 4 5 6 
#
# 1 95.0645 42.3326 72.2933 0.0000 30.4706 0.0000
# 2 42.3326 94.6757 38.1232 0.0000 17.6235 0.0000
# 3 72.2933 38.1232 64.5812 0.0000 33.1185 0.0000
# 4 0.0000 0.0000 0.0000 27.2445 0.0000 11.6024
# 5 30.4706 17.6235 33.1185 0.0000 34.5770 0.0000
# 6 0.0000 0.0000 0.0000 11.6024 0.0000 30.0537
#
#
#
# Elastic Compliance Matrix: (Units=1/GPa)
#
#
# Indices 1 2 3 4 5 6 
#
# 1 0.085880 0.001272 -0.113487 0.000000 0.032371 0.000000
# 2 0.001272 0.013915 -0.010665 0.000000 0.002002 0.000000
# 3 -0.113487 -0.010665 0.186209 0.000000 -0.072909 0.000000
# 4 0.000000 0.000000 0.000000 0.043926 0.000000 -0.016958
# 5 0.032371 0.002002 -0.072909 0.000000 0.069208 0.000000
# 6 0.000000 0.000000 0.000000 -0.016958 0.000000 0.039820
#
#
# Mechanical properties :
#
#
# Convention : Reuss Voigt Hill
#
# Bulk Modulus (GPa) = 24.84810 62.20218 43.52514
# Shear Modulus (GPa) = 7.16195 25.14653 16.15424
#
# Velocity S-wave (km/s) = 1.94831 3.65075 2.92608
# Velocity P-wave (km/s) = 4.26978 7.12310 5.87238
#
# Compressibility (1/GPa) = 0.04024452
#
# Stress axis : x y z
#
# Youngs Moduli (GPa) = 11.64416 71.86256 5.37031
#
# Poissons Ratio (x) = -0.09144 0.60946
# Poissons Ratio (y) = -0.01482 0.05728
# Poissons Ratio (z) = 1.32146 0.76644
#
# Static dielectric constant tensor:
#      x y z
#    x 4.188790 0.000000 1.338450 
#    y 0.000000 3.451630 0.000000 
#    z 1.338450 0.000000 4.262330 
# 
# 
# High freq. dielectric constant tensor:
#      x y z
#    x 1.703990 0.000000 0.060220 
#    y 0.000000 1.741610 0.000000 
#    z 0.060220 0.000000 1.716110 
# 
# From -- ./inp_files/20526.got.cif
#   From: 2010.06.25/outbox.cif.g09.slc.cpg/sg11_11_cif.got.tgz:20526.got - 2010.06.27 23:14:04.
