data_PCOD8068057
_publ_section_title
;
Structure prediction by ZEFSAII (Michael W. Deem and Ramdas Pophale) SiO2 
 PCOD8068057
Probable space group: P 2/M
;
_chemical_formula_sum "Si O2"
_cell_formula_units_Z 20
_cell_length_a 11.248523
_cell_length_b 9.411169
_cell_length_c 10.832174
_cell_angle_alpha 90.000000
_cell_angle_beta 118.782965
_cell_angle_gamma 90.000000
_cell_volume 1005.036383
_symmetry_space_group_name_H-M "P 2/M"
_symmetry_group_IT_number 10
_symmetry_cell_setting 'monoclinic'
loop_
_space_group_symop_operation_xyz
x,y,z
-x,y,-z
-x,-y,-z
x,-y,z
loop_
_atom_site_type_symbol
_atom_site_label
_atom_site_fract_x
_atom_site_fract_y
_atom_site_fract_z
Si Si1 0.582989 0.165519 0.926517
Si Si2 0.847113 0.163080 0.655853
Si Si3 0.152887 0.836920 0.808740
Si Si4 0.160974 0.659194 0.580487
Si Si5 0.417011 0.165519 0.343528
O O1 0.546092 0.232857 0.773046
O O2 0.546215 0.000000 0.903682
O O3 0.500000 0.235437 0.000000
O O4 0.744620 0.187495 0.026616
O O5 0.789341 0.257626 0.515306
O O6 0.744620 0.187495 0.718003
O O7 1.000000 0.206953 0.772611
O O8 0.844617 0.000000 0.609966
O O9 0.210659 0.742374 0.725965
O O10 0.155383 0.000000 0.765349
O O11 0.221341 0.500000 0.610670
O O12 0.000000 0.656369 0.500000
O O13 0.500000 0.235437 0.500000
O O14 0.453785 0.000000 0.357467
#
# Coordination Sequence:
#
# PCOD8068057 Si02
#       5
#     4   4   4   4   4
#     4   9  18  30  46  72 103 133 164 202 249 297
#     4   9  17  29  48  74 101 128 164 208 248 287
#     4   9  17  29  48  74 101 128 164 208 248 287
#     4   9  17  29  47  73 103 133 164 199 246 300
#     4   9  18  30  46  72 103 133 164 202 249 297
#
# _framework density 19.899778999999999
#
# number of rings (size 3 to 8) (size 9 to 14) (size 15 to 20)
#    0.000    3.000    0.000    0.600    2.800    3.200 
#    0.000    4.000    0.000    2.400    0.000    5.600 
#    0.000    0.000    0.000    0.000    0.000    0.000 
#
# Total GULP energy -247809.808294 kJ/mol
# GULP energy per Si atom -12390.490415 kJ/mol
# Density = 1.985449 g / cm^3
# Si number density = 19.899779 Si / 1000 Ang^3
#
#
#
# Elastic Constant Matrix: (Units=GPa)
#
#
# Indices 1 2 3 4 5 6 
#
# 1 93.1141 7.6513 66.7890 0.0000 -9.3083 0.0000
# 2 7.6513 46.9412 22.5362 0.0000 -6.7790 0.0000
# 3 66.7890 22.5362 157.7338 0.0000 -20.1215 0.0000
# 4 0.0000 0.0000 0.0000 4.9058 0.0000 0.9873
# 5 -9.3083 -6.7790 -20.1215 0.0000 28.3064 0.0000
# 6 0.0000 0.0000 0.0000 0.9873 0.0000 7.0737
#
#
#
# Elastic Compliance Matrix: (Units=1/GPa)
#
#
# Indices 1 2 3 4 5 6 
#
# 1 0.015452 0.000720 -0.006572 0.000000 0.000582 0.000000
# 2 0.000720 0.023220 -0.003170 0.000000 0.003544 0.000000
# 3 -0.006572 -0.003170 0.010121 0.000000 0.004274 0.000000
# 4 0.000000 0.000000 0.000000 0.209733 0.000000 -0.029274
# 5 0.000582 0.003544 0.004274 0.000000 0.039406 0.000000
# 6 0.000000 0.000000 0.000000 -0.029274 0.000000 0.145455
#
#
# Mechanical properties :
#
#
# Convention : Reuss Voigt Hill
#
# Bulk Modulus (GPa) = 32.52105 54.63802 43.57954
# Shear Modulus (GPa) = 10.60041 21.44468 16.02255
#
# Velocity S-wave (km/s) = 2.31051 3.28630 2.84062
# Velocity P-wave (km/s) = 4.84725 6.47425 5.71890
#
# Compressibility (1/GPa) = 0.03074931
#
# Stress axis : x y z
#
# Youngs Moduli (GPa) = 64.71587 43.06679 98.80893
#
# Poissons Ratio (x) = -0.03103 0.64932
# Poissons Ratio (y) = -0.04662 0.31327
# Poissons Ratio (z) = 0.42528 0.13654
#
# Static dielectric constant tensor:
#      x y z
#    x 3.655740 0.000000 -0.051490 
#    y 0.000000 3.277120 0.000000 
#    z -0.051490 0.000000 3.768800 
# 
# 
# High freq. dielectric constant tensor:
#      x y z
#    x 1.778230 0.000000 0.002890 
#    y 0.000000 1.710100 0.000000 
#    z 0.002890 0.000000 1.771880 
# 
# From -- ./inp_files/23587.got.cif
#   From: 2010.06.25/outbox.cif.g09.slc.cpg/sg10_12_cif.got.tgz:23587.got - 2010.06.27 22:07:45.
