data_PCOD8068853
_publ_section_title
;
Structure prediction by ZEFSAII (Michael W. Deem and Ramdas Pophale) SiO2 
 PCOD8068853
Probable space group: P 21/M
;
_chemical_formula_sum "Si O2"
_cell_formula_units_Z 28
_cell_length_a 14.749844
_cell_length_b 8.971057
_cell_length_c 18.920225
_cell_angle_alpha 90.000000
_cell_angle_beta 38.496246
_cell_angle_gamma 90.000000
_cell_volume 1558.371984
_symmetry_space_group_name_H-M "P 21/M"
_symmetry_group_IT_number 11
_symmetry_cell_setting 'monoclinic'
loop_
_space_group_symop_operation_xyz
x,y,z
-x,1/2+y,-z
-x,-y,-z
x,1/2-y,z
loop_
_atom_site_type_symbol
_atom_site_label
_atom_site_fract_x
_atom_site_fract_y
_atom_site_fract_z
Si Si1 0.168336 0.074298 0.667465
Si Si2 0.549746 0.082356 0.763493
Si Si3 0.862629 0.074620 0.902220
Si Si4 0.375961 0.426068 0.418325
Si Si5 0.780967 0.585849 0.083957
Si Si6 0.337386 0.426454 0.700348
Si Si7 0.549175 0.427481 0.042247
O O1 0.162169 0.250000 0.681487
O O2 0.233958 0.031479 0.551437
O O3 0.270834 0.012876 0.667790
O O4 0.003637 0.010145 0.774739
O O5 0.608257 0.250000 0.741373
O O6 0.387279 0.085569 0.834415
O O7 0.646929 0.002986 0.643886
O O8 0.557151 0.988099 0.831338
O O9 0.863375 0.250000 0.901676
O O10 0.714930 0.017310 0.955204
O O11 0.870555 0.025389 0.979493
O O12 0.391918 0.250000 0.397618
O O13 0.515313 0.483634 0.376066
O O14 0.848103 0.750000 0.032601
O O15 0.783128 0.537941 0.164985
O O16 0.373286 0.250000 0.678300
O O17 0.536844 0.250000 0.046200
O O18 0.500000 0.500000 0.000000
#
# Coordination Sequence:
#
# PCOD8068853 Si02
#       7
#     4   4   4   4   4   4   4
#     4   9  18  31  46  65  93 129 163 198 238 275
#     4   9  17  31  50  71  97 125 154 191 235 280
#     4   9  18  32  48  67  93 125 157 188 232 289
#     4  10  18  29  47  69  94 125 164 203 233 269
#     4   8  15  27  43  64  91 122 154 192 235 275
#     4   9  17  30  46  64  91 127 165 203 240 274
#     4  10  19  32  54  80 101 120 148 188 233 285
#
# _framework density 17.967468
#
# number of rings (size 3 to 8) (size 9 to 14) (size 15 to 20)
#    0.000    2.857    0.000    2.571    0.000    4.571 
#    0.000    2.857    0.000    0.857    0.000    0.000 
#    0.000    0.000    0.000    0.000    0.000    0.000 
#
# Total GULP energy -347056.511538 kJ/mol
# GULP energy per Si atom -12394.875412 kJ/mol
# Density = 1.792657 g / cm^3
# Si number density = 17.967468 Si / 1000 Ang^3
#
#
#
# Elastic Constant Matrix: (Units=GPa)
#
#
# Indices 1 2 3 4 5 6 
#
# 1 51.7809 27.6905 45.9207 0.0000 22.3021 0.0000
# 2 27.6905 62.6051 41.4428 0.0000 9.1126 0.0000
# 3 45.9207 41.4428 140.8386 0.0000 18.7059 0.0000
# 4 0.0000 0.0000 0.0000 25.8372 0.0000 8.3834
# 5 22.3021 9.1126 18.7059 0.0000 28.1222 0.0000
# 6 0.0000 0.0000 0.0000 8.3834 0.0000 20.8497
#
#
#
# Elastic Compliance Matrix: (Units=1/GPa)
#
#
# Indices 1 2 3 4 5 6 
#
# 1 0.042138 -0.010046 -0.007434 0.000000 -0.025217 0.000000
# 2 -0.010046 0.022434 -0.003750 0.000000 0.003192 0.000000
# 3 -0.007434 -0.003750 0.010621 0.000000 0.000045 0.000000
# 4 0.000000 0.000000 0.000000 0.044511 0.000000 -0.017897
# 5 -0.025217 0.003192 0.000045 0.000000 0.054493 0.000000
# 6 0.000000 0.000000 0.000000 -0.017897 0.000000 0.055159
#
#
# Mechanical properties :
#
#
# Convention : Reuss Voigt Hill
#
# Bulk Modulus (GPa) = 30.54918 53.92585 42.23751
# Shear Modulus (GPa) = 17.68488 24.30654 20.99571
#
# Velocity S-wave (km/s) = 3.14072 3.68204 3.42210
# Velocity P-wave (km/s) = 5.49468 6.93937 6.25885
#
# Compressibility (1/GPa) = 0.03273411
#
# Stress axis : x y z
#
# Youngs Moduli (GPa) = 23.73159 44.57457 94.14899
#
# Poissons Ratio (x) = 0.44781 0.69987
# Poissons Ratio (y) = 0.23842 0.35304
# Poissons Ratio (z) = 0.17641 0.16714
#
# Static dielectric constant tensor:
#      x y z
#    x 3.162100 0.000000 0.133840 
#    y 0.000000 3.279800 0.000000 
#    z 0.133840 0.000000 3.651570 
# 
# 
# High freq. dielectric constant tensor:
#      x y z
#    x 1.661380 0.000000 0.021370 
#    y 0.000000 1.686420 0.000000 
#    z 0.021370 0.000000 1.698780 
# 
# From -- ./inp_files/37150.got.cif
#   From: 2010.06.25/outbox.cif.g09.slc.cpg/sg11_19_cif.got.tgz:37150.got - 2010.06.27 23:14:04.
