data_PCOD8068226
_publ_section_title
;
Structure prediction by ZEFSAII (Michael W. Deem and Ramdas Pophale) SiO2 
 PCOD8068226
Probable space group: P 21/M
;
_chemical_formula_sum "Si O2"
_cell_formula_units_Z 28
_cell_length_a 14.322211
_cell_length_b 8.887497
_cell_length_c 28.856779
_cell_angle_alpha 90.000000
_cell_angle_beta 151.243881
_cell_angle_gamma 90.000000
_cell_volume 1767.082618
_symmetry_space_group_name_H-M "P 21/M"
_symmetry_group_IT_number 11
_symmetry_cell_setting 'monoclinic'
loop_
_space_group_symop_operation_xyz
x,y,z
-x,1/2+y,-z
-x,-y,-z
x,1/2-y,z
loop_
_atom_site_type_symbol
_atom_site_label
_atom_site_fract_x
_atom_site_fract_y
_atom_site_fract_z
Si Si1 0.188437 0.929358 0.559726
Si Si2 0.702996 0.425035 0.578172
Si Si3 0.762415 0.422029 0.705366
Si Si4 0.068472 0.072935 0.137324
Si Si5 0.310818 0.427249 0.518970
Si Si6 0.581819 0.574300 0.773793
Si Si7 0.846875 0.573737 0.967461
O O1 0.172912 0.750000 0.553306
O O2 0.371139 0.991309 0.669444
O O3 0.208806 0.987580 0.516518
O O4 0.000000 0.000000 0.500000
O O5 0.500000 0.500000 0.500000
O O6 0.674510 0.250000 0.553882
O O7 0.826157 0.444571 0.679290
O O8 0.794344 0.510823 0.573645
O O9 0.789529 0.250000 0.732224
O O10 0.906684 0.523373 0.798705
O O11 0.538558 0.469533 0.616325
O O12 0.046041 0.250000 0.124547
O O13 0.253999 0.008793 0.189467
O O14 0.872635 0.000841 0.029448
O O15 0.275714 0.250000 0.507725
O O16 0.577127 0.750000 0.761891
O O17 0.636673 0.541715 0.851774
O O18 0.886347 0.750000 0.988340
O O19 0.000000 0.500000 0.000000
#
# Coordination Sequence:
#
# PCOD8068226 Si02
#       7
#     4   4   4   4   4   4   4
#     4  11  21  34  48  65  87 116 153 193 227 263
#     4   9  17  28  42  62  86 115 148 182 220 263
#     4   9  17  27  41  63  89 116 148 180 213 259
#     4  10  17  26  41  63  87 117 147 175 216 261
#     4  10  19  31  45  63  85 115 151 186 227 266
#     4   8  16  29  43  58  81 113 146 180 222 261
#     4   9  16  27  41  60  82 110 144 178 216 261
#
# _framework density 15.845325000000001
#
# number of rings (size 3 to 8) (size 9 to 14) (size 15 to 20)
#    0.000    2.571    1.429    3.857    0.000    2.857 
#    0.000    2.143    0.000    0.000    0.000    0.000 
#    0.000    1.143    0.000    3.429    0.000    4.571 
#
# Total GULP energy -346949.782286 kJ/mol
# GULP energy per Si atom -12391.063653 kJ/mol
# Density = 1.580926 g / cm^3
# Si number density = 15.845325 Si / 1000 Ang^3
#
#
#
# Elastic Constant Matrix: (Units=GPa)
#
#
# Indices 1 2 3 4 5 6 
#
# 1 79.9704 37.9439 52.6015 0.0000 -20.7691 0.0000
# 2 37.9439 82.7236 41.7766 0.0000 -16.3814 0.0000
# 3 52.6015 41.7766 90.4984 0.0000 -26.5641 0.0000
# 4 0.0000 0.0000 0.0000 22.4331 0.0000 -7.6644
# 5 -20.7691 -16.3814 -26.5641 0.0000 25.6313 0.0000
# 6 0.0000 0.0000 0.0000 -7.6644 0.0000 24.8602
#
#
#
# Elastic Compliance Matrix: (Units=1/GPa)
#
#
# Indices 1 2 3 4 5 6 
#
# 1 0.022060 -0.004389 -0.009159 0.000000 0.005578 0.000000
# 2 -0.004389 0.016876 -0.004481 0.000000 0.002586 0.000000
# 3 -0.009159 -0.004481 0.022166 0.000000 0.012688 0.000000
# 4 0.000000 0.000000 0.000000 0.049825 0.000000 0.015361
# 5 0.005578 0.002586 0.012688 0.000000 0.058337 0.000000
# 6 0.000000 0.000000 0.000000 0.015361 0.000000 0.044961
#
#
# Mechanical properties :
#
#
# Convention : Reuss Voigt Hill
#
# Bulk Modulus (GPa) = 39.92630 57.53738 48.73184
# Shear Modulus (GPa) = 19.33260 22.64294 20.98777
#
# Velocity S-wave (km/s) = 3.49676 3.78431 3.64337
# Velocity P-wave (km/s) = 6.44634 7.44885 6.96566
#
# Compressibility (1/GPa) = 0.02504614
#
# Stress axis : x y z
#
# Youngs Moduli (GPa) = 45.33096 59.25466 45.11399
#
# Poissons Ratio (x) = 0.26004 0.41320
# Poissons Ratio (y) = 0.19894 0.20214
# Poissons Ratio (z) = 0.41518 0.26550
#
# Static dielectric constant tensor:
#      x y z
#    x 2.916650 0.000000 -0.483420 
#    y 0.000000 3.112430 0.000000 
#    z -0.483420 0.000000 3.295980 
# 
# 
# High freq. dielectric constant tensor:
#      x y z
#    x 1.567880 0.000000 -0.047540 
#    y 0.000000 1.616650 0.000000 
#    z -0.047540 0.000000 1.591900 
# 
# From -- ./inp_files/50977.got.cif
#   From: 2010.06.25/outbox.cif.g09.slc.cpg/sg11_26_cif.got.tgz:50977.got - 2010.06.27 23:14:04.
