data_PCOD8068874
_publ_section_title
;
Structure prediction by ZEFSAII (Michael W. Deem and Ramdas Pophale) SiO2 
 PCOD8068874
Probable space group: P 21/M
;
_chemical_formula_sum "Si O2"
_cell_formula_units_Z 32
_cell_length_a 14.915984
_cell_length_b 9.235578
_cell_length_c 15.003781
_cell_angle_alpha 90.000000
_cell_angle_beta 79.297200
_cell_angle_gamma 90.000000
_cell_volume 2030.930729
_symmetry_space_group_name_H-M "P 21/M"
_symmetry_group_IT_number 11
_symmetry_cell_setting 'monoclinic'
loop_
_space_group_symop_operation_xyz
x,y,z
-x,1/2+y,-z
-x,-y,-z
x,1/2-y,z
loop_
_atom_site_type_symbol
_atom_site_label
_atom_site_fract_x
_atom_site_fract_y
_atom_site_fract_z
Si Si1 0.209130 0.578969 0.919012
Si Si2 0.057057 0.082535 0.611542
Si Si3 0.882825 0.582720 0.587556
Si Si4 0.755545 0.582293 0.763072
Si Si5 0.912407 0.918644 0.196496
Si Si6 0.391012 0.417995 0.929268
Si Si7 0.119289 0.581113 0.120998
Si Si8 0.568469 0.916463 0.873906
O O1 0.222327 0.750000 0.907386
O O2 0.157519 0.518600 0.842798
O O3 0.307327 0.504889 0.903814
O O4 0.150331 0.537020 0.016410
O O5 0.030785 0.250000 0.612055
O O6 0.122250 0.037328 0.516062
O O7 0.106557 0.048654 0.695555
O O8 0.961876 0.000104 0.624775
O O9 0.908213 0.750000 0.590768
O O10 0.787450 0.549565 0.655483
O O11 0.766694 0.750000 0.786085
O O12 0.817654 0.497218 0.820057
O O13 0.649349 0.538749 0.791175
O O14 0.896149 0.750000 0.176334
O O15 0.014755 0.966287 0.152179
O O16 0.382258 0.250000 0.905673
O O17 0.483398 0.480510 0.868567
O O18 0.392767 0.443357 0.034511
O O19 0.131190 0.750000 0.136473
O O20 0.537820 0.750000 0.867852
#
# Coordination Sequence:
#
# PCOD8068874 Si02
#       8
#     4   4   4   4   4   4   4   4
#     4  11  22  33  47  67  92 124 162 200 232 270
#     4   9  17  30  46  66  93 124 156 192 231 271
#     4   9  17  28  46  70  94 121 154 190 231 275
#     4  10  18  29  47  71  97 125 154 188 229 276
#     4  10  20  33  47  64  92 129 164 195 228 269
#     4  10  19  32  49  68  91 121 155 192 232 277
#     4  10  20  32  45  65  94 127 162 194 225 267
#     4   9  18  31  47  68  94 122 152 188 231 277
#
# _framework density 15.756322000000001
#
# number of rings (size 3 to 8) (size 9 to 14) (size 15 to 20)
#    0.000    2.250    2.500    1.125    0.000    2.500 
#    0.000    0.000    0.000    0.000    0.000    0.875 
#    0.000    0.000    0.000    0.000    0.000    0.000 
#
# Total GULP energy -396766.802756 kJ/mol
# GULP energy per Si atom -12398.962586 kJ/mol
# Density = 1.572046 g / cm^3
# Si number density = 15.756322 Si / 1000 Ang^3
#
#
#
# Elastic Constant Matrix: (Units=GPa)
#
#
# Indices 1 2 3 4 5 6 
#
# 1 102.8534 50.3125 60.2572 0.0000 -10.1885 0.0000
# 2 50.3125 58.8940 41.5949 0.0000 -1.0380 0.0000
# 3 60.2572 41.5949 104.3811 0.0000 -12.2589 0.0000
# 4 0.0000 0.0000 0.0000 15.4241 0.0000 3.9055
# 5 -10.1885 -1.0380 -12.2589 0.0000 22.1268 0.0000
# 6 0.0000 0.0000 0.0000 3.9055 0.0000 28.6324
#
#
#
# Elastic Compliance Matrix: (Units=1/GPa)
#
#
# Indices 1 2 3 4 5 6 
#
# 1 0.019907 -0.012862 -0.005734 0.000000 0.005386 0.000000
# 2 -0.012862 0.032346 -0.006399 0.000000 -0.007950 0.000000
# 3 -0.005734 -0.006399 0.016145 0.000000 0.006005 0.000000
# 4 0.000000 0.000000 0.000000 0.067153 0.000000 -0.009160
# 5 0.005386 -0.007950 0.006005 0.000000 0.050628 0.000000
# 6 0.000000 0.000000 0.000000 -0.009160 0.000000 0.036175
#
#
# Mechanical properties :
#
#
# Convention : Reuss Voigt Hill
#
# Bulk Modulus (GPa) = 54.31818 63.38419 58.85118
# Shear Modulus (GPa) = 17.95466 20.83426 19.39446
#
# Velocity S-wave (km/s) = 3.37934 3.64026 3.51222
# Velocity P-wave (km/s) = 7.05516 7.61471 7.34027
#
# Compressibility (1/GPa) = 0.01841004
#
# Stress axis : x y z
#
# Youngs Moduli (GPa) = 50.23381 30.91560 61.93705
#
# Poissons Ratio (x) = 0.39762 0.35515
# Poissons Ratio (y) = 0.64608 0.39631
# Poissons Ratio (z) = 0.28805 0.19782
#
# Static dielectric constant tensor:
#      x y z
#    x 2.899010 0.000000 -0.236190 
#    y 0.000000 2.884520 0.000000 
#    z -0.236190 0.000000 3.247370 
# 
# 
# High freq. dielectric constant tensor:
#      x y z
#    x 1.585280 0.000000 -0.015370 
#    y 0.000000 1.610940 0.000000 
#    z -0.015370 0.000000 1.596530 
# 
# From -- ./inp_files/51188.got.cif
#   From: 2010.06.25/outbox.cif.g09.slc.cpg/sg11_26_cif.got.tgz:51188.got - 2010.06.27 23:14:04.
