data_PCOD8068140
_publ_section_title
;
Structure prediction by ZEFSAII (Michael W. Deem and Ramdas Pophale) SiO2 
 PCOD8068140
Probable space group: P 21/M
;
_chemical_formula_sum "Si O2"
_cell_formula_units_Z 28
_cell_length_a 18.429351
_cell_length_b 8.661131
_cell_length_c 20.739216
_cell_angle_alpha 90.000000
_cell_angle_beta 151.907742
_cell_angle_gamma 90.000000
_cell_volume 1558.830606
_symmetry_space_group_name_H-M "P 21/M"
_symmetry_group_IT_number 11
_symmetry_cell_setting 'monoclinic'
loop_
_space_group_symop_operation_xyz
x,y,z
-x,1/2+y,-z
-x,-y,-z
x,1/2-y,z
loop_
_atom_site_type_symbol
_atom_site_label
_atom_site_fract_x
_atom_site_fract_y
_atom_site_fract_z
Si Si1 0.587553 0.433176 0.161397
Si Si2 0.490196 0.569942 0.633821
Si Si3 0.662376 0.429440 0.359695
Si Si4 0.349128 0.567073 0.346811
Si Si5 0.806599 0.931022 0.663817
Si Si6 0.959288 0.066568 0.668198
Si Si7 0.725671 0.567462 0.148714
O O1 0.593518 0.250000 0.167442
O O2 0.623753 0.505560 0.260314
O O3 0.715265 0.494801 0.211745
O O4 0.418089 0.490171 0.007059
O O5 0.468514 0.750000 0.599425
O O6 0.483265 0.544881 0.705796
O O7 0.646456 0.502940 0.723074
O O8 0.349537 0.473064 0.495128
O O9 0.690134 0.250000 0.369915
O O10 0.820085 0.496962 0.513963
O O11 0.500000 0.500000 0.500000
O O12 0.351957 0.750000 0.346263
O O13 0.199138 0.508921 0.269085
O O14 0.825186 0.750000 0.687274
O O15 0.946994 0.996618 0.730772
O O16 0.951760 0.250000 0.668730
O O17 0.118671 0.008078 0.762682
O O18 0.726697 0.750000 0.156913
#
# Coordination Sequence:
#
# PCOD8068140 Si02
#       7
#     4   4   4   4   4   4   4
#     4   9  17  31  48  65  85 112 145 177 211 256
#     4   9  15  25  39  57  84 116 146 177 214 254
#     4   8  15  27  44  63  86 115 144 175 213 256
#     4  10  16  23  36  56  84 117 148 177 212 253
#     4  10  17  25  38  59  85 113 145 179 215 254
#     4   9  17  30  44  61  87 116 143 175 217 259
#     4   9  18  31  47  65  86 112 143 178 215 255
#
# _framework density 17.962183
#
# number of rings (size 3 to 8) (size 9 to 14) (size 15 to 20)
#    0.000    2.857    0.000    5.571    0.000    1.143 
#    0.000    3.571    0.000    0.000    0.000    1.000 
#    0.000    0.000    0.000    0.000    0.000    0.000 
#
# Total GULP energy -346938.201360 kJ/mol
# GULP energy per Si atom -12390.650049 kJ/mol
# Density = 1.792130 g / cm^3
# Si number density = 17.962183 Si / 1000 Ang^3
#
#
#
# Elastic Constant Matrix: (Units=GPa)
#
#
# Indices 1 2 3 4 5 6 
#
# 1 204.9952 44.3192 58.4035 0.0000 16.8305 0.0000
# 2 44.3192 59.9473 16.3786 0.0000 3.4594 0.0000
# 3 58.4035 16.3786 42.4509 0.0000 6.2141 0.0000
# 4 0.0000 0.0000 0.0000 9.2773 0.0000 1.9846
# 5 16.8305 3.4594 6.2141 0.0000 6.8945 0.0000
# 6 0.0000 0.0000 0.0000 1.9846 0.0000 33.3328
#
#
#
# Elastic Compliance Matrix: (Units=1/GPa)
#
#
# Indices 1 2 3 4 5 6 
#
# 1 0.009482 -0.003605 -0.009828 0.000000 -0.012481 0.000000
# 2 -0.003605 0.020083 -0.002998 0.000000 0.001425 0.000000
# 3 -0.009828 -0.002998 0.039746 0.000000 -0.010328 0.000000
# 4 0.000000 0.000000 0.000000 0.109180 0.000000 -0.006500
# 5 -0.012481 0.001425 -0.010328 0.000000 0.184104 0.000000
# 6 0.000000 0.000000 0.000000 -0.006500 0.000000 0.030388
#
#
# Mechanical properties :
#
#
# Convention : Reuss Voigt Hill
#
# Bulk Modulus (GPa) = 27.43414 60.62177 44.02795
# Shear Modulus (GPa) = 11.41570 22.45373 16.93471
#
# Velocity S-wave (km/s) = 2.52373 3.53945 3.07383
# Velocity P-wave (km/s) = 4.87839 7.10820 6.09611
#
# Compressibility (1/GPa) = 0.03645094
#
# Stress axis : x y z
#
# Youngs Moduli (GPa) = 105.46182 49.79292 25.15994
#
# Poissons Ratio (x) = 0.17950 0.24726
# Poissons Ratio (y) = 0.38017 0.07542
# Poissons Ratio (z) = 1.03643 0.14926
#
# Static dielectric constant tensor:
#      x y z
#    x 4.350390 0.000000 -0.009970 
#    y 0.000000 3.143570 0.000000 
#    z -0.009970 0.000000 2.996770 
# 
# 
# High freq. dielectric constant tensor:
#      x y z
#    x 1.727300 0.000000 0.003180 
#    y 0.000000 1.682990 0.000000 
#    z 0.003180 0.000000 1.623420 
# 
# From -- ./inp_files/65982.got.cif
#   From: 2010.06.25/outbox.cif.g09.slc.cpg/sg11_33_cif.got.tgz:65982.got - 2010.06.27 23:14:04.
