data_PCOD8068222
_publ_section_title
;
Structure prediction by ZEFSAII (Michael W. Deem and Ramdas Pophale) SiO2 
 PCOD8068222
Probable space group: P 21/M
;
_chemical_formula_sum "Si O2"
_cell_formula_units_Z 32
_cell_length_a 30.594224
_cell_length_b 12.569698
_cell_length_c 5.173361
_cell_angle_alpha 90.000000
_cell_angle_beta 90.129955
_cell_angle_gamma 90.000000
_cell_volume 1989.463397
_symmetry_space_group_name_H-M "P 21/M"
_symmetry_group_IT_number 11
_symmetry_cell_setting 'monoclinic'
loop_
_space_group_symop_operation_xyz
x,y,z
-x,1/2+y,-z
-x,-y,-z
x,1/2-y,z
loop_
_atom_site_type_symbol
_atom_site_label
_atom_site_fract_x
_atom_site_fract_y
_atom_site_fract_z
Si Si1 0.052913 0.561889 0.765933
Si Si2 0.150407 0.876337 0.745683
Si Si3 0.203020 0.876081 0.245165
Si Si4 0.699316 0.375973 0.754955
Si Si5 0.442766 0.496552 0.750552
Si Si6 0.646493 0.123583 0.254332
Si Si7 0.468973 0.122904 0.250241
Si Si8 0.994191 0.132983 0.731660
O O1 0.104681 0.562847 0.736602
O O2 0.030517 0.631174 0.542251
O O3 0.036530 0.441294 0.737101
O O4 0.040677 0.605513 0.047124
O O5 0.142043 0.750000 0.748511
O O6 0.178009 0.914120 0.499862
O O7 0.176759 0.916142 0.995630
O O8 0.206293 0.750000 0.240269
O O9 0.251850 0.925081 0.243816
O O10 0.702894 0.250000 0.754545
O O11 0.673704 0.414886 0.502351
O O12 0.673540 0.414807 0.006340
O O13 0.399260 0.564888 0.745075
O O14 0.481359 0.582745 0.752090
O O15 0.444664 0.419766 0.503695
O O16 0.443621 0.421969 0.001737
O O17 0.638299 0.250000 0.254303
O O18 0.468514 0.250000 0.247264
O O19 0.012830 0.250000 0.777796
#
# Coordination Sequence:
#
# PCOD8068222 Si02
#       8
#     4   4   4   4   4   4   4   4
#     4  10  20  30  45  67  87 118 155 182 217 266
#     4  10  17  26  41  60  86 115 147 182 212 258
#     4   9  17  27  40  60  87 119 146 173 217 266
#     4   9  17  28  42  62  90 122 150 180 222 267
#     4  10  20  32  49  71  92 123 160 188 222 271
#     4  10  18  29  46  67  94 123 153 186 217 263
#     4  10  20  34  49  67  96 125 153 192 231 264
#     4  10  19  32  46  62  90 119 148 187 224 257
#
# _framework density 16.08474
#
# number of rings (size 3 to 8) (size 9 to 14) (size 15 to 20)
#    0.000    2.250    0.000    4.125    0.000    4.000 
#    0.000    3.750    0.000    0.000    0.000    0.000 
#    0.000   20.000    0.000    0.000    0.000    0.000 
#
# Total GULP energy -396828.917605 kJ/mol
# GULP energy per Si atom -12400.903675 kJ/mol
# Density = 1.604813 g / cm^3
# Si number density = 16.084740 Si / 1000 Ang^3
#
#
#
# Elastic Constant Matrix: (Units=GPa)
#
#
# Indices 1 2 3 4 5 6 
#
# 1 136.6075 43.7271 60.6564 0.0000 2.0889 0.0000
# 2 43.7271 72.0025 32.0732 0.0000 3.1036 0.0000
# 3 60.6564 32.0732 137.2871 0.0000 5.4131 0.0000
# 4 0.0000 0.0000 0.0000 3.0032 0.0000 0.6604
# 5 2.0889 3.1036 5.4131 0.0000 13.6238 0.0000
# 6 0.0000 0.0000 0.0000 0.6604 0.0000 19.0760
#
#
#
# Elastic Compliance Matrix: (Units=1/GPa)
#
#
# Indices 1 2 3 4 5 6 
#
# 1 0.010398 -0.004790 -0.003510 0.000000 0.000892 0.000000
# 2 -0.004790 0.017769 -0.001935 0.000000 -0.002545 0.000000
# 3 -0.003510 -0.001935 0.009396 0.000000 -0.002754 0.000000
# 4 0.000000 0.000000 0.000000 0.335531 0.000000 -0.011616
# 5 0.000892 -0.002545 -0.002754 0.000000 0.074938 0.000000
# 6 0.000000 0.000000 0.000000 -0.011616 0.000000 0.052824
#
#
# Mechanical properties :
#
#
# Convention : Reuss Voigt Hill
#
# Bulk Modulus (GPa) = 58.50294 68.75673 63.62984
# Shear Modulus (GPa) = 9.48726 21.10331 15.29528
#
# Velocity S-wave (km/s) = 2.43128 3.62609 3.08704
# Velocity P-wave (km/s) = 6.65824 7.76986 7.23543
#
# Compressibility (1/GPa) = 0.01709316
#
# Stress axis : x y z
#
# Youngs Moduli (GPa) = 96.16803 56.27892 106.43342
#
# Poissons Ratio (x) = 0.26956 0.37363
# Poissons Ratio (y) = 0.46062 0.20591
# Poissons Ratio (z) = 0.33759 0.10888
#
# Static dielectric constant tensor:
#      x y z
#    x 3.065220 0.000000 -0.003110 
#    y 0.000000 2.727840 0.000000 
#    z -0.003110 0.000000 3.356640 
# 
# 
# High freq. dielectric constant tensor:
#      x y z
#    x 1.620200 0.000000 -0.000430 
#    y 0.000000 1.570030 0.000000 
#    z -0.000430 0.000000 1.645190 
# 
# From -- ./inp_files/9356.got.cif
#   From: 2010.06.25/outbox.cif.g09.slc.cpg/sg11_5_cif.got.tgz:9356.got - 2010.06.27 23:14:04.
