data_PCOD8068454
_publ_section_title
;
Structure prediction by ZEFSAII (Michael W. Deem and Ramdas Pophale) SiO2 
 PCOD8068454
Probable space group: P 21/M
;
_chemical_formula_sum "Si O2"
_cell_formula_units_Z 32
_cell_length_a 9.156696
_cell_length_b 20.196041
_cell_length_c 13.103986
_cell_angle_alpha 90.000000
_cell_angle_beta 135.272164
_cell_angle_gamma 90.000000
_cell_volume 1705.378032
_symmetry_space_group_name_H-M "P 21/M"
_symmetry_group_IT_number 11
_symmetry_cell_setting 'monoclinic'
loop_
_space_group_symop_operation_xyz
x,y,z
-x,1/2+y,-z
-x,-y,-z
x,1/2-y,z
loop_
_atom_site_type_symbol
_atom_site_label
_atom_site_fract_x
_atom_site_fract_y
_atom_site_fract_z
Si Si1 0.437210 0.675251 0.935235
Si Si2 0.676820 0.324377 0.353508
Si Si3 0.194364 0.965669 0.541847
Si Si4 0.883532 0.483182 0.726161
Si Si5 0.180854 0.112099 0.953462
Si Si6 0.206197 0.322674 0.157713
Si Si7 0.148251 0.906781 0.932182
Si Si8 0.351997 0.998869 0.185407
O O1 0.496330 0.750000 0.995730
O O2 0.332220 0.673503 0.772789
O O3 0.280695 0.647201 0.939906
O O4 0.639285 0.628070 0.038546
O O5 0.755212 0.250000 0.425475
O O6 0.824872 0.385059 0.461979
O O7 0.451206 0.338666 0.290863
O O8 0.213860 0.987464 0.433799
O O9 0.400468 0.992463 0.700313
O O10 0.000000 0.000000 0.500000
O O11 0.715640 0.500398 0.729614
O O12 0.975110 0.409360 0.790904
O O13 0.087199 0.530708 0.831419
O O14 0.143983 0.176667 0.005941
O O15 0.242030 0.057374 0.069166
O O16 0.158089 0.250000 0.176694
O O17 0.073531 0.374861 0.154017
O O18 0.275823 0.930101 0.095900
#
# Coordination Sequence:
#
# PCOD8068454 Si02
#       8
#     4   4   4   4   4   4   4   4
#     4  10  20  33  56  84 114 148 188 234 281 343
#     4   9  19  39  59  80 114 153 194 239 283 342
#     4  12  24  37  58  88 115 156 202 234 288 344
#     4  11  22  35  59  85 113 149 186 244 285 344
#     4  10  18  36  57  83 109 142 192 229 295 334
#     4  10  17  32  60  84 109 145 190 231 277 347
#     4  11  20  34  57  88 119 141 185 238 305 331
#     4  11  21  38  57  81 120 149 180 244 289 341
#
# _framework density 18.764168999999999
#
# number of rings (size 3 to 8) (size 9 to 14) (size 15 to 20)
#    0.000    1.500    5.000    3.375    1.750    1.000 
#    0.000    1.250    0.000    0.000    0.000    0.000 
#    0.000    0.000    0.000    0.000    0.000    0.000 
#
# Total GULP energy -396602.060813 kJ/mol
# GULP energy per Si atom -12393.814400 kJ/mol
# Density = 1.872146 g / cm^3
# Si number density = 18.764169 Si / 1000 Ang^3
#
#
#
# Elastic Constant Matrix: (Units=GPa)
#
#
# Indices 1 2 3 4 5 6 
#
# 1 106.0791 47.6957 19.5266 0.0000 -3.9416 0.0000
# 2 47.6957 105.6025 26.1969 0.0000 2.1076 0.0000
# 3 19.5266 26.1969 58.3025 0.0000 -3.7089 0.0000
# 4 0.0000 0.0000 0.0000 23.7712 0.0000 5.0284
# 5 -3.9416 2.1076 -3.7089 0.0000 22.8791 0.0000
# 6 0.0000 0.0000 0.0000 5.0284 0.0000 32.8861
#
#
#
# Elastic Compliance Matrix: (Units=1/GPa)
#
#
# Indices 1 2 3 4 5 6 
#
# 1 0.012109 -0.005115 -0.001611 0.000000 0.002296 0.000000
# 2 -0.005115 0.012890 -0.004254 0.000000 -0.002758 0.000000
# 3 -0.001611 -0.004254 0.019815 0.000000 0.003326 0.000000
# 4 0.000000 0.000000 0.000000 0.043474 0.000000 -0.006647
# 5 0.002296 -0.002758 0.003326 0.000000 0.044897 0.000000
# 6 0.000000 0.000000 0.000000 -0.006647 0.000000 0.031424
#
#
# Mechanical properties :
#
#
# Convention : Reuss Voigt Hill
#
# Bulk Modulus (GPa) = 43.75835 50.75807 47.25821
# Shear Modulus (GPa) = 25.74842 27.67828 26.71335
#
# Velocity S-wave (km/s) = 3.70836 3.84482 3.77720
# Velocity P-wave (km/s) = 6.45807 6.84247 6.65305
#
# Compressibility (1/GPa) = 0.02285278
#
# Stress axis : x y z
#
# Youngs Moduli (GPa) = 82.58550 77.57884 50.46783
#
# Poissons Ratio (x) = 0.39682 0.08130
# Poissons Ratio (y) = 0.42243 0.21470
# Poissons Ratio (z) = 0.13305 0.33004
#
# Static dielectric constant tensor:
#      x y z
#    x 3.377520 0.000000 0.010790 
#    y 0.000000 3.758250 0.000000 
#    z 0.010790 0.000000 3.197130 
# 
# 
# High freq. dielectric constant tensor:
#      x y z
#    x 1.730850 0.000000 -0.001860 
#    y 0.000000 1.736840 0.000000 
#    z -0.001860 0.000000 1.689620 
# 
# From -- ./inp_files/23140.got.cif
#   From: 2010.06.25/outbox.cif.g09.slc.cpg/sg11_12_cif.got.tgz:23140.got - 2010.06.27 23:14:04.
