data_PCOD8068077
_publ_section_title
;
Structure prediction by ZEFSAII (Michael W. Deem and Ramdas Pophale) SiO2 
 PCOD8068077
Probable space group: P 2/M
;
_chemical_formula_sum "Si O2"
_cell_formula_units_Z 32
_cell_length_a 27.000000
_cell_length_b 9.000000
_cell_length_c 21.000000
_cell_angle_alpha 90.000000
_cell_angle_beta 20.000000
_cell_angle_gamma 90.000000
_cell_volume 1745.328791
_symmetry_space_group_name_H-M "P 2/M"
_symmetry_group_IT_number 10
_symmetry_cell_setting 'monoclinic'
loop_
_space_group_symop_operation_xyz
x,y,z
-x,y,-z
-x,-y,-z
x,-y,z
loop_
_atom_site_type_symbol
_atom_site_label
_atom_site_fract_x
_atom_site_fract_y
_atom_site_fract_z
Si Si1 0.221685 0.824473 0.970410
Si Si2 0.896128 0.174554 0.393247
Si Si3 0.271636 0.674946 0.519335
Si Si4 0.163654 0.324814 0.787926
Si Si5 0.331796 0.825721 0.699806
Si Si6 0.396434 0.327076 0.871121
Si Si7 0.811791 0.323868 0.763767
Si Si8 0.897291 0.822719 0.538148
O O1 0.258257 0.769114 0.854522
O O2 0.330146 0.757280 0.891070
O O3 0.239545 0.000000 0.953144
O O4 0.060134 0.772143 0.182834
O O5 0.795290 0.252210 0.462992
O O6 0.851939 0.216479 0.519861
O O7 0.881783 0.000000 0.400005
O O8 0.251111 0.500000 0.536532
O O9 0.199451 0.730901 0.672832
O O10 0.438377 0.722404 0.321016
O O11 0.187327 0.500000 0.764059
O O12 0.265884 0.252414 0.717461
O O13 0.000000 0.276954 0.000000
O O14 0.500000 0.784231 0.500000
O O15 0.306880 0.000000 0.721248
O O16 0.380735 0.500000 0.874685
O O17 0.322503 0.287686 0.028017
O O18 0.835191 0.500000 0.726504
O O19 0.786305 0.247638 0.724673
O O20 0.948948 0.251256 0.632735
O O21 0.907345 0.000000 0.534902
#
# Coordination Sequence:
#
# PCOD8068077 Si02
#       8
#     4   4   4   4   4   4   4   4
#     4  10  20  35  55  79 108 139 177 224 269 317
#     4  10  21  36  54  80 107 138 180 221 263 315
#     4  10  22  38  55  77 109 145 180 221 269 320
#     4  10  21  37  56  79 106 140 183 225 268 321
#     4  10  21  35  53  80 109 138 176 221 270 323
#     4  10  21  36  54  80 110 142 181 220 265 322
#     4  10  19  32  53  81 109 138 176 217 262 316
#     4  10  19  33  54  80 110 139 174 219 264 311
#
# _framework density 18.334654
#
# number of rings (size 3 to 8) (size 9 to 14) (size 15 to 20)
#    0.000    2.000    1.250    3.000    0.000    4.000 
#    0.000    0.625    0.000    3.750    0.000    0.000 
#    0.000    0.000    0.000    0.000    0.000    0.000 
#
# Total GULP energy -396761.629608 kJ/mol
# GULP energy per Si atom -12398.800925 kJ/mol
# Density = 1.829292 g / cm^3
# Si number density = 18.334654 Si / 1000 Ang^3
#
#
#
# Elastic Constant Matrix: (Units=GPa)
#
#
# Indices 1 2 3 4 5 6 
#
# 1 201.9948 55.4960 71.5401 0.0000 12.7747 0.0000
# 2 55.4960 62.8640 31.5210 0.0000 1.2542 0.0000
# 3 71.5401 31.5210 107.2329 0.0000 12.4876 0.0000
# 4 0.0000 0.0000 0.0000 20.5323 0.0000 -1.3779
# 5 12.7747 1.2542 12.4876 0.0000 40.3053 0.0000
# 6 0.0000 0.0000 0.0000 -1.3779 0.0000 41.8214
#
#
#
# Elastic Compliance Matrix: (Units=1/GPa)
#
#
# Indices 1 2 3 4 5 6 
#
# 1 0.007623 -0.004956 -0.003492 0.000000 -0.001180 0.000000
# 2 -0.004956 0.021931 -0.003365 0.000000 0.001931 0.000000
# 3 -0.003492 -0.003365 0.012971 0.000000 -0.002807 0.000000
# 4 0.000000 0.000000 0.000000 0.048812 0.000000 0.001608
# 5 -0.001180 0.001931 -0.002807 0.000000 0.025994 0.000000
# 6 0.000000 0.000000 0.000000 0.001608 0.000000 0.023964
#
#
# Mechanical properties :
#
#
# Convention : Reuss Voigt Hill
#
# Bulk Modulus (GPa) = 52.90959 76.57843 64.74401
# Shear Modulus (GPa) = 29.20195 34.76745 31.98470
#
# Velocity S-wave (km/s) = 3.99522 4.35934 4.18125
# Velocity P-wave (km/s) = 7.08539 8.19733 7.66156
#
# Compressibility (1/GPa) = 0.01890016
#
# Stress axis : x y z
#
# Youngs Moduli (GPa) = 131.17445 45.59759 77.09358
#
# Poissons Ratio (x) = 0.22596 0.26920
# Poissons Ratio (y) = 0.65004 0.25945
# Poissons Ratio (z) = 0.45804 0.15345
#
# Static dielectric constant tensor:
#      x y z
#    x 3.667130 0.000000 0.329390 
#    y 0.000000 3.363270 0.000000 
#    z 0.329390 0.000000 3.631230 
# 
# 
# High freq. dielectric constant tensor:
#      x y z
#    x 1.736260 0.000000 0.020530 
#    y 0.000000 1.711070 0.000000 
#    z 0.020530 0.000000 1.715680 
# 
# From -- ./inp_files/86826.got.cif
#   From: 2010.06.25/outbox.ucp.g09.slc.cvg/sg10_44_cif.got.tgz:86826.got - 2010.06.28 13:37:52.
