data_PCOD8068026
_publ_section_title
;
Structure prediction by ZEFSAII (Michael W. Deem and Ramdas Pophale) SiO2 
 PCOD8068026
Probable space group: P 2/M
;
_chemical_formula_sum "Si O2"
_cell_formula_units_Z 32
_cell_length_a 22.667353
_cell_length_b 9.467097
_cell_length_c 9.209489
_cell_angle_alpha 90.000000
_cell_angle_beta 66.028216
_cell_angle_gamma 90.000000
_cell_volume 1805.836765
_symmetry_space_group_name_H-M "P 2/M"
_symmetry_group_IT_number 10
_symmetry_cell_setting 'monoclinic'
loop_
_space_group_symop_operation_xyz
x,y,z
-x,y,-z
-x,-y,-z
x,-y,z
loop_
_atom_site_type_symbol
_atom_site_label
_atom_site_fract_x
_atom_site_fract_y
_atom_site_fract_z
Si Si1 0.249788 0.163987 0.918758
Si Si2 0.750213 0.836013 0.418334
Si Si3 0.874786 0.663712 0.956317
Si Si4 0.500001 0.831423 0.664461
Si Si5 0.624201 0.168128 0.711774
Si Si6 0.375800 0.831872 0.960175
Si Si7 0.125213 0.336288 0.705891
Si Si8 0.999999 0.668007 0.663842
O O1 0.264975 0.191107 0.735024
O O2 0.310532 0.221348 0.948855
O O3 0.236450 0.000000 0.963119
O O4 0.187548 0.250194 0.033468
O O5 0.689470 0.778651 0.569921
O O6 0.812453 0.749806 0.408563
O O7 0.763551 0.000000 0.436019
O O8 0.862230 0.500000 0.933878
O O9 0.936171 0.724402 0.808142
O O10 0.888994 0.688186 0.111005
O O11 0.500000 0.773609 0.500000
O O12 0.563001 0.772561 0.684247
O O13 0.437001 0.772561 0.810248
O O14 0.500000 0.000000 0.664246
O O15 0.622265 0.000000 0.713051
O O16 0.621662 0.226779 0.878338
O O17 0.377737 0.000000 0.957581
O O18 0.137768 0.500000 0.658341
O O19 0.063827 0.275598 0.680489
O O20 0.000000 0.500000 0.669650
O O21 0.000000 0.725521 0.500000
#
# Coordination Sequence:
#
# PCOD8068026 Si02
#       8
#     4   4   4   4   4   4   4   4
#     4   9  17  29  44  63  88 116 144 175 213 256
#     4   9  17  29  44  63  88 116 144 175 213 256
#     4   9  17  30  48  67  86 111 144 179 213 252
#     4   9  15  23  37  57  82 113 148 183 216 252
#     4   9  16  25  38  58  85 115 145 178 216 256
#     4   9  16  25  38  58  85 115 145 178 216 256
#     4   9  17  30  48  67  86 111 144 179 213 252
#     4   9  17  29  46  67  88 110 140 179 218 254
#
# _framework density 17.720317000000001
#
# number of rings (size 3 to 8) (size 9 to 14) (size 15 to 20)
#    0.000    3.000    0.000    1.500    0.000    7.000 
#    0.000    0.625    0.000    3.750    0.000    0.875 
#    0.000    7.000    0.000    0.000    0.000    0.000 
#
# Total GULP energy -396796.212022 kJ/mol
# GULP energy per Si atom -12399.881626 kJ/mol
# Density = 1.767999 g / cm^3
# Si number density = 17.720317 Si / 1000 Ang^3
#
#
#
# Elastic Constant Matrix: (Units=GPa)
#
#
# Indices 1 2 3 4 5 6 
#
# 1 185.2504 36.2527 108.3976 0.0000 -18.9232 0.0000
# 2 36.2527 23.5367 27.4346 0.0000 -6.4234 0.0000
# 3 108.3976 27.4346 140.6269 0.0000 -13.5892 0.0000
# 4 0.0000 0.0000 0.0000 8.7399 0.0000 3.4684
# 5 -18.9232 -6.4234 -13.5892 0.0000 29.3251 0.0000
# 6 0.0000 0.0000 0.0000 3.4684 0.0000 3.9777
#
#
#
# Elastic Compliance Matrix: (Units=1/GPa)
#
#
# Indices 1 2 3 4 5 6 
#
# 1 0.011349 -0.008968 -0.006785 0.000000 0.002215 0.000000
# 2 -0.008968 0.063659 -0.004939 0.000000 0.005868 0.000000
# 3 -0.006785 -0.004939 0.013376 0.000000 0.000738 0.000000
# 4 0.000000 0.000000 0.000000 0.174960 0.000000 -0.152558
# 5 0.002215 0.005868 0.000738 0.000000 0.037157 0.000000
# 6 0.000000 0.000000 0.000000 -0.152558 0.000000 0.384428
#
#
# Mechanical properties :
#
#
# Convention : Reuss Voigt Hill
#
# Bulk Modulus (GPa) = 21.27666 77.06486 49.17076
# Shear Modulus (GPa) = 6.73872 20.23046 13.48459
#
# Velocity S-wave (km/s) = 1.95220 3.38250 2.76156
# Velocity P-wave (km/s) = 4.13696 7.67066 6.16253
#
# Compressibility (1/GPa) = 0.04699985
#
# Stress axis : x y z
#
# Youngs Moduli (GPa) = 88.11017 15.70872 74.76271
#
# Poissons Ratio (x) = 0.14088 0.50724
# Poissons Ratio (y) = 0.79020 0.36926
# Poissons Ratio (z) = 0.59780 0.07759
#
# Static dielectric constant tensor:
#      x y z
#    x 3.481150 0.000000 -0.042910 
#    y 0.000000 2.732120 0.000000 
#    z -0.042910 0.000000 3.422240 
# 
# 
# High freq. dielectric constant tensor:
#      x y z
#    x 1.699710 0.000000 -0.004540 
#    y 0.000000 1.618980 0.000000 
#    z -0.004540 0.000000 1.693490 
# 
# From -- ./inp_files/32185.got.cif
#   From: 2010.06.25/outbox.cif.g09.slc.cpg/sg10_17_cif.got.tgz:32185.got - 2010.06.27 22:07:45.
