data_PCOD8068552
_publ_section_title
;
Structure prediction by ZEFSAII (Michael W. Deem and Ramdas Pophale) SiO2 
 PCOD8068552
Probable space group: P 21/M
;
_chemical_formula_sum "Si O2"
_cell_formula_units_Z 32
_cell_length_a 14.184835
_cell_length_b 9.436114
_cell_length_c 27.796803
_cell_angle_alpha 90.000000
_cell_angle_beta 149.550116
_cell_angle_gamma 90.000000
_cell_volume 1885.539565
_symmetry_space_group_name_H-M "P 21/M"
_symmetry_group_IT_number 11
_symmetry_cell_setting 'monoclinic'
loop_
_space_group_symop_operation_xyz
x,y,z
-x,1/2+y,-z
-x,-y,-z
x,1/2-y,z
loop_
_atom_site_type_symbol
_atom_site_label
_atom_site_fract_x
_atom_site_fract_y
_atom_site_fract_z
Si Si1 0.757163 0.415593 0.429449
Si Si2 0.317043 0.915743 0.801440
Si Si3 0.170495 0.091908 0.090489
Si Si4 0.106449 0.584373 0.615346
Si Si5 0.649523 0.916622 0.735173
Si Si6 0.310560 0.916460 0.905010
Si Si7 0.026736 0.583837 0.861204
Si Si8 0.718441 0.591277 0.963509
O O1 0.788454 0.250000 0.454054
O O2 0.765751 0.443142 0.375510
O O3 0.560283 0.473760 0.364774
O O4 0.912789 0.503158 0.525507
O O5 0.335274 0.750000 0.798877
O O6 0.201925 0.979591 0.705881
O O7 0.231061 0.947927 0.816258
O O8 0.526244 0.977243 0.897643
O O9 0.101959 0.250000 0.074148
O O10 0.275733 0.020552 0.181576
O O11 0.307207 0.097029 0.105120
O O12 0.000000 0.000000 0.000000
O O13 0.061707 0.750000 0.601462
O O14 0.626600 0.750000 0.731294
O O15 0.803482 0.953469 0.761266
O O16 0.354462 0.750000 0.930592
O O17 0.139913 0.966880 0.863976
O O18 0.500000 0.000000 0.000000
O O19 0.051321 0.750000 0.879783
O O20 0.111005 0.507034 0.945012
O O21 0.752190 0.750000 0.999037
#
# Coordination Sequence:
#
# PCOD8068552 Si02
#       8
#     4   4   4   4   4   4   4   4
#     4   9  17  31  51  71  92 120 153 190 234 283
#     4   9  17  30  48  68  92 122 155 191 234 283
#     4  10  18  27  41  62  89 122 155 184 218 266
#     4   9  17  31  51  72  92 117 152 195 237 278
#     4   9  17  30  46  64  92 127 156 184 227 281
#     4  10  19  31  48  69  93 124 161 196 232 274
#     4  10  19  30  45  66  92 123 157 190 225 268
#     4  10  18  28  44  65  90 123 158 187 223 274
#
# _framework density 16.971268999999999
#
# number of rings (size 3 to 8) (size 9 to 14) (size 15 to 20)
#    0.000    2.500    2.500    0.750    0.000    3.000 
#    0.000    2.500    0.000    3.750    0.000    0.000 
#    0.000    0.000    0.000    0.000    0.000    0.000 
#
# Total GULP energy -396466.134929 kJ/mol
# GULP energy per Si atom -12389.566717 kJ/mol
# Density = 1.693264 g / cm^3
# Si number density = 16.971269 Si / 1000 Ang^3
#
#
#
# Elastic Constant Matrix: (Units=GPa)
#
#
# Indices 1 2 3 4 5 6 
#
# 1 104.9145 19.6576 50.1362 0.0000 16.7500 0.0000
# 2 19.6576 31.7185 27.3829 0.0000 6.0703 0.0000
# 3 50.1362 27.3829 101.3045 0.0000 16.5764 0.0000
# 4 0.0000 0.0000 0.0000 23.4062 0.0000 1.8017
# 5 16.7500 6.0703 16.5764 0.0000 32.8178 0.0000
# 6 0.0000 0.0000 0.0000 1.8017 0.0000 16.4984
#
#
#
# Elastic Compliance Matrix: (Units=1/GPa)
#
#
# Indices 1 2 3 4 5 6 
#
# 1 0.013096 -0.003056 -0.005074 0.000000 -0.003556 0.000000
# 2 -0.003056 0.041979 -0.009614 0.000000 -0.001349 0.000000
# 3 -0.005074 -0.009614 0.015551 0.000000 -0.003487 0.000000
# 4 0.000000 0.000000 0.000000 0.043086 0.000000 -0.004705
# 5 -0.003556 -0.001349 -0.003487 0.000000 0.034297 0.000000
# 6 0.000000 0.000000 0.000000 -0.004705 0.000000 0.061126
#
#
# Mechanical properties :
#
#
# Convention : Reuss Voigt Hill
#
# Bulk Modulus (GPa) = 28.45733 48.03232 38.24482
# Shear Modulus (GPa) = 19.50561 23.92855 21.71708
#
# Velocity S-wave (km/s) = 3.39386 3.75900 3.58108
# Velocity P-wave (km/s) = 5.67116 6.87049 6.29943
#
# Compressibility (1/GPa) = 0.03514034
#
# Stress axis : x y z
#
# Youngs Moduli (GPa) = 76.35638 23.82129 64.30249
#
# Poissons Ratio (x) = 0.07279 0.32624
# Poissons Ratio (y) = 0.23333 0.61821
# Poissons Ratio (z) = 0.38740 0.22902
#
# Static dielectric constant tensor:
#      x y z
#    x 3.527060 0.000000 0.090280 
#    y 0.000000 2.931930 0.000000 
#    z 0.090280 0.000000 3.138530 
# 
# 
# High freq. dielectric constant tensor:
#      x y z
#    x 1.659990 0.000000 0.010930 
#    y 0.000000 1.625730 0.000000 
#    z 0.010930 0.000000 1.634640 
# 
# From -- ./inp_files/49842.got.cif
#   From: 2010.06.25/outbox.cif.g09.slc.cpg/sg11_25_cif.got.tgz:49842.got - 2010.06.27 23:14:04.
