data_PCOD8068304
_publ_section_title
;
Structure prediction by ZEFSAII (Michael W. Deem and Ramdas Pophale) SiO2 
 PCOD8068304
Probable space group: P 21/M
;
_chemical_formula_sum "Si O2"
_cell_formula_units_Z 28
_cell_length_a 14.738522
_cell_length_b 19.212265
_cell_length_c 5.235966
_cell_angle_alpha 90.000000
_cell_angle_beta 100.231625
_cell_angle_gamma 90.000000
_cell_volume 1459.041159
_symmetry_space_group_name_H-M "P 21/M"
_symmetry_group_IT_number 11
_symmetry_cell_setting 'monoclinic'
loop_
_space_group_symop_operation_xyz
x,y,z
-x,1/2+y,-z
-x,-y,-z
x,1/2-y,z
loop_
_atom_site_type_symbol
_atom_site_label
_atom_site_fract_x
_atom_site_fract_y
_atom_site_fract_z
Si Si1 0.152613 0.627493 0.576306
Si Si2 0.763780 0.525003 0.381890
Si Si3 0.549883 0.166591 0.774947
Si Si4 0.860312 0.551130 0.930156
Si Si5 0.452608 0.031689 0.726304
Si Si6 0.350845 0.673116 0.675418
Si Si7 0.942734 0.396980 0.971367
O O1 0.187998 0.549178 0.593999
O O2 0.240845 0.676992 0.620422
O O3 0.091370 0.643635 0.296910
O O4 0.091371 0.643635 0.794461
O O5 0.797247 0.566028 0.650668
O O6 0.654873 0.513081 0.327437
O O7 0.797247 0.566028 0.146579
O O8 0.526645 0.250000 0.763328
O O9 0.459955 0.116890 0.729978
O O10 0.609834 0.139574 0.563509
O O11 0.609831 0.139573 0.046338
O O12 0.900434 0.473738 0.950217
O O13 0.946535 0.603516 0.973267
O O14 0.500000 0.000000 0.500000
O O15 0.500000 0.000000 0.000000
O O16 0.391312 0.750000 0.695652
#
# Coordination Sequence:
#
# PCOD8068304 Si02
#       7
#     4   4   4   4   4   4   4
#     4  10  17  28  45  70  96 125 156 193 248 294
#     4  10  19  29  46  68  98 128 157 202 251 296
#     4  10  21  37  54  73 103 142 177 209 252 312
#     4   9  17  30  43  66  95 125 161 191 238 300
#     4  12  23  35  53  80 108 135 172 223 275 312
#     4  10  20  34  52  73 100 135 172 207 246 307
#     4   9  17  27  45  66  94 126 154 192 236 296
#
# _framework density 19.190684999999998
#
# number of rings (size 3 to 8) (size 9 to 14) (size 15 to 20)
#    0.000    2.000    0.000    5.143    0.000    5.714 
#    0.000    0.000    0.000    0.000    0.000    6.000 
#    0.000    0.000    0.000    0.000    0.000    0.000 
#
# Total GULP energy -347048.259063 kJ/mol
# GULP energy per Si atom -12394.580681 kJ/mol
# Density = 1.914701 g / cm^3
# Si number density = 19.190685 Si / 1000 Ang^3
#
#
#
# Elastic Constant Matrix: (Units=GPa)
#
#
# Indices 1 2 3 4 5 6 
#
# 1 102.1395 4.4068 65.3268 0.0000 -9.8706 0.0000
# 2 4.4068 41.0385 14.5304 0.0000 -3.6051 0.0000
# 3 65.3268 14.5304 184.7934 0.0000 -19.5666 0.0000
# 4 0.0000 0.0000 0.0000 3.0847 0.0000 7.0370
# 5 -9.8706 -3.6051 -19.5666 0.0000 35.7173 0.0000
# 6 0.0000 0.0000 0.0000 7.0370 0.0000 22.8404
#
#
#
# Elastic Compliance Matrix: (Units=1/GPa)
#
#
# Indices 1 2 3 4 5 6 
#
# 1 0.012696 0.000291 -0.004391 0.000000 0.001132 0.000000
# 2 0.000291 0.025152 -0.001914 0.000000 0.001570 0.000000
# 3 -0.004391 -0.001914 0.007394 0.000000 0.002644 0.000000
# 4 0.000000 0.000000 0.000000 1.090988 0.000000 -0.336127
# 5 0.001132 0.001570 0.002644 0.000000 0.029918 0.000000
# 6 0.000000 0.000000 0.000000 -0.336127 0.000000 0.147341
#
#
# Mechanical properties :
#
#
# Convention : Reuss Voigt Hill
#
# Bulk Modulus (GPa) = 30.10861 55.16659 42.63760
# Shear Modulus (GPa) = 3.74087 28.57563 16.15825
#
# Velocity S-wave (km/s) = 1.39769 3.86299 2.90484
# Velocity P-wave (km/s) = 4.28112 6.97896 5.78938
#
# Compressibility (1/GPa) = 0.03321309
#
# Stress axis : x y z
#
# Youngs Moduli (GPa) = 78.76544 39.75846 135.24024
#
# Poissons Ratio (x) = -0.01157 0.59386
# Poissons Ratio (y) = -0.02292 0.25889
# Poissons Ratio (z) = 0.34587 0.07611
#
# Static dielectric constant tensor:
#      x y z
#    x 3.491030 0.000000 -0.159810 
#    y 0.000000 3.121660 0.000000 
#    z -0.159810 0.000000 3.939660 
# 
# 
# High freq. dielectric constant tensor:
#      x y z
#    x 1.739110 0.000000 -0.011900 
#    y 0.000000 1.695440 0.000000 
#    z -0.011900 0.000000 1.772510 
# 
# From -- ./inp_files/5081.got.cif
#   From: 2010.06.25/outbox.cif.g09.slc.cpg/sg11_3_cif.got.tgz:5081.got - 2010.06.27 23:14:04.
