data_PCOD8068530
_publ_section_title
;
Structure prediction by ZEFSAII (Michael W. Deem and Ramdas Pophale) SiO2 
 PCOD8068530
Probable space group: P 21/M
;
_chemical_formula_sum "Si O2"
_cell_formula_units_Z 32
_cell_length_a 13.412353
_cell_length_b 9.198330
_cell_length_c 18.278701
_cell_angle_alpha 90.000000
_cell_angle_beta 110.255481
_cell_angle_gamma 90.000000
_cell_volume 2115.608869
_symmetry_space_group_name_H-M "P 21/M"
_symmetry_group_IT_number 11
_symmetry_cell_setting 'monoclinic'
loop_
_space_group_symop_operation_xyz
x,y,z
-x,1/2+y,-z
-x,-y,-z
x,1/2-y,z
loop_
_atom_site_type_symbol
_atom_site_label
_atom_site_fract_x
_atom_site_fract_y
_atom_site_fract_z
Si Si1 0.153983 0.588778 0.566187
Si Si2 0.221081 0.580970 0.735915
Si Si3 0.000817 0.083895 0.893006
Si Si4 0.922803 0.587614 0.578824
Si Si5 0.164890 0.580599 0.027213
Si Si6 0.985042 0.581161 0.270116
Si Si7 0.638419 0.919458 0.971099
Si Si8 0.601760 0.416857 0.106910
O O1 0.183983 0.750000 0.546432
O O2 0.231277 0.538487 0.652352
O O3 0.162789 0.482241 0.498952
O O4 0.036354 0.588051 0.569356
O O5 0.186728 0.750000 0.733271
O O6 0.334109 0.550962 0.802466
O O7 0.131962 0.486151 0.753133
O O8 0.036861 0.250000 0.916038
O O9 0.894753 0.048149 0.911833
O O10 0.973769 0.056648 0.801633
O O11 0.096685 0.980466 0.942052
O O12 0.884448 0.750000 0.587885
O O13 0.929673 0.495265 0.655046
O O14 0.183741 0.750000 0.018459
O O15 0.277987 0.500204 0.059946
O O16 0.978555 0.750000 0.289650
O O17 0.665391 0.750000 0.980281
O O18 0.521603 0.950922 0.908830
O O19 0.647799 0.980911 0.055478
O O20 0.616021 0.250000 0.085110
#
# Coordination Sequence:
#
# PCOD8068530 Si02
#       8
#     4   4   4   4   4   4   4   4
#     4   8  14  24  37  53  75 103 133 163 194 231
#     4   9  17  28  41  58  80 107 138 168 199 236
#     4   9  19  32  44  61  82 106 139 174 205 241
#     4   9  16  25  37  54  77 105 135 162 192 235
#     4  10  19  31  46  61  81 109 138 170 208 246
#     4  10  18  27  40  58  81 107 135 168 202 235
#     4  10  19  30  44  62  84 109 138 171 206 244
#     4   9  18  31  45  61  82 109 140 172 204 240
#
# _framework density 15.12567
#
# number of rings (size 3 to 8) (size 9 to 14) (size 15 to 20)
#    0.000    2.750    0.000    3.000    0.000    7.500 
#    0.000    0.000    0.000    0.000    0.000    0.000 
#    0.000    1.000    0.000    2.000    0.000    3.000 
#
# Total GULP energy -396756.277599 kJ/mol
# GULP energy per Si atom -12398.633675 kJ/mol
# Density = 1.509124 g / cm^3
# Si number density = 15.125670 Si / 1000 Ang^3
#
#
#
# Elastic Constant Matrix: (Units=GPa)
#
#
# Indices 1 2 3 4 5 6 
#
# 1 62.7963 40.8001 40.6722 0.0000 2.4635 0.0000
# 2 40.8001 97.7261 57.5665 0.0000 0.1937 0.0000
# 3 40.6722 57.5665 125.1805 0.0000 9.2351 0.0000
# 4 0.0000 0.0000 0.0000 24.9620 0.0000 0.0839
# 5 2.4635 0.1937 9.2351 0.0000 16.0952 0.0000
# 6 0.0000 0.0000 0.0000 0.0839 0.0000 20.1536
#
#
#
# Elastic Compliance Matrix: (Units=1/GPa)
#
#
# Indices 1 2 3 4 5 6 
#
# 1 0.023422 -0.007327 -0.004159 0.000000 -0.001111 0.000000
# 2 -0.007327 0.016539 -0.005528 0.000000 0.004094 0.000000
# 3 -0.004159 -0.005528 0.012353 0.000000 -0.006385 0.000000
# 4 0.000000 0.000000 0.000000 0.040061 0.000000 -0.000167
# 5 -0.001111 0.004094 -0.006385 0.000000 0.065914 0.000000
# 6 0.000000 0.000000 0.000000 -0.000167 0.000000 0.049620
#
#
# Mechanical properties :
#
#
# Convention : Reuss Voigt Hill
#
# Bulk Modulus (GPa) = 54.68000 62.64229 58.66114
# Shear Modulus (GPa) = 20.15876 22.01976 21.08926
#
# Velocity S-wave (km/s) = 3.65465 3.81962 3.73804
# Velocity P-wave (km/s) = 7.35102 7.80750 7.58270
#
# Compressibility (1/GPa) = 0.01828822
#
# Stress axis : x y z
#
# Youngs Moduli (GPa) = 42.69516 60.46176 80.95433
#
# Poissons Ratio (x) = 0.44297 0.33667
# Poissons Ratio (y) = 0.31281 0.44748
# Poissons Ratio (z) = 0.17756 0.33420
#
# Static dielectric constant tensor:
#      x y z
#    x 2.618830 0.000000 0.067430 
#    y 0.000000 3.091780 0.000000 
#    z 0.067430 0.000000 3.047740 
# 
# 
# High freq. dielectric constant tensor:
#      x y z
#    x 1.529620 0.000000 0.005070 
#    y 0.000000 1.593780 0.000000 
#    z 0.005070 0.000000 1.578970 
# 
# From -- ./inp_files/59889.got.cif
#   From: 2010.06.25/outbox.cif.g09.slc.cpg/sg11_30_cif.got.tgz:59889.got - 2010.06.27 23:14:04.
