data_PCOD8068890
_publ_section_title
;
Structure prediction by ZEFSAII (Michael W. Deem and Ramdas Pophale) SiO2 
 PCOD8068890
Probable space group: P 21/M
;
_chemical_formula_sum "Si O2"
_cell_formula_units_Z 32
_cell_length_a 22.798004
_cell_length_b 9.069553
_cell_length_c 15.396530
_cell_angle_alpha 90.000000
_cell_angle_beta 148.342234
_cell_angle_gamma 90.000000
_cell_volume 1670.844729
_symmetry_space_group_name_H-M "P 21/M"
_symmetry_group_IT_number 11
_symmetry_cell_setting 'monoclinic'
loop_
_space_group_symop_operation_xyz
x,y,z
-x,1/2+y,-z
-x,-y,-z
x,1/2-y,z
loop_
_atom_site_type_symbol
_atom_site_label
_atom_site_fract_x
_atom_site_fract_y
_atom_site_fract_z
Si Si1 0.162720 0.922622 0.468120
Si Si2 0.909899 0.918280 0.112701
Si Si3 0.716294 0.079320 0.550439
Si Si4 0.759857 0.073948 0.060445
Si Si5 0.531360 0.919956 0.787993
Si Si6 0.789458 0.409218 0.284972
Si Si7 0.470143 0.589361 0.045154
Si Si8 0.112315 0.079653 0.114012
O O1 0.182905 0.750000 0.507762
O O2 0.250716 0.978665 0.505709
O O3 0.178819 0.996838 0.585434
O O4 0.040086 0.960601 0.278799
O O5 0.891540 0.750000 0.120448
O O6 0.843924 0.028238 0.091497
O O7 0.865220 0.941660 0.959599
O O8 0.753838 0.250000 0.603591
O O9 0.585272 0.062813 0.411420
O O10 0.781382 0.986408 0.703681
O O11 0.747836 0.250000 0.049153
O O12 0.811327 0.012731 0.218111
O O13 0.637024 0.008332 0.882593
O O14 0.567065 0.750000 0.841172
O O15 0.493451 0.984838 0.831509
O O16 0.852018 0.250000 0.364197
O O17 0.659448 0.380671 0.118693
O O18 0.530704 0.750000 0.125947
O O19 0.500000 0.500000 0.000000
O O20 0.099364 0.250000 0.122162
O O21 0.000000 0.000000 0.000000
#
# Coordination Sequence:
#
# PCOD8068890 Si02
#       8
#     4   4   4   4   4   4   4   4
#     4   9  16  31  54  80 112 146 183 225 277 334
#     4  10  21  37  58  81 108 147 189 228 276 340
#     4  10  20  36  59  87 115 146 185 230 287 346
#     4  10  21  37  56  80 113 150 192 235 278 328
#     4  10  20  35  57  81 109 148 191 232 283 343
#     4   8  16  30  49  74 106 147 186 226 273 322
#     4  10  18  29  47  74 110 149 193 235 280 333
#     4  11  22  38  60  87 116 145 182 229 284 343
#
# _framework density 19.151989
#
# number of rings (size 3 to 8) (size 9 to 14) (size 15 to 20)
#    0.000    2.250    1.250    3.000    0.000    4.500 
#    0.000    0.625    0.000    5.250    0.000    0.000 
#    0.000    0.000    0.000    0.000    0.000    0.000 
#
# Total GULP energy -396452.448402 kJ/mol
# GULP energy per Si atom -12389.139013 kJ/mol
# Density = 1.910840 g / cm^3
# Si number density = 19.151989 Si / 1000 Ang^3
#
#
#
# Elastic Constant Matrix: (Units=GPa)
#
#
# Indices 1 2 3 4 5 6 
#
# 1 76.2417 25.6492 23.5405 0.0000 -6.9914 0.0000
# 2 25.6492 73.6083 29.9667 0.0000 -4.1338 0.0000
# 3 23.5405 29.9667 92.0495 0.0000 -13.4958 0.0000
# 4 0.0000 0.0000 0.0000 24.7531 0.0000 3.4606
# 5 -6.9914 -4.1338 -13.4958 0.0000 24.4702 0.0000
# 6 0.0000 0.0000 0.0000 3.4606 0.0000 25.1108
#
#
#
# Elastic Compliance Matrix: (Units=1/GPa)
#
#
# Indices 1 2 3 4 5 6 
#
# 1 0.015486 -0.004372 -0.002172 0.000000 0.002488 0.000000
# 2 -0.004372 0.016896 -0.004512 0.000000 -0.000883 0.000000
# 3 -0.002172 -0.004512 0.013801 0.000000 0.006229 0.000000
# 4 0.000000 0.000000 0.000000 0.041193 0.000000 -0.005677
# 5 0.002488 -0.000883 0.006229 0.000000 0.044863 0.000000
# 6 0.000000 0.000000 0.000000 -0.005677 0.000000 0.040606
#
#
# Mechanical properties :
#
#
# Convention : Reuss Voigt Hill
#
# Bulk Modulus (GPa) = 41.54400 44.46804 43.00602
# Shear Modulus (GPa) = 24.63286 25.71637 25.17461
#
# Velocity S-wave (km/s) = 3.59022 3.66833 3.62949
# Velocity P-wave (km/s) = 6.23900 6.41959 6.32994
#
# Compressibility (1/GPa) = 0.02407087
#
# Stress axis : x y z
#
# Youngs Moduli (GPa) = 64.57496 59.18509 72.45674
#
# Poissons Ratio (x) = 0.25876 0.15739
# Poissons Ratio (y) = 0.28233 0.32692
# Poissons Ratio (z) = 0.14027 0.26704
#
# Static dielectric constant tensor:
#      x y z
#    x 3.343540 0.000000 -0.130360 
#    y 0.000000 3.252920 0.000000 
#    z -0.130360 0.000000 3.584550 
# 
# 
# High freq. dielectric constant tensor:
#      x y z
#    x 1.737920 0.000000 -0.003840 
#    y 0.000000 1.726540 0.000000 
#    z -0.003840 0.000000 1.743460 
# 
# From -- ./inp_files/55765.got.cif
#   From: 2010.06.25/outbox.cif.g09.slc.cpg/sg11_28_cif.got.tgz:55765.got - 2010.06.27 23:14:04.
