data_PCOD8068225
_publ_section_title
;
Structure prediction by ZEFSAII (Michael W. Deem and Ramdas Pophale) SiO2 
 PCOD8068225
Probable space group: P 21/M
;
_chemical_formula_sum "Si O2"
_cell_formula_units_Z 32
_cell_length_a 16.075606
_cell_length_b 8.861730
_cell_length_c 14.409410
_cell_angle_alpha 90.000000
_cell_angle_beta 96.690773
_cell_angle_gamma 90.000000
_cell_volume 2038.750840
_symmetry_space_group_name_H-M "P 21/M"
_symmetry_group_IT_number 11
_symmetry_cell_setting 'monoclinic'
loop_
_space_group_symop_operation_xyz
x,y,z
-x,1/2+y,-z
-x,-y,-z
x,1/2-y,z
loop_
_atom_site_type_symbol
_atom_site_label
_atom_site_fract_x
_atom_site_fract_y
_atom_site_fract_z
Si Si1 0.382216 0.420165 0.544908
Si Si2 0.229656 0.924035 0.444930
Si Si3 0.072455 0.423165 0.954502
Si Si4 0.977564 0.071876 0.771470
Si Si5 0.051244 0.071295 0.423692
Si Si6 0.467791 0.420005 0.356413
Si Si7 0.314572 0.923756 0.257798
Si Si8 0.826235 0.572715 0.865477
O O1 0.361314 0.250000 0.573509
O O2 0.297040 0.516241 0.528177
O O3 0.427482 0.420285 0.452294
O O4 0.442905 0.495599 0.629085
O O5 0.209845 0.750000 0.463763
O O6 0.264264 0.945900 0.346288
O O7 0.147204 0.022710 0.444332
O O8 0.051269 0.250000 0.960644
O O9 0.061886 0.465966 0.843970
O O10 0.158906 0.458740 0.021205
O O11 0.000000 0.500000 0.000000
O O12 0.966398 0.250000 0.751417
O O13 0.989927 0.986944 0.676716
O O14 0.894555 0.013762 0.812441
O O15 0.044999 0.250000 0.427177
O O16 0.000000 0.000000 0.500000
O O17 0.481771 0.250000 0.322850
O O18 0.407062 0.505981 0.277208
O O19 0.323907 0.750000 0.232079
O O20 0.265442 0.010124 0.169889
O O21 0.831374 0.750000 0.842886
#
# Coordination Sequence:
#
# PCOD8068225 Si02
#       8
#     4   4   4   4   4   4   4   4
#     4   9  16  26  40  57  78 104 138 173 209 250
#     4  10  19  31  45  60  80 107 141 177 217 256
#     4   8  16  27  41  60  82 107 137 172 209 251
#     4  10  18  31  46  61  82 108 139 177 218 257
#     4  12  24  36  49  64  83 108 143 184 226 264
#     4   9  16  25  37  55  79 107 140 174 208 246
#     4  10  18  26  39  58  84 114 143 176 213 250
#     4  10  17  26  41  62  85 112 144 175 209 252
#
# _framework density 15.695884
#
# number of rings (size 3 to 8) (size 9 to 14) (size 15 to 20)
#    0.000    2.250    1.250    3.375    0.000    5.000 
#    0.000    0.000    0.000    0.000    0.000    0.000 
#    0.000    0.000    0.000    1.125    0.000   14.250 
#
# Total GULP energy -396583.534077 kJ/mol
# GULP energy per Si atom -12393.235440 kJ/mol
# Density = 1.566016 g / cm^3
# Si number density = 15.695884 Si / 1000 Ang^3
#
#
#
# Elastic Constant Matrix: (Units=GPa)
#
#
# Indices 1 2 3 4 5 6 
#
# 1 63.3397 43.9971 54.0731 0.0000 34.4451 0.0000
# 2 43.9971 118.0527 49.4855 0.0000 20.3857 0.0000
# 3 54.0731 49.4855 86.3701 0.0000 30.1606 0.0000
# 4 0.0000 0.0000 0.0000 18.5543 0.0000 6.9010
# 5 34.4451 20.3857 30.1606 0.0000 29.6595 0.0000
# 6 0.0000 0.0000 0.0000 6.9010 0.0000 26.4747
#
#
#
# Elastic Compliance Matrix: (Units=1/GPa)
#
#
# Indices 1 2 3 4 5 6 
#
# 1 0.064141 -0.007543 -0.018038 0.000000 -0.050963 0.000000
# 2 -0.007543 0.012098 -0.003667 0.000000 0.004173 0.000000
# 3 -0.018038 -0.003667 0.026014 0.000000 -0.002985 0.000000
# 4 0.000000 0.000000 0.000000 0.059682 0.000000 -0.015557
# 5 -0.050963 0.004173 -0.002985 0.000000 0.093069 0.000000
# 6 0.000000 0.000000 0.000000 -0.015557 0.000000 0.041827
#
#
# Mechanical properties :
#
#
# Convention : Reuss Voigt Hill
#
# Bulk Modulus (GPa) = 22.85286 62.54154 42.69720
# Shear Modulus (GPa) = 13.51665 22.95148 18.23407
#
# Velocity S-wave (km/s) = 2.93773 3.82810 3.41208
# Velocity P-wave (km/s) = 5.10866 7.71177 6.54102
#
# Compressibility (1/GPa) = 0.04375820
#
# Stress axis : x y z
#
# Youngs Moduli (GPa) = 15.59059 82.65598 38.44057
#
# Poissons Ratio (x) = 0.62348 0.69340
# Poissons Ratio (y) = 0.11760 0.14095
# Poissons Ratio (z) = 0.28123 0.30306
#
# Static dielectric constant tensor:
#      x y z
#    x 2.991520 0.000000 0.523240 
#    y 0.000000 3.176240 0.000000 
#    z 0.523240 0.000000 3.132460 
# 
# 
# High freq. dielectric constant tensor:
#      x y z
#    x 1.574550 0.000000 0.054470 
#    y 0.000000 1.625280 0.000000 
#    z 0.054470 0.000000 1.564730 
# 
# From -- ./inp_files/51332.got.cif
#   From: 2010.06.25/outbox.cif.g09.slc.cpg/sg11_26_cif.got.tgz:51332.got - 2010.06.27 23:14:04.
