data_PCOD8068186
_publ_section_title
;
Structure prediction by ZEFSAII (Michael W. Deem and Ramdas Pophale) SiO2 
 PCOD8068186
Probable space group: P 21/M
;
_chemical_formula_sum "Si O2"
_cell_formula_units_Z 22
_cell_length_a 9.368187
_cell_length_b 14.285623
_cell_length_c 19.299584
_cell_angle_alpha 90.000000
_cell_angle_beta 151.739601
_cell_angle_gamma 90.000000
_cell_volume 1222.936478
_symmetry_space_group_name_H-M "P 21/M"
_symmetry_group_IT_number 11
_symmetry_cell_setting 'monoclinic'
loop_
_space_group_symop_operation_xyz
x,y,z
-x,1/2+y,-z
-x,-y,-z
x,1/2-y,z
loop_
_atom_site_type_symbol
_atom_site_label
_atom_site_fract_x
_atom_site_fract_y
_atom_site_fract_z
Si Si1 0.592919 0.250000 0.523319
Si Si2 0.827205 0.853958 0.065976
Si Si3 0.804094 0.395584 0.243947
Si Si4 0.826254 0.750000 0.524466
Si Si5 0.021525 0.750000 0.793954
Si Si6 0.910725 0.600651 0.253110
Si Si7 0.557956 0.250000 0.902391
Si Si8 0.682210 0.250000 0.795911
O O1 0.440628 0.250000 0.533579
O O2 0.342406 0.250000 0.356188
O O3 0.787706 0.156429 0.599267
O O4 0.724112 0.750000 0.048606
O O5 0.560896 0.897819 0.904953
O O6 0.882918 0.915263 0.158358
O O7 0.133329 0.842571 0.151387
O O8 0.961119 0.341452 0.375280
O O9 0.877761 0.343222 0.203681
O O10 0.932437 0.500153 0.298473
O O11 0.661746 0.750000 0.379837
O O12 0.143589 0.750000 0.923429
O O13 0.626563 0.655999 0.161738
O O14 0.671680 0.250000 0.873068
#
# Coordination Sequence:
#
# PCOD8068186 Si02
#       8
#     2   4   4   2   2   4   2   2
#     4   9  18  33  50  79 113 127 168 220 266 307
#     4  10  16  35  54  75 105 139 178 205 262 309
#     4  10  19  31  60  82 102 134 178 226 256 304
#     4  10  18  35  51  81 107 137 179 206 269 313
#     4  10  19  33  51  86 107 128 179 223 263 303
#     4  11  18  34  56  83 105 134 177 221 263 301
#     4  11  21  36  54  79 105 141 178 214 261 311
#     4  10  20  37  56  69 110 151 166 213 261 318
#
# _framework density 17.989487
#
# number of rings (size 3 to 8) (size 9 to 14) (size 15 to 20)
#    0.545    1.455    7.273    0.545    0.000    2.909 
#    0.000    5.455    0.000    0.000    0.000    0.000 
#    0.000    0.000    0.000    0.000    0.000    0.000 
#
# Total GULP energy -272717.412599 kJ/mol
# GULP energy per Si atom -12396.246027 kJ/mol
# Density = 1.794854 g / cm^3
# Si number density = 17.989487 Si / 1000 Ang^3
#
#
#
# Elastic Constant Matrix: (Units=GPa)
#
#
# Indices 1 2 3 4 5 6 
#
# 1 70.0690 12.8595 36.8181 0.0000 -5.9664 0.0000
# 2 12.8595 104.7630 31.8321 0.0000 1.9153 0.0000
# 3 36.8181 31.8321 150.5263 0.0000 1.6374 0.0000
# 4 0.0000 0.0000 0.0000 10.5142 0.0000 2.8057
# 5 -5.9664 1.9153 1.6374 0.0000 21.3546 0.0000
# 6 0.0000 0.0000 0.0000 2.8057 0.0000 4.9369
#
#
#
# Elastic Compliance Matrix: (Units=1/GPa)
#
#
# Indices 1 2 3 4 5 6 
#
# 1 0.016992 -0.000962 -0.004009 0.000000 0.005141 0.000000
# 2 -0.000962 0.010267 -0.001925 0.000000 -0.001042 0.000000
# 3 -0.004009 -0.001925 0.008048 0.000000 -0.001565 0.000000
# 4 0.000000 0.000000 0.000000 0.112111 0.000000 -0.063714
# 5 0.005141 -0.001042 -0.001565 0.000000 0.048478 0.000000
# 6 0.000000 0.000000 0.000000 -0.063714 0.000000 0.238767
#
#
# Mechanical properties :
#
#
# Convention : Reuss Voigt Hill
#
# Bulk Modulus (GPa) = 46.47450 54.26419 50.36934
# Shear Modulus (GPa) = 10.97390 23.61770 17.29580
#
# Velocity S-wave (km/s) = 2.47253 3.62727 3.10407
# Velocity P-wave (km/s) = 5.83451 6.91178 6.39587
#
# Compressibility (1/GPa) = 0.02151718
#
# Stress axis : x y z
#
# Youngs Moduli (GPa) = 58.84988 97.39691 124.25557
#
# Poissons Ratio (x) = 0.09367 0.49812
# Poissons Ratio (y) = 0.05660 0.23915
# Poissons Ratio (z) = 0.23592 0.18746
#
# Static dielectric constant tensor:
#      x y z
#    x 2.872740 0.000000 0.184170 
#    y 0.000000 3.111750 0.000000 
#    z 0.184170 0.000000 3.557120 
# 
# 
# High freq. dielectric constant tensor:
#      x y z
#    x 1.648290 0.000000 0.015910 
#    y 0.000000 1.679370 0.000000 
#    z 0.015910 0.000000 1.712750 
# 
# From -- ./inp_files/58057.got.cif
#   From: 2010.06.25/outbox.cif.g09.slc.cpg/sg11_30_cif.got.tgz:58057.got - 2010.06.27 23:14:04.
