data_PCOD8068215
_publ_section_title
;
Structure prediction by ZEFSAII (Michael W. Deem and Ramdas Pophale) SiO2 
 PCOD8068215
Probable space group: P 21/M
;
_chemical_formula_sum "Si O2"
_cell_formula_units_Z 32
_cell_length_a 16.538353
_cell_length_b 8.920681
_cell_length_c 14.289567
_cell_angle_alpha 90.000000
_cell_angle_beta 97.718693
_cell_angle_gamma 90.000000
_cell_volume 2089.086617
_symmetry_space_group_name_H-M "P 21/M"
_symmetry_group_IT_number 11
_symmetry_cell_setting 'monoclinic'
loop_
_space_group_symop_operation_xyz
x,y,z
-x,1/2+y,-z
-x,-y,-z
x,1/2-y,z
loop_
_atom_site_type_symbol
_atom_site_label
_atom_site_fract_x
_atom_site_fract_y
_atom_site_fract_z
Si Si1 0.574700 0.925546 0.458724
Si Si2 0.953813 0.921723 0.877519
Si Si3 0.674859 0.426262 0.615572
Si Si4 0.878812 0.079321 0.037209
Si Si5 0.528943 0.424941 0.722572
Si Si6 0.202756 0.080069 0.243103
Si Si7 0.442455 0.928074 0.067391
Si Si8 0.728382 0.923871 0.951636
O O1 0.576282 0.750000 0.479909
O O2 0.556923 0.956453 0.345187
O O3 0.500000 0.000000 0.500000
O O4 0.658182 0.000108 0.510319
O O5 0.938924 0.750000 0.912172
O O6 0.895606 0.944700 0.777619
O O7 0.926185 0.043532 0.948816
O O8 0.051057 0.944147 0.871064
O O9 0.671708 0.250000 0.601945
O O10 0.605928 0.489869 0.676256
O O11 0.762445 0.474331 0.669802
O O12 0.847633 0.250000 0.030689
O O13 0.800014 0.972603 0.035554
O O14 0.545506 0.250000 0.733578
O O15 0.527174 0.491540 0.826823
O O16 0.224428 0.250000 0.273208
O O17 0.242305 0.039093 0.148818
O O18 0.448125 0.750000 0.061407
O O19 0.350291 0.979241 0.035532
O O20 0.500000 0.000000 0.000000
O O21 0.708712 0.750000 0.963366
#
# Coordination Sequence:
#
# PCOD8068215 Si02
#       8
#     4   4   4   4   4   4   4   4
#     4   9  16  27  41  59  77 100 130 165 202 241
#     4   8  15  25  35  53  78 103 135 168 200 237
#     4  10  17  26  39  59  81 107 136 166 200 242
#     4   9  15  24  39  55  74 102 133 168 205 242
#     4   8  16  29  43  56  76 101 131 167 206 245
#     4   9  16  25  38  56  80 108 137 170 200 235
#     4  11  21  34  47  62  81 105 137 176 215 251
#     4  10  19  30  42  58  77 103 138 174 210 247
#
# _framework density 15.317698999999999
#
# number of rings (size 3 to 8) (size 9 to 14) (size 15 to 20)
#    0.000    2.750    1.250    3.375    0.000    2.500 
#    0.000    1.875    0.000    0.000    0.000    0.000 
#    0.000    0.000    0.000    1.125    0.000   12.500 
#
# Total GULP energy -396429.031937 kJ/mol
# GULP energy per Si atom -12388.407248 kJ/mol
# Density = 1.528284 g / cm^3
# Si number density = 15.317699 Si / 1000 Ang^3
#
#
#
# Elastic Constant Matrix: (Units=GPa)
#
#
# Indices 1 2 3 4 5 6 
#
# 1 86.6849 34.0734 49.8887 0.0000 31.6052 0.0000
# 2 34.0734 66.7124 28.4268 0.0000 14.2026 0.0000
# 3 49.8887 28.4268 63.1711 0.0000 23.2634 0.0000
# 4 0.0000 0.0000 0.0000 17.2617 0.0000 6.2681
# 5 31.6052 14.2026 23.2634 0.0000 26.8223 0.0000
# 6 0.0000 0.0000 0.0000 6.2681 0.0000 23.3410
#
#
#
# Elastic Compliance Matrix: (Units=1/GPa)
#
#
# Indices 1 2 3 4 5 6 
#
# 1 0.027626 -0.004634 -0.012706 0.000000 -0.019078 0.000000
# 2 -0.004634 0.019590 -0.004917 0.000000 -0.000648 0.000000
# 3 -0.012706 -0.004917 0.031744 0.000000 -0.009956 0.000000
# 4 0.000000 0.000000 0.000000 0.064191 0.000000 -0.017238
# 5 -0.019078 -0.000648 -0.009956 0.000000 0.068740 0.000000
# 6 0.000000 0.000000 0.000000 -0.017238 0.000000 0.047472
#
#
# Mechanical properties :
#
#
# Convention : Reuss Voigt Hill
#
# Bulk Modulus (GPa) = 29.03213 49.03847 39.03530
# Shear Modulus (GPa) = 15.85489 20.43031 18.14260
#
# Velocity S-wave (km/s) = 3.22074 3.65605 3.44527
# Velocity P-wave (km/s) = 5.72934 7.06442 6.43161
#
# Compressibility (1/GPa) = 0.03444460
#
# Stress axis : x y z
#
# Youngs Moduli (GPa) = 36.19752 51.04717 31.50225
#
# Poissons Ratio (x) = 0.23656 0.40028
# Poissons Ratio (y) = 0.16775 0.15490
# Poissons Ratio (z) = 0.45994 0.25100
#
# Static dielectric constant tensor:
#      x y z
#    x 3.024560 0.000000 0.538770 
#    y 0.000000 2.959410 0.000000 
#    z 0.538770 0.000000 2.921090 
# 
# 
# High freq. dielectric constant tensor:
#      x y z
#    x 1.567480 0.000000 0.055420 
#    y 0.000000 1.594570 0.000000 
#    z 0.055420 0.000000 1.540060 
# 
# From -- ./inp_files/51286.got.cif
#   From: 2010.06.25/outbox.cif.g09.slc.cpg/sg11_26_cif.got.tgz:51286.got - 2010.06.27 23:14:04.
