data_PCOD8068545
_publ_section_title
;
Structure prediction by ZEFSAII (Michael W. Deem and Ramdas Pophale) SiO2 
 PCOD8068545
Probable space group: P 21/M
;
_chemical_formula_sum "Si O2"
_cell_formula_units_Z 32
_cell_length_a 16.194791
_cell_length_b 8.642701
_cell_length_c 20.202253
_cell_angle_alpha 90.000000
_cell_angle_beta 44.521349
_cell_angle_gamma 90.000000
_cell_volume 1982.672819
_symmetry_space_group_name_H-M "P 21/M"
_symmetry_group_IT_number 11
_symmetry_cell_setting 'monoclinic'
loop_
_space_group_symop_operation_xyz
x,y,z
-x,1/2+y,-z
-x,-y,-z
x,1/2-y,z
loop_
_atom_site_type_symbol
_atom_site_label
_atom_site_fract_x
_atom_site_fract_y
_atom_site_fract_z
Si Si1 0.890626 0.424062 0.645481
Si Si2 0.629033 0.567964 0.422101
Si Si3 0.124429 0.433785 0.951664
Si Si4 0.163531 0.424084 0.453459
Si Si5 0.801005 0.066697 0.218652
Si Si6 0.951585 0.068036 0.878549
Si Si7 0.051289 0.071215 0.256262
Si Si8 0.782120 0.428701 0.445914
O O1 0.845378 0.250000 0.681545
O O2 0.813142 0.503137 0.632138
O O3 0.873165 0.517209 0.723641
O O4 0.025852 0.426234 0.547262
O O5 0.500000 0.500000 0.500000
O O6 0.625761 0.750000 0.411490
O O7 0.691656 0.485483 0.324888
O O8 0.695914 0.533576 0.452140
O O9 0.124899 0.250000 0.952494
O O10 0.218198 0.496503 0.844310
O O11 0.144330 0.500222 0.014296
O O12 0.000000 0.500000 0.000000
O O13 0.212780 0.250000 0.426146
O O14 0.232308 0.523989 0.469098
O O15 0.806331 0.250000 0.211545
O O16 0.920883 0.007819 0.183629
O O17 0.963299 0.250000 0.881331
O O18 0.906268 0.026595 0.831283
O O19 0.076456 0.250000 0.228613
O O20 0.914127 0.038453 0.346656
O O21 0.747859 0.250000 0.456688
#
# Coordination Sequence:
#
# PCOD8068545 Si02
#       8
#     4   4   4   4   4   4   4   4
#     4   9  16  25  37  56  81 109 143 178 214 254
#     4  12  24  37  51  67  87 113 148 189 232 271
#     4  10  18  29  44  63  85 111 143 179 218 261
#     4   9  16  26  40  57  79 107 142 178 215 257
#     4  11  20  33  48  64  85 111 144 183 224 266
#     4  11  19  28  43  64  88 116 148 182 219 262
#     4  10  18  27  41  60  86 116 147 181 219 260
#     4  10  19  31  46  62  82 110 145 183 224 264
#
# _framework density 16.139828999999999
#
# number of rings (size 3 to 8) (size 9 to 14) (size 15 to 20)
#    0.000    1.750    1.250    7.500    0.000    4.000 
#    0.000    0.000    0.000    0.000    0.000    0.000 
#    0.000    0.000    0.000    1.125    0.000   15.750 
#
# Total GULP energy -396786.085131 kJ/mol
# GULP energy per Si atom -12399.565160 kJ/mol
# Density = 1.610309 g / cm^3
# Si number density = 16.139829 Si / 1000 Ang^3
#
#
#
# Elastic Constant Matrix: (Units=GPa)
#
#
# Indices 1 2 3 4 5 6 
#
# 1 72.0728 38.3021 46.8299 0.0000 33.8787 0.0000
# 2 38.3021 135.1169 35.5176 0.0000 17.8245 0.0000
# 3 46.8299 35.5176 71.6902 0.0000 25.5048 0.0000
# 4 0.0000 0.0000 0.0000 22.7914 0.0000 9.6169
# 5 33.8787 17.8245 25.5048 0.0000 27.2537 0.0000
# 6 0.0000 0.0000 0.0000 9.6169 0.0000 28.3172
#
#
#
# Elastic Compliance Matrix: (Units=1/GPa)
#
#
# Indices 1 2 3 4 5 6 
#
# 1 0.041185 -0.003616 -0.011602 0.000000 -0.037975 0.000000
# 2 -0.003616 0.008935 -0.002376 0.000000 0.000874 0.000000
# 3 -0.011602 -0.002376 0.025516 0.000000 -0.007903 0.000000
# 4 0.000000 0.000000 0.000000 0.051215 0.000000 -0.017393
# 5 -0.037975 0.000874 -0.007903 0.000000 0.090722 0.000000
# 6 0.000000 0.000000 0.000000 -0.017393 0.000000 0.041221
#
#
# Mechanical properties :
#
#
# Convention : Reuss Voigt Hill
#
# Bulk Modulus (GPa) = 24.72216 57.79767 41.25991
# Shear Modulus (GPa) = 16.26200 26.22115 21.24157
#
# Velocity S-wave (km/s) = 3.17767 4.03503 3.63174
# Velocity P-wave (km/s) = 5.36788 7.58927 6.57310
#
# Compressibility (1/GPa) = 0.04044954
#
# Stress axis : x y z
#
# Youngs Moduli (GPa) = 24.28051 111.91734 39.19077
#
# Poissons Ratio (x) = 0.40465 0.45469
# Poissons Ratio (y) = 0.08779 0.09312
# Poissons Ratio (z) = 0.28170 0.26591
#
# Static dielectric constant tensor:
#      x y z
#    x 3.069040 0.000000 0.557950 
#    y 0.000000 3.280840 0.000000 
#    z 0.557950 0.000000 3.036280 
# 
# 
# High freq. dielectric constant tensor:
#      x y z
#    x 1.597890 0.000000 0.053880 
#    y 0.000000 1.646110 0.000000 
#    z 0.053880 0.000000 1.574920 
# 
# From -- ./inp_files/65192.got.cif
#   From: 2010.06.25/outbox.cif.g09.slc.cpg/sg11_33_cif.got.tgz:65192.got - 2010.06.27 23:14:04.
