data_PCOD8068263
_publ_section_title
;
Structure prediction by ZEFSAII (Michael W. Deem and Ramdas Pophale) SiO2 
 PCOD8068263
Probable space group: P 21/M
;
_chemical_formula_sum "Si O2"
_cell_formula_units_Z 28
_cell_length_a 14.025662
_cell_length_b 8.900319
_cell_length_c 22.069510
_cell_angle_alpha 90.000000
_cell_angle_beta 140.708364
_cell_angle_gamma 90.000000
_cell_volume 1744.653184
_symmetry_space_group_name_H-M "P 21/M"
_symmetry_group_IT_number 11
_symmetry_cell_setting 'monoclinic'
loop_
_space_group_symop_operation_xyz
x,y,z
-x,1/2+y,-z
-x,-y,-z
x,1/2-y,z
loop_
_atom_site_type_symbol
_atom_site_label
_atom_site_fract_x
_atom_site_fract_y
_atom_site_fract_z
Si Si1 0.843445 0.073918 0.710019
Si Si2 0.001563 0.427193 0.435622
Si Si3 0.552983 0.576249 0.586879
Si Si4 0.846908 0.071620 0.135276
Si Si5 0.757150 0.074715 0.223867
Si Si6 0.441991 0.073547 0.032507
Si Si7 0.767272 0.421511 0.533854
O O1 0.853708 0.250000 0.726598
O O2 0.815874 0.034359 0.625951
O O3 0.706084 0.007050 0.683103
O O4 0.994572 0.995060 0.808127
O O5 0.993446 0.250000 0.439536
O O6 0.857502 0.492833 0.327538
O O7 0.000000 0.500000 0.500000
O O8 0.153048 0.469415 0.474444
O O9 0.500000 0.500000 0.500000
O O10 0.589010 0.750000 0.592414
O O11 0.413306 0.559012 0.564846
O O12 0.848577 0.250000 0.130983
O O13 0.812519 0.010318 0.186268
O O14 0.714892 0.006427 0.026148
O O15 0.789861 0.250000 0.236775
O O16 0.578530 0.043909 0.147701
O O17 0.415152 0.250000 0.010081
O O18 0.500000 0.000000 0.000000
O O19 0.814714 0.250000 0.544014
#
# Coordination Sequence:
#
# PCOD8068263 Si02
#       7
#     4   4   4   4   4   4   4
#     4  10  18  27  42  65  90 117 149 180 215 261
#     4  11  21  33  47  64  85 115 152 191 226 261
#     4   9  17  28  42  61  86 114 146 180 217 263
#     4  10  17  27  42  63  88 117 148 177 216 263
#     4   8  16  29  43  58  81 113 146 180 222 262
#     4   9  16  27  41  60  83 111 145 179 217 263
#     4   9  18  31  44  61  84 113 148 185 222 259
#
# _framework density 16.049035
#
# number of rings (size 3 to 8) (size 9 to 14) (size 15 to 20)
#    0.000    2.571    1.429    3.857    0.000    2.857 
#    0.000    2.143    0.000    0.000    0.000    0.000 
#    0.000    1.143    0.000    3.429    0.000    4.571 
#
# Total GULP energy -346967.962809 kJ/mol
# GULP energy per Si atom -12391.712957 kJ/mol
# Density = 1.601251 g / cm^3
# Si number density = 16.049035 Si / 1000 Ang^3
#
#
#
# Elastic Constant Matrix: (Units=GPa)
#
#
# Indices 1 2 3 4 5 6 
#
# 1 60.5722 37.6937 50.8743 0.0000 24.8841 0.0000
# 2 37.6937 89.8904 41.8458 0.0000 18.5048 0.0000
# 3 50.8743 41.8458 94.2083 0.0000 33.5395 0.0000
# 4 0.0000 0.0000 0.0000 23.4925 0.0000 9.1886
# 5 24.8841 18.5048 33.5395 0.0000 34.0329 0.0000
# 6 0.0000 0.0000 0.0000 9.1886 0.0000 25.6658
#
#
#
# Elastic Compliance Matrix: (Units=1/GPa)
#
#
# Indices 1 2 3 4 5 6 
#
# 1 0.035392 -0.007002 -0.012547 0.000000 -0.009706 0.000000
# 2 -0.007002 0.015527 -0.002977 0.000000 -0.000389 0.000000
# 3 -0.012547 -0.002977 0.022907 0.000000 -0.011783 0.000000
# 4 0.000000 0.000000 0.000000 0.049498 0.000000 -0.017721
# 5 -0.009706 -0.000389 -0.011783 0.000000 0.048303 0.000000
# 6 0.000000 0.000000 0.000000 -0.017721 0.000000 0.045306
#
#
# Mechanical properties :
#
#
# Convention : Reuss Voigt Hill
#
# Bulk Modulus (GPa) = 34.75334 56.16650 45.45992
# Shear Modulus (GPa) = 18.41104 24.25539 21.33321
#
# Velocity S-wave (km/s) = 3.39067 3.89180 3.64985
# Velocity P-wave (km/s) = 6.08526 7.43422 6.79330
#
# Compressibility (1/GPa) = 0.02877421
#
# Stress axis : x y z
#
# Youngs Moduli (GPa) = 28.25528 64.40504 43.65396
#
# Poissons Ratio (x) = 0.45097 0.54771
# Poissons Ratio (y) = 0.19784 0.12996
# Poissons Ratio (z) = 0.35451 0.19174
#
# Static dielectric constant tensor:
#      x y z
#    x 2.961750 0.000000 0.552280 
#    y 0.000000 3.128760 0.000000 
#    z 0.552280 0.000000 3.335750 
# 
# 
# High freq. dielectric constant tensor:
#      x y z
#    x 1.576220 0.000000 0.051540 
#    y 0.000000 1.624570 0.000000 
#    z 0.051540 0.000000 1.598760 
# 
# From -- ./inp_files/48747.got.cif
#   From: 2010.06.25/outbox.cif.g09.slc.cpg/sg11_25_cif.got.tgz:48747.got - 2010.06.27 23:14:04.
