data_PCOD8068035
_publ_section_title
;
Structure prediction by ZEFSAII (Michael W. Deem and Ramdas Pophale) SiO2 
 PCOD8068035
Probable space group: P 2/M
;
_chemical_formula_sum "Si O2"
_cell_formula_units_Z 32
_cell_length_a 24.294455
_cell_length_b 9.465299
_cell_length_c 25.496509
_cell_angle_alpha 90.000000
_cell_angle_beta 17.662864
_cell_angle_gamma 90.000000
_cell_volume 1778.934798
_symmetry_space_group_name_H-M "P 2/M"
_symmetry_group_IT_number 10
_symmetry_cell_setting 'monoclinic'
loop_
_space_group_symop_operation_xyz
x,y,z
-x,y,-z
-x,-y,-z
x,-y,z
loop_
_atom_site_type_symbol
_atom_site_label
_atom_site_fract_x
_atom_site_fract_y
_atom_site_fract_z
Si Si1 0.043146 0.840909 0.203345
Si Si2 0.561912 0.831077 0.000021
Si Si3 0.945033 0.832877 0.690727
Si Si4 0.438736 0.332626 0.500010
Si Si5 0.449865 0.840908 0.796631
Si Si6 0.057285 0.334186 0.802091
Si Si7 0.661435 0.334187 0.197936
Si Si8 0.673560 0.167123 0.690684
O O1 0.018146 0.775344 0.284051
O O2 0.936455 0.743443 0.259390
O O3 0.964076 0.000000 0.271240
O O4 0.254730 0.841308 0.999987
O O5 0.762287 0.770791 0.830975
O O6 0.561003 0.000000 0.000016
O O7 0.500000 0.771043 0.000000
O O8 0.424163 0.770798 0.169088
O O9 0.114422 0.790673 0.500025
O O10 0.922811 0.000000 0.715801
O O11 0.500000 0.266123 0.500000
O O12 0.442688 0.500000 0.500024
O O13 0.233281 0.282537 0.674545
O O14 0.582355 0.282554 0.325471
O O15 0.455267 0.743457 0.740579
O O16 0.586272 0.775335 0.715930
O O17 0.506594 0.000000 0.728733
O O18 0.065173 0.500000 0.783399
O O19 0.875285 0.294589 0.000015
O O20 0.631938 0.500000 0.216623
O O21 0.645635 0.000000 0.715753
#
# Coordination Sequence:
#
# PCOD8068035 Si02
#       8
#     4   4   4   4   4   4   4   4
#     4   9  16  28  46  66  91 121 151 183 223 273
#     4   9  16  26  38  54  83 119 152 187 222 260
#     4   9  16  25  38  58  83 113 148 183 221 266
#     4   9  18  32  49  69  93 121 152 185 224 270
#     4   9  16  28  46  66  91 121 151 183 223 273
#     4   9  18  31  47  69  94 118 147 187 227 264
#     4   9  18  31  47  69  94 118 147 187 227 264
#     4   9  16  25  38  58  83 113 148 183 221 266
#
# _framework density 17.988292000000001
#
# number of rings (size 3 to 8) (size 9 to 14) (size 15 to 20)
#    0.000    3.000    1.250    0.000    1.750    1.000 
#    0.000    5.000    0.000    1.500    0.000    3.500 
#    0.000    2.000    0.000    2.250    0.000    2.500 
#
# Total GULP energy -396661.867134 kJ/mol
# GULP energy per Si atom -12395.683348 kJ/mol
# Density = 1.794735 g / cm^3
# Si number density = 17.988292 Si / 1000 Ang^3
#
#
#
# Elastic Constant Matrix: (Units=GPa)
#
#
# Indices 1 2 3 4 5 6 
#
# 1 173.3432 26.5331 95.5580 0.0000 2.4710 0.0000
# 2 26.5331 20.5460 16.9210 0.0000 0.8882 0.0000
# 3 95.5580 16.9210 131.5004 0.0000 1.4097 0.0000
# 4 0.0000 0.0000 0.0000 9.5162 0.0000 -0.6806
# 5 2.4710 0.8882 1.4097 0.0000 25.6560 0.0000
# 6 0.0000 0.0000 0.0000 -0.6806 0.0000 2.1292
#
#
#
# Elastic Compliance Matrix: (Units=1/GPa)
#
#
# Indices 1 2 3 4 5 6 
#
# 1 0.010772 -0.008334 -0.006751 0.000000 -0.000378 0.000000
# 2 -0.008334 0.060947 -0.001773 0.000000 -0.001210 0.000000
# 3 -0.006751 -0.001773 0.012738 0.000000 0.000012 0.000000
# 4 0.000000 0.000000 0.000000 0.107542 0.000000 0.034374
# 5 -0.000378 -0.001210 0.000012 0.000000 0.039055 0.000000
# 6 0.000000 0.000000 0.000000 0.034374 0.000000 0.480642
#
#
# Mechanical properties :
#
#
# Convention : Reuss Voigt Hill
#
# Bulk Modulus (GPa) = 19.70832 67.04598 43.37715
# Shear Modulus (GPa) = 6.55888 19.88546 13.22217
#
# Velocity S-wave (km/s) = 1.91157 3.32846 2.71411
# Velocity P-wave (km/s) = 3.98147 7.21973 5.82995
#
# Compressibility (1/GPa) = 0.05073998
#
# Stress axis : x y z
#
# Youngs Moduli (GPa) = 92.83734 16.40776 78.50334
#
# Poissons Ratio (x) = 0.13675 0.52997
# Poissons Ratio (y) = 0.77372 0.13920
# Poissons Ratio (z) = 0.62674 0.02909
#
# Static dielectric constant tensor:
#      x y z
#    x 3.511180 0.000000 0.002070 
#    y 0.000000 2.824370 0.000000 
#    z 0.002070 0.000000 3.488430 
# 
# 
# High freq. dielectric constant tensor:
#      x y z
#    x 1.697280 0.000000 -0.001200 
#    y 0.000000 1.626820 0.000000 
#    z -0.001200 0.000000 1.710290 
# 
# From -- ./inp_files/90543.got.cif
#   From: 2010.06.25/outbox.cif.g09.slc.cpg/sg10_46_cif.got.tgz:90543.got - 2010.06.27 22:07:45.
