data_PCOD8068782
_publ_section_title
;
Structure prediction by ZEFSAII (Michael W. Deem and Ramdas Pophale) SiO2 
 PCOD8068782
Probable space group: P 21/M
;
_chemical_formula_sum "Si O2"
_cell_formula_units_Z 32
_cell_length_a 10.369470
_cell_length_b 9.208202
_cell_length_c 20.346403
_cell_angle_alpha 90.000000
_cell_angle_beta 101.716889
_cell_angle_gamma 90.000000
_cell_volume 1902.278199
_symmetry_space_group_name_H-M "P 21/M"
_symmetry_group_IT_number 11
_symmetry_cell_setting 'monoclinic'
loop_
_space_group_symop_operation_xyz
x,y,z
-x,1/2+y,-z
-x,-y,-z
x,1/2-y,z
loop_
_atom_site_type_symbol
_atom_site_label
_atom_site_fract_x
_atom_site_fract_y
_atom_site_fract_z
Si Si1 0.872235 0.082100 0.962699
Si Si2 0.883657 0.410993 0.681036
Si Si3 0.803607 0.586099 0.299556
Si Si4 0.366137 0.582854 0.975212
Si Si5 0.207060 0.918432 0.830014
Si Si6 0.142544 0.413135 0.443899
Si Si7 0.170066 0.914322 0.572455
Si Si8 0.944306 0.417664 0.827233
O O1 0.891158 0.250000 0.983660
O O2 0.743619 0.019673 0.985934
O O3 0.855113 0.060127 0.882531
O O4 0.000000 0.000000 0.000000
O O5 0.827886 0.250000 0.661006
O O6 0.816492 0.520641 0.622639
O O7 0.856268 0.458691 0.753857
O O8 0.039923 0.411603 0.688500
O O9 0.747125 0.750000 0.296140
O O10 0.745858 0.502686 0.230341
O O11 0.760524 0.501069 0.360939
O O12 0.391817 0.750000 0.994163
O O13 0.500000 0.500000 0.000000
O O14 0.320275 0.561121 0.895625
O O15 0.183676 0.750000 0.810194
O O16 0.072290 0.981729 0.845736
O O17 0.197759 0.250000 0.453718
O O18 0.208703 0.507596 0.508331
O O19 0.986207 0.414657 0.435097
O O20 0.223984 0.750000 0.576704
O O21 0.991824 0.250000 0.825357
#
# Coordination Sequence:
#
# PCOD8068782 Si02
#       8
#     4   4   4   4   4   4   4   4
#     4  10  19  33  51  73  95 120 155 197 240 284
#     4   8  14  23  33  50  74 103 137 174 216 265
#     4   9  16  25  37  54  76 105 142 181 222 269
#     4  10  22  36  50  70  96 125 158 195 238 288
#     4  10  18  29  44  64  88 113 147 190 231 275
#     4   9  15  21  30  45  68 102 139 176 215 259
#     4   9  15  22  32  47  69 101 139 180 219 259
#     4   9  17  28  45  65  87 114 147 187 232 277
#
# _framework density 16.821936000000001
#
# number of rings (size 3 to 8) (size 9 to 14) (size 15 to 20)
#    0.000    2.750    1.250    2.250    0.000    7.500 
#    0.000    0.000    0.000    0.000    0.000    0.000 
#    0.000    0.000    0.000    1.125    0.000   13.500 
#
# Total GULP energy -396696.708574 kJ/mol
# GULP energy per Si atom -12396.772143 kJ/mol
# Density = 1.678365 g / cm^3
# Si number density = 16.821936 Si / 1000 Ang^3
#
#
#
# Elastic Constant Matrix: (Units=GPa)
#
#
# Indices 1 2 3 4 5 6 
#
# 1 53.3693 32.5149 42.2426 0.0000 -4.0556 0.0000
# 2 32.5149 120.6562 70.4674 0.0000 -8.4091 0.0000
# 3 42.2426 70.4674 133.2831 0.0000 -25.2098 0.0000
# 4 0.0000 0.0000 0.0000 32.6546 0.0000 -1.6532
# 5 -4.0556 -8.4091 -25.2098 0.0000 14.7618 0.0000
# 6 0.0000 0.0000 0.0000 -1.6532 0.0000 13.9526
#
#
#
# Elastic Compliance Matrix: (Units=1/GPa)
#
#
# Indices 1 2 3 4 5 6 
#
# 1 0.026601 -0.002708 -0.008728 0.000000 -0.009139 0.000000
# 2 -0.002708 0.012625 -0.006790 0.000000 -0.005148 0.000000
# 3 -0.008728 -0.006790 0.018721 0.000000 0.025705 0.000000
# 4 0.000000 0.000000 0.000000 0.030808 0.000000 0.003650
# 5 -0.009139 -0.005148 0.025705 0.000000 0.106197 0.000000
# 6 0.000000 0.000000 0.000000 0.003650 0.000000 0.072104
#
#
# Mechanical properties :
#
#
# Convention : Reuss Voigt Hill
#
# Bulk Modulus (GPa) = 46.52369 66.41761 56.47065
# Shear Modulus (GPa) = 16.09408 23.07937 19.58673
#
# Velocity S-wave (km/s) = 3.09646 3.70804 3.41597
# Velocity P-wave (km/s) = 6.36402 7.60929 7.01434
#
# Compressibility (1/GPa) = 0.02149442
#
# Stress axis : x y z
#
# Youngs Moduli (GPa) = 37.59267 79.20957 53.41600
#
# Poissons Ratio (x) = 0.21452 0.46620
# Poissons Ratio (y) = 0.10181 0.36271
# Poissons Ratio (z) = 0.32810 0.53785
#
# Static dielectric constant tensor:
#      x y z
#    x 2.567570 0.000000 -0.394190 
#    y 0.000000 3.316100 0.000000 
#    z -0.394190 0.000000 3.515790 
# 
# 
# High freq. dielectric constant tensor:
#      x y z
#    x 1.564590 0.000000 -0.030700 
#    y 0.000000 1.659770 0.000000 
#    z -0.030700 0.000000 1.664190 
# 
# From -- ./inp_files/64253.got.cif
#   From: 2010.06.25/outbox.cif.g09.slc.cpg/sg11_33_cif.got.tgz:64253.got - 2010.06.27 23:14:04.
