data_PCOD8068023
_publ_section_title
;
Structure prediction by ZEFSAII (Michael W. Deem and Ramdas Pophale) SiO2 
 PCOD8068023
Probable space group: P 2/M
;
_chemical_formula_sum "Si O2"
_cell_formula_units_Z 32
_cell_length_a 23.949619
_cell_length_b 9.342249
_cell_length_c 22.566984
_cell_angle_alpha 90.000000
_cell_angle_beta 160.436238
_cell_angle_gamma 90.000000
_cell_volume 1690.757159
_symmetry_space_group_name_H-M "P 2/M"
_symmetry_group_IT_number 10
_symmetry_cell_setting 'monoclinic'
loop_
_space_group_symop_operation_xyz
x,y,z
-x,y,-z
-x,-y,-z
x,-y,z
loop_
_atom_site_type_symbol
_atom_site_label
_atom_site_fract_x
_atom_site_fract_y
_atom_site_fract_z
Si Si1 0.696339 0.339611 0.085817
Si Si2 0.303667 0.339611 0.693144
Si Si3 0.300814 0.161066 0.800813
Si Si4 0.811064 0.330508 0.546907
Si Si5 0.315686 0.329611 0.175126
Si Si6 0.811068 0.330508 0.075226
Si Si7 0.000002 0.329206 0.067075
Si Si8 0.315690 0.329612 0.456249
O O1 0.772265 0.500000 0.167666
O O2 0.769623 0.241488 0.211483
O O3 0.743196 0.268214 0.069443
O O4 0.500003 0.348203 0.895212
O O5 0.227741 0.500000 0.623141
O O6 0.230379 0.241488 0.672238
O O7 0.256811 0.268215 0.583057
O O8 0.230791 0.000000 0.730790
O O9 0.500000 0.160920 0.000000
O O10 0.792589 0.500000 0.525689
O O11 0.708062 0.271934 0.500299
O O12 0.999998 0.281939 0.745226
O O13 0.303973 0.500000 0.163522
O O14 0.499998 0.280336 0.381842
O O15 0.291935 0.271935 0.084171
O O16 0.167818 0.269190 0.069087
O O17 0.792592 0.500000 0.059493
O O18 0.000002 0.500000 0.069158
O O19 0.167824 0.269188 0.266554
O O20 0.000000 0.272214 0.000000
O O21 0.303976 0.500000 0.444427
#
# Coordination Sequence:
#
# PCOD8068023 Si02
#       8
#     4   4   4   4   4   4   4   4
#     4   9  16  26  42  63  82 103 139 185 226 265
#     4   9  16  26  42  63  82 103 139 185 226 265
#     4   9  17  29  44  61  84 114 144 175 218 273
#     4   9  15  24  38  56  77  99 128 174 227 267
#     4   9  15  23  35  50  71 101 137 178 222 263
#     4   9  15  24  38  56  77  99 128 174 227 267
#     4   9  16  24  32  46  72 105 141 178 214 259
#     4   9  15  23  35  50  71 101 137 178 222 263
#
# _framework density 18.926431999999998
#
# number of rings (size 3 to 8) (size 9 to 14) (size 15 to 20)
#    0.000    3.000    1.250    1.125    0.000    5.000 
#    0.000    3.125    0.000    4.500    0.000    0.000 
#    0.000    0.000    0.000    0.000    0.000    2.500 
#
# Total GULP energy -396553.861656 kJ/mol
# GULP energy per Si atom -12392.308177 kJ/mol
# Density = 1.888336 g / cm^3
# Si number density = 18.926432 Si / 1000 Ang^3
#
#
#
# Elastic Constant Matrix: (Units=GPa)
#
#
# Indices 1 2 3 4 5 6 
#
# 1 172.0273 29.9902 69.2382 0.0000 -12.0657 0.0000
# 2 29.9902 32.8777 13.6021 0.0000 -4.7530 0.0000
# 3 69.2382 13.6021 105.9498 0.0000 -7.0968 0.0000
# 4 0.0000 0.0000 0.0000 2.8899 0.0000 0.3551
# 5 -12.0657 -4.7530 -7.0968 0.0000 32.0330 0.0000
# 6 0.0000 0.0000 0.0000 0.3551 0.0000 1.6654
#
#
#
# Elastic Compliance Matrix: (Units=1/GPa)
#
#
# Indices 1 2 3 4 5 6 
#
# 1 0.008950 -0.005895 -0.004999 0.000000 0.001389 0.000000
# 2 -0.005895 0.036495 -0.000628 0.000000 0.003055 0.000000
# 3 -0.004999 -0.000628 0.012844 0.000000 0.000869 0.000000
# 4 0.000000 0.000000 0.000000 0.355340 0.000000 -0.075767
# 5 0.001389 0.003055 0.000869 0.000000 0.032387 0.000000
# 6 0.000000 0.000000 0.000000 -0.075767 0.000000 0.616608
#
#
# Mechanical properties :
#
#
# Convention : Reuss Voigt Hill
#
# Bulk Modulus (GPa) = 28.37328 59.61285 43.99307
# Shear Modulus (GPa) = 4.55615 20.51929 12.53772
#
# Velocity S-wave (km/s) = 1.55323 3.29623 2.57659
# Velocity P-wave (km/s) = 4.27090 6.78619 5.66979
#
# Compressibility (1/GPa) = 0.03524442
#
# Stress axis : x y z
#
# Youngs Moduli (GPa) = 111.72890 27.40118 77.85598
#
# Poissons Ratio (x) = 0.16153 0.38921
# Poissons Ratio (y) = 0.65866 0.04891
# Poissons Ratio (z) = 0.55854 0.01721
#
# Static dielectric constant tensor:
#      x y z
#    x 3.747440 0.000000 -0.081470 
#    y 0.000000 2.826970 0.000000 
#    z -0.081470 0.000000 3.466520 
# 
# 
# High freq. dielectric constant tensor:
#      x y z
#    x 1.747620 0.000000 -0.004100 
#    y 0.000000 1.641180 0.000000 
#    z -0.004100 0.000000 1.733460 
# 
# From -- ./inp_files/90671.got.cif
#   From: 2010.06.25/outbox.cif.g09.slc.cpg/sg10_46_cif.got.tgz:90671.got - 2010.06.27 22:07:45.
