data_PCOD8069922
_publ_section_title
;
Structure prediction by ZEFSAII (Michael W. Deem and Ramdas Pophale) SiO2 
 PCOD8069922
Probable space group: P 21/M
;
_chemical_formula_sum "Si O2"
_cell_formula_units_Z 32
_cell_length_a 12.246516
_cell_length_b 9.117259
_cell_length_c 16.366027
_cell_angle_alpha 90.000000
_cell_angle_beta 108.434521
_cell_angle_gamma 90.000000
_cell_volume 1733.574242
_symmetry_space_group_name_H-M "P 21/M"
_symmetry_group_IT_number 11
_symmetry_cell_setting 'monoclinic'
loop_
_space_group_symop_operation_xyz
x,y,z
-x,1/2+y,-z
-x,-y,-z
x,1/2-y,z
loop_
_atom_site_type_symbol
_atom_site_label
_atom_site_fract_x
_atom_site_fract_y
_atom_site_fract_z
Si Si1 0.897680 0.579899 0.206162
Si Si2 0.193352 0.415517 0.532413
Si Si3 0.012922 0.076489 0.089254
Si Si4 0.871420 0.080205 0.638713
Si Si5 0.736677 0.080410 0.285310
Si Si6 0.236106 0.418127 0.240433
Si Si7 0.447375 0.406481 0.555874
Si Si8 0.491758 0.086814 0.279980
O O1 0.873259 0.750000 0.181201
O O2 0.786067 0.506490 0.220014
O O3 0.919068 0.493745 0.127265
O O4 0.003868 0.560488 0.292430
O O5 0.144930 0.250000 0.540251
O O6 0.116208 0.502112 0.447411
O O7 0.213269 0.506407 0.620154
O O8 0.311840 0.399454 0.512172
O O9 0.992242 0.250000 0.077081
O O10 0.139962 0.037065 0.152196
O O11 0.000000 0.000000 0.000000
O O12 0.838749 0.250000 0.617663
O O13 0.776664 0.011192 0.678606
O O14 0.776718 0.250000 0.295045
O O15 0.596647 0.071568 0.239923
O O16 0.220030 0.250000 0.263548
O O17 0.358980 0.441704 0.222215
O O18 0.500000 0.500000 0.500000
O O19 0.505812 0.250000 0.560723
O O20 0.480029 0.462635 0.650820
O O21 0.499167 0.250000 0.320760
#
# Coordination Sequence:
#
# PCOD8069922 Si02
#       8
#     4   4   4   4   4   4   4   4
#     4  10  21  37  55  76 104 135 168 208 254 304
#     4  10  20  32  45  64  95 135 177 218 258 301
#     4  10  20  36  60  87 111 133 159 196 246 303
#     4  10  20  32  48  72 100 132 173 220 263 301
#     4  10  20  34  52  73  99 135 178 217 252 295
#     4   9  18  33  53  77 105 135 165 203 255 307
#     4  10  19  28  40  61  90 127 170 214 258 298
#     4   9  18  32  49  70  97 130 168 208 249 296
#
# _framework density 18.458973
#
# number of rings (size 3 to 8) (size 9 to 14) (size 15 to 20)
#    0.000    2.250    0.000    3.000    0.000    8.000 
#    0.000    0.000    0.000    0.750    0.000    0.000 
#    0.000    0.000    0.000    0.000    0.000    0.000 
#
# Total GULP energy -396509.741824 kJ/mol
# GULP energy per Si atom -12390.929432 kJ/mol
# Density = 1.841696 g / cm^3
# Si number density = 18.458973 Si / 1000 Ang^3
#
#
#
# Elastic Constant Matrix: (Units=GPa)
#
#
# Indices 1 2 3 4 5 6 
#
# 1 81.9790 37.0841 30.3171 0.0000 -19.0473 0.0000
# 2 37.0841 129.7905 41.3992 0.0000 -13.4495 0.0000
# 3 30.3171 41.3992 81.0561 0.0000 -14.9411 0.0000
# 4 0.0000 0.0000 0.0000 30.9547 0.0000 -6.6631
# 5 -19.0473 -13.4495 -14.9411 0.0000 21.4118 0.0000
# 6 0.0000 0.0000 0.0000 -6.6631 0.0000 26.3288
#
#
#
# Elastic Compliance Matrix: (Units=1/GPa)
#
#
# Indices 1 2 3 4 5 6 
#
# 1 0.017213 -0.002804 -0.002878 0.000000 0.011542 0.000000
# 2 -0.002804 0.009817 -0.003774 0.000000 0.001039 0.000000
# 3 -0.002878 -0.003774 0.016563 0.000000 0.006626 0.000000
# 4 0.000000 0.000000 0.000000 0.034167 0.000000 0.008647
# 5 0.011542 0.001039 0.006626 0.000000 0.062247 0.000000
# 6 0.000000 0.000000 0.000000 0.008647 0.000000 0.040170
#
#
# Mechanical properties :
#
#
# Convention : Reuss Voigt Hill
#
# Bulk Modulus (GPa) = 40.51800 56.71401 48.61601
# Shear Modulus (GPa) = 24.11786 28.00740 26.06263
#
# Velocity S-wave (km/s) = 3.61857 3.89945 3.76163
# Velocity P-wave (km/s) = 6.28145 7.14600 6.72763
#
# Compressibility (1/GPa) = 0.02468039
#
# Stress axis : x y z
#
# Youngs Moduli (GPa) = 58.09607 101.86110 60.37670
#
# Poissons Ratio (x) = 0.28561 0.17379
# Poissons Ratio (y) = 0.16290 0.22786
# Poissons Ratio (z) = 0.16722 0.38442
#
# Static dielectric constant tensor:
#      x y z
#    x 3.671110 0.000000 -0.047290 
#    y 0.000000 3.462630 0.000000 
#    z -0.047290 0.000000 3.016690 
# 
# 
# High freq. dielectric constant tensor:
#      x y z
#    x 1.716970 0.000000 -0.011020 
#    y 0.000000 1.736390 0.000000 
#    z -0.011020 0.000000 1.675490 
# 
# From -- ./inp_files/49315.got.cif
#   From: 2010.06.25/outbox.cif.g09.slc.cpg/sg11_25_cif.got.tgz:49315.got - 2010.06.27 23:14:04.
