data_PCOD8069426
_publ_section_title
;
Structure prediction by ZEFSAII (Michael W. Deem and Ramdas Pophale) SiO2 
 PCOD8069426
Probable space group: P 21/M
;
_chemical_formula_sum "Si O2"
_cell_formula_units_Z 32
_cell_length_a 22.834393
_cell_length_b 13.660963
_cell_length_c 16.287352
_cell_angle_alpha 90.000000
_cell_angle_beta 17.891312
_cell_angle_gamma 90.000000
_cell_volume 1560.845429
_symmetry_space_group_name_H-M "P 21/M"
_symmetry_group_IT_number 11
_symmetry_cell_setting 'monoclinic'
loop_
_space_group_symop_operation_xyz
x,y,z
-x,1/2+y,-z
-x,-y,-z
x,1/2-y,z
loop_
_atom_site_type_symbol
_atom_site_label
_atom_site_fract_x
_atom_site_fract_y
_atom_site_fract_z
Si Si1 0.775169 0.003546 0.306952
Si Si2 0.150087 0.479283 0.613920
Si Si3 0.464331 0.863007 0.672529
Si Si4 0.224184 0.637789 0.835237
Si Si5 0.257875 0.558246 0.098130
Si Si6 0.483739 0.135911 0.106450
Si Si7 0.175805 0.859975 0.455961
Si Si8 0.914564 0.638898 0.645747
O O1 0.728584 0.009146 0.466208
O O2 0.703185 0.096741 0.349848
O O3 0.676458 0.907109 0.399791
O O4 0.000000 0.000000 0.000000
O O5 0.280370 0.417227 0.377495
O O6 0.095571 0.577359 0.638313
O O7 0.960666 0.420613 0.887993
O O8 0.469845 0.750000 0.692068
O O9 0.396836 0.874433 0.668812
O O10 0.315740 0.923280 0.926867
O O11 0.164575 0.750000 0.903965
O O12 0.255254 0.440851 0.120582
O O13 0.049567 0.606467 0.389908
O O14 0.410863 0.612457 0.949597
O O15 0.442936 0.250000 0.156950
O O16 0.614511 0.104127 0.854400
O O17 0.188850 0.750000 0.471542
O O18 0.032916 0.866957 0.571104
O O19 0.837000 0.750000 0.734474
#
# Coordination Sequence:
#
# PCOD8069426 Si02
#       8
#     4   4   4   4   4   4   4   4
#     4  10  23  39  59  86 115 148 189 249 308 352
#     4  11  20  36  60  87 114 155 197 243 291 349
#     4  11  21  38  64  88 113 149 197 243 296 360
#     4  10  23  40  59  85 116 149 192 249 299 351
#     4  10  18  31  56  86 114 154 199 241 284 348
#     4  10  19  33  55  84 119 154 195 242 291 345
#     4   9  19  34  53  81 117 158 196 237 290 347
#     4   9  18  33  52  80 123 162 195 237 288 343
#
# _framework density 20.501709000000002
#
# number of rings (size 3 to 8) (size 9 to 14) (size 15 to 20)
#    0.000    2.000    1.250    3.750    0.000    2.500 
#    0.000    3.125    0.000   12.000    0.000    0.000 
#    0.000    0.000    0.000    0.000    0.000    0.000 
#
# Total GULP energy -396715.750619 kJ/mol
# GULP energy per Si atom -12397.367207 kJ/mol
# Density = 2.045505 g / cm^3
# Si number density = 20.501709 Si / 1000 Ang^3
#
#
#
# Elastic Constant Matrix: (Units=GPa)
#
#
# Indices 1 2 3 4 5 6 
#
# 1 74.8956 46.2596 21.3728 0.0000 4.2584 0.0000
# 2 46.2596 114.3193 34.9796 0.0000 15.4454 0.0000
# 3 21.3728 34.9796 63.8067 0.0000 2.8961 0.0000
# 4 0.0000 0.0000 0.0000 32.8017 0.0000 2.7032
# 5 4.2584 15.4454 2.8961 0.0000 20.9800 0.0000
# 6 0.0000 0.0000 0.0000 2.7032 0.0000 30.2900
#
#
#
# Elastic Compliance Matrix: (Units=1/GPa)
#
#
# Indices 1 2 3 4 5 6 
#
# 1 0.018171 -0.006842 -0.002412 0.000000 0.001682 0.000000
# 2 -0.006842 0.014213 -0.005120 0.000000 -0.008368 0.000000
# 3 -0.002412 -0.005120 0.019214 0.000000 0.001607 0.000000
# 4 0.000000 0.000000 0.000000 0.030712 0.000000 -0.002741
# 5 0.001682 -0.008368 0.001607 0.000000 0.053262 0.000000
# 6 0.000000 0.000000 0.000000 -0.002741 0.000000 0.033259
#
#
# Mechanical properties :
#
#
# Convention : Reuss Voigt Hill
#
# Bulk Modulus (GPa) = 43.76402 50.91617 47.34010
# Shear Modulus (GPa) = 24.36691 26.84165 25.60428
#
# Velocity S-wave (km/s) = 3.45125 3.62227 3.53779
# Velocity P-wave (km/s) = 6.10527 6.51026 6.31101
#
# Compressibility (1/GPa) = 0.02284982
#
# Stress axis : x y z
#
# Youngs Moduli (GPa) = 55.03410 70.35605 52.04442
#
# Poissons Ratio (x) = 0.48138 0.12553
# Poissons Ratio (y) = 0.37654 0.26649
# Poissons Ratio (z) = 0.13274 0.36025
#
# Static dielectric constant tensor:
#      x y z
#    x 3.860690 0.000000 0.229700 
#    y 0.000000 3.878410 0.000000 
#    z 0.229700 0.000000 3.649880 
# 
# 
# High freq. dielectric constant tensor:
#      x y z
#    x 1.796480 0.000000 0.005490 
#    y 0.000000 1.806340 0.000000 
#    z 0.005490 0.000000 1.786330 
# 
# From -- ./inp_files/54976.got.cif
#   From: 2010.06.25/outbox.cif.g09.slc.cpg/sg11_28_cif.got.tgz:54976.got - 2010.06.27 23:14:04.
