data_PCOD8069846
_publ_section_title
;
Structure prediction by ZEFSAII (Michael W. Deem and Ramdas Pophale) SiO2 
 PCOD8069846
Probable space group: P 21/M
;
_chemical_formula_sum "Si O2"
_cell_formula_units_Z 28
_cell_length_a 10.277671
_cell_length_b 8.930793
_cell_length_c 30.114161
_cell_angle_alpha 90.000000
_cell_angle_beta 33.209783
_cell_angle_gamma 90.000000
_cell_volume 1513.920507
_symmetry_space_group_name_H-M "P 21/M"
_symmetry_group_IT_number 11
_symmetry_cell_setting 'monoclinic'
loop_
_space_group_symop_operation_xyz
x,y,z
-x,1/2+y,-z
-x,-y,-z
x,1/2-y,z
loop_
_atom_site_type_symbol
_atom_site_label
_atom_site_fract_x
_atom_site_fract_y
_atom_site_fract_z
Si Si1 0.129682 0.923589 0.237491
Si Si2 0.885414 0.423474 0.100367
Si Si3 0.133407 0.926369 0.336953
Si Si4 0.663617 0.921037 0.081982
Si Si5 0.618577 0.574335 0.508168
Si Si6 0.308038 0.926932 0.679759
Si Si7 0.597728 0.927688 0.254377
O O1 0.051735 0.750000 0.258070
O O2 0.119701 0.987790 0.290570
O O3 0.394801 0.946010 0.142419
O O4 0.956726 0.019718 0.256148
O O5 0.841614 0.250000 0.122899
O O6 0.715775 0.472010 0.108466
O O7 0.826109 0.517216 0.161377
O O8 0.159716 0.456498 0.009259
O O9 0.165662 0.750000 0.324675
O O10 0.360824 0.991277 0.297909
O O11 0.895640 0.972437 0.431453
O O12 0.699436 0.750000 0.088344
O O13 0.500000 0.500000 0.500000
O O14 0.591275 0.750000 0.509473
O O15 0.489168 0.520148 0.589663
O O16 0.307942 0.750000 0.686241
O O17 0.399225 0.004502 0.697867
O O18 0.601643 0.750000 0.256744
#
# Coordination Sequence:
#
# PCOD8069846 Si02
#       7
#     4   4   4   4   4   4   4
#     4  10  18  35  60  83 109 146 190 227 266 329
#     4  10  19  32  54  84 117 145 178 231 283 322
#     4   9  18  34  59  83 107 142 188 230 265 321
#     4   9  18  33  55  84 113 146 187 226 269 329
#     4  10  20  36  57  82 112 143 181 229 276 324
#     4  11  24  38  54  83 118 146 180 232 286 331
#     4  11  22  39  59  80 110 152 192 225 274 337
#
# _framework density 18.495027
#
# number of rings (size 3 to 8) (size 9 to 14) (size 15 to 20)
#    0.000    2.000    2.857    1.286    0.000    2.286 
#    0.000    2.143    0.000    0.000    0.000    0.000 
#    0.000    0.000    0.000    0.000    0.000    0.000 
#
# Total GULP energy -347244.295522 kJ/mol
# GULP energy per Si atom -12401.581983 kJ/mol
# Density = 1.845293 g / cm^3
# Si number density = 18.495027 Si / 1000 Ang^3
#
#
#
# Elastic Constant Matrix: (Units=GPa)
#
#
# Indices 1 2 3 4 5 6 
#
# 1 105.8875 34.4640 50.0122 0.0000 5.4798 0.0000
# 2 34.4640 60.3018 37.7111 0.0000 5.6010 0.0000
# 3 50.0122 37.7111 127.7939 0.0000 1.1821 0.0000
# 4 0.0000 0.0000 0.0000 26.4971 0.0000 3.7662
# 5 5.4798 5.6010 1.1821 0.0000 29.8919 0.0000
# 6 0.0000 0.0000 0.0000 3.7662 0.0000 29.5075
#
#
#
# Elastic Compliance Matrix: (Units=1/GPa)
#
#
# Indices 1 2 3 4 5 6 
#
# 1 0.012799 -0.004993 -0.003524 0.000000 -0.001271 0.000000
# 2 -0.004993 0.022673 -0.004707 0.000000 -0.003147 0.000000
# 3 -0.003524 -0.004707 0.010583 0.000000 0.001110 0.000000
# 4 0.000000 0.000000 0.000000 0.038437 0.000000 -0.004906
# 5 -0.001271 -0.003147 0.001110 0.000000 0.034233 0.000000
# 6 0.000000 0.000000 0.000000 -0.004906 0.000000 0.034516
#
#
# Mechanical properties :
#
#
# Convention : Reuss Voigt Hill
#
# Bulk Modulus (GPa) = 51.00368 59.81752 55.41060
# Shear Modulus (GPa) = 26.84906 28.63236 27.74071
#
# Velocity S-wave (km/s) = 3.81424 3.93887 3.87706
# Velocity P-wave (km/s) = 6.85819 7.28691 7.07579
#
# Compressibility (1/GPa) = 0.01960643
#
# Stress axis : x y z
#
# Youngs Moduli (GPa) = 78.12903 44.10476 94.49120
#
# Poissons Ratio (x) = 0.22023 0.33296
# Poissons Ratio (y) = 0.39013 0.44481
# Poissons Ratio (z) = 0.27531 0.20762
#
# Static dielectric constant tensor:
#      x y z
#    x 3.156460 0.000000 -0.022010 
#    y 0.000000 3.290910 0.000000 
#    z -0.022010 0.000000 3.682390 
# 
# 
# High freq. dielectric constant tensor:
#      x y z
#    x 1.698560 0.000000 -0.006790 
#    y 0.000000 1.707180 0.000000 
#    z -0.006790 0.000000 1.733340 
# 
# From -- ./inp_files/28297.got.cif
#   From: 2010.06.25/outbox.cif.g09.slc.cpg/sg11_15_cif.got.tgz:28297.got - 2010.06.27 23:14:04.
