data_PCOD8069994
_publ_section_title
;
Structure prediction by ZEFSAII (Michael W. Deem and Ramdas Pophale) SiO2 
 PCOD8069994
Probable space group: P 21/M
;
_chemical_formula_sum "Si O2"
_cell_formula_units_Z 28
_cell_length_a 18.917900
_cell_length_b 16.523110
_cell_length_c 5.140888
_cell_angle_alpha 90.000000
_cell_angle_beta 105.671828
_cell_angle_gamma 90.000000
_cell_volume 1547.212898
_symmetry_space_group_name_H-M "P 21/M"
_symmetry_group_IT_number 11
_symmetry_cell_setting 'monoclinic'
loop_
_space_group_symop_operation_xyz
x,y,z
-x,1/2+y,-z
-x,-y,-z
x,1/2-y,z
loop_
_atom_site_type_symbol
_atom_site_label
_atom_site_fract_x
_atom_site_fract_y
_atom_site_fract_z
Si Si1 0.944309 0.926473 0.479309
Si Si2 0.943126 0.750000 0.388227
Si Si3 0.609884 0.835838 0.602842
Si Si4 0.469669 0.379996 0.978642
Si Si5 0.303428 0.000057 0.313149
Si Si6 0.153451 0.075801 0.117556
Si Si7 0.382564 0.954202 0.893799
Si Si8 0.851782 0.750000 0.797457
O O1 0.909916 0.935282 0.731294
O O2 0.983799 0.836764 0.488929
O O3 0.880133 0.933970 0.202308
O O4 0.000000 0.000000 0.500000
O O5 0.873123 0.750000 0.513810
O O6 0.922318 0.750000 0.062924
O O7 0.653870 0.750000 0.644484
O O8 0.555371 0.833165 0.791999
O O9 0.666178 0.909019 0.664891
O O10 0.557141 0.835127 0.303031
O O11 0.558761 0.381520 0.063655
O O12 0.432719 0.467342 0.949086
O O13 0.215450 0.007447 0.215463
O O14 0.327498 0.953340 0.595577
O O15 0.332838 0.947809 0.101223
O O16 0.190502 0.165826 0.184044
#
# Coordination Sequence:
#
# PCOD8069994 Si02
#       8
#     4   2   4   4   4   4   4   2
#     4  10  19  33  51  72 102 132 165 206 242 286
#     4   8  16  30  46  70  94 124 162 188 232 292
#     4  10  19  29  43  67  95 123 156 190 229 286
#     4   9  17  30  45  60  88 121 155 199 231 266
#     4  10  19  29  45  67  96 124 157 190 230 294
#     4  10  19  31  47  71 101 133 161 192 235 293
#     4   9  17  30  45  63  85 121 159 195 236 264
#     4   8  16  28  44  62  96 136 152 172 220 288
#
# _framework density 18.097059000000002
#
# number of rings (size 3 to 8) (size 9 to 14) (size 15 to 20)
#    0.000    2.571    0.000    2.571    1.000    3.429 
#    0.000    0.000    0.000    0.000    0.000    0.000 
#   42.857    0.000    0.000    0.000    0.000    0.000 
#
# Total GULP energy -346899.455719 kJ/mol
# GULP energy per Si atom -12389.266276 kJ/mol
# Density = 1.805587 g / cm^3
# Si number density = 18.097059 Si / 1000 Ang^3
#
#
#
# Elastic Constant Matrix: (Units=GPa)
#
#
# Indices 1 2 3 4 5 6 
#
# 1 46.3028 13.1360 21.9936 0.0000 -5.2636 0.0000
# 2 13.1360 43.3749 4.4893 0.0000 4.1678 0.0000
# 3 21.9936 4.4893 87.3814 0.0000 -21.6737 0.0000
# 4 0.0000 0.0000 0.0000 0.1133 0.0000 1.4715
# 5 -5.2636 4.1678 -21.6737 0.0000 30.1363 0.0000
# 6 0.0000 0.0000 0.0000 1.4715 0.0000 25.0355
#
#
#
# Elastic Compliance Matrix: (Units=1/GPa)
#
#
# Indices 1 2 3 4 5 6 
#
# 1 0.026768 -0.007623 -0.005994 0.000000 0.001419 0.000000
# 2 -0.007623 0.025970 -0.000775 0.000000 -0.005480 0.000000
# 3 -0.005994 -0.000775 0.015530 0.000000 0.010229 0.000000
# 4 0.000000 0.000000 0.000000 37.268256 0.000000 -2.190498
# 5 0.001419 -0.005480 0.010229 0.000000 0.041545 0.000000
# 6 0.000000 0.000000 0.000000 -2.190498 0.000000 0.168693
#
#
# Mechanical properties :
#
#
# Convention : Reuss Voigt Hill
#
# Bulk Modulus (GPa) = 25.32616 28.47741 26.90179
# Shear Modulus (GPa) = 0.13302 20.21971 10.17637
#
# Velocity S-wave (km/s) = 0.27141 3.34622 2.37390
# Velocity P-wave (km/s) = 3.75809 5.54073 4.73407
#
# Compressibility (1/GPa) = 0.03948486
#
# Stress axis : x y z
#
# Youngs Moduli (GPa) = 37.35833 38.50585 64.39267
#
# Poissons Ratio (x) = 0.29351 0.38596
# Poissons Ratio (y) = 0.28477 0.04990
# Poissons Ratio (z) = 0.22392 0.02984
#
# Static dielectric constant tensor:
#      x y z
#    x 3.059280 0.000000 -0.260810 
#    y 0.000000 3.325400 0.000000 
#    z -0.260810 0.000000 3.422070 
# 
# 
# High freq. dielectric constant tensor:
#      x y z
#    x 1.670010 0.000000 -0.029040 
#    y 0.000000 1.675860 0.000000 
#    z -0.029040 0.000000 1.711200 
# 
# From -- ./inp_files/6720.got.cif
#   From: 2010.06.25/outbox.cif.g09.slc.cpg/sg11_4_cif.got.tgz:6720.got - 2010.06.27 23:14:04.
