data_PCOD8069802
_publ_section_title
;
Structure prediction by ZEFSAII (Michael W. Deem and Ramdas Pophale) SiO2 
 PCOD8069802
Probable space group: P 21/M
;
_chemical_formula_sum "Si O2"
_cell_formula_units_Z 28
_cell_length_a 9.651954
_cell_length_b 8.539669
_cell_length_c 26.708374
_cell_angle_alpha 90.000000
_cell_angle_beta 38.712257
_cell_angle_gamma 90.000000
_cell_volume 1376.791799
_symmetry_space_group_name_H-M "P 21/M"
_symmetry_group_IT_number 11
_symmetry_cell_setting 'monoclinic'
loop_
_space_group_symop_operation_xyz
x,y,z
-x,1/2+y,-z
-x,-y,-z
x,1/2-y,z
loop_
_atom_site_type_symbol
_atom_site_label
_atom_site_fract_x
_atom_site_fract_y
_atom_site_fract_z
Si Si1 0.371793 0.433525 0.696661
Si Si2 0.794326 0.928871 0.529457
Si Si3 0.518633 0.065047 0.858978
Si Si4 0.298401 0.934243 0.821957
Si Si5 0.257739 0.429104 0.569421
Si Si6 0.998454 0.434326 0.267890
Si Si7 0.889622 0.064529 0.981272
O O1 0.358891 0.250000 0.709488
O O2 0.574153 0.473177 0.602938
O O3 0.413867 0.518242 0.737636
O O4 0.146360 0.492879 0.735512
O O5 0.755480 0.750000 0.557029
O O6 0.848720 0.939097 0.455431
O O7 0.000000 0.000000 0.500000
O O8 0.509765 0.250000 0.858777
O O9 0.445360 0.999530 0.825837
O O10 0.761118 0.008352 0.804345
O O11 0.359081 0.004413 0.949053
O O12 0.285970 0.750000 0.831302
O O13 0.046939 0.003951 0.892086
O O14 0.500000 0.500000 0.500000
O O15 0.268478 0.250000 0.585520
O O16 0.103788 0.528938 0.649217
O O17 0.011729 0.250000 0.256694
O O18 0.880006 0.250000 0.983606
O O19 0.000000 0.000000 0.000000
#
# Coordination Sequence:
#
# PCOD8069802 Si02
#       7
#     4   4   4   4   4   4   4
#     4  12  25  43  64  89 124 163 203 252 309 366
#     4  11  25  43  64  91 124 160 203 252 305 362
#     4  11  22  39  63  93 125 161 206 253 302 359
#     4  11  22  39  63  92 125 163 204 251 306 362
#     4  11  23  41  65  90 120 161 206 248 301 363
#     4  12  25  42  63  90 124 163 206 253 305 364
#     4  10  18  34  59  90 124 160 202 249 302 358
#
# _framework density 20.337133999999999
#
# number of rings (size 3 to 8) (size 9 to 14) (size 15 to 20)
#    0.000    0.857    1.429    9.000    2.000    1.714 
#    0.000    0.714    0.000    0.000    0.000    0.000 
#    0.000    0.000    0.000    0.000    0.000    0.000 
#
# Total GULP energy -347317.139510 kJ/mol
# GULP energy per Si atom -12404.183554 kJ/mol
# Density = 2.029085 g / cm^3
# Si number density = 20.337134 Si / 1000 Ang^3
#
#
#
# Elastic Constant Matrix: (Units=GPa)
#
#
# Indices 1 2 3 4 5 6 
#
# 1 84.4873 38.9689 13.4824 0.0000 -16.8909 0.0000
# 2 38.9689 178.9989 26.1145 0.0000 -10.7478 0.0000
# 3 13.4824 26.1145 65.1382 0.0000 -20.9909 0.0000
# 4 0.0000 0.0000 0.0000 40.8294 0.0000 -3.2851
# 5 -16.8909 -10.7478 -20.9909 0.0000 40.0576 0.0000
# 6 0.0000 0.0000 0.0000 -3.2851 0.0000 32.7404
#
#
#
# Elastic Compliance Matrix: (Units=1/GPa)
#
#
# Indices 1 2 3 4 5 6 
#
# 1 0.014160 -0.002749 -0.000171 0.000000 0.005143 0.000000
# 2 -0.002749 0.006473 -0.002214 0.000000 -0.000582 0.000000
# 3 -0.000171 -0.002214 0.019323 0.000000 0.009460 0.000000
# 4 0.000000 0.000000 0.000000 0.024691 0.000000 0.002477
# 5 0.005143 -0.000582 0.009460 0.000000 0.031934 0.000000
# 6 0.000000 0.000000 0.000000 0.002477 0.000000 0.030792
#
#
# Mechanical properties :
#
#
# Convention : Reuss Voigt Hill
#
# Bulk Modulus (GPa) = 33.68353 53.97287 43.82820
# Shear Modulus (GPa) = 33.88986 39.39606 36.64296
#
# Velocity S-wave (km/s) = 4.08659 4.40608 4.24934
# Velocity P-wave (km/s) = 6.23422 7.24441 6.75821
#
# Compressibility (1/GPa) = 0.02968810
#
# Stress axis : x y z
#
# Youngs Moduli (GPa) = 70.62375 154.48635 51.75086
#
# Poissons Ratio (x) = 0.42465 0.00887
# Poissons Ratio (y) = 0.19413 0.11457
# Poissons Ratio (z) = 0.01210 0.34201
#
# Static dielectric constant tensor:
#      x y z
#    x 3.471790 0.000000 0.151590 
#    y 0.000000 4.047370 0.000000 
#    z 0.151590 0.000000 3.823760 
# 
# 
# High freq. dielectric constant tensor:
#      x y z
#    x 1.780680 0.000000 -0.004900 
#    y 0.000000 1.819150 0.000000 
#    z -0.004900 0.000000 1.806010 
# 
# From -- ./inp_files/70807.got.cif
#   From: 2010.06.25/outbox.cif.g09.slc.cpg/sg11_36_cif.got.tgz:70807.got - 2010.06.27 23:14:04.
