data_PCOD8069277
_publ_section_title
;
Structure prediction by ZEFSAII (Michael W. Deem and Ramdas Pophale) SiO2 
 PCOD8069277
Probable space group: P 21/M
;
_chemical_formula_sum "Si O2"
_cell_formula_units_Z 32
_cell_length_a 20.066706
_cell_length_b 14.479481
_cell_length_c 9.043679
_cell_angle_alpha 90.000000
_cell_angle_beta 36.618833
_cell_angle_gamma 90.000000
_cell_volume 1567.387802
_symmetry_space_group_name_H-M "P 21/M"
_symmetry_group_IT_number 11
_symmetry_cell_setting 'monoclinic'
loop_
_space_group_symop_operation_xyz
x,y,z
-x,1/2+y,-z
-x,-y,-z
x,1/2-y,z
loop_
_atom_site_type_symbol
_atom_site_label
_atom_site_fract_x
_atom_site_fract_y
_atom_site_fract_z
Si Si1 0.553014 0.394044 0.117943
Si Si2 0.383622 0.092960 0.947664
Si Si3 0.064751 0.640227 0.829725
Si Si4 0.806375 0.147638 0.694533
Si Si5 0.428432 0.850760 0.590962
Si Si6 0.239879 0.988621 0.979691
Si Si7 0.334914 0.350539 0.347858
Si Si8 0.844165 0.531883 0.175304
O O1 0.557465 0.503315 0.089040
O O2 0.512289 0.370381 0.356913
O O3 0.466061 0.353491 0.156345
O O4 0.677293 0.353885 0.871717
O O5 0.479052 0.153461 0.701098
O O6 0.290444 0.069215 0.991152
O O7 0.324817 0.144924 0.188088
O O8 0.072692 0.750000 0.857248
O O9 0.115082 0.618852 0.580038
O O10 0.132507 0.574983 0.822981
O O11 0.937794 0.604853 0.058491
O O12 0.837669 0.250000 0.692097
O O13 0.830725 0.078949 0.787496
O O14 0.369924 0.750000 0.699155
O O15 0.336888 0.929690 0.725327
O O16 0.164779 0.034420 0.986819
O O17 0.287511 0.250000 0.479870
O O18 0.269293 0.432947 0.545437
#
# Coordination Sequence:
#
# PCOD8069277 Si02
#       8
#     4   4   4   4   4   4   4   4
#     4  10  19  34  55  80 115 155 191 233 288 340
#     4  10  20  34  51  77 116 157 196 235 282 338
#     4  10  23  43  65  86 112 149 193 240 289 344
#     4   9  18  36  59  86 118 151 192 238 285 336
#     4  10  18  31  50  78 115 152 191 231 279 340
#     4  10  20  35  57  82 112 149 188 237 293 341
#     4  12  23  36  56  85 120 158 198 239 288 342
#     4  11  23  41  63  86 116 151 192 239 289 345
#
# _framework density 20.416135000000001
#
# number of rings (size 3 to 8) (size 9 to 14) (size 15 to 20)
#    0.000    2.000    0.000    7.875    0.000    2.500 
#    0.000    3.125    0.000    3.000    0.000    0.000 
#    0.000    0.000    0.000    0.000    0.000    0.000 
#
# Total GULP energy -396697.929893 kJ/mol
# GULP energy per Si atom -12396.810309 kJ/mol
# Density = 2.036967 g / cm^3
# Si number density = 20.416135 Si / 1000 Ang^3
#
#
#
# Elastic Constant Matrix: (Units=GPa)
#
#
# Indices 1 2 3 4 5 6 
#
# 1 72.6267 35.2972 8.9385 0.0000 10.5247 0.0000
# 2 35.2972 103.7945 12.2839 0.0000 0.5989 0.0000
# 3 8.9385 12.2839 72.4169 0.0000 12.5734 0.0000
# 4 0.0000 0.0000 0.0000 30.8337 0.0000 0.8636
# 5 10.5247 0.5989 12.5734 0.0000 19.3453 0.0000
# 6 0.0000 0.0000 0.0000 0.8636 0.0000 -0.1736
#
#
#
# Elastic Compliance Matrix: (Units=1/GPa)
#
#
# Indices 1 2 3 4 5 6 
#
# 1 0.018163 -0.006184 0.000552 0.000000 -0.010048 0.000000
# 2 -0.006184 0.011951 -0.002011 0.000000 0.004301 0.000000
# 3 0.000552 -0.002011 0.015920 0.000000 -0.010585 0.000000
# 4 0.000000 0.000000 0.000000 0.028465 0.000000 0.141630
# 5 -0.010048 0.004301 -0.010585 0.000000 0.063905 0.000000
# 6 0.000000 0.000000 0.000000 0.141630 0.000000 -5.056588
#
#
# Mechanical properties :
#
#
# Convention : Reuss Voigt Hill
#
# Bulk Modulus (GPa) = 32.52308 40.20860 36.36584
# Shear Modulus (GPa) = -1.02194 22.82233 10.90020
#
# Velocity S-wave (km/s) = -0.70827 3.34707 2.31314
# Velocity P-wave (km/s) = 3.91099 5.88850 4.99851
#
# Compressibility (1/GPa) = 0.03074740
#
# Stress axis : x y z
#
# Youngs Moduli (GPa) = 55.05783 83.67844 62.81537
#
# Poissons Ratio (x) = 0.51746 -0.03466
# Poissons Ratio (y) = 0.34047 0.12630
# Poissons Ratio (z) = -0.03038 0.16825
#
# Static dielectric constant tensor:
#      x y z
#    x 3.436990 0.000000 0.134190 
#    y 0.000000 3.767470 0.000000 
#    z 0.134190 0.000000 3.579200 
# 
# 
# High freq. dielectric constant tensor:
#      x y z
#    x 1.771750 0.000000 0.014010 
#    y 0.000000 1.807450 0.000000 
#    z 0.014010 0.000000 1.791320 
# 
# From -- ./inp_files/26818.got.cif
#   From: 2010.06.25/outbox.cif.g09.slc.cpg/sg11_14_cif.got.tgz:26818.got - 2010.06.27 23:14:04.
