data_PCOD8069690
_publ_section_title
;
Structure prediction by ZEFSAII (Michael W. Deem and Ramdas Pophale) SiO2 
 PCOD8069690
Probable space group: P 21/M
;
_chemical_formula_sum "Si O2"
_cell_formula_units_Z 24
_cell_length_a 9.080538
_cell_length_b 14.436826
_cell_length_c 15.729897
_cell_angle_alpha 90.000000
_cell_angle_beta 37.924270
_cell_angle_gamma 90.000000
_cell_volume 1267.405074
_symmetry_space_group_name_H-M "P 21/M"
_symmetry_group_IT_number 11
_symmetry_cell_setting 'monoclinic'
loop_
_space_group_symop_operation_xyz
x,y,z
-x,1/2+y,-z
-x,-y,-z
x,1/2-y,z
loop_
_atom_site_type_symbol
_atom_site_label
_atom_site_fract_x
_atom_site_fract_y
_atom_site_fract_z
Si Si1 0.447058 0.647467 0.273583
Si Si2 0.061377 0.087920 0.027594
Si Si3 0.260717 0.963251 0.066665
Si Si4 0.396340 0.647091 0.838110
Si Si5 0.035095 0.642242 0.322170
Si Si6 0.247823 0.027164 0.427357
O O1 0.415723 0.750000 0.328245
O O2 0.260439 0.632477 0.282099
O O3 0.401489 0.568843 0.367198
O O4 0.710853 0.640747 0.114427
O O5 0.824975 0.151599 0.128713
O O6 0.113620 0.053499 0.100125
O O7 0.000000 0.000000 0.000000
O O8 0.099117 0.903417 0.203433
O O9 0.321850 0.897635 0.960498
O O10 0.500000 0.000000 0.000000
O O11 0.487370 0.750000 0.814822
O O12 0.618364 0.591876 0.700024
O O13 0.964118 0.750000 0.342026
O O14 0.804228 0.584684 0.462700
O O15 0.000000 0.000000 0.500000
#
# Coordination Sequence:
#
# PCOD8069690 Si02
#       6
#     4   4   4   4   4   4
#     4  10  18  33  57  82 112 151 195 238 287 344
#     4  10  19  35  58  84 112 150 192 242 293 339
#     4  11  19  36  58  87 119 151 191 242 295 341
#     4  11  22  37  61  87 116 153 197 239 288 349
#     4  10  20  33  55  85 117 151 188 237 295 343
#     4  10  19  36  55  82 114 154 195 237 282 345
#
# _framework density 18.936329000000001
#
# number of rings (size 3 to 8) (size 9 to 14) (size 15 to 20)
#    0.000    1.667    5.000    2.500    0.000    0.667 
#    0.000    0.833    0.000    2.000    0.000    0.000 
#    0.000    0.000    0.000    0.000    0.000    0.000 
#
# Total GULP energy -297421.729666 kJ/mol
# GULP energy per Si atom -12392.572069 kJ/mol
# Density = 1.889323 g / cm^3
# Si number density = 18.936329 Si / 1000 Ang^3
#
#
#
# Elastic Constant Matrix: (Units=GPa)
#
#
# Indices 1 2 3 4 5 6 
#
# 1 58.8029 36.2213 23.9770 0.0000 4.9303 0.0000
# 2 36.2213 147.9292 76.2307 0.0000 8.1128 0.0000
# 3 23.9770 76.2307 144.2632 0.0000 12.1582 0.0000
# 4 0.0000 0.0000 0.0000 19.9430 0.0000 2.9458
# 5 4.9303 8.1128 12.1582 0.0000 26.7543 0.0000
# 6 0.0000 0.0000 0.0000 2.9458 0.0000 21.0457
#
#
#
# Elastic Compliance Matrix: (Units=1/GPa)
#
#
# Indices 1 2 3 4 5 6 
#
# 1 0.020237 -0.004396 -0.000872 0.000000 -0.002000 0.000000
# 2 -0.004396 0.010254 -0.004673 0.000000 -0.000176 0.000000
# 3 -0.000872 -0.004673 0.009788 0.000000 -0.002870 0.000000
# 4 0.000000 0.000000 0.000000 0.051201 0.000000 -0.007167
# 5 -0.002000 -0.000176 -0.002870 0.000000 0.039103 0.000000
# 6 0.000000 0.000000 0.000000 -0.007167 0.000000 0.048519
#
#
# Mechanical properties :
#
#
# Convention : Reuss Voigt Hill
#
# Bulk Modulus (GPa) = 49.02685 69.31705 59.17195
# Shear Modulus (GPa) = 24.29738 27.85304 26.07521
#
# Velocity S-wave (km/s) = 3.58594 3.83936 3.71481
# Velocity P-wave (km/s) = 6.56444 7.50594 7.05092
#
# Compressibility (1/GPa) = 0.02039699
#
# Stress axis : x y z
#
# Youngs Moduli (GPa) = 49.41415 97.52185 102.16747
#
# Poissons Ratio (x) = 0.42872 0.08908
# Poissons Ratio (y) = 0.21723 0.47742
# Poissons Ratio (z) = 0.04309 0.45572
#
# Static dielectric constant tensor:
#      x y z
#    x 3.974850 0.000000 -0.185150 
#    y 0.000000 4.059150 0.000000 
#    z -0.185150 0.000000 3.727510 
# 
# 
# High freq. dielectric constant tensor:
#      x y z
#    x 1.707600 0.000000 -0.017400 
#    y 0.000000 1.753160 0.000000 
#    z -0.017400 0.000000 1.731170 
# 
# From -- ./inp_files/21989.got.cif
#   From: 2010.06.25/outbox.cif.g09.slc.cpg/sg11_11_cif.got.tgz:21989.got - 2010.06.27 23:14:04.
