data_PCOD8069781
_publ_section_title
;
Structure prediction by ZEFSAII (Michael W. Deem and Ramdas Pophale) SiO2 
 PCOD8069781
Probable space group: P 21/M
;
_chemical_formula_sum "Si O2"
_cell_formula_units_Z 32
_cell_length_a 12.093858
_cell_length_b 17.527875
_cell_length_c 11.494009
_cell_angle_alpha 90.000000
_cell_angle_beta 132.050276
_cell_angle_gamma 90.000000
_cell_volume 1809.237953
_symmetry_space_group_name_H-M "P 21/M"
_symmetry_group_IT_number 11
_symmetry_cell_setting 'monoclinic'
loop_
_space_group_symop_operation_xyz
x,y,z
-x,1/2+y,-z
-x,-y,-z
x,1/2-y,z
loop_
_atom_site_type_symbol
_atom_site_label
_atom_site_fract_x
_atom_site_fract_y
_atom_site_fract_z
Si Si1 0.259135 0.164344 0.636163
Si Si2 0.190417 0.547583 0.820333
Si Si3 0.864062 0.664300 0.194887
Si Si4 0.317952 0.447640 0.090069
Si Si5 0.878320 0.958170 0.837179
Si Si6 0.900396 0.047649 0.632634
Si Si7 0.981771 0.835544 0.735039
Si Si8 0.355298 0.996657 0.715153
O O1 0.336719 0.250000 0.684302
O O2 0.169680 0.158771 0.692490
O O3 0.148486 0.155929 0.450593
O O4 0.366964 0.089376 0.706273
O O5 0.322356 0.526324 0.825228
O O6 0.039663 0.501747 0.684507
O O7 0.138646 0.635706 0.788893
O O8 0.248381 0.525397 0.989555
O O9 0.865079 0.750000 0.149435
O O10 0.031353 0.631441 0.294913
O O11 0.737231 0.620990 0.031746
O O12 0.262644 0.435499 0.183032
O O13 0.495082 0.454751 0.218076
O O14 0.943242 0.882066 0.824240
O O15 0.827970 0.015734 0.700065
O O16 0.000000 0.000000 0.000000
O O17 0.774909 0.045135 0.447141
O O18 0.006333 0.750000 0.792661
#
# Coordination Sequence:
#
# PCOD8069781 Si02
#       8
#     4   4   4   4   4   4   4   4
#     4  10  19  33  56  87 114 143 186 231 290 343
#     4  10  18  34  57  83 112 142 185 234 281 345
#     4  10  20  36  57  83 113 145 185 238 291 346
#     4  11  23  34  55  84 115 151 190 227 287 345
#     4  11  19  38  56  80 110 147 201 238 262 347
#     4  10  19  34  60  79 105 147 192 232 275 331
#     4  10  20  35  60  87 108 143 191 248 286 323
#     4  12  20  35  59  86 114 149 187 238 286 344
#
# _framework density 17.687003000000001
#
# number of rings (size 3 to 8) (size 9 to 14) (size 15 to 20)
#    0.000    1.500    8.750    1.500    0.000    1.000 
#    0.000    1.875    0.000    0.000    0.000    0.000 
#    0.000    0.000    0.000    0.000    0.000    0.000 
#
# Total GULP energy -396534.047539 kJ/mol
# GULP energy per Si atom -12391.688986 kJ/mol
# Density = 1.764675 g / cm^3
# Si number density = 17.687003 Si / 1000 Ang^3
#
#
#
# Elastic Constant Matrix: (Units=GPa)
#
#
# Indices 1 2 3 4 5 6 
#
# 1 99.3114 45.8630 27.5729 0.0000 0.3602 0.0000
# 2 45.8630 111.4394 31.0621 0.0000 3.5208 0.0000
# 3 27.5729 31.0621 47.4187 0.0000 5.4831 0.0000
# 4 0.0000 0.0000 0.0000 19.0628 0.0000 -0.7276
# 5 0.3602 3.5208 5.4831 0.0000 30.9157 0.0000
# 6 0.0000 0.0000 0.0000 -0.7276 0.0000 15.7346
#
#
#
# Elastic Compliance Matrix: (Units=1/GPa)
#
#
# Indices 1 2 3 4 5 6 
#
# 1 0.013417 -0.004094 -0.005264 0.000000 0.001243 0.000000
# 2 -0.004094 0.012227 -0.005588 0.000000 -0.000354 0.000000
# 3 -0.005264 -0.005588 0.028310 0.000000 -0.004323 0.000000
# 4 0.000000 0.000000 0.000000 0.052551 0.000000 0.002430
# 5 0.001243 -0.000354 -0.004323 0.000000 0.033139 0.000000
# 6 0.000000 0.000000 0.000000 0.002430 0.000000 0.063666
#
#
# Mechanical properties :
#
#
# Convention : Reuss Voigt Hill
#
# Bulk Modulus (GPa) = 41.55826 51.90725 46.73276
# Shear Modulus (GPa) = 20.72783 23.38741 22.05762
#
# Velocity S-wave (km/s) = 3.42705 3.64028 3.53527
# Velocity P-wave (km/s) = 6.26156 6.86150 6.56838
#
# Compressibility (1/GPa) = 0.02406261
#
# Stress axis : x y z
#
# Youngs Moduli (GPa) = 74.53349 81.78575 35.32338
#
# Poissons Ratio (x) = 0.33482 0.18593
# Poissons Ratio (y) = 0.30513 0.19739
# Poissons Ratio (z) = 0.39232 0.45703
#
# Static dielectric constant tensor:
#      x y z
#    x 3.708420 0.000000 -0.256660 
#    y 0.000000 3.690340 0.000000 
#    z -0.256660 0.000000 3.213970 
# 
# 
# High freq. dielectric constant tensor:
#      x y z
#    x 1.664980 0.000000 -0.019050 
#    y 0.000000 1.680040 0.000000 
#    z -0.019050 0.000000 1.679270 
# 
# From -- ./inp_files/36073.got.cif
#   From: 2010.06.25/outbox.cif.g09.slc.cpg/sg11_19_cif.got.tgz:36073.got - 2010.06.27 23:14:04.
