data_PCOD8069052
_publ_section_title
;
Structure prediction by ZEFSAII (Michael W. Deem and Ramdas Pophale) SiO2 
 PCOD8069052
Probable space group: P 21/M
;
_chemical_formula_sum "Si O2"
_cell_formula_units_Z 32
_cell_length_a 32.787173
_cell_length_b 8.889278
_cell_length_c 25.621648
_cell_angle_alpha 90.000000
_cell_angle_beta 13.862176
_cell_angle_gamma 90.000000
_cell_volume 1789.126613
_symmetry_space_group_name_H-M "P 21/M"
_symmetry_group_IT_number 11
_symmetry_cell_setting 'monoclinic'
loop_
_space_group_symop_operation_xyz
x,y,z
-x,1/2+y,-z
-x,-y,-z
x,1/2-y,z
loop_
_atom_site_type_symbol
_atom_site_label
_atom_site_fract_x
_atom_site_fract_y
_atom_site_fract_z
Si Si1 0.746833 0.573093 0.165777
Si Si2 0.144386 0.925275 0.786060
Si Si3 0.381447 0.924931 0.289671
Si Si4 0.765901 0.921805 0.812704
Si Si5 0.099155 0.924141 0.454996
Si Si6 0.344900 0.427895 0.224163
Si Si7 0.121063 0.571811 0.698563
Si Si8 0.600035 0.075654 0.446759
O O1 0.746913 0.750000 0.172122
O O2 0.596570 0.519297 0.313181
O O3 0.719057 0.508809 0.257852
O O4 0.931768 0.521399 0.915014
O O5 0.100297 0.750000 0.838295
O O6 0.153862 0.993545 0.715980
O O7 0.328452 0.954801 0.584209
O O8 0.000000 0.000000 0.000000
O O9 0.343221 0.750000 0.325195
O O10 0.258370 0.992589 0.487249
O O11 0.347877 0.019788 0.279805
O O12 0.574199 0.946205 0.070984
O O13 0.793531 0.750000 0.759002
O O14 0.898151 0.957243 0.695369
O O15 0.796892 0.032348 0.725988
O O16 0.133393 0.750000 0.424523
O O17 0.166156 0.020653 0.420567
O O18 0.361872 0.250000 0.199927
O O19 0.500000 0.500000 0.000000
O O20 0.141552 0.750000 0.674563
O O21 0.609784 0.250000 0.419883
#
# Coordination Sequence:
#
# PCOD8069052 Si02
#       8
#     4   4   4   4   4   4   4   4
#     4   9  16  29  47  70 100 133 166 204 253 304
#     4  10  18  30  48  73 100 128 168 212 253 298
#     4  10  20  36  55  77 107 140 174 215 262 315
#     4   9  18  32  52  78 107 139 175 215 262 311
#     4  10  19  32  53  81 108 136 173 219 264 309
#     4  12  23  36  55  81 107 137 176 220 263 313
#     4   9  18  32  51  73 102 137 169 206 256 310
#     4   9  17  27  45  73 100 127 166 214 254 294
#
# _framework density 17.885822999999998
#
# number of rings (size 3 to 8) (size 9 to 14) (size 15 to 20)
#    0.000    2.250    2.500    1.500    0.000    0.500 
#    0.000    2.500    0.000    6.000    0.000    1.750 
#    0.000    0.000    0.000    0.000    0.000    0.000 
#
# Total GULP energy -396685.547905 kJ/mol
# GULP energy per Si atom -12396.423372 kJ/mol
# Density = 1.784511 g / cm^3
# Si number density = 17.885823 Si / 1000 Ang^3
#
#
#
# Elastic Constant Matrix: (Units=GPa)
#
#
# Indices 1 2 3 4 5 6 
#
# 1 126.5548 39.2907 78.5224 0.0000 -6.1403 0.0000
# 2 39.2907 59.0578 35.0053 0.0000 -3.1813 0.0000
# 3 78.5224 35.0053 144.5644 0.0000 -4.2161 0.0000
# 4 0.0000 0.0000 0.0000 18.8113 0.0000 -1.3194
# 5 -6.1403 -3.1813 -4.2161 0.0000 29.5545 0.0000
# 6 0.0000 0.0000 0.0000 -1.3194 0.0000 24.7404
#
#
#
# Elastic Compliance Matrix: (Units=1/GPa)
#
#
# Indices 1 2 3 4 5 6 
#
# 1 0.013250 -0.005254 -0.005885 0.000000 0.001348 0.000000
# 2 -0.005254 0.021916 -0.002426 0.000000 0.000921 0.000000
# 3 -0.005885 -0.002426 0.010703 0.000000 0.000043 0.000000
# 4 0.000000 0.000000 0.000000 0.053359 0.000000 0.002846
# 5 0.001348 0.000921 0.000043 0.000000 0.034221 0.000000
# 6 0.000000 0.000000 0.000000 0.002846 0.000000 0.040571
#
#
# Mechanical properties :
#
#
# Convention : Reuss Voigt Hill
#
# Bulk Modulus (GPa) = 53.36906 70.64597 62.00752
# Shear Modulus (GPa) = 24.10838 26.44516 25.27677
#
# Velocity S-wave (km/s) = 3.67536 3.84937 3.76337
# Velocity P-wave (km/s) = 6.92204 7.70331 7.32310
#
# Compressibility (1/GPa) = 0.01873745
#
# Stress axis : x y z
#
# Youngs Moduli (GPa) = 75.47191 45.62941 93.43378
#
# Poissons Ratio (x) = 0.23974 0.54989
# Poissons Ratio (y) = 0.39654 0.22667
# Poissons Ratio (z) = 0.44418 0.11070
#
# Static dielectric constant tensor:
#      x y z
#    x 3.547120 0.000000 -0.324180 
#    y 0.000000 3.158200 0.000000 
#    z -0.324180 0.000000 3.607260 
# 
# 
# High freq. dielectric constant tensor:
#      x y z
#    x 1.687200 0.000000 -0.029630 
#    y 0.000000 1.677380 0.000000 
#    z -0.029630 0.000000 1.684630 
# 
# From -- ./inp_files/67011.got.cif
#   From: 2010.06.25/outbox.cif.g09.slc.cpg/sg11_34_cif.got.tgz:67011.got - 2010.06.27 23:14:04.
