data_PCOD8069729
_publ_section_title
;
Structure prediction by ZEFSAII (Michael W. Deem and Ramdas Pophale) SiO2 
 PCOD8069729
Probable space group: P 21/M
;
_chemical_formula_sum "Si O2"
_cell_formula_units_Z 24
_cell_length_a 7.410608
_cell_length_b 21.201463
_cell_length_c 9.182393
_cell_angle_alpha 90.000000
_cell_angle_beta 129.174516
_cell_angle_gamma 90.000000
_cell_volume 1118.416619
_symmetry_space_group_name_H-M "P 21/M"
_symmetry_group_IT_number 11
_symmetry_cell_setting 'monoclinic'
loop_
_space_group_symop_operation_xyz
x,y,z
-x,1/2+y,-z
-x,-y,-z
x,1/2-y,z
loop_
_atom_site_type_symbol
_atom_site_label
_atom_site_fract_x
_atom_site_fract_y
_atom_site_fract_z
Si Si1 0.167327 0.321896 0.233669
Si Si2 0.833742 0.983431 0.048932
Si Si3 0.684877 0.120224 0.982940
Si Si4 0.389534 0.414675 0.568121
Si Si5 0.214405 0.952523 0.451995
Si Si6 0.480891 0.877073 0.798525
O O1 0.151572 0.250000 0.277749
O O2 0.227243 0.365372 0.401553
O O3 0.364035 0.326333 0.209113
O O4 0.916463 0.344417 0.044081
O O5 0.962816 0.947283 0.246854
O O6 0.729714 0.048449 0.055046
O O7 0.629327 0.940908 0.883654
O O8 0.000000 0.000000 0.000000
O O9 0.587902 0.153073 0.081207
O O10 0.488589 0.121896 0.758915
O O11 0.600192 0.439827 0.579619
O O12 0.238418 0.476729 0.531728
O O13 0.247458 0.898080 0.590841
#
# Coordination Sequence:
#
# PCOD8069729 Si02
#       6
#     4   4   4   4   4   4
#     4  11  25  45  62  80 117 167 211 251 296 351
#     4  12  18  35  61  94 129 159 192 240 307 375
#     4  12  23  38  64  95 124 157 199 248 311 366
#     4  10  19  36  60  90 120 158 200 244 296 360
#     4  10  18  33  60  90 130 159 186 239 309 365
#     4  11  24  38  61  96 125 156 196 253 307 366
#
# _framework density 21.458908000000001
#
# number of rings (size 3 to 8) (size 9 to 14) (size 15 to 20)
#    0.000    1.000    6.667    1.500    0.000    3.333 
#    0.000    0.000    0.000    0.000    0.000    0.000 
#    0.000    0.000    0.000    0.000    0.000    0.000 
#
# Total GULP energy -297616.747825 kJ/mol
# GULP energy per Si atom -12400.697826 kJ/mol
# Density = 2.141007 g / cm^3
# Si number density = 21.458908 Si / 1000 Ang^3
#
#
#
# Elastic Constant Matrix: (Units=GPa)
#
#
# Indices 1 2 3 4 5 6 
#
# 1 31.5572 2.3044 20.9282 0.0000 -11.2789 0.0000
# 2 2.3044 74.7430 8.8951 0.0000 4.9690 0.0000
# 3 20.9282 8.8951 126.8902 0.0000 -5.4673 0.0000
# 4 0.0000 0.0000 0.0000 13.2285 0.0000 -0.4057
# 5 -11.2789 4.9690 -5.4673 0.0000 30.4384 0.0000
# 6 0.0000 0.0000 0.0000 -0.4057 0.0000 14.6209
#
#
#
# Elastic Compliance Matrix: (Units=1/GPa)
#
#
# Indices 1 2 3 4 5 6 
#
# 1 0.040913 -0.001496 -0.006026 0.000000 0.014322 0.000000
# 2 -0.001496 0.013721 -0.000842 0.000000 -0.002946 0.000000
# 3 -0.006026 -0.000842 0.008912 0.000000 -0.000495 0.000000
# 4 0.000000 0.000000 0.000000 0.075659 0.000000 0.002099
# 5 0.014322 -0.002946 -0.000495 0.000000 0.038552 0.000000
# 6 0.000000 0.000000 0.000000 0.002099 0.000000 0.068453
#
#
# Mechanical properties :
#
#
# Convention : Reuss Voigt Hill
#
# Bulk Modulus (GPa) = 21.35925 33.04954 27.20439
# Shear Modulus (GPa) = 17.95038 25.06175 21.50607
#
# Velocity S-wave (km/s) = 2.89537 3.42116 3.16918
# Velocity P-wave (km/s) = 4.59921 5.57140 5.10848
#
# Compressibility (1/GPa) = 0.04681813
#
# Stress axis : x y z
#
# Youngs Moduli (GPa) = 24.44221 72.87905 112.20341
#
# Poissons Ratio (x) = 0.10906 0.67612
# Poissons Ratio (y) = 0.03658 0.09447
# Poissons Ratio (z) = 0.14728 0.06136
#
# Static dielectric constant tensor:
#      x y z
#    x 3.865450 0.000000 0.109400 
#    y 0.000000 3.491410 0.000000 
#    z 0.109400 0.000000 4.120960 
# 
# 
# High freq. dielectric constant tensor:
#      x y z
#    x 1.839560 0.000000 0.003320 
#    y 0.000000 1.794020 0.000000 
#    z 0.003320 0.000000 1.855950 
# 
# From -- ./inp_files/14405.got.cif
#   From: 2010.06.25/outbox.cif.g09.slc.cpg/sg11_8_cif.got.tgz:14405.got - 2010.06.27 23:14:04.
