data_PCOD8069733
_publ_section_title
;
Structure prediction by ZEFSAII (Michael W. Deem and Ramdas Pophale) SiO2 
 PCOD8069733
Probable space group: P 21/M
;
_chemical_formula_sum "Si O2"
_cell_formula_units_Z 28
_cell_length_a 14.784102
_cell_length_b 20.554674
_cell_length_c 9.191353
_cell_angle_alpha 90.000000
_cell_angle_beta 152.320530
_cell_angle_gamma 90.000000
_cell_volume 1297.459653
_symmetry_space_group_name_H-M "P 21/M"
_symmetry_group_IT_number 11
_symmetry_cell_setting 'monoclinic'
loop_
_space_group_symop_operation_xyz
x,y,z
-x,1/2+y,-z
-x,-y,-z
x,1/2-y,z
loop_
_atom_site_type_symbol
_atom_site_label
_atom_site_fract_x
_atom_site_fract_y
_atom_site_fract_z
Si Si1 0.187832 0.328367 0.389178
Si Si2 0.149967 0.825234 0.302610
Si Si3 0.427127 0.410973 0.502160
Si Si4 0.022431 0.177002 0.650841
Si Si5 0.242727 0.491644 0.995706
Si Si6 0.484518 0.322866 0.335871
Si Si7 0.912612 0.912711 0.485776
O O1 0.230649 0.250000 0.469216
O O2 0.340750 0.362281 0.499043
O O3 0.201801 0.368074 0.560395
O O4 0.974616 0.341334 0.018693
O O5 0.125033 0.750000 0.302532
O O6 0.375647 0.845570 0.599375
O O7 0.058894 0.857694 0.318322
O O8 0.267191 0.450056 0.178345
O O9 0.574461 0.462466 0.781562
O O10 0.546591 0.366368 0.560344
O O11 0.946570 0.250000 0.522982
O O12 0.945544 0.135289 0.405050
O O13 0.257218 0.173840 0.977487
O O14 0.233285 0.445580 0.839856
O O15 0.045252 0.531685 0.745622
O O16 0.547565 0.250000 0.465745
#
# Coordination Sequence:
#
# PCOD8069733 Si02
#       7
#     4   4   4   4   4   4   4
#     4  11  22  38  65  96 128 161 205 270 331 375
#     4   9  18  33  58  92 120 159 209 248 314 390
#     4  11  21  42  64  92 122 168 221 262 302 383
#     4  10  19  37  62  89 126 167 207 266 324 378
#     4  10  24  41  64  85 125 178 216 257 309 372
#     4  10  18  33  63  92 120 159 210 271 318 365
#     4  11  22  42  60  91 129 168 207 262 323 381
#
# _framework density 21.580632999999999
#
# number of rings (size 3 to 8) (size 9 to 14) (size 15 to 20)
#    0.000    1.714    2.857    1.714    0.000    1.143 
#    2.571    7.857    0.000    0.000    0.000    0.000 
#    0.000    0.000    0.000    0.000    0.000    0.000 
#
# Total GULP energy -346887.119818 kJ/mol
# GULP energy per Si atom -12388.825708 kJ/mol
# Density = 2.153151 g / cm^3
# Si number density = 21.580633 Si / 1000 Ang^3
#
#
#
# Elastic Constant Matrix: (Units=GPa)
#
#
# Indices 1 2 3 4 5 6 
#
# 1 125.4604 48.9447 22.6677 0.0000 -0.4620 0.0000
# 2 48.9447 126.2978 25.8314 0.0000 -8.9147 0.0000
# 3 22.6677 25.8314 37.1403 0.0000 -6.9982 0.0000
# 4 0.0000 0.0000 0.0000 19.2916 0.0000 -8.2581
# 5 -0.4620 -8.9147 -6.9982 0.0000 30.5311 0.0000
# 6 0.0000 0.0000 0.0000 -8.2581 0.0000 41.8163
#
#
#
# Elastic Compliance Matrix: (Units=1/GPa)
#
#
# Indices 1 2 3 4 5 6 
#
# 1 0.009942 -0.003109 -0.004230 0.000000 -0.001727 0.000000
# 2 -0.003109 0.010251 -0.004888 0.000000 0.001826 0.000000
# 3 -0.004230 -0.004888 0.034098 0.000000 0.006325 0.000000
# 4 0.000000 0.000000 0.000000 0.056623 0.000000 0.011182
# 5 -0.001727 0.001826 0.006325 0.000000 0.034710 0.000000
# 6 0.000000 0.000000 0.000000 0.011182 0.000000 0.026122
#
#
# Mechanical properties :
#
#
# Convention : Reuss Voigt Hill
#
# Bulk Modulus (GPa) = 33.51730 53.75402 43.63566
# Shear Modulus (GPa) = 24.25439 31.09143 27.67291
#
# Velocity S-wave (km/s) = 3.35609 3.79979 3.58481
# Velocity P-wave (km/s) = 5.53016 6.64934 6.11541
#
# Compressibility (1/GPa) = 0.02983534
#
# Stress axis : x y z
#
# Youngs Moduli (GPa) = 100.58679 97.54733 29.32690
#
# Poissons Ratio (x) = 0.30331 0.12407
# Poissons Ratio (y) = 0.31276 0.14336
# Poissons Ratio (z) = 0.42553 0.47683
#
# Static dielectric constant tensor:
#      x y z
#    x 3.803720 0.000000 -0.091670 
#    y 0.000000 4.328470 0.000000 
#    z -0.091670 0.000000 3.735420 
# 
# 
# High freq. dielectric constant tensor:
#      x y z
#    x 1.840410 0.000000 -0.004520 
#    y 0.000000 1.863630 0.000000 
#    z -0.004520 0.000000 1.824090 
# 
# From -- ./inp_files/23234.got.cif
#   From: 2010.06.25/outbox.cif.g09.slc.cpg/sg11_12_cif.got.tgz:23234.got - 2010.06.27 23:14:04.
