data_PCOD8069306
_publ_section_title
;
Structure prediction by ZEFSAII (Michael W. Deem and Ramdas Pophale) SiO2 
 PCOD8069306
Probable space group: P 21/M
;
_chemical_formula_sum "Si O2"
_cell_formula_units_Z 28
_cell_length_a 11.901124
_cell_length_b 21.159726
_cell_length_c 9.299913
_cell_angle_alpha 90.000000
_cell_angle_beta 134.083756
_cell_angle_gamma 90.000000
_cell_volume 1682.275118
_symmetry_space_group_name_H-M "P 21/M"
_symmetry_group_IT_number 11
_symmetry_cell_setting 'monoclinic'
loop_
_space_group_symop_operation_xyz
x,y,z
-x,1/2+y,-z
-x,-y,-z
x,1/2-y,z
loop_
_atom_site_type_symbol
_atom_site_label
_atom_site_fract_x
_atom_site_fract_y
_atom_site_fract_z
Si Si1 0.093168 0.572109 0.928650
Si Si2 0.569328 0.450603 0.258065
Si Si3 0.365217 0.100018 0.315823
Si Si4 0.547738 0.678349 0.361717
Si Si5 0.195416 0.514024 0.304726
Si Si6 0.595360 0.078306 0.962064
Si Si7 0.128048 0.179302 0.234939
O O1 0.231896 0.562234 0.940017
O O2 0.958924 0.521050 0.774347
O O3 0.025917 0.642907 0.849207
O O4 0.151375 0.564567 0.143796
O O5 0.432075 0.412242 0.217397
O O6 0.726405 0.449424 0.492912
O O7 0.603178 0.414367 0.140532
O O8 0.522075 0.522843 0.187439
O O9 0.492641 0.137554 0.529318
O O10 0.205635 0.142428 0.166196
O O11 0.324107 0.033691 0.354655
O O12 0.482866 0.750000 0.316001
O O13 0.738576 0.679225 0.520294
O O14 0.469212 0.644667 0.155703
O O15 0.080354 0.250000 0.147770
#
# Coordination Sequence:
#
# PCOD8069306 Si02
#       7
#     4   4   4   4   4   4   4
#     4  10  19  30  51  75 106 135 173 209 264 304
#     4  11  20  32  50  76 116 134 166 212 263 313
#     4   9  15  31  55  75  95 130 172 218 254 289
#     4   9  18  35  55  74  96 132 182 216 252 306
#     4  10  18  31  51  77 103 137 166 217 257 306
#     4  11  21  31  49  81 107 141 168 207 262 316
#     4   8  17  33  56  75  94 129 179 220 251 304
#
# _framework density 16.644127000000001
#
# number of rings (size 3 to 8) (size 9 to 14) (size 15 to 20)
#    0.857    1.429    2.857    1.286    0.000    1.143 
#    0.000    1.429    0.000    0.857    0.000    0.000 
#    0.000    0.000    0.000    0.000    0.000    0.000 
#
# Total GULP energy -346993.235479 kJ/mol
# GULP energy per Si atom -12392.615553 kJ/mol
# Density = 1.660624 g / cm^3
# Si number density = 16.644127 Si / 1000 Ang^3
#
#
#
# Elastic Constant Matrix: (Units=GPa)
#
#
# Indices 1 2 3 4 5 6 
#
# 1 79.1449 19.7721 43.1493 0.0000 -7.0526 0.0000
# 2 19.7721 63.1944 21.6846 0.0000 -5.4724 0.0000
# 3 43.1493 21.6846 72.3165 0.0000 -8.8282 0.0000
# 4 0.0000 0.0000 0.0000 22.8100 0.0000 4.7611
# 5 -7.0526 -5.4724 -8.8282 0.0000 23.5382 0.0000
# 6 0.0000 0.0000 0.0000 4.7611 0.0000 13.4893
#
#
#
# Elastic Compliance Matrix: (Units=1/GPa)
#
#
# Indices 1 2 3 4 5 6 
#
# 1 0.019054 -0.002235 -0.010548 0.000000 0.001233 0.000000
# 2 -0.002235 0.018013 -0.003813 0.000000 0.002088 0.000000
# 3 -0.010548 -0.003813 0.021768 0.000000 0.004117 0.000000
# 4 0.000000 0.000000 0.000000 0.047327 0.000000 -0.016705
# 5 0.001233 0.002088 0.004117 0.000000 0.044883 0.000000
# 6 0.000000 0.000000 0.000000 -0.016705 0.000000 0.080029
#
#
# Mechanical properties :
#
#
# Convention : Reuss Voigt Hill
#
# Bulk Modulus (GPa) = 38.99797 42.65196 40.82496
# Shear Modulus (GPa) = 18.32749 20.63747 19.48248
#
# Velocity S-wave (km/s) = 3.32194 3.52508 3.42502
# Velocity P-wave (km/s) = 6.18021 6.49998 6.34211
#
# Compressibility (1/GPa) = 0.02564236
#
# Stress axis : x y z
#
# Youngs Moduli (GPa) = 52.48169 55.51661 45.93925
#
# Poissons Ratio (x) = 0.12409 0.48458
# Poissons Ratio (y) = 0.11731 0.17515
# Poissons Ratio (z) = 0.55360 0.21166
#
# Static dielectric constant tensor:
#      x y z
#    x 2.954460 0.000000 0.092160 
#    y 0.000000 3.077160 0.000000 
#    z 0.092160 0.000000 3.031000 
# 
# 
# High freq. dielectric constant tensor:
#      x y z
#    x 1.618680 0.000000 0.016600 
#    y 0.000000 1.633670 0.000000 
#    z 0.016600 0.000000 1.627020 
# 
# From -- ./inp_files/19234.got.cif
#   From: 2010.06.25/outbox.cif.g09.slc.cpg/sg11_10_cif.got.tgz:19234.got - 2010.06.27 23:14:04.
