data_PCOD8069803
_publ_section_title
;
Structure prediction by ZEFSAII (Michael W. Deem and Ramdas Pophale) SiO2 
 PCOD8069803
Probable space group: P 21/M
;
_chemical_formula_sum "Si O2"
_cell_formula_units_Z 24
_cell_length_a 18.955860
_cell_length_b 10.918618
_cell_length_c 14.669722
_cell_angle_alpha 90.000000
_cell_angle_beta 20.490303
_cell_angle_gamma 90.000000
_cell_volume 1062.824857
_symmetry_space_group_name_H-M "P 21/M"
_symmetry_group_IT_number 11
_symmetry_cell_setting 'monoclinic'
loop_
_space_group_symop_operation_xyz
x,y,z
-x,1/2+y,-z
-x,-y,-z
x,1/2-y,z
loop_
_atom_site_type_symbol
_atom_site_label
_atom_site_fract_x
_atom_site_fract_y
_atom_site_fract_z
Si Si1 0.703208 0.750000 0.375773
Si Si2 0.965943 0.750000 0.317568
Si Si3 0.286811 0.610827 0.454610
Si Si4 0.321270 0.497730 0.083491
Si Si5 0.158298 0.750000 0.897405
Si Si6 0.055391 0.502160 0.573847
Si Si7 0.513376 0.750000 0.792330
Si Si8 0.764562 0.488573 0.287139
O O1 0.536995 0.750000 0.655550
O O2 0.671240 0.618613 0.361911
O O3 0.935474 0.750000 0.125506
O O4 0.008905 0.864450 0.328727
O O5 0.736368 0.750000 0.563500
O O6 0.133523 0.750000 0.035391
O O7 0.249460 0.750000 0.530264
O O8 0.102866 0.571364 0.611217
O O9 0.298538 0.526605 0.530399
O O10 0.495592 0.597465 0.147535
O O11 0.252691 0.504627 0.271427
O O12 0.138579 0.442415 0.243176
O O13 0.390975 0.632313 0.971603
O O14 0.290292 0.869561 0.707239
O O15 0.000000 0.500000 0.000000
#
# Coordination Sequence:
#
# PCOD8069803 Si02
#       8
#     2   2   4   4   2   4   2   4
#     4   9  16  29  55  88 123 159 210 250 308 386
#     4  11  21  41  70  93 123 172 222 261 320 396
#     4  12  24  40  65  96 126 171 212 266 325 383
#     4  11  25  41  63  93 132 170 211 269 323 381
#     4   9  18  33  59  94 127 161 218 268 321 384
#     4  11  25  42  62  95 129 169 218 262 319 391
#     4  11  19  37  64  91 121 168 210 259 321 376
#     4  10  18  34  59  97 122 164 216 262 319 386
#
# _framework density 22.581330000000001
#
# number of rings (size 3 to 8) (size 9 to 14) (size 15 to 20)
#    0.000    1.333    4.167    3.000    2.333    0.667 
#    0.000    0.000    0.000    4.000    0.000    0.000 
#    0.000    0.000    0.000    0.000    0.000    0.000 
#
# Total GULP energy -297457.526023 kJ/mol
# GULP energy per Si atom -12394.063584 kJ/mol
# Density = 2.252993 g / cm^3
# Si number density = 22.581330 Si / 1000 Ang^3
#
#
#
# Elastic Constant Matrix: (Units=GPa)
#
#
# Indices 1 2 3 4 5 6 
#
# 1 44.0843 20.2239 52.4911 0.0000 -11.6043 0.0000
# 2 20.2239 180.9990 29.5391 0.0000 24.1873 0.0000
# 3 52.4911 29.5391 33.5199 0.0000 46.1248 0.0000
# 4 0.0000 0.0000 0.0000 40.4861 0.0000 19.1056
# 5 -11.6043 24.1873 46.1248 0.0000 18.9925 0.0000
# 6 0.0000 0.0000 0.0000 19.1056 0.0000 16.5378
#
#
#
# Elastic Compliance Matrix: (Units=1/GPa)
#
#
# Indices 1 2 3 4 5 6 
#
# 1 0.008351 -0.000259 0.008679 0.000000 -0.015645 0.000000
# 2 -0.000259 0.006217 -0.002579 0.000000 -0.001813 0.000000
# 3 0.008679 -0.002579 -0.002861 0.000000 0.015534 0.000000
# 4 0.000000 0.000000 0.000000 0.054306 0.000000 -0.062739
# 5 -0.015645 -0.001813 0.015534 0.000000 0.007676 0.000000
# 6 0.000000 0.000000 0.000000 -0.062739 0.000000 0.132947
#
#
# Mechanical properties :
#
#
# Convention : Reuss Voigt Hill
#
# Bulk Modulus (GPa) = 42.75511 51.45680 47.10596
# Shear Modulus (GPa) = 24.66081 25.62656 25.14369
#
# Velocity S-wave (km/s) = 3.30826 3.37242 3.34049
# Velocity P-wave (km/s) = 5.79377 6.16450 5.98201
#
# Compressibility (1/GPa) = 0.02338902
#
# Stress axis : x y z
#
# Youngs Moduli (GPa) = 119.74811 160.85152 -349.54403
#
# Poissons Ratio (x) = 0.04163 3.03354
# Poissons Ratio (y) = 0.03099 -0.90137
# Poissons Ratio (z) = -1.03924 0.41479
#
# Static dielectric constant tensor:
#      x y z
#    x 3.642680 0.000000 0.172480 
#    y 0.000000 4.679400 0.000000 
#    z 0.172480 0.000000 4.144720 
# 
# 
# High freq. dielectric constant tensor:
#      x y z
#    x 1.862900 0.000000 0.010640 
#    y 0.000000 1.900360 0.000000 
#    z 0.010640 0.000000 1.895440 
# 
# From -- ./inp_files/54807.got.cif
#   From: 2010.06.25/outbox.cif.g09.slc.cpg/sg11_28_cif.got.tgz:54807.got - 2010.06.27 23:14:04.
