data_PCOD8069491
_publ_section_title
;
Structure prediction by ZEFSAII (Michael W. Deem and Ramdas Pophale) SiO2 
 PCOD8069491
Probable space group: P 21/M
;
_chemical_formula_sum "Si O2"
_cell_formula_units_Z 24
_cell_length_a 18.849514
_cell_length_b 8.672335
_cell_length_c 9.223996
_cell_angle_alpha 90.000000
_cell_angle_beta 58.008044
_cell_angle_gamma 90.000000
_cell_volume 1278.833152
_symmetry_space_group_name_H-M "P 21/M"
_symmetry_group_IT_number 11
_symmetry_cell_setting 'monoclinic'
loop_
_space_group_symop_operation_xyz
x,y,z
-x,1/2+y,-z
-x,-y,-z
x,1/2-y,z
loop_
_atom_site_type_symbol
_atom_site_label
_atom_site_fract_x
_atom_site_fract_y
_atom_site_fract_z
Si Si1 0.079114 0.066141 0.998757
Si Si2 0.325914 0.427091 0.367628
Si Si3 0.574204 0.927844 0.008916
Si Si4 0.993209 0.933260 0.347905
Si Si5 0.503198 0.570888 0.653365
Si Si6 0.838689 0.430644 0.344258
O O1 0.080886 0.250000 0.998240
O O2 0.071813 0.001353 0.170340
O O3 0.158420 0.999716 0.823389
O O4 0.000000 0.000000 0.000000
O O5 0.300424 0.250000 0.426129
O O6 0.408862 0.471314 0.367126
O O7 0.253197 0.541592 0.494000
O O8 0.341515 0.451362 0.177504
O O9 0.554969 0.750000 0.052521
O O10 0.575012 0.006648 0.166420
O O11 0.500000 0.000000 0.000000
O O12 0.998739 0.750000 0.344865
O O13 0.905321 0.984158 0.374284
O O14 0.000000 0.000000 0.500000
O O15 0.500000 0.500000 0.500000
O O16 0.489923 0.750000 0.653801
O O17 0.859174 0.250000 0.319716
#
# Coordination Sequence:
#
# PCOD8069491 Si02
#       6
#     4   4   4   4   4   4
#     4  10  18  32  53  76 103 137 174 211 253 306
#     4   9  19  35  53  76 104 137 173 214 261 309
#     4   9  17  31  52  75 102 135 174 212 254 308
#     4  11  21  36  56  79 107 137 172 214 258 308
#     4  10  20  34  54  78 106 137 174 215 260 309
#     4  11  21  34  54  80 106 137 176 216 256 304
#
# _framework density 18.767109999999999
#
# number of rings (size 3 to 8) (size 9 to 14) (size 15 to 20)
#    0.000    2.000    0.000    8.500    0.000    4.000 
#    0.000    1.667    0.000    6.000    0.000    0.000 
#    0.000    0.000    0.000    0.000    0.000    0.000 
#
# Total GULP energy -297478.798424 kJ/mol
# GULP energy per Si atom -12394.949934 kJ/mol
# Density = 1.872439 g / cm^3
# Si number density = 18.767110 Si / 1000 Ang^3
#
#
#
# Elastic Constant Matrix: (Units=GPa)
#
#
# Indices 1 2 3 4 5 6 
#
# 1 37.1979 33.1583 47.5019 0.0000 4.6768 0.0000
# 2 33.1583 157.3463 81.3252 0.0000 3.3448 0.0000
# 3 47.5019 81.3252 190.4363 0.0000 15.6599 0.0000
# 4 0.0000 0.0000 0.0000 41.7930 0.0000 1.3681
# 5 4.6768 3.3448 15.6599 0.0000 30.8731 0.0000
# 6 0.0000 0.0000 0.0000 1.3681 0.0000 25.4717
#
#
#
# Elastic Compliance Matrix: (Units=1/GPa)
#
#
# Indices 1 2 3 4 5 6 
#
# 1 0.041745 -0.004426 -0.008392 0.000000 -0.001587 0.000000
# 2 -0.004426 0.008650 -0.002680 0.000000 0.001093 0.000000
# 3 -0.008392 -0.002680 0.008724 0.000000 -0.002864 0.000000
# 4 0.000000 0.000000 0.000000 0.023970 0.000000 -0.001287
# 5 -0.001587 0.001093 -0.002864 0.000000 0.033965 0.000000
# 6 0.000000 0.000000 0.000000 -0.001287 0.000000 0.039328
#
#
# Mechanical properties :
#
#
# Convention : Reuss Voigt Hill
#
# Bulk Modulus (GPa) = 35.55744 78.77235 57.16490
# Shear Modulus (GPa) = 25.41266 34.49390 29.95328
#
# Velocity S-wave (km/s) = 3.68381 4.29184 3.99940
# Velocity P-wave (km/s) = 6.08948 8.16239 7.20091
#
# Compressibility (1/GPa) = 0.02812351
#
# Stress axis : x y z
#
# Youngs Moduli (GPa) = 23.95509 115.60800 114.62243
#
# Poissons Ratio (x) = 0.51166 0.96193
# Poissons Ratio (y) = 0.10602 0.30717
# Poissons Ratio (z) = 0.20103 0.30981
#
# Static dielectric constant tensor:
#      x y z
#    x 2.868920 0.000000 -0.033940 
#    y 0.000000 3.093860 0.000000 
#    z -0.033940 0.000000 0.961730 
# 
# 
# High freq. dielectric constant tensor:
#      x y z
#    x 1.672310 0.000000 0.002840 
#    y 0.000000 1.748000 0.000000 
#    z 0.002840 0.000000 1.758800 
# 
# From -- ./inp_files/27245.got.cif
#   From: 2010.06.25/outbox.cif.g09.slc.cpg/sg11_14_cif.got.tgz:27245.got - 2010.06.27 23:14:04.
