data_PCOD8069695
_publ_section_title
;
Structure prediction by ZEFSAII (Michael W. Deem and Ramdas Pophale) SiO2 
 PCOD8069695
Probable space group: P 21/M
;
_chemical_formula_sum "Si O2"
_cell_formula_units_Z 24
_cell_length_a 8.556759
_cell_length_b 16.459447
_cell_length_c 8.892761
_cell_angle_alpha 90.000000
_cell_angle_beta 86.752282
_cell_angle_gamma 90.000000
_cell_volume 1250.440673
_symmetry_space_group_name_H-M "P 21/M"
_symmetry_group_IT_number 11
_symmetry_cell_setting 'monoclinic'
loop_
_space_group_symop_operation_xyz
x,y,z
-x,1/2+y,-z
-x,-y,-z
x,1/2-y,z
loop_
_atom_site_type_symbol
_atom_site_label
_atom_site_fract_x
_atom_site_fract_y
_atom_site_fract_z
Si Si1 0.151107 0.940930 0.834770
Si Si2 0.733969 0.840243 0.215249
Si Si3 0.096541 0.659363 0.114040
Si Si4 0.164953 0.503252 0.281697
Si Si5 0.654334 0.947855 0.977783
Si Si6 0.671709 0.508812 0.423987
O O1 0.191986 0.010685 0.953405
O O2 0.296070 0.939726 0.706767
O O3 0.122603 0.859482 0.933228
O O4 0.004605 0.967427 0.742680
O O5 0.683146 0.750000 0.267897
O O6 0.636057 0.862824 0.067536
O O7 0.691389 0.901699 0.351546
O O8 0.915863 0.843348 0.166583
O O9 0.163722 0.750000 0.138743
O O10 0.187145 0.594932 0.214861
O O11 0.196644 0.503078 0.456382
O O12 0.296154 0.443233 0.199376
O O13 0.500000 0.000000 0.000000
O O14 0.500000 0.500000 0.500000
#
# Coordination Sequence:
#
# PCOD8069695 Si02
#       6
#     4   4   4   4   4   4
#     4  10  19  36  55  82 110 147 192 230 277 338
#     4  10  20  38  59  84 113 146 192 241 285 335
#     4  10  19  35  59  89 111 142 193 250 287 318
#     4  11  18  35  59  83 112 148 193 232 276 341
#     4  10  18  33  57  84 111 147 187 228 278 341
#     4  11  23  37  57  85 116 157 190 224 284 352
#
# _framework density 19.193231999999998
#
# number of rings (size 3 to 8) (size 9 to 14) (size 15 to 20)
#    0.000    1.667    5.000    3.500    0.000    0.000 
#    0.000   10.833    0.000    0.000    0.000    0.000 
#    0.000    0.000    0.000    0.000    0.000    0.000 
#
# Total GULP energy -297336.567139 kJ/mol
# GULP energy per Si atom -12389.023631 kJ/mol
# Density = 1.914955 g / cm^3
# Si number density = 19.193232 Si / 1000 Ang^3
#
#
#
# Elastic Constant Matrix: (Units=GPa)
#
#
# Indices 1 2 3 4 5 6 
#
# 1 65.2656 28.1065 16.6161 0.0000 -17.0763 0.0000
# 2 28.1065 123.7483 61.3592 0.0000 -4.3257 0.0000
# 3 16.6161 61.3592 106.9825 0.0000 -17.9683 0.0000
# 4 0.0000 0.0000 0.0000 23.1086 0.0000 -2.3607
# 5 -17.0763 -4.3257 -17.9683 0.0000 37.0227 0.0000
# 6 0.0000 0.0000 0.0000 -2.3607 0.0000 18.9062
#
#
#
# Elastic Compliance Matrix: (Units=1/GPa)
#
#
# Indices 1 2 3 4 5 6 
#
# 1 0.019379 -0.004670 0.001174 0.000000 0.008963 0.000000
# 2 -0.004670 0.012554 -0.007175 0.000000 -0.004170 0.000000
# 3 0.001174 -0.007175 0.014404 0.000000 0.006694 0.000000
# 4 0.000000 0.000000 0.000000 0.043833 0.000000 0.005473
# 5 0.008963 -0.004170 0.006694 0.000000 0.033906 0.000000
# 6 0.000000 0.000000 0.000000 0.005473 0.000000 0.053576
#
#
# Mechanical properties :
#
#
# Convention : Reuss Voigt Hill
#
# Bulk Modulus (GPa) = 40.00820 56.46221 48.23521
# Shear Modulus (GPa) = 24.11648 28.46846 26.29247
#
# Velocity S-wave (km/s) = 3.54857 3.85548 3.70521
# Velocity P-wave (km/s) = 6.13841 7.02149 6.59475
#
# Compressibility (1/GPa) = 0.02499487
#
# Stress axis : x y z
#
# Youngs Moduli (GPa) = 51.60107 79.65856 69.42296
#
# Poissons Ratio (x) = 0.37204 -0.08151
# Poissons Ratio (y) = 0.24100 0.49811
# Poissons Ratio (z) = -0.06059 0.57155
#
# Static dielectric constant tensor:
#      x y z
#    x 3.447190 0.000000 -0.061040 
#    y 0.000000 3.747300 0.000000 
#    z -0.061040 0.000000 3.820930 
# 
# 
# High freq. dielectric constant tensor:
#      x y z
#    x 1.748590 0.000000 -0.011220 
#    y 0.000000 1.710090 0.000000 
#    z -0.011220 0.000000 1.753430 
# 
# From -- ./inp_files/13191.got.cif
#   From: 2010.06.25/outbox.cif.g09.slc.cpg/sg11_7_cif.got.tgz:13191.got - 2010.06.27 23:14:04.
