data_PCOD8069378
_publ_section_title
;
Structure prediction by ZEFSAII (Michael W. Deem and Ramdas Pophale) SiO2 
 PCOD8069378
Probable space group: P 21/M
;
_chemical_formula_sum "Si O2"
_cell_formula_units_Z 32
_cell_length_a 20.232276
_cell_length_b 8.687959
_cell_length_c 19.950163
_cell_angle_alpha 90.000000
_cell_angle_beta 29.443688
_cell_angle_gamma 90.000000
_cell_volume 1723.822229
_symmetry_space_group_name_H-M "P 21/M"
_symmetry_group_IT_number 11
_symmetry_cell_setting 'monoclinic'
loop_
_space_group_symop_operation_xyz
x,y,z
-x,1/2+y,-z
-x,-y,-z
x,1/2-y,z
loop_
_atom_site_type_symbol
_atom_site_label
_atom_site_fract_x
_atom_site_fract_y
_atom_site_fract_z
Si Si1 0.359616 0.429447 0.645869
Si Si2 0.856104 0.069068 0.642571
Si Si3 0.810100 0.571664 0.333237
Si Si4 0.107802 0.568774 0.104108
Si Si5 0.940761 0.069237 0.707326
Si Si6 0.340411 0.567556 0.803943
Si Si7 0.383097 0.569804 0.391048
Si Si8 0.234524 0.431991 0.403813
O O1 0.500000 0.500000 0.500000
O O2 0.382089 0.250000 0.637400
O O3 0.248539 0.464641 0.687881
O O4 0.305885 0.504179 0.761206
O O5 0.855084 0.250000 0.629285
O O6 0.833566 0.033973 0.742074
O O7 0.748013 0.986322 0.689404
O O8 0.000000 0.000000 0.500000
O O9 0.788419 0.750000 0.372436
O O10 0.739737 0.468263 0.451365
O O11 0.966958 0.528013 0.193067
O O12 0.128661 0.750000 0.089981
O O13 0.111221 0.497535 0.176631
O O14 0.229196 0.498538 0.953249
O O15 0.958791 0.250000 0.700535
O O16 0.089936 0.006861 0.558027
O O17 0.335120 0.750000 0.805416
O O18 0.486612 0.516886 0.697736
O O19 0.411216 0.750000 0.365471
O O20 0.350425 0.511363 0.345182
O O21 0.250769 0.250000 0.393730
#
# Coordination Sequence:
#
# PCOD8069378 Si02
#       8
#     4   4   4   4   4   4   4   4
#     4  11  22  36  58  84 113 145 184 229 277 328
#     4   9  16  26  44  76 113 145 181 225 278 328
#     4  10  20  37  61  83 107 143 186 228 275 329
#     4   9  18  35  58  83 109 145 189 226 271 331
#     4   8  14  27  51  78 107 143 178 221 271 323
#     4  11  23  38  58  81 110 148 187 227 274 332
#     4  12  23  35  55  82 112 143 183 233 279 330
#     4  10  18  31  53  78 109 144 183 230 279 328
#
# _framework density 18.563397999999999
#
# number of rings (size 3 to 8) (size 9 to 14) (size 15 to 20)
#    0.000    2.000    2.500    3.375    0.000    1.000 
#    0.000    1.250    0.000    0.750    0.000    0.000 
#    0.000    0.000    0.000    0.000    0.000    0.000 
#
# Total GULP energy -396702.100065 kJ/mol
# GULP energy per Si atom -12396.940627 kJ/mol
# Density = 1.852115 g / cm^3
# Si number density = 18.563398 Si / 1000 Ang^3
#
#
#
# Elastic Constant Matrix: (Units=GPa)
#
#
# Indices 1 2 3 4 5 6 
#
# 1 146.7288 32.8224 28.9097 0.0000 20.7667 0.0000
# 2 32.8224 57.6883 12.2455 0.0000 7.8136 0.0000
# 3 28.9097 12.2455 64.0459 0.0000 15.0515 0.0000
# 4 0.0000 0.0000 0.0000 12.4488 0.0000 5.5535
# 5 20.7667 7.8136 15.0515 0.0000 23.0793 0.0000
# 6 0.0000 0.0000 0.0000 5.5535 0.0000 29.6438
#
#
#
# Elastic Compliance Matrix: (Units=1/GPa)
#
#
# Indices 1 2 3 4 5 6 
#
# 1 0.008830 -0.003879 -0.001991 0.000000 -0.005334 0.000000
# 2 -0.003879 0.020188 -0.001563 0.000000 -0.002325 0.000000
# 3 -0.001991 -0.001563 0.019210 0.000000 -0.010208 0.000000
# 4 0.000000 0.000000 0.000000 0.087654 0.000000 -0.016421
# 5 -0.005334 -0.002325 -0.010208 0.000000 0.055573 0.000000
# 6 0.000000 0.000000 0.000000 -0.016421 0.000000 0.036810
#
#
# Mechanical properties :
#
#
# Convention : Reuss Voigt Hill
#
# Bulk Modulus (GPa) = 29.97235 46.26870 38.12052
# Shear Modulus (GPa) = 19.66555 26.00008 22.83282
#
# Velocity S-wave (km/s) = 3.25833 3.74653 3.51093
# Velocity P-wave (km/s) = 5.50787 6.61015 6.08403
#
# Compressibility (1/GPa) = 0.03336409
#
# Stress axis : x y z
#
# Youngs Moduli (GPa) = 113.24868 49.53391 52.05594
#
# Poissons Ratio (x) = 0.19214 0.10363
# Poissons Ratio (y) = 0.43929 0.08134
# Poissons Ratio (z) = 0.22544 0.07740
#
# Static dielectric constant tensor:
#      x y z
#    x 3.989310 0.000000 0.261680 
#    y 0.000000 3.309920 0.000000 
#    z 0.261680 0.000000 3.339020 
# 
# 
# High freq. dielectric constant tensor:
#      x y z
#    x 1.745810 0.000000 0.010270 
#    y 0.000000 1.705960 0.000000 
#    z 0.010270 0.000000 1.682160 
# 
# From -- ./inp_files/66451.got.cif
#   From: 2010.06.25/outbox.cif.g09.slc.cpg/sg11_34_cif.got.tgz:66451.got - 2010.06.27 23:14:04.
