data_PCOD8069014
_publ_section_title
;
Structure prediction by ZEFSAII (Michael W. Deem and Ramdas Pophale) SiO2 
 PCOD8069014
Probable space group: P 21/M
;
_chemical_formula_sum "Si O2"
_cell_formula_units_Z 32
_cell_length_a 12.493333
_cell_length_b 8.804327
_cell_length_c 23.323536
_cell_angle_alpha 90.000000
_cell_angle_beta 47.183933
_cell_angle_gamma 90.000000
_cell_volume 1881.881456
_symmetry_space_group_name_H-M "P 21/M"
_symmetry_group_IT_number 11
_symmetry_cell_setting 'monoclinic'
loop_
_space_group_symop_operation_xyz
x,y,z
-x,1/2+y,-z
-x,-y,-z
x,1/2-y,z
loop_
_atom_site_type_symbol
_atom_site_label
_atom_site_fract_x
_atom_site_fract_y
_atom_site_fract_z
Si Si1 0.611745 0.427838 0.503333
Si Si2 0.628844 0.927459 0.327795
Si Si3 0.250314 0.430298 0.834875
Si Si4 0.895160 0.572125 0.799370
Si Si5 0.046299 0.072014 0.090988
Si Si6 0.161080 0.070712 0.648719
Si Si7 0.312520 0.926684 0.929844
Si Si8 0.430603 0.074660 0.080348
O O1 0.500000 0.500000 0.500000
O O2 0.624529 0.250000 0.487263
O O3 0.540085 0.460264 0.592343
O O4 0.770220 0.504266 0.435735
O O5 0.660155 0.750000 0.314263
O O6 0.663088 0.993578 0.252515
O O7 0.742014 0.994161 0.333556
O O8 0.262970 0.250000 0.838183
O O9 0.324462 0.514709 0.860889
O O10 0.081227 0.475744 0.892100
O O11 0.906555 0.750000 0.783211
O O12 0.946312 0.531027 0.844823
O O13 0.731349 0.509718 0.849080
O O14 0.996489 0.486409 0.716617
O O15 0.019153 0.250000 0.090650
O O16 0.196603 0.025417 0.006823
O O17 0.163898 0.250000 0.643281
O O18 0.267857 0.750000 0.948093
O O19 0.471021 0.953991 0.899754
O O20 0.415537 0.250000 0.070290
O O21 0.500000 0.000000 0.000000
#
# Coordination Sequence:
#
# PCOD8069014 Si02
#       8
#     4   4   4   4   4   4   4   4
#     4   9  16  28  45  69  99 132 165 199 242 296
#     4   8  16  29  46  68  97 131 163 194 238 290
#     4  11  21  35  52  72 102 136 170 206 245 295
#     4  10  20  33  51  75  99 129 166 207 252 299
#     4  11  21  34  52  74 100 130 169 209 249 299
#     4  10  18  30  47  72 102 132 164 200 245 299
#     4  11  23  37  52  72  98 132 170 211 254 297
#     4  10  21  37  55  73  97 127 167 213 258 301
#
# _framework density 17.004259000000001
#
# number of rings (size 3 to 8) (size 9 to 14) (size 15 to 20)
#    0.000    2.000    2.500    3.000    0.000    1.500 
#    0.000    1.875    0.000    0.000    0.000    0.875 
#    0.000    0.000    0.000    0.000    0.000    0.000 
#
# Total GULP energy -396723.912467 kJ/mol
# GULP energy per Si atom -12397.622265 kJ/mol
# Density = 1.696556 g / cm^3
# Si number density = 17.004259 Si / 1000 Ang^3
#
#
#
# Elastic Constant Matrix: (Units=GPa)
#
#
# Indices 1 2 3 4 5 6 
#
# 1 73.9652 30.2914 35.6754 0.0000 -13.1760 0.0000
# 2 30.2914 51.7473 38.7795 0.0000 -3.5285 0.0000
# 3 35.6754 38.7795 127.4062 0.0000 -24.3972 0.0000
# 4 0.0000 0.0000 0.0000 27.8624 0.0000 -1.0957
# 5 -13.1760 -3.5285 -24.3972 0.0000 19.4002 0.0000
# 6 0.0000 0.0000 0.0000 -1.0957 0.0000 18.5555
#
#
#
# Elastic Compliance Matrix: (Units=1/GPa)
#
#
# Indices 1 2 3 4 5 6 
#
# 1 0.020085 -0.010897 -0.000098 0.000000 0.011535 0.000000
# 2 -0.010897 0.031611 -0.009071 0.000000 -0.013059 0.000000
# 3 -0.000098 -0.009071 0.013579 0.000000 0.015360 0.000000
# 4 0.000000 0.000000 0.000000 0.035974 0.000000 0.002124
# 5 0.011535 -0.013059 0.015360 0.000000 0.076321 0.000000
# 6 0.000000 0.000000 0.000000 0.002124 0.000000 0.054018
#
#
# Mechanical properties :
#
#
# Convention : Reuss Voigt Hill
#
# Bulk Modulus (GPa) = 39.77420 51.40124 45.58772
# Shear Modulus (GPa) = 17.85076 23.05513 20.45294
#
# Velocity S-wave (km/s) = 3.24355 3.68617 3.47192
# Velocity P-wave (km/s) = 6.12119 6.95782 6.55287
#
# Compressibility (1/GPa) = 0.02514193
#
# Stress axis : x y z
#
# Youngs Moduli (GPa) = 49.78878 31.63485 73.64493
#
# Poissons Ratio (x) = 0.34472 0.00724
# Poissons Ratio (y) = 0.54254 0.66803
# Poissons Ratio (z) = 0.00490 0.28696
#
# Static dielectric constant tensor:
#      x y z
#    x 3.083930 0.000000 -0.061300 
#    y 0.000000 3.166960 0.000000 
#    z -0.061300 0.000000 3.593460 
# 
# 
# High freq. dielectric constant tensor:
#      x y z
#    x 1.615140 0.000000 -0.009120 
#    y 0.000000 1.658130 0.000000 
#    z -0.009120 0.000000 1.666710 
# 
# From -- ./inp_files/40664.got.cif
#   From: 2010.06.25/outbox.cif.g09.slc.cpg/sg11_21_cif.got.tgz:40664.got - 2010.06.27 23:14:04.
