data_PCOD8069688
_publ_section_title
;
Structure prediction by ZEFSAII (Michael W. Deem and Ramdas Pophale) SiO2 
 PCOD8069688
Probable space group: P 21/M
;
_chemical_formula_sum "Si O2"
_cell_formula_units_Z 32
_cell_length_a 13.524309
_cell_length_b 16.120000
_cell_length_c 19.625583
_cell_angle_alpha 90.000000
_cell_angle_beta 157.573298
_cell_angle_gamma 90.000000
_cell_volume 1632.294837
_symmetry_space_group_name_H-M "P 21/M"
_symmetry_group_IT_number 11
_symmetry_cell_setting 'monoclinic'
loop_
_space_group_symop_operation_xyz
x,y,z
-x,1/2+y,-z
-x,-y,-z
x,1/2-y,z
loop_
_atom_site_type_symbol
_atom_site_label
_atom_site_fract_x
_atom_site_fract_y
_atom_site_fract_z
Si Si1 0.538419 0.929270 0.599799
Si Si2 0.106800 0.040647 0.295093
Si Si3 0.603120 0.158289 0.254260
Si Si4 0.780026 0.657222 0.512487
Si Si5 0.827720 0.843128 0.388493
Si Si6 0.287954 0.937444 0.183797
Si Si7 0.423837 0.514816 0.119640
Si Si8 0.773253 0.660799 0.860020
O O1 0.696554 0.913061 0.631188
O O2 0.571497 0.849362 0.668665
O O3 0.235619 0.950016 0.392339
O O4 0.661014 0.007109 0.717955
O O5 0.081905 0.093974 0.348023
O O6 0.825017 0.031634 0.084516
O O7 0.587313 0.250000 0.206637
O O8 0.388352 0.157910 0.175007
O O9 0.892619 0.147773 0.470227
O O10 0.538100 0.075174 0.169225
O O11 0.826479 0.750000 0.569094
O O12 0.900880 0.643702 0.514697
O O13 0.471270 0.642630 0.308030
O O14 0.711278 0.750000 0.302743
O O15 0.630050 0.912134 0.234583
O O16 0.354762 0.985336 0.156031
O O17 0.987850 0.911286 0.993599
O O18 0.910582 0.750000 0.939758
#
# Coordination Sequence:
#
# PCOD8069688 Si02
#       8
#     4   4   4   4   4   4   4   4
#     4  10  19  35  49  75 115 148 169 212 273 334
#     4  10  21  32  52  79 111 147 180 213 270 335
#     4  10  21  36  57  84 109 142 187 231 277 330
#     4   9  19  35  53  77 110 144 175 226 280 325
#     4   9  20  38  60  83 109 140 184 235 282 326
#     4  10  18  33  57  80 108 137 184 228 273 325
#     4  11  19  35  60  87 107 144 184 238 277 318
#     4  11  20  31  54  84 109 138 181 231 273 324
#
# _framework density 19.604302000000001
#
# number of rings (size 3 to 8) (size 9 to 14) (size 15 to 20)
#    0.000    2.000    2.500    1.875    0.000    1.500 
#    0.000    1.250    0.000    0.000    0.000    0.000 
#    0.000    0.000    0.000    0.000    0.000    0.000 
#
# Total GULP energy -396502.890393 kJ/mol
# GULP energy per Si atom -12390.715325 kJ/mol
# Density = 1.955968 g / cm^3
# Si number density = 19.604302 Si / 1000 Ang^3
#
#
#
# Elastic Constant Matrix: (Units=GPa)
#
#
# Indices 1 2 3 4 5 6 
#
# 1 11.9522 17.2993 12.8845 0.0000 2.8277 0.0000
# 2 17.2993 124.2195 52.0839 0.0000 8.1643 0.0000
# 3 12.8845 52.0839 109.3204 0.0000 1.7247 0.0000
# 4 0.0000 0.0000 0.0000 25.6303 0.0000 3.7304
# 5 2.8277 8.1643 1.7247 0.0000 28.8354 0.0000
# 6 0.0000 0.0000 0.0000 3.7304 0.0000 16.1783
#
#
#
# Elastic Compliance Matrix: (Units=1/GPa)
#
#
# Indices 1 2 3 4 5 6 
#
# 1 0.110303 -0.011865 -0.007236 0.000000 -0.007024 0.000000
# 2 -0.011865 0.011529 -0.004065 0.000000 -0.001858 0.000000
# 3 -0.007236 -0.004065 0.011919 0.000000 0.001148 0.000000
# 4 0.000000 0.000000 0.000000 0.040371 0.000000 -0.009309
# 5 -0.007024 -0.001858 0.001148 0.000000 0.035826 0.000000
# 6 0.000000 0.000000 0.000000 -0.009309 0.000000 0.063958
#
#
# Mechanical properties :
#
#
# Convention : Reuss Voigt Hill
#
# Bulk Modulus (GPa) = 11.43934 45.55860 28.49897
# Shear Modulus (GPa) = 14.31108 25.01041 19.66074
#
# Velocity S-wave (km/s) = 2.70478 3.57565 3.17026
# Velocity P-wave (km/s) = 3.94996 6.35111 5.28861
#
# Compressibility (1/GPa) = 0.08741760
#
# Stress axis : x y z
#
# Youngs Moduli (GPa) = 9.06590 86.73585 83.89972
#
# Poissons Ratio (x) = 1.02916 0.60714
# Poissons Ratio (y) = 0.10757 0.34107
# Poissons Ratio (z) = 0.06561 0.35260
#
# Static dielectric constant tensor:
#      x y z
#    x 3.470190 0.000000 0.084910 
#    y 0.000000 4.022560 0.000000 
#    z 0.084910 0.000000 3.567940 
# 
# 
# High freq. dielectric constant tensor:
#      x y z
#    x 1.744640 0.000000 0.014620 
#    y 0.000000 1.770520 0.000000 
#    z 0.014620 0.000000 1.752270 
# 
# From -- ./inp_files/65792.got.cif
#   From: 2010.06.25/outbox.cif.g09.slc.cpg/sg11_33_cif.got.tgz:65792.got - 2010.06.27 23:14:04.
