data_PCOD8069095
_publ_section_title
;
Structure prediction by ZEFSAII (Michael W. Deem and Ramdas Pophale) SiO2 
 PCOD8069095
Probable space group: P 21/M
;
_chemical_formula_sum "Si O2"
_cell_formula_units_Z 24
_cell_length_a 11.817262
_cell_length_b 8.615950
_cell_length_c 20.499660
_cell_angle_alpha 90.000000
_cell_angle_beta 140.849488
_cell_angle_gamma 90.000000
_cell_volume 1317.781988
_symmetry_space_group_name_H-M "P 21/M"
_symmetry_group_IT_number 11
_symmetry_cell_setting 'monoclinic'
loop_
_space_group_symop_operation_xyz
x,y,z
-x,1/2+y,-z
-x,-y,-z
x,1/2-y,z
loop_
_atom_site_type_symbol
_atom_site_label
_atom_site_fract_x
_atom_site_fract_y
_atom_site_fract_z
Si Si1 0.048739 0.073495 0.916684
Si Si2 0.029575 0.568641 0.773110
Si Si3 0.617470 0.569408 0.111095
Si Si4 0.646263 0.066912 0.613384
Si Si5 0.573765 0.924446 0.857030
Si Si6 0.681597 0.931996 0.767934
O O1 0.016495 0.250000 0.878218
O O2 0.870042 0.011142 0.871010
O O3 0.095370 0.966714 0.875587
O O4 0.212494 0.063198 0.039352
O O5 0.002690 0.750000 0.749909
O O6 0.185768 0.506340 0.795779
O O7 0.841645 0.484136 0.675293
O O8 0.636697 0.750000 0.105586
O O9 0.527755 0.543215 0.141513
O O10 0.500000 0.500000 0.000000
O O11 0.633320 0.250000 0.608270
O O12 0.500000 0.000000 0.500000
O O13 0.603664 0.003912 0.666798
O O14 0.508365 0.750000 0.844703
O O15 0.543834 0.962231 0.766687
O O16 0.713637 0.750000 0.771425
#
# Coordination Sequence:
#
# PCOD8069095 Si02
#       6
#     4   4   4   4   4   4
#     4  10  18  30  49  74 108 147 185 223 265 318
#     4  11  21  35  55  81 111 145 185 229 274 324
#     4  12  23  35  53  77 110 152 193 229 267 319
#     4  11  22  39  62  86 110 139 179 229 281 332
#     4  10  21  34  50  74 110 151 187 223 266 321
#     4  10  20  34  52  78 110 143 181 225 275 328
#
# _framework density 18.212420999999999
#
# number of rings (size 3 to 8) (size 9 to 14) (size 15 to 20)
#    0.000    1.333    1.667    8.000    0.000    2.000 
#    0.000    0.000    0.000    1.000    0.000    0.000 
#    0.000    0.000    0.000    0.000    0.000    0.000 
#
# Total GULP energy -297588.408765 kJ/mol
# GULP energy per Si atom -12399.517032 kJ/mol
# Density = 1.817097 g / cm^3
# Si number density = 18.212421 Si / 1000 Ang^3
#
#
#
# Elastic Constant Matrix: (Units=GPa)
#
#
# Indices 1 2 3 4 5 6 
#
# 1 111.8581 41.7221 47.4884 0.0000 -6.3212 0.0000
# 2 41.7221 109.0498 37.5758 0.0000 -5.1619 0.0000
# 3 47.4884 37.5758 91.5310 0.0000 -1.9337 0.0000
# 4 0.0000 0.0000 0.0000 26.8999 0.0000 2.2560
# 5 -6.3212 -5.1619 -1.9337 0.0000 15.4224 0.0000
# 6 0.0000 0.0000 0.0000 2.2560 0.0000 31.9589
#
#
#
# Elastic Compliance Matrix: (Units=1/GPa)
#
#
# Indices 1 2 3 4 5 6 
#
# 1 0.012386 -0.002778 -0.005212 0.000000 0.003493 0.000000
# 2 -0.002778 0.011447 -0.003210 0.000000 0.002291 0.000000
# 3 -0.005212 -0.003210 0.014919 0.000000 -0.001340 0.000000
# 4 0.000000 0.000000 0.000000 0.037396 0.000000 -0.002640
# 5 0.003493 0.002291 -0.001340 0.000000 0.066871 0.000000
# 6 0.000000 0.000000 0.000000 -0.002640 0.000000 0.031477
#
#
# Mechanical properties :
#
#
# Convention : Reuss Voigt Hill
#
# Bulk Modulus (GPa) = 61.15083 62.89016 62.02049
# Shear Modulus (GPa) = 24.71010 27.23309 25.97160
#
# Velocity S-wave (km/s) = 3.68743 3.87111 3.78039
# Velocity P-wave (km/s) = 7.19576 7.38831 7.29267
#
# Compressibility (1/GPa) = 0.01635301
#
# Stress axis : x y z
#
# Youngs Moduli (GPa) = 80.73574 87.35689 67.02908
#
# Poissons Ratio (x) = 0.24264 0.34936
# Poissons Ratio (y) = 0.22425 0.21516
# Poissons Ratio (z) = 0.42081 0.28041
#
# Static dielectric constant tensor:
#      x y z
#    x 3.411880 0.000000 0.032090 
#    y 0.000000 3.526480 0.000000 
#    z 0.032090 0.000000 3.126380 
# 
# 
# High freq. dielectric constant tensor:
#      x y z
#    x 1.706460 0.000000 -0.002220 
#    y 0.000000 1.723870 0.000000 
#    z -0.002220 0.000000 1.670430 
# 
# From -- ./inp_files/42654.got.cif
#   From: 2010.06.25/outbox.cif.g09.slc.cpg/sg11_22_cif.got.tgz:42654.got - 2010.06.27 23:14:04.
