data_PCOD8069105
_publ_section_title
;
Structure prediction by ZEFSAII (Michael W. Deem and Ramdas Pophale) SiO2 
 PCOD8069105
Probable space group: P 21/M
;
_chemical_formula_sum "Si O2"
_cell_formula_units_Z 32
_cell_length_a 17.547506
_cell_length_b 14.960795
_cell_length_c 11.459479
_cell_angle_alpha 90.000000
_cell_angle_beta 30.638234
_cell_angle_gamma 90.000000
_cell_volume 1533.125579
_symmetry_space_group_name_H-M "P 21/M"
_symmetry_group_IT_number 11
_symmetry_cell_setting 'monoclinic'
loop_
_space_group_symop_operation_xyz
x,y,z
-x,1/2+y,-z
-x,-y,-z
x,1/2-y,z
loop_
_atom_site_type_symbol
_atom_site_label
_atom_site_fract_x
_atom_site_fract_y
_atom_site_fract_z
Si Si1 0.818792 0.352926 0.120044
Si Si2 0.419831 0.398666 0.485882
Si Si3 0.999527 0.647195 0.715515
Si Si4 0.842700 0.477541 0.652784
Si Si5 0.909526 0.856077 0.091377
Si Si6 0.286719 0.650968 0.988288
Si Si7 0.509761 0.398849 0.618963
Si Si8 0.731356 0.650614 0.886688
O O1 0.851260 0.250000 0.058563
O O2 0.782962 0.393002 0.039067
O O3 0.680274 0.364809 0.390782
O O4 0.966757 0.396871 0.982622
O O5 0.251664 0.394431 0.659056
O O6 0.534058 0.336712 0.262899
O O7 0.421061 0.367342 0.619576
O O8 0.491646 0.495209 0.374162
O O9 0.058711 0.750000 0.639601
O O10 0.858560 0.638959 0.816082
O O11 0.131157 0.578556 0.500811
O O12 0.951076 0.613722 0.906460
O O13 0.754047 0.572990 0.757679
O O14 0.000000 0.500000 0.500000
O O15 0.748247 0.414037 0.860837
O O16 0.903658 0.750000 0.106185
O O17 0.219992 0.750000 0.101327
O O18 0.429062 0.359150 0.839029
O O19 0.739817 0.750000 0.818124
#
# Coordination Sequence:
#
# PCOD8069105 Si02
#       8
#     4   4   4   4   4   4   4   4
#     4   9  20  33  51  80 115 149 180 219 273 332
#     4  10  19  30  52  79 110 143 179 228 275 322
#     4   9  18  31  53  80 109 145 184 226 268 317
#     4  10  20  33  52  79 111 138 183 236 274 321
#     4  10  19  34  53  82 115 149 185 218 269 333
#     4  10  19  34  55  84 114 146 181 225 280 325
#     4  10  18  30  49  76 109 138 180 224 275 327
#     4  10  18  31  51  75 102 139 183 231 278 322
#
# _framework density 20.872392000000001
#
# number of rings (size 3 to 8) (size 9 to 14) (size 15 to 20)
#    0.000    2.250    2.500    1.125    0.000    2.000 
#    0.000    0.000    0.000    0.750    6.500    0.000 
#    0.000    1.000    0.000    0.000    0.000    0.000 
#
# Total GULP energy -396593.224963 kJ/mol
# GULP energy per Si atom -12393.538280 kJ/mol
# Density = 2.082489 g / cm^3
# Si number density = 20.872392 Si / 1000 Ang^3
#
#
#
# Elastic Constant Matrix: (Units=GPa)
#
#
# Indices 1 2 3 4 5 6 
#
# 1 49.4078 13.3564 31.2085 0.0000 -18.1106 0.0000
# 2 13.3564 94.1231 33.9142 0.0000 8.2634 0.0000
# 3 31.2085 33.9142 106.6323 0.0000 -9.7013 0.0000
# 4 0.0000 0.0000 0.0000 29.4259 0.0000 -1.8098
# 5 -18.1106 8.2634 -9.7013 0.0000 30.1130 0.0000
# 6 0.0000 0.0000 0.0000 -1.8098 0.0000 12.8472
#
#
#
# Elastic Compliance Matrix: (Units=1/GPa)
#
#
# Indices 1 2 3 4 5 6 
#
# 1 0.032066 -0.003802 -0.006517 0.000000 0.018229 0.000000
# 2 -0.003802 0.013120 -0.003704 0.000000 -0.007081 0.000000
# 3 -0.006517 -0.003704 0.012568 0.000000 0.001146 0.000000
# 4 0.000000 0.000000 0.000000 0.034281 0.000000 0.004829
# 5 0.018229 -0.007081 0.001146 0.000000 0.046484 0.000000
# 6 0.000000 0.000000 0.000000 0.004829 0.000000 0.078519
#
#
# Mechanical properties :
#
#
# Convention : Reuss Voigt Hill
#
# Bulk Modulus (GPa) = 33.66246 45.23569 39.44908
# Shear Modulus (GPa) = 19.60885 25.92282 22.76584
#
# Velocity S-wave (km/s) = 3.06839 3.52798 3.30618
# Velocity P-wave (km/s) = 5.35874 6.18992 5.78927
#
# Compressibility (1/GPa) = 0.02970668
#
# Stress axis : x y z
#
# Youngs Moduli (GPa) = 31.18557 76.21788 79.56878
#
# Poissons Ratio (x) = 0.28982 0.51855
# Poissons Ratio (y) = 0.11858 0.29474
# Poissons Ratio (z) = 0.20324 0.28232
#
# Static dielectric constant tensor:
#      x y z
#    x 3.501460 0.000000 -0.069400 
#    y 0.000000 3.953800 0.000000 
#    z -0.069400 0.000000 3.827890 
# 
# 
# High freq. dielectric constant tensor:
#      x y z
#    x 1.753590 0.000000 -0.004880 
#    y 0.000000 1.829990 0.000000 
#    z -0.004880 0.000000 1.820960 
# 
# From -- ./inp_files/41623.got.cif
#   From: 2010.06.25/outbox.cif.g09.slc.cpg/sg11_21_cif.got.tgz:41623.got - 2010.06.27 23:14:04.
