data_PCOD8069692
_publ_section_title
;
Structure prediction by ZEFSAII (Michael W. Deem and Ramdas Pophale) SiO2 
 PCOD8069692
Probable space group: P 21/M
;
_chemical_formula_sum "Si O2"
_cell_formula_units_Z 26
_cell_length_a 15.486261
_cell_length_b 15.350951
_cell_length_c 9.575974
_cell_angle_alpha 90.000000
_cell_angle_beta 142.858535
_cell_angle_gamma 90.000000
_cell_volume 1374.507670
_symmetry_space_group_name_H-M "P 21/M"
_symmetry_group_IT_number 11
_symmetry_cell_setting 'monoclinic'
loop_
_space_group_symop_operation_xyz
x,y,z
-x,1/2+y,-z
-x,-y,-z
x,1/2-y,z
loop_
_atom_site_type_symbol
_atom_site_label
_atom_site_fract_x
_atom_site_fract_y
_atom_site_fract_z
Si Si1 0.764193 0.647708 0.375656
Si Si2 0.563406 0.931482 0.341737
Si Si3 0.526257 0.250000 0.646744
Si Si4 0.198049 0.050234 0.143597
Si Si5 0.996882 0.610052 0.884175
Si Si6 0.221814 0.750000 0.210951
Si Si7 0.336914 0.417933 0.031826
Si Si8 0.505628 0.750000 0.700918
O O1 0.719134 0.750000 0.308075
O O2 0.653897 0.587221 0.319741
O O3 0.923097 0.642100 0.646198
O O4 0.771581 0.598859 0.235869
O O5 0.509219 0.837018 0.317127
O O6 0.658706 0.979213 0.586093
O O7 0.426725 0.992640 0.134827
O O8 0.695636 0.250000 0.831374
O O9 0.437606 0.250000 0.386685
O O10 0.124184 0.120379 0.151317
O O11 0.244216 0.086280 0.053382
O O12 0.069239 0.982931 0.953728
O O13 0.128302 0.665681 0.103688
O O14 0.333105 0.750000 0.482854
O O15 0.444856 0.337091 0.159112
#
# Coordination Sequence:
#
# PCOD8069692 Si02
#       8
#     4   4   2   4   4   2   4   2
#     4  11  23  39  58  83 123 163 193 234 296 366
#     4  11  21  38  63  88 116 151 201 247 295 347
#     4  10  20  34  61  92 111 149 195 253 298 339
#     4  10  21  36  60  87 114 145 201 244 288 342
#     4  10  21  37  58  85 112 157 197 238 283 349
#     4  10  18  33  57  83 111 145 194 240 283 329
#     4  12  22  38  60  90 122 153 192 249 302 345
#     4  10  22  33  60  95 118 144 191 259 299 336
#
# _framework density 18.915863000000002
#
# number of rings (size 3 to 8) (size 9 to 14) (size 15 to 20)
#    0.462    0.923    3.846    2.769    0.000    1.231 
#    0.000    0.000    0.000    1.846    0.000    0.000 
#    0.000    0.000    0.000    0.000    0.000    0.000 
#
# Total GULP energy -322158.155805 kJ/mol
# GULP energy per Si atom -12390.698300 kJ/mol
# Density = 1.887281 g / cm^3
# Si number density = 18.915863 Si / 1000 Ang^3
#
#
#
# Elastic Constant Matrix: (Units=GPa)
#
#
# Indices 1 2 3 4 5 6 
#
# 1 79.9968 18.6189 45.9394 0.0000 -4.5507 0.0000
# 2 18.6189 86.1268 40.3303 0.0000 -2.4416 0.0000
# 3 45.9394 40.3303 91.5638 0.0000 -5.6260 0.0000
# 4 0.0000 0.0000 0.0000 34.6681 0.0000 2.0603
# 5 -4.5507 -2.4416 -5.6260 0.0000 32.9620 0.0000
# 6 0.0000 0.0000 0.0000 2.0603 0.0000 22.9559
#
#
#
# Elastic Compliance Matrix: (Units=1/GPa)
#
#
# Indices 1 2 3 4 5 6 
#
# 1 0.017600 0.000415 -0.008956 0.000000 0.000932 0.000000
# 2 0.000415 0.014638 -0.006655 0.000000 0.000006 0.000000
# 3 -0.008956 -0.006655 0.018433 0.000000 0.001417 0.000000
# 4 0.000000 0.000000 0.000000 0.029000 0.000000 -0.002603
# 5 0.000932 0.000006 0.001417 0.000000 0.030709 0.000000
# 6 0.000000 0.000000 0.000000 -0.002603 0.000000 0.043795
#
#
# Mechanical properties :
#
#
# Convention : Reuss Voigt Hill
#
# Bulk Modulus (GPa) = 49.31218 51.94050 50.62634
# Shear Modulus (GPa) = 26.13338 28.30379 27.21858
#
# Velocity S-wave (km/s) = 3.72097 3.87240 3.79744
# Velocity P-wave (km/s) = 6.67732 6.89291 6.78597
#
# Compressibility (1/GPa) = 0.02027897
#
# Stress axis : x y z
#
# Youngs Moduli (GPa) = 56.81840 68.31702 54.24984
#
# Poissons Ratio (x) = -0.02838 0.48586
# Poissons Ratio (y) = -0.02361 0.36105
# Poissons Ratio (z) = 0.50886 0.45468
#
# Static dielectric constant tensor:
#      x y z
#    x 3.437570 0.000000 0.039430 
#    y 0.000000 3.066670 0.000000 
#    z 0.039430 0.000000 3.493330 
# 
# 
# High freq. dielectric constant tensor:
#      x y z
#    x 1.727400 0.000000 0.004560 
#    y 0.000000 1.735390 0.000000 
#    z 0.004560 0.000000 1.732010 
# 
# From -- ./inp_files/13522.got.cif
#   From: 2010.06.25/outbox.cif.g09.slc.cpg/sg11_7_cif.got.tgz:13522.got - 2010.06.27 23:14:04.
