data_PCOD8070602
_publ_section_title
;
Structure prediction by ZEFSAII (Michael W. Deem and Ramdas Pophale) SiO2 
 PCOD8070602
Probable space group: P 21/M
;
_chemical_formula_sum "Si O2"
_cell_formula_units_Z 32
_cell_length_a 27.208627
_cell_length_b 8.826352
_cell_length_c 14.116277
_cell_angle_alpha 90.000000
_cell_angle_beta 147.243452
_cell_angle_gamma 90.000000
_cell_volume 1834.264525
_symmetry_space_group_name_H-M "P 21/M"
_symmetry_group_IT_number 11
_symmetry_cell_setting 'monoclinic'
loop_
_space_group_symop_operation_xyz
x,y,z
-x,1/2+y,-z
-x,-y,-z
x,1/2-y,z
loop_
_atom_site_type_symbol
_atom_site_label
_atom_site_fract_x
_atom_site_fract_y
_atom_site_fract_z
Si Si1 0.994050 0.071311 0.683315
Si Si2 0.821931 0.920052 0.452819
Si Si3 0.885117 0.922880 0.355320
Si Si4 0.355903 0.424663 0.259448
Si Si5 0.515832 0.572063 0.167724
Si Si6 0.170644 0.928870 0.926776
Si Si7 0.508374 0.074672 0.656683
Si Si8 0.358127 0.927777 0.771626
O O1 0.997663 0.250000 0.697176
O O2 0.917479 0.006080 0.630761
O O3 0.972260 0.017773 0.538406
O O4 0.092009 0.999831 0.866099
O O5 0.827891 0.750000 0.502407
O O6 0.810526 0.920473 0.319891
O O7 0.740301 0.003399 0.371549
O O8 0.913834 0.750000 0.375722
O O9 0.835782 0.004087 0.189078
O O10 0.328470 0.250000 0.202666
O O11 0.411096 0.475414 0.256211
O O12 0.415297 0.452478 0.449330
O O13 0.266392 0.525116 0.127000
O O14 0.532991 0.750000 0.186766
O O15 0.506837 0.519400 0.261149
O O16 0.602436 0.488237 0.263444
O O17 0.424539 0.523007 0.964720
O O18 0.160448 0.750000 0.907134
O O19 0.538058 0.250000 0.700417
O O20 0.347192 0.750000 0.747854
#
# Coordination Sequence:
#
# PCOD8070602 Si02
#       8
#     4   4   4   4   4   4   4   4
#     4  10  19  32  48  68  97 131 167 205 247 295
#     4   9  19  32  47  67  99 134 165 199 241 292
#     4   9  19  32  45  66  95 130 167 201 243 292
#     4  10  21  35  52  74 100 129 170 215 252 297
#     4   9  19  34  52  72 100 133 166 205 251 298
#     4  12  22  32  47  68  97 131 169 208 249 295
#     4   9  19  37  55  73  98 132 169 209 256 300
#     4  10  19  31  49  77 105 131 167 205 246 296
#
# _framework density 17.445684
#
# number of rings (size 3 to 8) (size 9 to 14) (size 15 to 20)
#    0.750    1.500    0.000    3.750    1.750    1.500 
#    0.000    0.000    0.000    0.000    0.000    0.875 
#    0.000    0.000    0.000    0.000    0.000    0.000 
#
# Total GULP energy -396738.293356 kJ/mol
# GULP energy per Si atom -12398.071667 kJ/mol
# Density = 1.740598 g / cm^3
# Si number density = 17.445684 Si / 1000 Ang^3
#
#
#
# Elastic Constant Matrix: (Units=GPa)
#
#
# Indices 1 2 3 4 5 6 
#
# 1 95.5066 45.6774 48.6546 0.0000 13.4220 0.0000
# 2 45.6774 111.7876 40.7756 0.0000 16.1601 0.0000
# 3 48.6546 40.7756 76.1948 0.0000 21.7591 0.0000
# 4 0.0000 0.0000 0.0000 27.9288 0.0000 7.7181
# 5 13.4220 16.1601 21.7591 0.0000 30.4608 0.0000
# 6 0.0000 0.0000 0.0000 7.7181 0.0000 28.1142
#
#
#
# Elastic Compliance Matrix: (Units=1/GPa)
#
#
# Indices 1 2 3 4 5 6 
#
# 1 0.016649 -0.003685 -0.008948 0.000000 0.001011 0.000000
# 2 -0.003685 0.012036 -0.003427 0.000000 -0.002313 0.000000
# 3 -0.008948 -0.003427 0.023903 0.000000 -0.011314 0.000000
# 4 0.000000 0.000000 0.000000 0.038745 0.000000 -0.010637
# 5 0.001011 -0.002313 -0.011314 0.000000 0.041693 0.000000
# 6 0.000000 0.000000 0.000000 -0.010637 0.000000 0.038489
#
#
# Mechanical properties :
#
#
# Convention : Reuss Voigt Hill
#
# Bulk Modulus (GPa) = 48.85826 61.52269 55.19047
# Shear Modulus (GPa) = 23.75770 27.19287 25.47529
#
# Velocity S-wave (km/s) = 3.69427 3.95234 3.82548
# Velocity P-wave (km/s) = 6.80174 7.49465 7.15659
#
# Compressibility (1/GPa) = 0.02046737
#
# Stress axis : x y z
#
# Youngs Moduli (GPa) = 60.06201 83.08500 41.83597
#
# Poissons Ratio (x) = 0.30620 0.37435
# Poissons Ratio (y) = 0.22135 0.14337
# Poissons Ratio (z) = 0.53744 0.28474
#
# Static dielectric constant tensor:
#      x y z
#    x 3.101960 0.000000 0.189680 
#    y 0.000000 3.298520 0.000000 
#    z 0.189680 0.000000 3.089060 
# 
# 
# High freq. dielectric constant tensor:
#      x y z
#    x 1.654310 0.000000 0.028390 
#    y 0.000000 1.689260 0.000000 
#    z 0.028390 0.000000 1.651910 
# 
# From -- ./inp_files/56201.got.cif
#   From: 2010.06.25/outbox.cif.g09.slc.cpg/sg11_29_cif.got.tgz:56201.got - 2010.06.27 23:14:04.
