data_PCOD8070583
_publ_section_title
;
Structure prediction by ZEFSAII (Michael W. Deem and Ramdas Pophale) SiO2 
 PCOD8070583
Probable space group: P 21/M
;
_chemical_formula_sum "Si O2"
_cell_formula_units_Z 32
_cell_length_a 11.646741
_cell_length_b 8.954684
_cell_length_c 31.862247
_cell_angle_alpha 90.000000
_cell_angle_beta 148.405975
_cell_angle_gamma 90.000000
_cell_volume 1740.912975
_symmetry_space_group_name_H-M "P 21/M"
_symmetry_group_IT_number 11
_symmetry_cell_setting 'monoclinic'
loop_
_space_group_symop_operation_xyz
x,y,z
-x,1/2+y,-z
-x,-y,-z
x,1/2-y,z
loop_
_atom_site_type_symbol
_atom_site_label
_atom_site_fract_x
_atom_site_fract_y
_atom_site_fract_z
Si Si1 0.020741 0.422609 0.611346
Si Si2 0.989048 0.423747 0.930902
Si Si3 0.830678 0.427115 0.259472
Si Si4 0.378597 0.575437 0.570124
Si Si5 0.390537 0.074694 0.659595
Si Si6 0.666441 0.575598 0.892154
Si Si7 0.150792 0.072856 0.191894
Si Si8 0.871984 0.925799 0.721656
O O1 0.036789 0.250000 0.628901
O O2 0.048573 0.520317 0.661238
O O3 0.204484 0.465426 0.634965
O O4 0.783427 0.461966 0.518385
O O5 0.952777 0.250000 0.911793
O O6 0.776704 0.485141 0.888901
O O7 0.014393 0.505648 0.894053
O O8 0.208969 0.457019 0.025464
O O9 0.836694 0.250000 0.260210
O O10 0.580564 0.483800 0.179829
O O11 0.959398 0.496335 0.259397
O O12 0.368753 0.750000 0.579266
O O13 0.306775 0.482246 0.588480
O O14 0.623519 0.527797 0.632565
O O15 0.438678 0.250000 0.672358
O O16 0.607260 0.988943 0.741792
O O17 0.677432 0.750000 0.884062
O O18 0.156358 0.250000 0.189965
O O19 0.071472 0.020112 0.213441
O O20 0.895689 0.750000 0.727147
#
# Coordination Sequence:
#
# PCOD8070583 Si02
#       8
#     4   4   4   4   4   4   4   4
#     4  10  21  33  47  72 103 131 160 202 252 294
#     4  10  19  32  52  78 105 128 158 200 242 290
#     4  10  20  35  53  71  94 128 170 206 240 288
#     4   9  18  34  52  70  98 133 165 199 245 295
#     4  10  19  31  49  75 104 129 160 204 248 289
#     4   9  19  34  52  75 103 133 160 195 245 294
#     4  10  19  33  53  74  99 132 166 198 242 296
#     4   8  17  34  53  70  92 128 169 206 240 282
#
# _framework density 18.381160000000001
#
# number of rings (size 3 to 8) (size 9 to 14) (size 15 to 20)
#    0.000    2.500    0.000    3.000    0.000    5.000 
#    0.000    3.750    0.000    0.000    0.000    0.000 
#    0.000    0.000    0.000    0.000    0.000    0.000 
#
# Total GULP energy -396814.836687 kJ/mol
# GULP energy per Si atom -12400.463646 kJ/mol
# Density = 1.833932 g / cm^3
# Si number density = 18.381160 Si / 1000 Ang^3
#
#
#
# Elastic Constant Matrix: (Units=GPa)
#
#
# Indices 1 2 3 4 5 6 
#
# 1 121.5521 33.1147 63.7727 0.0000 -12.7146 0.0000
# 2 33.1147 48.8398 31.3419 0.0000 -8.5280 0.0000
# 3 63.7727 31.3419 108.9265 0.0000 -22.3643 0.0000
# 4 0.0000 0.0000 0.0000 31.4770 0.0000 -7.4922
# 5 -12.7146 -8.5280 -22.3643 0.0000 17.1348 0.0000
# 6 0.0000 0.0000 0.0000 -7.4922 0.0000 20.4749
#
#
#
# Elastic Compliance Matrix: (Units=1/GPa)
#
#
# Indices 1 2 3 4 5 6 
#
# 1 0.012717 -0.004777 -0.006313 0.000000 -0.001181 0.000000
# 2 -0.004777 0.027129 -0.004050 0.000000 0.004671 0.000000
# 3 -0.006313 -0.004050 0.017303 0.000000 0.015884 0.000000
# 4 0.000000 0.000000 0.000000 0.034800 0.000000 0.012734
# 5 -0.001181 0.004671 0.015884 0.000000 0.080540 0.000000
# 6 0.000000 0.000000 0.000000 0.012734 0.000000 0.053500
#
#
# Mechanical properties :
#
#
# Convention : Reuss Voigt Hill
#
# Bulk Modulus (GPa) = 37.21897 59.53077 48.37487
# Shear Modulus (GPa) = 18.85176 23.88995 21.37085
#
# Velocity S-wave (km/s) = 3.20598 3.60904 3.41346
# Velocity P-wave (km/s) = 5.83068 7.05862 6.47383
#
# Compressibility (1/GPa) = 0.02686802
#
# Stress axis : x y z
#
# Youngs Moduli (GPa) = 78.63346 36.86120 57.79255
#
# Poissons Ratio (x) = 0.17610 0.36487
# Poissons Ratio (y) = 0.37566 0.23405
# Poissons Ratio (z) = 0.49645 0.14928
#
# Static dielectric constant tensor:
#      x y z
#    x 3.548400 0.000000 -0.025040 
#    y 0.000000 3.259660 0.000000 
#    z -0.025040 0.000000 3.505900 
# 
# 
# High freq. dielectric constant tensor:
#      x y z
#    x 1.704930 0.000000 -0.008680 
#    y 0.000000 1.701160 0.000000 
#    z -0.008680 0.000000 1.718080 
# 
# From -- ./inp_files/73208.got.cif
#   From: 2010.06.25/outbox.cif.g09.slc.cpg/sg11_37_cif.got.tgz:73208.got - 2010.06.27 23:14:04.
