data_PCOD8070570
_publ_section_title
;
Structure prediction by ZEFSAII (Michael W. Deem and Ramdas Pophale) SiO2 
 PCOD8070570
Probable space group: P 21/M
;
_chemical_formula_sum "Si O2"
_cell_formula_units_Z 32
_cell_length_a 15.541585
_cell_length_b 8.926464
_cell_length_c 25.664831
_cell_angle_alpha 90.000000
_cell_angle_beta 29.785756
_cell_angle_gamma 90.000000
_cell_volume 1768.716522
_symmetry_space_group_name_H-M "P 21/M"
_symmetry_group_IT_number 11
_symmetry_cell_setting 'monoclinic'
loop_
_space_group_symop_operation_xyz
x,y,z
-x,1/2+y,-z
-x,-y,-z
x,1/2-y,z
loop_
_atom_site_type_symbol
_atom_site_label
_atom_site_fract_x
_atom_site_fract_y
_atom_site_fract_z
Si Si1 0.748212 0.575585 0.685325
Si Si2 0.571463 0.077844 0.868688
Si Si3 0.951583 0.074064 0.945755
Si Si4 0.379420 0.923411 0.348377
Si Si5 0.927171 0.421102 0.416396
Si Si6 0.103446 0.924312 0.233551
Si Si7 0.745731 0.074127 0.156155
Si Si8 0.821831 0.576298 0.909604
O O1 0.724449 0.750000 0.684856
O O2 0.598155 0.526794 0.804412
O O3 0.732206 0.480550 0.641478
O O4 0.934711 0.536666 0.611463
O O5 0.595379 0.250000 0.838638
O O6 0.709497 0.035322 0.840594
O O7 0.382147 0.047302 0.991002
O O8 0.974155 0.250000 0.928226
O O9 0.886639 0.007951 0.926198
O O10 0.812976 0.031262 0.063219
O O11 0.137790 0.005321 0.861572
O O12 0.426638 0.750000 0.315037
O O13 0.264728 0.946096 0.460491
O O14 0.551175 0.019210 0.264975
O O15 0.957486 0.250000 0.383184
O O16 0.952860 0.525261 0.352510
O O17 0.083189 0.750000 0.232547
O O18 0.079297 0.012692 0.192520
O O19 0.754628 0.250000 0.161100
O O20 0.865736 0.750000 0.892728
#
# Coordination Sequence:
#
# PCOD8070570 Si02
#       8
#     4   4   4   4   4   4   4   4
#     4  10  19  31  49  74 105 139 175 215 255 299
#     4   9  19  33  49  73 105 140 175 211 254 304
#     4  10  21  37  56  79 107 136 167 206 253 306
#     4  11  21  33  52  76 104 138 174 212 255 306
#     4   9  20  36  51  71 102 140 178 215 256 300
#     4  10  20  34  52  74 102 137 177 219 258 298
#     4  10  21  37  57  81 107 134 166 207 255 306
#     4  11  21  33  52  76 104 138 174 212 255 306
#
# _framework density 18.092216000000001
#
# number of rings (size 3 to 8) (size 9 to 14) (size 15 to 20)
#    0.000    2.000    0.000    3.750    0.000    6.500 
#    0.000    0.000    0.000    0.750    0.000    0.000 
#    0.000    0.000    0.000    0.000    0.000    0.000 
#
# Total GULP energy -396950.512698 kJ/mol
# GULP energy per Si atom -12404.703522 kJ/mol
# Density = 1.805104 g / cm^3
# Si number density = 18.092216 Si / 1000 Ang^3
#
#
#
# Elastic Constant Matrix: (Units=GPa)
#
#
# Indices 1 2 3 4 5 6 
#
# 1 83.6282 40.6029 40.2687 0.0000 5.1803 0.0000
# 2 40.6029 72.4089 36.0704 0.0000 4.5467 0.0000
# 3 40.2687 36.0704 86.7522 0.0000 0.7843 0.0000
# 4 0.0000 0.0000 0.0000 31.0094 0.0000 2.3158
# 5 5.1803 4.5467 0.7843 0.0000 19.8075 0.0000
# 6 0.0000 0.0000 0.0000 2.3158 0.0000 34.8506
#
#
#
# Elastic Compliance Matrix: (Units=1/GPa)
#
#
# Indices 1 2 3 4 5 6 
#
# 1 0.018335 -0.007408 -0.005405 0.000000 -0.002881 0.000000
# 2 -0.007408 0.020689 -0.005140 0.000000 -0.002608 0.000000
# 3 -0.005405 -0.005140 0.016155 0.000000 0.001954 0.000000
# 4 0.000000 0.000000 0.000000 0.032409 0.000000 -0.002154
# 5 -0.002881 -0.002608 0.001954 0.000000 0.051761 0.000000
# 6 0.000000 0.000000 0.000000 -0.002154 0.000000 0.028837
#
#
# Mechanical properties :
#
#
# Convention : Reuss Voigt Hill
#
# Bulk Modulus (GPa) = 51.88330 52.96369 52.42349
# Shear Modulus (GPa) = 23.75115 25.52331 24.63723
#
# Velocity S-wave (km/s) = 3.62717 3.76005 3.69420
# Velocity P-wave (km/s) = 6.80303 6.94179 6.87276
#
# Compressibility (1/GPa) = 0.01927402
#
# Stress axis : x y z
#
# Youngs Moduli (GPa) = 54.53931 48.33557 61.89972
#
# Poissons Ratio (x) = 0.35808 0.33454
# Poissons Ratio (y) = 0.40404 0.31815
# Poissons Ratio (z) = 0.29476 0.24843
#
# Static dielectric constant tensor:
#      x y z
#    x 3.209140 0.000000 0.016680 
#    y 0.000000 3.434930 0.000000 
#    z 0.016680 0.000000 3.271920 
# 
# 
# High freq. dielectric constant tensor:
#      x y z
#    x 1.683500 0.000000 0.006820 
#    y 0.000000 1.715190 0.000000 
#    z 0.006820 0.000000 1.692570 
# 
# From -- ./inp_files/51651.got.cif
#   From: 2010.06.25/outbox.cif.g09.slc.cpg/sg11_26_cif.got.tgz:51651.got - 2010.06.27 23:14:04.
