data_PCOD8070805
_publ_section_title
;
Structure prediction by ZEFSAII (Michael W. Deem and Ramdas Pophale) SiO2 
 PCOD8070805
Probable space group: P 21/M
;
_chemical_formula_sum "Si O2"
_cell_formula_units_Z 28
_cell_length_a 15.278886
_cell_length_b 8.494421
_cell_length_c 19.279922
_cell_angle_alpha 90.000000
_cell_angle_beta 142.560065
_cell_angle_gamma 90.000000
_cell_volume 1521.191498
_symmetry_space_group_name_H-M "P 21/M"
_symmetry_group_IT_number 11
_symmetry_cell_setting 'monoclinic'
loop_
_space_group_symop_operation_xyz
x,y,z
-x,1/2+y,-z
-x,-y,-z
x,1/2-y,z
loop_
_atom_site_type_symbol
_atom_site_label
_atom_site_fract_x
_atom_site_fract_y
_atom_site_fract_z
Si Si1 0.123044 0.068961 0.871987
Si Si2 0.236245 0.429802 0.087810
Si Si3 0.570397 0.062101 0.975035
Si Si4 0.474977 0.070159 0.772325
Si Si5 0.400932 0.437453 0.582298
Si Si6 0.174273 0.065742 0.328783
Si Si7 0.721256 0.065905 0.748718
O O1 0.106487 0.250000 0.839958
O O2 0.269468 0.004833 0.930941
O O3 0.117264 0.050008 0.952476
O O4 0.991105 0.970934 0.756825
O O5 0.293469 0.250000 0.122590
O O6 0.361203 0.554379 0.149984
O O7 0.183194 0.476424 0.131819
O O8 0.577799 0.250000 0.979221
O O9 0.470598 0.997300 0.847553
O O10 0.500000 0.000000 0.000000
O O11 0.431131 0.250000 0.752170
O O12 0.379940 0.996300 0.649029
O O13 0.398098 0.250000 0.583576
O O14 0.272755 0.501016 0.453465
O O15 0.554850 0.492090 0.648205
O O16 0.199160 0.250000 0.333867
O O17 0.217642 0.974707 0.287370
O O18 0.737327 0.250000 0.771292
#
# Coordination Sequence:
#
# PCOD8070805 Si02
#       7
#     4   4   4   4   4   4   4
#     4  10  21  36  51  71 101 132 163 200 246 298
#     4   9  17  30  48  69  94 125 163 207 248 287
#     4  10  19  33  57  84 106 127 153 192 241 295
#     4   8  15  30  51  74  99 127 158 194 241 290
#     4   8  16  31  50  71  96 129 169 208 243 283
#     4  11  21  32  48  70  98 132 169 208 247 288
#     4  10  19  32  49  69  96 130 170 212 250 289
#
# _framework density 18.406621999999999
#
# number of rings (size 3 to 8) (size 9 to 14) (size 15 to 20)
#    0.000    2.571    0.000    3.429    0.000    2.857 
#    0.000    6.429    0.000    0.857    0.000    0.000 
#    0.000    0.000    0.000    0.000    0.000    0.000 
#
# Total GULP energy -346867.656461 kJ/mol
# GULP energy per Si atom -12388.130588 kJ/mol
# Density = 1.836473 g / cm^3
# Si number density = 18.406622 Si / 1000 Ang^3
#
#
#
# Elastic Constant Matrix: (Units=GPa)
#
#
# Indices 1 2 3 4 5 6 
#
# 1 94.8904 13.0612 60.1075 0.0000 -20.6107 0.0000
# 2 13.0612 43.6867 22.2058 0.0000 0.0033 0.0000
# 3 60.1075 22.2058 108.7194 0.0000 -8.4683 0.0000
# 4 0.0000 0.0000 0.0000 19.7084 0.0000 -0.5868
# 5 -20.6107 0.0033 -8.4683 0.0000 25.7306 0.0000
# 6 0.0000 0.0000 0.0000 -0.5868 0.0000 26.5893
#
#
#
# Elastic Compliance Matrix: (Units=1/GPa)
#
#
# Indices 1 2 3 4 5 6 
#
# 1 0.019437 -0.000939 -0.009588 0.000000 0.012414 0.000000
# 2 -0.000939 0.025666 -0.004908 0.000000 -0.002371 0.000000
# 3 -0.009588 -0.004908 0.015295 0.000000 -0.002645 0.000000
# 4 0.000000 0.000000 0.000000 0.050773 0.000000 0.001121
# 5 0.012414 -0.002371 -0.002645 0.000000 0.047938 0.000000
# 6 0.000000 0.000000 0.000000 0.001121 0.000000 0.037634
#
#
# Mechanical properties :
#
#
# Convention : Reuss Voigt Hill
#
# Bulk Modulus (GPa) = 33.86421 48.67171 41.26796
# Shear Modulus (GPa) = 21.05663 24.53378 22.79521
#
# Velocity S-wave (km/s) = 3.38593 3.65482 3.52294
# Velocity P-wave (km/s) = 5.80722 6.65659 6.24636
#
# Compressibility (1/GPa) = 0.02952970
#
# Stress axis : x y z
#
# Youngs Moduli (GPa) = 51.44738 38.96242 65.38089
#
# Poissons Ratio (x) = 0.03658 0.62684
# Poissons Ratio (y) = 0.04830 0.32088
# Poissons Ratio (z) = 0.49325 0.19122
#
# Static dielectric constant tensor:
#      x y z
#    x 3.115110 0.000000 -0.356540 
#    y 0.000000 3.273260 0.000000 
#    z -0.356540 0.000000 3.819930 
# 
# 
# High freq. dielectric constant tensor:
#      x y z
#    x 1.679430 0.000000 -0.026470 
#    y 0.000000 1.706770 0.000000 
#    z -0.026470 0.000000 1.717570 
# 
# From -- ./inp_files/37142.got.cif
#   From: 2010.06.25/outbox.cif.g09.slc.cpg/sg11_19_cif.got.tgz:37142.got - 2010.06.27 23:14:04.
