data_PCOD8070864
_publ_section_title
;
Structure prediction by ZEFSAII (Michael W. Deem and Ramdas Pophale) SiO2 
 PCOD8070864
Probable space group: P 21/M
;
_chemical_formula_sum "Si O2"
_cell_formula_units_Z 32
_cell_length_a 9.353226
_cell_length_b 9.028707
_cell_length_c 22.159006
_cell_angle_alpha 90.000000
_cell_angle_beta 113.597534
_cell_angle_gamma 90.000000
_cell_volume 1714.797516
_symmetry_space_group_name_H-M "P 21/M"
_symmetry_group_IT_number 11
_symmetry_cell_setting 'monoclinic'
loop_
_space_group_symop_operation_xyz
x,y,z
-x,1/2+y,-z
-x,-y,-z
x,1/2-y,z
loop_
_atom_site_type_symbol
_atom_site_label
_atom_site_fract_x
_atom_site_fract_y
_atom_site_fract_z
Si Si1 0.773672 0.579361 0.202510
Si Si2 0.553390 0.585005 0.418597
Si Si3 0.356509 0.074194 0.291302
Si Si4 0.089096 0.577428 0.318503
Si Si5 0.644766 0.917133 0.950377
Si Si6 0.571804 0.075343 0.820030
Si Si7 0.284345 0.916185 0.923957
Si Si8 0.265039 0.586217 0.460680
O O1 0.769681 0.750000 0.182179
O O2 0.611003 0.534419 0.205792
O O3 0.807996 0.487367 0.147687
O O4 0.908885 0.545882 0.273675
O O5 0.591926 0.750000 0.401915
O O6 0.506363 0.485149 0.353611
O O7 0.413902 0.586357 0.442348
O O8 0.708004 0.521763 0.477977
O O9 0.364261 0.250000 0.290660
O O10 0.195303 0.023358 0.293965
O O11 0.358383 0.008831 0.224952
O O12 0.134203 0.750000 0.315464
O O13 0.118698 0.536061 0.394127
O O14 0.703679 0.750000 0.948399
O O15 0.466396 0.916265 0.940360
O O16 0.664670 0.015899 0.893976
O O17 0.748296 0.989958 0.020971
O O18 0.599377 0.250000 0.818409
O O19 0.222267 0.750000 0.923412
O O20 0.237417 0.750000 0.482473
#
# Coordination Sequence:
#
# PCOD8070864 Si02
#       8
#     4   4   4   4   4   4   4   4
#     4   9  18  32  51  73  97 127 160 195 237 284
#     4   9  16  27  44  66  92 121 155 196 238 278
#     4  11  21  32  48  71  98 128 161 196 236 282
#     4   9  18  33  51  72  98 127 159 195 237 284
#     4   9  16  27  44  67  94 123 158 198 236 276
#     4  10  19  32  50  72  98 127 159 196 239 284
#     4   9  16  26  43  68  96 124 156 196 237 276
#     4   8  14  25  43  67  93 119 150 192 238 280
#
# _framework density 18.661095
#
# number of rings (size 3 to 8) (size 9 to 14) (size 15 to 20)
#    0.000    2.750    0.000    3.375    0.000    7.000 
#    0.000    0.000    0.000    1.500    0.000    0.000 
#    0.000    0.000    0.000    0.000    0.000    0.000 
#
# Total GULP energy -396726.886295 kJ/mol
# GULP energy per Si atom -12397.715197 kJ/mol
# Density = 1.861862 g / cm^3
# Si number density = 18.661095 Si / 1000 Ang^3
#
#
#
# Elastic Constant Matrix: (Units=GPa)
#
#
# Indices 1 2 3 4 5 6 
#
# 1 10.6449 5.0234 -6.9823 0.0000 -0.2842 0.0000
# 2 5.0234 103.0838 6.2474 0.0000 -6.4383 0.0000
# 3 -6.9823 6.2474 23.8784 0.0000 2.0883 0.0000
# 4 0.0000 0.0000 0.0000 37.3726 0.0000 -0.8682
# 5 -0.2842 -6.4383 2.0883 0.0000 23.5886 0.0000
# 6 0.0000 0.0000 0.0000 -0.8682 0.0000 14.2582
#
#
#
# Elastic Compliance Matrix: (Units=1/GPa)
#
#
# Indices 1 2 3 4 5 6 
#
# 1 0.123261 -0.008618 0.038673 0.000000 -0.004291 0.000000
# 2 -0.008618 0.010667 -0.005600 0.000000 0.003303 0.000000
# 3 0.038673 -0.005600 0.055172 0.000000 -0.005947 0.000000
# 4 0.000000 0.000000 0.000000 0.026795 0.000000 0.001632
# 5 -0.004291 0.003303 -0.005947 0.000000 0.043770 0.000000
# 6 0.000000 0.000000 0.000000 0.001632 0.000000 0.070234
#
#
# Mechanical properties :
#
#
# Convention : Reuss Voigt Hill
#
# Bulk Modulus (GPa) = 4.20151 16.24270 10.22211
# Shear Modulus (GPa) = 13.87629 23.93178 18.90403
#
# Velocity S-wave (km/s) = 2.72985 3.58501 3.18625
# Velocity P-wave (km/s) = 3.49177 5.08520 4.36187
#
# Compressibility (1/GPa) = 0.23800946
#
# Stress axis : x y z
#
# Youngs Moduli (GPa) = 8.11284 93.75131 18.12503
#
# Poissons Ratio (x) = 0.80799 -0.70095
# Poissons Ratio (y) = 0.06992 0.10150
# Poissons Ratio (z) = -0.31375 0.52498
#
# Static dielectric constant tensor:
#      x y z
#    x 2.863250 0.000000 0.118010 
#    y 0.000000 3.584860 0.000000 
#    z 0.118010 0.000000 3.698780 
# 
# 
# High freq. dielectric constant tensor:
#      x y z
#    x 1.657390 0.000000 0.005920 
#    y 0.000000 1.732570 0.000000 
#    z 0.005920 0.000000 1.738950 
# 
# From -- ./inp_files/64219.got.cif
#   From: 2010.06.25/outbox.cif.g09.slc.cpg/sg11_33_cif.got.tgz:64219.got - 2010.06.27 23:14:04.
