data_PCOD8070549
_publ_section_title
;
Structure prediction by ZEFSAII (Michael W. Deem and Ramdas Pophale) SiO2 
 PCOD8070549
Probable space group: P 21/M
;
_chemical_formula_sum "Si O2"
_cell_formula_units_Z 32
_cell_length_a 12.352281
_cell_length_b 8.798351
_cell_length_c 23.683152
_cell_angle_alpha 90.000000
_cell_angle_beta 134.000595
_cell_angle_gamma 90.000000
_cell_volume 1851.474281
_symmetry_space_group_name_H-M "P 21/M"
_symmetry_group_IT_number 11
_symmetry_cell_setting 'monoclinic'
loop_
_space_group_symop_operation_xyz
x,y,z
-x,1/2+y,-z
-x,-y,-z
x,1/2-y,z
loop_
_atom_site_type_symbol
_atom_site_label
_atom_site_fract_x
_atom_site_fract_y
_atom_site_fract_z
Si Si1 0.845003 0.076567 0.165230
Si Si2 0.044410 0.074093 0.403518
Si Si3 0.437508 0.071991 0.420404
Si Si4 0.336723 0.076997 0.579157
Si Si5 0.394504 0.573358 0.007820
Si Si6 0.413321 0.572825 0.837191
Si Si7 0.124181 0.572347 0.314797
Si Si8 0.734781 0.573523 0.319961
O O1 0.898044 0.250000 0.191837
O O2 0.722980 0.037984 0.169302
O O3 0.775653 0.051217 0.077214
O O4 0.987565 0.967391 0.223294
O O5 0.033895 0.250000 0.381952
O O6 0.168956 0.044828 0.496159
O O7 0.084727 0.977477 0.363484
O O8 0.886514 0.022886 0.371620
O O9 0.429006 0.250000 0.426909
O O10 0.500000 0.000000 0.500000
O O11 0.545833 0.035105 0.407529
O O12 0.272559 0.010713 0.346273
O O13 0.383394 0.250000 0.582128
O O14 0.341091 0.044919 0.647139
O O15 0.434012 0.750000 0.028296
O O16 0.428757 0.489116 0.079438
O O17 0.500000 0.500000 0.000000
O O18 0.430161 0.750000 0.830557
O O19 0.384928 0.483144 0.769286
O O20 0.154421 0.750000 0.324832
O O21 0.773225 0.750000 0.324375
#
# Coordination Sequence:
#
# PCOD8070549 Si02
#       8
#     4   4   4   4   4   4   4   4
#     4   9  18  32  49  73 106 140 173 215 262 310
#     4  11  21  35  54  75 107 143 177 220 265 314
#     4  12  24  39  59  78 102 136 177 224 271 317
#     4  10  23  40  56  76 104 139 180 225 267 313
#     4   9  17  29  47  71 103 138 173 212 258 313
#     4  10  19  31  49  73 106 143 176 213 259 312
#     4  12  23  34  54  80 106 140 179 219 265 315
#     4  11  22  35  53  78 108 142 181 220 261 314
#
# _framework density 17.283525000000001
#
# number of rings (size 3 to 8) (size 9 to 14) (size 15 to 20)
#    0.000    1.500    2.500    4.875    0.000    4.000 
#    0.000    0.000    0.000    0.000    0.000    0.875 
#    0.000    0.000    0.000    0.000    0.000    0.000 
#
# Total GULP energy -396859.309710 kJ/mol
# GULP energy per Si atom -12401.853428 kJ/mol
# Density = 1.724419 g / cm^3
# Si number density = 17.283525 Si / 1000 Ang^3
#
#
#
# Elastic Constant Matrix: (Units=GPa)
#
#
# Indices 1 2 3 4 5 6 
#
# 1 60.6244 39.1818 40.7475 0.0000 -4.3617 0.0000
# 2 39.1818 106.9239 50.5565 0.0000 4.8015 0.0000
# 3 40.7475 50.5565 129.8978 0.0000 -0.7734 0.0000
# 4 0.0000 0.0000 0.0000 31.0482 0.0000 2.6950
# 5 -4.3617 4.8015 -0.7734 0.0000 14.3250 0.0000
# 6 0.0000 0.0000 0.0000 2.6950 0.0000 25.4141
#
#
#
# Elastic Compliance Matrix: (Units=1/GPa)
#
#
# Indices 1 2 3 4 5 6 
#
# 1 0.025340 -0.007353 -0.005028 0.000000 0.009909 0.000000
# 2 -0.007353 0.013839 -0.003122 0.000000 -0.007046 0.000000
# 3 -0.005028 -0.003122 0.010491 0.000000 0.000082 0.000000
# 4 0.000000 0.000000 0.000000 0.032507 0.000000 -0.003447
# 5 0.009909 -0.007046 0.000082 0.000000 0.075191 0.000000
# 6 0.000000 0.000000 0.000000 -0.003447 0.000000 0.039714
#
#
# Mechanical properties :
#
#
# Convention : Reuss Voigt Hill
#
# Bulk Modulus (GPa) = 53.57752 62.04641 57.81196
# Shear Modulus (GPa) = 21.33932 25.28817 23.31375
#
# Velocity S-wave (km/s) = 3.51759 3.82925 3.67672
# Velocity P-wave (km/s) = 6.89669 7.45171 7.17957
#
# Compressibility (1/GPa) = 0.01866454
#
# Stress axis : x y z
#
# Youngs Moduli (GPa) = 39.46373 72.25732 95.31990
#
# Poissons Ratio (x) = 0.53133 0.47926
# Poissons Ratio (y) = 0.29019 0.29756
# Poissons Ratio (z) = 0.19842 0.22556
#
# Static dielectric constant tensor:
#      x y z
#    x 2.953090 0.000000 0.102630 
#    y 0.000000 3.416840 0.000000 
#    z 0.102630 0.000000 3.636410 
# 
# 
# High freq. dielectric constant tensor:
#      x y z
#    x 1.623500 0.000000 0.005520 
#    y 0.000000 1.683630 0.000000 
#    z 0.005520 0.000000 1.678670 
# 
# From -- ./inp_files/64448.got.cif
#   From: 2010.06.25/outbox.cif.g09.slc.cpg/sg11_33_cif.got.tgz:64448.got - 2010.06.27 23:14:04.
