data_PCOD8070350
_publ_section_title
;
Structure prediction by ZEFSAII (Michael W. Deem and Ramdas Pophale) SiO2 
 PCOD8070350
Probable space group: P 21/M
;
_chemical_formula_sum "Si O2"
_cell_formula_units_Z 32
_cell_length_a 21.117115
_cell_length_b 8.974984
_cell_length_c 23.209829
_cell_angle_alpha 90.000000
_cell_angle_beta 23.926239
_cell_angle_gamma 90.000000
_cell_volume 1784.002970
_symmetry_space_group_name_H-M "P 21/M"
_symmetry_group_IT_number 11
_symmetry_cell_setting 'monoclinic'
loop_
_space_group_symop_operation_xyz
x,y,z
-x,1/2+y,-z
-x,-y,-z
x,1/2-y,z
loop_
_atom_site_type_symbol
_atom_site_label
_atom_site_fract_x
_atom_site_fract_y
_atom_site_fract_z
Si Si1 0.015345 0.573249 0.247180
Si Si2 0.674992 0.577013 0.723506
Si Si3 0.669474 0.421421 0.956495
Si Si4 0.957808 0.576279 0.168461
Si Si5 0.851185 0.074723 0.095604
Si Si6 0.341336 0.428163 0.654684
Si Si7 0.210449 0.075251 0.249149
Si Si8 0.112047 0.924924 0.539598
O O1 0.995624 0.750000 0.264915
O O2 0.979312 0.505460 0.213908
O O3 0.894296 0.501711 0.392714
O O4 0.190624 0.524082 0.118531
O O5 0.716722 0.750000 0.679864
O O6 0.753122 0.514909 0.717304
O O7 0.735182 0.482707 0.619659
O O8 0.490559 0.549222 0.877284
O O9 0.690750 0.250000 0.922596
O O10 0.667511 0.507947 0.897731
O O11 0.931642 0.750000 0.197573
O O12 0.800280 0.515591 0.268763
O O13 0.117499 0.547832 0.998787
O O14 0.842614 0.250000 0.117039
O O15 0.696780 0.992598 0.249209
O O16 0.000000 0.000000 0.000000
O O17 0.500000 0.500000 0.500000
O O18 0.356476 0.250000 0.644965
O O19 0.236529 0.250000 0.226364
O O20 0.036192 0.027712 0.376020
O O21 0.121005 0.750000 0.541412
#
# Coordination Sequence:
#
# PCOD8070350 Si02
#       8
#     4   4   4   4   4   4   4   4
#     4   9  17  34  54  69  89 123 162 198 232 277
#     4  10  19  31  46  68  94 122 155 195 241 290
#     4   9  18  30  48  71  92 115 152 197 240 282
#     4   8  16  31  53  74  93 124 165 196 227 278
#     4   9  16  29  49  74 101 129 162 200 237 281
#     4  10  19  32  50  76 106 133 160 196 242 288
#     4   9  18  31  47  66  92 122 155 193 239 291
#     4  10  20  32  46  68  94 124 159 197 239 285
#
# _framework density 17.937190000000001
#
# number of rings (size 3 to 8) (size 9 to 14) (size 15 to 20)
#    0.000    2.750    0.000    2.625    0.000    1.500 
#    0.000    5.000    0.000    4.500    0.000    0.000 
#    0.000    0.000    0.000    0.000    0.000    0.000 
#
# Total GULP energy -396663.903597 kJ/mol
# GULP energy per Si atom -12395.746987 kJ/mol
# Density = 1.789636 g / cm^3
# Si number density = 17.937190 Si / 1000 Ang^3
#
#
#
# Elastic Constant Matrix: (Units=GPa)
#
#
# Indices 1 2 3 4 5 6 
#
# 1 92.7432 26.7385 56.7108 0.0000 25.7290 0.0000
# 2 26.7385 52.5858 44.0835 0.0000 9.6458 0.0000
# 3 56.7108 44.0835 134.3549 0.0000 21.6198 0.0000
# 4 0.0000 0.0000 0.0000 32.2118 0.0000 4.1799
# 5 25.7290 9.6458 21.6198 0.0000 24.4506 0.0000
# 6 0.0000 0.0000 0.0000 4.1799 0.0000 18.4187
#
#
#
# Elastic Compliance Matrix: (Units=1/GPa)
#
#
# Indices 1 2 3 4 5 6 
#
# 1 0.018290 -0.002956 -0.004478 0.000000 -0.014121 0.000000
# 2 -0.002956 0.026925 -0.007436 0.000000 -0.000936 0.000000
# 3 -0.004478 -0.007436 0.012292 0.000000 -0.003223 0.000000
# 4 0.000000 0.000000 0.000000 0.031986 0.000000 -0.007259
# 5 -0.014121 -0.000936 -0.003223 0.000000 0.058977 0.000000
# 6 0.000000 0.000000 0.000000 -0.007259 0.000000 0.055940
#
#
# Mechanical properties :
#
#
# Convention : Reuss Voigt Hill
#
# Bulk Modulus (GPa) = 36.01421 59.41663 47.71542
# Shear Modulus (GPa) = 20.54174 25.15962 22.85068
#
# Velocity S-wave (km/s) = 3.38776 3.74926 3.57308
# Velocity P-wave (km/s) = 5.95181 7.20690 6.60921
#
# Compressibility (1/GPa) = 0.02776681
#
# Stress axis : x y z
#
# Youngs Moduli (GPa) = 54.67326 37.14005 81.35579
#
# Poissons Ratio (x) = 0.10978 0.36433
# Poissons Ratio (y) = 0.16161 0.60497
# Poissons Ratio (z) = 0.24484 0.27618
#
# Static dielectric constant tensor:
#      x y z
#    x 3.456700 0.000000 0.205520 
#    y 0.000000 3.222230 0.000000 
#    z 0.205520 0.000000 3.472740 
# 
# 
# High freq. dielectric constant tensor:
#      x y z
#    x 1.671750 0.000000 0.014990 
#    y 0.000000 1.684290 0.000000 
#    z 0.014990 0.000000 1.699620 
# 
# From -- ./inp_files/27295.got.cif
#   From: 2010.06.25/outbox.cif.g09.slc.cpg/sg11_14_cif.got.tgz:27295.got - 2010.06.27 23:14:04.
