data_PCOD8070127
_publ_section_title
;
Structure prediction by ZEFSAII (Michael W. Deem and Ramdas Pophale) SiO2 
 PCOD8070127
Probable space group: P 21/M
;
_chemical_formula_sum "Si O2"
_cell_formula_units_Z 32
_cell_length_a 14.398029
_cell_length_b 8.861902
_cell_length_c 19.415517
_cell_angle_alpha 90.000000
_cell_angle_beta 134.596674
_cell_angle_gamma 90.000000
_cell_volume 1764.004492
_symmetry_space_group_name_H-M "P 21/M"
_symmetry_group_IT_number 11
_symmetry_cell_setting 'monoclinic'
loop_
_space_group_symop_operation_xyz
x,y,z
-x,1/2+y,-z
-x,-y,-z
x,1/2-y,z
loop_
_atom_site_type_symbol
_atom_site_label
_atom_site_fract_x
_atom_site_fract_y
_atom_site_fract_z
Si Si1 0.556881 0.922268 0.698593
Si Si2 0.666954 0.923069 0.895205
Si Si3 0.621114 0.572033 0.025177
Si Si4 0.071963 0.920768 0.963453
Si Si5 0.114103 0.578515 0.822609
Si Si6 0.861157 0.418409 0.670096
Si Si7 0.180983 0.917432 0.191388
Si Si8 0.596329 0.572202 0.494468
O O1 0.530120 0.750000 0.662733
O O2 0.551422 0.942883 0.778769
O O3 0.702191 0.964206 0.750750
O O4 0.451427 0.028664 0.607063
O O5 0.713748 0.750000 0.924604
O O6 0.613263 0.977330 0.940804
O O7 0.791684 0.019262 0.933412
O O8 0.616720 0.750000 0.032212
O O9 0.500000 0.500000 0.000000
O O10 0.753754 0.509521 0.127606
O O11 0.046573 0.750000 0.974145
O O12 0.087805 0.929995 0.889838
O O13 0.945708 0.023987 0.918373
O O14 0.127382 0.750000 0.804142
O O15 0.995721 0.500625 0.719189
O O16 0.856831 0.250000 0.635859
O O17 0.857936 0.407164 0.749971
O O18 0.742356 0.514954 0.578720
O O19 0.220086 0.750000 0.184889
O O20 0.500000 0.500000 0.500000
O O21 0.591264 0.750000 0.501514
#
# Coordination Sequence:
#
# PCOD8070127 Si02
#       8
#     4   4   4   4   4   4   4   4
#     4  11  22  35  50  68  95 131 173 217 258 300
#     4   9  20  36  51  70  99 133 166 205 252 304
#     4  10  19  34  56  82 109 135 166 203 250 308
#     4   9  17  29  47  68  94 129 169 209 248 294
#     4   9  17  30  49  76 105 133 167 207 253 302
#     4  10  19  32  50  72 100 134 173 218 261 299
#     4  10  19  30  46  67  94 130 172 213 254 297
#     4  12  23  35  51  72  98 133 177 224 264 302
#
# _framework density 18.140543000000001
#
# number of rings (size 3 to 8) (size 9 to 14) (size 15 to 20)
#    0.000    2.000    1.250    3.375    0.000    6.000 
#    0.000    0.000    0.000    0.000    0.000    0.875 
#    0.000    0.000    0.000    0.000    0.000    0.000 
#
# Total GULP energy -396853.439164 kJ/mol
# GULP energy per Si atom -12401.669974 kJ/mol
# Density = 1.809925 g / cm^3
# Si number density = 18.140543 Si / 1000 Ang^3
#
#
#
# Elastic Constant Matrix: (Units=GPa)
#
#
# Indices 1 2 3 4 5 6 
#
# 1 73.4138 38.1726 35.3195 0.0000 18.0579 0.0000
# 2 38.1726 131.1013 55.9542 0.0000 12.7893 0.0000
# 3 35.3195 55.9542 131.7158 0.0000 18.8320 0.0000
# 4 0.0000 0.0000 0.0000 32.8388 0.0000 7.2164
# 5 18.0579 12.7893 18.8320 0.0000 22.9853 0.0000
# 6 0.0000 0.0000 0.0000 7.2164 0.0000 24.5468
#
#
#
# Elastic Compliance Matrix: (Units=1/GPa)
#
#
# Indices 1 2 3 4 5 6 
#
# 1 0.019305 -0.003653 -0.001979 0.000000 -0.011513 0.000000
# 2 -0.003653 0.010107 -0.003308 0.000000 -0.000044 0.000000
# 3 -0.001979 -0.003308 0.010242 0.000000 -0.004997 0.000000
# 4 0.000000 0.000000 0.000000 0.032555 0.000000 -0.009571
# 5 -0.011513 -0.000044 -0.004997 0.000000 0.056669 0.000000
# 6 0.000000 0.000000 0.000000 -0.009571 0.000000 0.043552
#
#
# Mechanical properties :
#
#
# Convention : Reuss Voigt Hill
#
# Bulk Modulus (GPa) = 45.92461 66.12483 56.02472
# Shear Modulus (GPa) = 25.30772 29.85982 27.58377
#
# Velocity S-wave (km/s) = 3.73914 4.06153 3.90367
# Velocity P-wave (km/s) = 6.63420 7.65018 7.16023
#
# Compressibility (1/GPa) = 0.02177482
#
# Stress axis : x y z
#
# Youngs Moduli (GPa) = 51.80073 98.93647 97.63468
#
# Poissons Ratio (x) = 0.36146 0.19318
# Poissons Ratio (y) = 0.18925 0.32296
# Poissons Ratio (z) = 0.10249 0.32727
#
# Static dielectric constant tensor:
#      x y z
#    x 3.012010 0.000000 0.002840 
#    y 0.000000 3.590230 0.000000 
#    z 0.002840 0.000000 3.542550 
# 
# 
# High freq. dielectric constant tensor:
#      x y z
#    x 1.653950 0.000000 0.004910 
#    y 0.000000 1.721630 0.000000 
#    z 0.004910 0.000000 1.706240 
# 
# From -- ./inp_files/51301.got.cif
#   From: 2010.06.25/outbox.cif.g09.slc.cpg/sg11_26_cif.got.tgz:51301.got - 2010.06.27 23:14:04.
