data_PCOD8070468
_publ_section_title
;
Structure prediction by ZEFSAII (Michael W. Deem and Ramdas Pophale) SiO2 
 PCOD8070468
Probable space group: P 21/M
;
_chemical_formula_sum "Si O2"
_cell_formula_units_Z 32
_cell_length_a 17.121140
_cell_length_b 9.033588
_cell_length_c 22.915383
_cell_angle_alpha 90.000000
_cell_angle_beta 148.626993
_cell_angle_gamma 90.000000
_cell_volume 1845.144822
_symmetry_space_group_name_H-M "P 21/M"
_symmetry_group_IT_number 11
_symmetry_cell_setting 'monoclinic'
loop_
_space_group_symop_operation_xyz
x,y,z
-x,1/2+y,-z
-x,-y,-z
x,1/2-y,z
loop_
_atom_site_type_symbol
_atom_site_label
_atom_site_fract_x
_atom_site_fract_y
_atom_site_fract_z
Si Si1 0.656504 0.919378 0.598596
Si Si2 0.126268 0.581124 0.614589
Si Si3 0.920530 0.577403 0.070399
Si Si4 0.645239 0.924448 0.823226
Si Si5 0.045547 0.424614 0.387401
Si Si6 0.312432 0.924762 0.629224
Si Si7 0.178271 0.081902 0.174810
Si Si8 0.925855 0.425904 0.714047
O O1 0.639732 0.750000 0.566811
O O2 0.719959 0.928340 0.703598
O O3 0.500000 0.000000 0.500000
O O4 0.761912 0.006560 0.620666
O O5 0.085019 0.750000 0.580595
O O6 0.281940 0.546510 0.679736
O O7 0.000000 0.500000 0.500000
O O8 0.105628 0.541804 0.670081
O O9 0.951137 0.750000 0.084809
O O10 0.024244 0.504983 0.086874
O O11 0.961855 0.524051 0.162073
O O12 0.747659 0.537257 0.945290
O O13 0.627312 0.750000 0.804883
O O14 0.478366 0.991127 0.723591
O O15 0.726761 0.989329 0.817711
O O16 0.069399 0.250000 0.392383
O O17 0.194697 0.489965 0.513104
O O18 0.010265 0.505628 0.304433
O O19 0.301420 0.750000 0.607724
O O20 0.134714 0.250000 0.131933
O O21 0.913281 0.250000 0.700550
#
# Coordination Sequence:
#
# PCOD8070468 Si02
#       8
#     4   4   4   4   4   4   4   4
#     4  10  20  32  46  67  98 131 159 194 239 283
#     4   8  15  28  46  69  96 125 154 186 232 287
#     4   9  18  33  50  68  91 122 162 203 236 272
#     4   9  17  30  50  73  95 120 155 199 238 278
#     4  10  19  31  48  72 100 125 156 198 237 285
#     4   9  17  30  50  74  99 127 154 187 239 295
#     4   9  18  31  47  68  93 124 159 194 234 280
#     4  10  20  33  49  68  91 125 167 201 235 281
#
# _framework density 17.342813
#
# number of rings (size 3 to 8) (size 9 to 14) (size 15 to 20)
#    0.000    2.750    0.000    1.500    1.750    1.500 
#    0.000    1.250    0.000    0.750    0.000    0.000 
#    0.000    0.000    0.000    0.000    0.000    1.000 
#
# Total GULP energy -396498.714951 kJ/mol
# GULP energy per Si atom -12390.584842 kJ/mol
# Density = 1.730334 g / cm^3
# Si number density = 17.342813 Si / 1000 Ang^3
#
#
#
# Elastic Constant Matrix: (Units=GPa)
#
#
# Indices 1 2 3 4 5 6 
#
# 1 137.2523 35.5489 43.4714 0.0000 -6.9151 0.0000
# 2 35.5489 52.9557 18.6621 0.0000 -3.0158 0.0000
# 3 43.4714 18.6621 56.2928 0.0000 4.0183 0.0000
# 4 0.0000 0.0000 0.0000 16.7906 0.0000 0.2113
# 5 -6.9151 -3.0158 4.0183 0.0000 18.8530 0.0000
# 6 0.0000 0.0000 0.0000 0.2113 0.0000 23.9373
#
#
#
# Elastic Compliance Matrix: (Units=1/GPa)
#
#
# Indices 1 2 3 4 5 6 
#
# 1 0.011043 -0.004536 -0.007373 0.000000 0.004896 0.000000
# 2 -0.004536 0.023721 -0.004583 0.000000 0.003108 0.000000
# 3 -0.007373 -0.004583 0.025613 0.000000 -0.008897 0.000000
# 4 0.000000 0.000000 0.000000 0.059564 0.000000 -0.000526
# 5 0.004896 0.003108 -0.008897 0.000000 0.057231 0.000000
# 6 0.000000 0.000000 0.000000 -0.000526 0.000000 0.041780
#
#
# Mechanical properties :
#
#
# Convention : Reuss Voigt Hill
#
# Bulk Modulus (GPa) = 36.50734 49.09618 42.80176
# Shear Modulus (GPa) = 19.15225 21.83741 20.49483
#
# Velocity S-wave (km/s) = 3.32676 3.55232 3.44139
# Velocity P-wave (km/s) = 5.98770 6.72279 6.36587
#
# Compressibility (1/GPa) = 0.02739176
#
# Stress axis : x y z
#
# Youngs Moduli (GPa) = 90.55814 42.15759 39.04316
#
# Poissons Ratio (x) = 0.19121 0.28788
# Poissons Ratio (y) = 0.41073 0.17894
# Poissons Ratio (z) = 0.66772 0.19321
#
# Static dielectric constant tensor:
#      x y z
#    x 3.604070 0.000000 0.608790 
#    y 0.000000 3.197540 0.000000 
#    z 0.608790 0.000000 2.925410 
# 
# 
# High freq. dielectric constant tensor:
#      x y z
#    x 1.678120 0.000000 -0.004450 
#    y 0.000000 1.663200 0.000000 
#    z -0.004450 0.000000 1.646010 
# 
# From -- ./inp_files/64196.got.cif
#   From: 2010.06.25/outbox.cif.g09.slc.cpg/sg11_33_cif.got.tgz:64196.got - 2010.06.27 23:14:04.
