data_PCOD8070588
_publ_section_title
;
Structure prediction by ZEFSAII (Michael W. Deem and Ramdas Pophale) SiO2 
 PCOD8070588
Probable space group: P 21/M
;
_chemical_formula_sum "Si O2"
_cell_formula_units_Z 28
_cell_length_a 28.788592
_cell_length_b 8.889734
_cell_length_c 9.563323
_cell_angle_alpha 90.000000
_cell_angle_beta 141.788871
_cell_angle_gamma 90.000000
_cell_volume 1513.911780
_symmetry_space_group_name_H-M "P 21/M"
_symmetry_group_IT_number 11
_symmetry_cell_setting 'monoclinic'
loop_
_space_group_symop_operation_xyz
x,y,z
-x,1/2+y,-z
-x,-y,-z
x,1/2-y,z
loop_
_atom_site_type_symbol
_atom_site_label
_atom_site_fract_x
_atom_site_fract_y
_atom_site_fract_z
Si Si1 0.183347 0.575233 0.252319
Si Si2 0.254815 0.424093 0.912595
Si Si3 0.420286 0.075582 0.827255
Si Si4 0.939949 0.923316 0.182084
Si Si5 0.693489 0.073208 0.237545
Si Si6 0.294231 0.421509 0.315780
Si Si7 0.104778 0.923750 0.638888
O O1 0.163952 0.750000 0.203312
O O2 0.229052 0.530874 0.499681
O O3 0.232900 0.533548 0.234193
O O4 0.105221 0.481786 0.061492
O O5 0.253228 0.250000 0.867063
O O6 0.301121 0.515635 0.907260
O O7 0.169441 0.481139 0.718082
O O8 0.298908 0.451803 0.161746
O O9 0.431495 0.250000 0.885194
O O10 0.375054 0.047422 0.576127
O O11 0.376817 0.004824 0.855145
O O12 0.500000 0.000000 0.000000
O O13 0.921298 0.750000 0.169152
O O14 0.028738 0.946402 0.368408
O O15 0.910094 0.021639 0.239915
O O16 0.679214 0.250000 0.206579
O O17 0.268411 0.250000 0.285053
O O18 0.129021 0.750000 0.700317
#
# Coordination Sequence:
#
# PCOD8070588 Si02
#       7
#     4   4   4   4   4   4   4
#     4  10  19  32  53  78 104 139 185 229 271 320
#     4  11  21  35  55  81 110 144 182 223 273 326
#     4  10  20  38  62  87 113 141 175 218 264 319
#     4  10  19  31  49  75 106 140 183 230 276 320
#     4  10  22  38  56  81 112 145 180 222 270 323
#     4   9  19  34  55  81 109 140 178 221 266 318
#     4  10  20  32  49  75 107 143 181 228 276 319
#
# _framework density 18.495132999999999
#
# number of rings (size 3 to 8) (size 9 to 14) (size 15 to 20)
#    0.000    2.000    1.429    2.571    0.000    4.571 
#    0.000    1.429    0.000    0.000    0.000    0.000 
#    0.000    0.000    0.000    0.000    0.000    0.000 
#
# Total GULP energy -347250.005457 kJ/mol
# GULP energy per Si atom -12401.785909 kJ/mol
# Density = 1.845304 g / cm^3
# Si number density = 18.495133 Si / 1000 Ang^3
#
#
#
# Elastic Constant Matrix: (Units=GPa)
#
#
# Indices 1 2 3 4 5 6 
#
# 1 90.5702 31.8537 47.4015 0.0000 -0.2976 0.0000
# 2 31.8537 74.6463 41.5776 0.0000 3.9718 0.0000
# 3 47.4015 41.5776 97.1375 0.0000 9.6689 0.0000
# 4 0.0000 0.0000 0.0000 30.9717 0.0000 2.8066
# 5 -0.2976 3.9718 9.6689 0.0000 27.7207 0.0000
# 6 0.0000 0.0000 0.0000 2.8066 0.0000 32.6617
#
#
#
# Elastic Compliance Matrix: (Units=1/GPa)
#
#
# Indices 1 2 3 4 5 6 
#
# 1 0.015586 -0.003162 -0.006541 0.000000 0.002902 0.000000
# 2 -0.003162 0.018232 -0.006213 0.000000 -0.000479 0.000000
# 3 -0.006541 -0.006213 0.016642 0.000000 -0.004985 0.000000
# 4 0.000000 0.000000 0.000000 0.032541 0.000000 -0.002796
# 5 0.002902 -0.000479 -0.004985 0.000000 0.037913 0.000000
# 6 0.000000 0.000000 0.000000 -0.002796 0.000000 0.030857
#
#
# Mechanical properties :
#
#
# Convention : Reuss Voigt Hill
#
# Bulk Modulus (GPa) = 53.68341 56.00219 54.84280
# Shear Modulus (GPa) = 26.34166 27.70556 27.02361
#
# Velocity S-wave (km/s) = 3.77802 3.87459 3.82661
# Velocity P-wave (km/s) = 6.93685 7.09660 7.01718
#
# Compressibility (1/GPa) = 0.01862773
#
# Stress axis : x y z
#
# Youngs Moduli (GPa) = 64.15895 54.84856 60.08792
#
# Poissons Ratio (x) = 0.17344 0.39305
# Poissons Ratio (y) = 0.20288 0.37333
# Poissons Ratio (z) = 0.41968 0.34078
#
# Static dielectric constant tensor:
#      x y z
#    x 2.805440 0.000000 0.069360 
#    y 0.000000 3.538820 0.000000 
#    z 0.069360 0.000000 3.615330 
# 
# 
# High freq. dielectric constant tensor:
#      x y z
#    x 1.685540 0.000000 0.002860 
#    y 0.000000 1.733670 0.000000 
#    z 0.002860 0.000000 1.721990 
# 
# From -- ./inp_files/28371.got.cif
#   From: 2010.06.25/outbox.cif.g09.slc.cpg/sg11_15_cif.got.tgz:28371.got - 2010.06.27 23:14:04.
