data_PCOD8070937
_publ_section_title
;
Structure prediction by ZEFSAII (Michael W. Deem and Ramdas Pophale) SiO2 
 PCOD8070937
Probable space group: P 21/M
;
_chemical_formula_sum "Si O2"
_cell_formula_units_Z 28
_cell_length_a 11.251659
_cell_length_b 10.280208
_cell_length_c 13.282206
_cell_angle_alpha 90.000000
_cell_angle_beta 109.220239
_cell_angle_gamma 90.000000
_cell_volume 1450.709096
_symmetry_space_group_name_H-M "P 21/M"
_symmetry_group_IT_number 11
_symmetry_cell_setting 'monoclinic'
loop_
_space_group_symop_operation_xyz
x,y,z
-x,1/2+y,-z
-x,-y,-z
x,1/2-y,z
loop_
_atom_site_type_symbol
_atom_site_label
_atom_site_fract_x
_atom_site_fract_y
_atom_site_fract_z
Si Si1 0.397443 0.603620 0.442437
Si Si2 0.795163 0.896306 0.261797
Si Si3 0.466148 0.108108 0.911487
Si Si4 0.311603 0.894858 0.627551
Si Si5 0.585505 0.993399 0.759613
Si Si6 0.158929 0.394953 0.104883
Si Si7 0.976907 0.898691 0.136569
O O1 0.500000 0.500000 0.500000
O O2 0.454039 0.750000 0.456672
O O3 0.291196 0.594816 0.500434
O O4 0.350258 0.567126 0.317629
O O5 0.801013 0.750000 0.309448
O O6 0.679521 0.908544 0.153782
O O7 0.918073 0.926479 0.229820
O O8 0.780957 0.000265 0.347640
O O9 0.492079 0.250000 0.966337
O O10 0.548435 0.098690 0.833179
O O11 0.500000 0.000000 0.000000
O O12 0.274308 0.750000 0.654330
O O13 0.459370 0.915208 0.694331
O O14 0.690933 0.899563 0.836459
O O15 0.112390 0.250000 0.121635
O O16 0.091733 0.501897 0.155879
O O17 0.127494 0.423219 0.979224
O O18 0.026705 0.750000 0.144739
#
# Coordination Sequence:
#
# PCOD8070937 Si02
#       7
#     4   4   4   4   4   4   4
#     4   9  18  32  50  73 102 132 164 202 246 296
#     4   9  18  33  50  68  95 131 164 196 241 296
#     4  10  20  31  46  70 100 131 162 197 240 291
#     4   9  18  31  50  77 102 126 158 200 246 291
#     4  10  19  32  51  74 102 133 165 199 245 298
#     4  10  20  34  52  74 100 131 169 211 249 289
#     4   9  19  35  52  71  98 133 170 207 248 293
#
# _framework density 19.300905
#
# number of rings (size 3 to 8) (size 9 to 14) (size 15 to 20)
#    0.000    2.571    0.000    1.714    0.000    9.714 
#    0.000    2.857    0.000    0.857    0.000    0.000 
#    0.000    0.000    0.000    0.000    0.000    0.000 
#
# Total GULP energy -346996.572823 kJ/mol
# GULP energy per Si atom -12392.734744 kJ/mol
# Density = 1.925698 g / cm^3
# Si number density = 19.300905 Si / 1000 Ang^3
#
#
#
# Elastic Constant Matrix: (Units=GPa)
#
#
# Indices 1 2 3 4 5 6 
#
# 1 63.6683 31.7658 14.3422 0.0000 -17.5439 0.0000
# 2 31.7658 133.2242 29.0179 0.0000 -26.0382 0.0000
# 3 14.3422 29.0179 56.4435 0.0000 -20.4181 0.0000
# 4 0.0000 0.0000 0.0000 22.7752 0.0000 -10.5356
# 5 -17.5439 -26.0382 -20.4181 0.0000 27.2676 0.0000
# 6 0.0000 0.0000 0.0000 -10.5356 0.0000 24.5079
#
#
#
# Elastic Compliance Matrix: (Units=1/GPa)
#
#
# Indices 1 2 3 4 5 6 
#
# 1 0.019881 -0.002759 0.000056 0.000000 0.010198 0.000000
# 2 -0.002759 0.009803 -0.002187 0.000000 0.005948 0.000000
# 3 0.000056 -0.002187 0.024803 0.000000 0.016520 0.000000
# 4 0.000000 0.000000 0.000000 0.054806 0.000000 0.023560
# 5 0.010198 0.005948 0.016520 0.000000 0.061286 0.000000
# 6 0.000000 0.000000 0.000000 0.023560 0.000000 0.050931
#
#
# Mechanical properties :
#
#
# Convention : Reuss Voigt Hill
#
# Bulk Modulus (GPa) = 22.36818 44.84309 33.60564
# Shear Modulus (GPa) = 20.30933 26.79080 23.55007
#
# Velocity S-wave (km/s) = 3.24736 3.72971 3.49686
# Velocity P-wave (km/s) = 5.06703 6.46775 5.80976
#
# Compressibility (1/GPa) = 0.04470635
#
# Stress axis : x y z
#
# Youngs Moduli (GPa) = 50.30021 102.01018 40.31761
#
# Poissons Ratio (x) = 0.28148 -0.00226
# Poissons Ratio (y) = 0.13879 0.08817
# Poissons Ratio (z) = -0.00282 0.22309
#
# Static dielectric constant tensor:
#      x y z
#    x 3.391630 0.000000 -0.355220 
#    y 0.000000 3.645510 0.000000 
#    z -0.355220 0.000000 3.665720 
# 
# 
# High freq. dielectric constant tensor:
#      x y z
#    x 1.723340 0.000000 -0.025310 
#    y 0.000000 1.762120 0.000000 
#    z -0.025310 0.000000 1.736610 
# 
# From -- ./inp_files/49030.got.cif
#   From: 2010.06.25/outbox.cif.g09.slc.cpg/sg11_25_cif.got.tgz:49030.got - 2010.06.27 23:14:04.
