data_PCOD8070581
_publ_section_title
;
Structure prediction by ZEFSAII (Michael W. Deem and Ramdas Pophale) SiO2 
 PCOD8070581
Probable space group: P 21/M
;
_chemical_formula_sum "Si O2"
_cell_formula_units_Z 28
_cell_length_a 9.587091
_cell_length_b 8.978922
_cell_length_c 30.032404
_cell_angle_alpha 90.000000
_cell_angle_beta 142.801063
_cell_angle_gamma 90.000000
_cell_volume 1562.996616
_symmetry_space_group_name_H-M "P 21/M"
_symmetry_group_IT_number 11
_symmetry_cell_setting 'monoclinic'
loop_
_space_group_symop_operation_xyz
x,y,z
-x,1/2+y,-z
-x,-y,-z
x,1/2-y,z
loop_
_atom_site_type_symbol
_atom_site_label
_atom_site_fract_x
_atom_site_fract_y
_atom_site_fract_z
Si Si1 0.124011 0.575870 0.714620
Si Si2 0.360782 0.579611 0.002007
Si Si3 0.931692 0.576302 0.437126
Si Si4 0.745029 0.574730 0.161028
Si Si5 0.560715 0.423177 0.287609
Si Si6 0.253561 0.924564 0.436368
Si Si7 0.965163 0.575660 0.842525
O O1 0.069947 0.750000 0.704094
O O2 0.206143 0.516433 0.782540
O O3 0.326335 0.540271 0.731160
O O4 0.890111 0.493154 0.640951
O O5 0.416151 0.750000 0.008487
O O6 0.475826 0.536681 0.078922
O O7 0.500000 0.500000 0.000000
O O8 0.089957 0.546858 0.922840
O O9 0.904368 0.750000 0.438503
O O10 0.686429 0.513520 0.358587
O O11 0.000000 0.500000 0.500000
O O12 0.127348 0.539626 0.450651
O O13 0.782113 0.750000 0.178978
O O14 0.918788 0.521424 0.166640
O O15 0.582812 0.250000 0.304941
O O16 0.297093 0.476408 0.218530
O O17 0.280913 0.750000 0.435133
O O18 0.500000 0.000000 0.500000
O O19 0.981358 0.750000 0.833730
#
# Coordination Sequence:
#
# PCOD8070581 Si02
#       7
#     4   4   4   4   4   4   4
#     4  10  20  35  53  73 100 135 169 204 248 297
#     4   8  15  28  47  70  98 130 164 204 250 293
#     4  10  21  36  55  77 102 131 164 201 245 295
#     4  10  19  31  49  75 103 132 168 209 250 296
#     4   9  19  35  54  74  99 131 167 205 248 295
#     4  10  21  37  56  78 102 131 166 205 248 295
#     4   9  17  32  53  75  99 130 168 210 251 295
#
# _framework density 17.914306
#
# number of rings (size 3 to 8) (size 9 to 14) (size 15 to 20)
#    0.000    2.571    0.000    1.714    0.000    4.571 
#    0.000    2.143    0.000    0.000    0.000    0.000 
#    0.000    0.000    0.000    0.000    0.000    0.000 
#
# Total GULP energy -347018.743972 kJ/mol
# GULP energy per Si atom -12393.526570 kJ/mol
# Density = 1.787353 g / cm^3
# Si number density = 17.914306 Si / 1000 Ang^3
#
#
#
# Elastic Constant Matrix: (Units=GPa)
#
#
# Indices 1 2 3 4 5 6 
#
# 1 61.0154 35.8344 74.8942 0.0000 4.4424 0.0000
# 2 35.8344 71.4996 67.5893 0.0000 -0.7618 0.0000
# 3 74.8942 67.5893 192.7565 0.0000 3.6689 0.0000
# 4 0.0000 0.0000 0.0000 30.8070 0.0000 -0.8512
# 5 4.4424 -0.7618 3.6689 0.0000 33.1380 0.0000
# 6 0.0000 0.0000 0.0000 -0.8512 0.0000 24.1730
#
#
#
# Elastic Compliance Matrix: (Units=1/GPa)
#
#
# Indices 1 2 3 4 5 6 
#
# 1 0.033735 -0.006907 -0.010619 0.000000 -0.003506 0.000000
# 2 -0.006907 0.022390 -0.005206 0.000000 0.002017 0.000000
# 3 -0.010619 -0.005206 0.011138 0.000000 0.000071 0.000000
# 4 0.000000 0.000000 0.000000 0.032492 0.000000 0.001144
# 5 -0.003506 0.002017 0.000071 0.000000 0.030685 0.000000
# 6 0.000000 0.000000 0.000000 0.001144 0.000000 0.041409
#
#
# Mechanical properties :
#
#
# Convention : Reuss Voigt Hill
#
# Bulk Modulus (GPa) = 45.87092 75.76746 60.81919
# Shear Modulus (GPa) = 22.26380 27.42050 24.84215
#
# Velocity S-wave (km/s) = 3.52915 3.91659 3.72791
# Velocity P-wave (km/s) = 6.50138 7.92712 7.24938
#
# Compressibility (1/GPa) = 0.02180031
#
# Stress axis : x y z
#
# Youngs Moduli (GPa) = 29.64242 44.66217 89.78274
#
# Poissons Ratio (x) = 0.30846 0.95342
# Poissons Ratio (y) = 0.20473 0.46741
# Poissons Ratio (z) = 0.31478 0.23251
#
# Static dielectric constant tensor:
#      x y z
#    x 3.090020 0.000000 0.107570 
#    y 0.000000 3.383470 0.000000 
#    z 0.107570 0.000000 3.956520 
# 
# 
# High freq. dielectric constant tensor:
#      x y z
#    x 1.663340 0.000000 0.002320 
#    y 0.000000 1.703530 0.000000 
#    z 0.002320 0.000000 1.716120 
# 
# From -- ./inp_files/28999.got.cif
#   From: 2010.06.25/outbox.cif.g09.slc.cpg/sg11_15_cif.got.tgz:28999.got - 2010.06.27 23:14:04.
