data_PCOD8070004
_publ_section_title
;
Structure prediction by ZEFSAII (Michael W. Deem and Ramdas Pophale) SiO2 
 PCOD8070004
Probable space group: P 21/M
;
_chemical_formula_sum "Si O2"
_cell_formula_units_Z 28
_cell_length_a 21.695620
_cell_length_b 9.183588
_cell_length_c 19.020042
_cell_angle_alpha 90.000000
_cell_angle_beta 152.260929
_cell_angle_gamma 90.000000
_cell_volume 1763.863423
_symmetry_space_group_name_H-M "P 21/M"
_symmetry_group_IT_number 11
_symmetry_cell_setting 'monoclinic'
loop_
_space_group_symop_operation_xyz
x,y,z
-x,1/2+y,-z
-x,-y,-z
x,1/2-y,z
loop_
_atom_site_type_symbol
_atom_site_label
_atom_site_fract_x
_atom_site_fract_y
_atom_site_fract_z
Si Si1 0.640225 0.588169 0.217214
Si Si2 0.827660 0.418588 0.644256
Si Si3 0.671228 0.410539 0.119475
Si Si4 0.956639 0.914702 0.887854
Si Si5 0.591303 0.080737 0.304045
Si Si6 0.679450 0.077864 0.972355
Si Si7 0.068682 0.585920 0.858434
O O1 0.697515 0.750000 0.287860
O O2 0.486458 0.596114 0.044348
O O3 0.662437 0.491198 0.308660
O O4 0.716974 0.518168 0.227927
O O5 0.857945 0.250000 0.688023
O O6 0.832417 0.503634 0.724261
O O7 0.685178 0.442438 0.465835
O O8 0.943662 0.484308 0.710428
O O9 0.727143 0.250000 0.193265
O O10 0.724149 0.464276 0.096925
O O11 0.915367 0.750000 0.866239
O O12 0.077791 0.914426 0.953322
O O13 0.000000 0.000000 0.000000
O O14 0.568306 0.250000 0.263925
O O15 0.452560 0.006529 0.183184
O O16 0.649550 0.250000 0.937355
O O17 0.795227 0.026047 0.036885
O O18 0.042953 0.750000 0.804530
#
# Coordination Sequence:
#
# PCOD8070004 Si02
#       7
#     4   4   4   4   4   4   4
#     4   9  16  25  39  59  85 118 154 191 229 270
#     4   9  18  31  47  69  95 122 152 187 224 267
#     4   8  14  24  39  59  85 115 148 189 231 270
#     4   9  17  30  51  74  95 118 150 187 221 263
#     4  10  19  29  44  68  95 122 153 191 231 269
#     4   9  17  30  47  68  93 121 153 189 232 277
#     4   8  17  31  48  70  93 120 151 186 227 270
#
# _framework density 15.874245999999999
#
# number of rings (size 3 to 8) (size 9 to 14) (size 15 to 20)
#    0.857    2.286    0.000    2.143    0.000    6.286 
#    0.000    0.000    0.000    1.714    0.000    0.000 
#    0.000    0.000    0.000    0.000    0.000    0.000 
#
# Total GULP energy -346903.999382 kJ/mol
# GULP energy per Si atom -12389.428549 kJ/mol
# Density = 1.583812 g / cm^3
# Si number density = 15.874246 Si / 1000 Ang^3
#
#
#
# Elastic Constant Matrix: (Units=GPa)
#
#
# Indices 1 2 3 4 5 6 
#
# 1 50.3627 13.9115 4.2663 0.0000 4.0437 0.0000
# 2 13.9115 88.3159 22.3269 0.0000 1.0199 0.0000
# 3 4.2663 22.3269 32.5652 0.0000 1.1711 0.0000
# 4 0.0000 0.0000 0.0000 23.6592 0.0000 -4.4834
# 5 4.0437 1.0199 1.1711 0.0000 16.1410 0.0000
# 6 0.0000 0.0000 0.0000 -4.4834 0.0000 22.0615
#
#
#
# Elastic Compliance Matrix: (Units=1/GPa)
#
#
# Indices 1 2 3 4 5 6 
#
# 1 0.021175 -0.003171 -0.000417 0.000000 -0.005074 0.000000
# 2 -0.003171 0.014173 -0.009322 0.000000 0.000575 0.000000
# 3 -0.000417 -0.009322 0.037226 0.000000 -0.002007 0.000000
# 4 0.000000 0.000000 0.000000 0.043960 0.000000 0.008934
# 5 -0.005074 0.000575 -0.002007 0.000000 0.063334 0.000000
# 6 0.000000 0.000000 0.000000 0.008934 0.000000 0.047143
#
#
# Mechanical properties :
#
#
# Convention : Reuss Voigt Hill
#
# Bulk Modulus (GPa) = 21.38962 28.02814 24.70888
# Shear Modulus (GPa) = 18.62783 21.08829 19.85806
#
# Velocity S-wave (km/s) = 3.42930 3.64876 3.54073
# Velocity P-wave (km/s) = 5.40220 5.95365 5.68462
#
# Compressibility (1/GPa) = 0.04675164
#
# Stress axis : x y z
#
# Youngs Moduli (GPa) = 47.22606 70.55882 26.86316
#
# Poissons Ratio (x) = 0.22377 0.01121
# Poissons Ratio (y) = 0.14977 0.25042
# Poissons Ratio (z) = 0.01971 0.65775
#
# Static dielectric constant tensor:
#      x y z
#    x 2.966450 0.000000 -0.116280 
#    y 0.000000 3.215060 0.000000 
#    z -0.116280 0.000000 2.620640 
# 
# 
# High freq. dielectric constant tensor:
#      x y z
#    x 1.591870 0.000000 -0.016570 
#    y 0.000000 1.623940 0.000000 
#    z -0.016570 0.000000 1.568340 
# 
# From -- ./inp_files/61278.got.cif
#   From: 2010.06.25/outbox.cif.g09.slc.cpg/sg11_31_cif.got.tgz:61278.got - 2010.06.27 23:14:04.
