data_PCOD8070079
_publ_section_title
;
Structure prediction by ZEFSAII (Michael W. Deem and Ramdas Pophale) SiO2 
 PCOD8070079
Probable space group: P 21/M
;
_chemical_formula_sum "Si O2"
_cell_formula_units_Z 32
_cell_length_a 26.494999
_cell_length_b 9.183645
_cell_length_c 18.438173
_cell_angle_alpha 90.000000
_cell_angle_beta 28.478596
_cell_angle_gamma 90.000000
_cell_volume 2139.246553
_symmetry_space_group_name_H-M "P 21/M"
_symmetry_group_IT_number 11
_symmetry_cell_setting 'monoclinic'
loop_
_space_group_symop_operation_xyz
x,y,z
-x,1/2+y,-z
-x,-y,-z
x,1/2-y,z
loop_
_atom_site_type_symbol
_atom_site_label
_atom_site_fract_x
_atom_site_fract_y
_atom_site_fract_z
Si Si1 0.918519 0.090119 0.009281
Si Si2 0.837432 0.079677 0.696237
Si Si3 0.577361 0.918233 0.807167
Si Si4 0.992843 0.923201 0.252626
Si Si5 0.152616 0.089308 0.776733
Si Si6 0.773350 0.923195 0.465971
Si Si7 0.965692 0.920180 0.652704
Si Si8 0.630664 0.581585 0.905258
O O1 0.868435 0.250000 0.069500
O O2 0.932610 0.031577 0.909508
O O3 0.032007 0.096046 0.903703
O O4 0.837277 0.996353 0.160255
O O5 0.823631 0.250000 0.730023
O O6 0.920142 0.051793 0.527156
O O7 0.875358 0.999860 0.720842
O O8 0.727020 0.011684 0.812792
O O9 0.546481 0.750000 0.832775
O O10 0.664589 0.974802 0.639843
O O11 0.626630 0.938099 0.824226
O O12 0.475674 0.019117 0.924130
O O13 0.996626 0.750000 0.262173
O O14 0.872972 0.976720 0.387953
O O15 0.036624 0.010552 0.265263
O O16 0.196206 0.250000 0.737980
O O17 0.219828 0.016536 0.625611
O O18 0.781289 0.750000 0.451911
O O19 0.938748 0.750000 0.690901
O O20 0.643839 0.750000 0.910506
#
# Coordination Sequence:
#
# PCOD8070079 Si02
#       8
#     4   4   4   4   4   4   4   4
#     4   8  14  23  35  53  78 108 138 166 200 242
#     4  10  20  33  47  61  81 110 139 168 207 251
#     4   9  17  29  44  61  83 111 141 172 208 249
#     4   9  16  27  42  59  83 114 143 170 204 246
#     4   8  13  22  36  53  75 105 140 172 200 235
#     4   8  14  25  41  59  80 111 146 174 203 243
#     4  10  20  31  44  64  85 105 136 175 208 241
#     4  10  19  30  45  63  83 108 139 175 210 243
#
# _framework density 14.958537
#
# number of rings (size 3 to 8) (size 9 to 14) (size 15 to 20)
#    0.000    3.000    0.000    3.375    0.000    3.500 
#    0.000    3.125    0.000    0.000    0.000    0.000 
#    0.000    1.000    0.000    3.000    0.000    4.625 
#
# Total GULP energy -396644.083359 kJ/mol
# GULP energy per Si atom -12395.127605 kJ/mol
# Density = 1.492449 g / cm^3
# Si number density = 14.958537 Si / 1000 Ang^3
#
#
#
# Elastic Constant Matrix: (Units=GPa)
#
#
# Indices 1 2 3 4 5 6 
#
# 1 84.4518 48.4627 46.9212 0.0000 12.7614 0.0000
# 2 48.4627 74.2584 40.2445 0.0000 6.5376 0.0000
# 3 46.9212 40.2445 86.0411 0.0000 13.5472 0.0000
# 4 0.0000 0.0000 0.0000 21.0953 0.0000 1.6817
# 5 12.7614 6.5376 13.5472 0.0000 25.3604 0.0000
# 6 0.0000 0.0000 0.0000 1.6817 0.0000 25.8658
#
#
#
# Elastic Compliance Matrix: (Units=1/GPa)
#
#
# Indices 1 2 3 4 5 6 
#
# 1 0.022231 -0.010616 -0.006363 0.000000 -0.005051 0.000000
# 2 -0.010616 0.023109 -0.005375 0.000000 0.002256 0.000000
# 3 -0.006363 -0.005375 0.018435 0.000000 -0.005260 0.000000
# 4 0.000000 0.000000 0.000000 0.047651 0.000000 -0.003098
# 5 -0.005051 0.002256 -0.005260 0.000000 0.044202 0.000000
# 6 0.000000 0.000000 0.000000 -0.003098 0.000000 0.038863
#
#
# Mechanical properties :
#
#
# Convention : Reuss Voigt Hill
#
# Bulk Modulus (GPa) = 52.44444 57.33423 54.88933
# Shear Modulus (GPa) = 20.36223 21.73916 21.05070
#
# Velocity S-wave (km/s) = 3.69351 3.81635 3.75543
# Velocity P-wave (km/s) = 7.30242 7.60469 7.45509
#
# Compressibility (1/GPa) = 0.01906780
#
# Stress axis : x y z
#
# Youngs Moduli (GPa) = 44.98155 43.27350 54.24606
#
# Poissons Ratio (x) = 0.45937 0.34516
# Poissons Ratio (y) = 0.47751 0.29157
# Poissons Ratio (z) = 0.28621 0.23259
#
# Static dielectric constant tensor:
#      x y z
#    x 2.757510 0.000000 0.265310 
#    y 0.000000 2.950600 0.000000 
#    z 0.265310 0.000000 2.905740 
# 
# 
# High freq. dielectric constant tensor:
#      x y z
#    x 1.550120 0.000000 0.023250 
#    y 0.000000 1.570250 0.000000 
#    z 0.023250 0.000000 1.553860 
# 
# From -- ./inp_files/61751.got.cif
#   From: 2010.06.25/outbox.cif.g09.slc.cpg/sg11_31_cif.got.tgz:61751.got - 2010.06.27 23:14:04.
