data_PCOD8070382
_publ_section_title
;
Structure prediction by ZEFSAII (Michael W. Deem and Ramdas Pophale) SiO2 
 PCOD8070382
Probable space group: P 21/M
;
_chemical_formula_sum "Si O2"
_cell_formula_units_Z 24
_cell_length_a 20.458442
_cell_length_b 9.049519
_cell_length_c 11.427644
_cell_angle_alpha 90.000000
_cell_angle_beta 46.622424
_cell_angle_gamma 90.000000
_cell_volume 1537.785213
_symmetry_space_group_name_H-M "P 21/M"
_symmetry_group_IT_number 11
_symmetry_cell_setting 'monoclinic'
loop_
_space_group_symop_operation_xyz
x,y,z
-x,1/2+y,-z
-x,-y,-z
x,1/2-y,z
loop_
_atom_site_type_symbol
_atom_site_label
_atom_site_fract_x
_atom_site_fract_y
_atom_site_fract_z
Si Si1 0.449101 0.920674 0.391028
Si Si2 0.572017 0.575270 0.827783
Si Si3 0.755899 0.082811 0.980626
Si Si4 0.725627 0.417112 0.760950
Si Si5 0.633076 0.919413 0.298983
Si Si6 0.092233 0.580822 0.367500
O O1 0.427695 0.750000 0.389872
O O2 0.548912 0.941557 0.317262
O O3 0.441106 0.018794 0.286396
O O4 0.377410 0.980785 0.573118
O O5 0.559298 0.750000 0.847879
O O6 0.671855 0.533360 0.748672
O O7 0.500000 0.500000 0.000000
O O8 0.748746 0.250000 0.038053
O O9 0.696374 0.070363 0.934157
O O10 0.859774 0.044205 0.817071
O O11 0.721964 0.970251 0.120544
O O12 0.706356 0.250000 0.740216
O O13 0.833352 0.452733 0.622009
O O14 0.644146 0.750000 0.323812
O O15 0.066066 0.750000 0.402919
O O16 0.000000 0.500000 0.500000
#
# Coordination Sequence:
#
# PCOD8070382 Si02
#       6
#     4   4   4   4   4   4
#     4  10  21  34  48  65  91 126 162 198 239 279
#     4  12  23  33  47  68  95 128 164 199 236 282
#     4   8  16  29  46  67  94 125 153 189 236 280
#     4   8  17  32  47  67  96 127 159 193 234 282
#     4  10  19  31  47  69  91 120 162 202 237 277
#     4   8  16  29  47  72  99 126 156 195 242 287
#
# _framework density 15.606862
#
# number of rings (size 3 to 8) (size 9 to 14) (size 15 to 20)
#    1.000    1.667    0.000    3.500    0.000    6.667 
#    0.000    0.000    0.000    0.000    0.000    1.167 
#    0.000    0.000    0.000    0.000    0.000    0.000 
#
# Total GULP energy -297349.552312 kJ/mol
# GULP energy per Si atom -12389.564680 kJ/mol
# Density = 1.557134 g / cm^3
# Si number density = 15.606862 Si / 1000 Ang^3
#
#
#
# Elastic Constant Matrix: (Units=GPa)
#
#
# Indices 1 2 3 4 5 6 
#
# 1 54.2864 45.5045 45.1021 0.0000 -0.4286 0.0000
# 2 45.5045 115.6916 60.4670 0.0000 -3.2095 0.0000
# 3 45.1021 60.4670 98.0387 0.0000 -5.6045 0.0000
# 4 0.0000 0.0000 0.0000 32.4112 0.0000 -0.0229
# 5 -0.4286 -3.2095 -5.6045 0.0000 19.8984 0.0000
# 6 0.0000 0.0000 0.0000 -0.0229 0.0000 25.6754
#
#
#
# Elastic Compliance Matrix: (Units=1/GPa)
#
#
# Indices 1 2 3 4 5 6 
#
# 1 0.034103 -0.007682 -0.011159 0.000000 -0.003648 0.000000
# 2 -0.007682 0.014487 -0.005363 0.000000 0.000661 0.000000
# 3 -0.011159 -0.005363 0.018882 0.000000 0.004213 0.000000
# 4 0.000000 0.000000 0.000000 0.030854 0.000000 0.000028
# 5 -0.003648 0.000661 0.004213 0.000000 0.051470 0.000000
# 6 0.000000 0.000000 0.000000 0.000028 0.000000 0.038948
#
#
# Mechanical properties :
#
#
# Convention : Reuss Voigt Hill
#
# Bulk Modulus (GPa) = 52.45767 63.35155 57.90461
# Shear Modulus (GPa) = 20.53340 23.39320 21.96330
#
# Velocity S-wave (km/s) = 3.63114 3.87577 3.75545
# Velocity P-wave (km/s) = 7.15997 7.79160 7.48245
#
# Compressibility (1/GPa) = 0.01906299
#
# Stress axis : x y z
#
# Youngs Moduli (GPa) = 29.32314 69.02935 52.95990
#
# Poissons Ratio (x) = 0.53030 0.59099
# Poissons Ratio (y) = 0.22527 0.28402
# Poissons Ratio (z) = 0.32722 0.37020
#
# Static dielectric constant tensor:
#      x y z
#    x 2.764760 0.000000 0.050360 
#    y 0.000000 3.003210 0.000000 
#    z 0.050360 0.000000 2.893350 
# 
# 
# High freq. dielectric constant tensor:
#      x y z
#    x 1.564760 0.000000 0.001690 
#    y 0.000000 1.608450 0.000000 
#    z 0.001690 0.000000 1.588940 
# 
# From -- ./inp_files/42267.got.cif
#   From: 2010.06.25/outbox.cif.g09.slc.cpg/sg11_22_cif.got.tgz:42267.got - 2010.06.27 23:14:04.
