data_PCOD8070742
_publ_section_title
;
Structure prediction by ZEFSAII (Michael W. Deem and Ramdas Pophale) SiO2 
 PCOD8070742
Probable space group: P 21/M
;
_chemical_formula_sum "Si O2"
_cell_formula_units_Z 32
_cell_length_a 21.650390
_cell_length_b 8.789246
_cell_length_c 28.114965
_cell_angle_alpha 90.000000
_cell_angle_beta 18.931204
_cell_angle_gamma 90.000000
_cell_volume 1735.718950
_symmetry_space_group_name_H-M "P 21/M"
_symmetry_group_IT_number 11
_symmetry_cell_setting 'monoclinic'
loop_
_space_group_symop_operation_xyz
x,y,z
-x,1/2+y,-z
-x,-y,-z
x,1/2-y,z
loop_
_atom_site_type_symbol
_atom_site_label
_atom_site_fract_x
_atom_site_fract_y
_atom_site_fract_z
Si Si1 0.434195 0.429900 0.097308
Si Si2 0.906871 0.926809 0.917055
Si Si3 0.386707 0.075064 0.946178
Si Si4 0.195007 0.925678 0.843460
Si Si5 0.956238 0.429707 0.582751
Si Si6 0.688458 0.072881 0.343050
Si Si7 0.621219 0.074769 0.193589
Si Si8 0.679917 0.074378 0.648684
O O1 0.416510 0.250000 0.105377
O O2 0.588861 0.470184 0.025366
O O3 0.232913 0.500732 0.257564
O O4 0.500000 0.500000 0.000000
O O5 0.864014 0.750000 0.959671
O O6 0.132402 0.961159 0.752438
O O7 0.812226 0.968201 0.935033
O O8 0.813663 0.025142 0.026741
O O9 0.386298 0.250000 0.962970
O O10 0.560709 0.044063 0.783459
O O11 0.149184 0.750000 0.868896
O O12 0.270892 0.996441 0.738844
O O13 0.353228 0.951111 0.768814
O O14 0.000000 0.000000 0.000000
O O15 0.931077 0.250000 0.596263
O O16 0.131630 0.471448 0.489241
O O17 0.000000 0.500000 0.500000
O O18 0.649425 0.250000 0.367505
O O19 0.500000 0.000000 0.500000
O O20 0.580146 0.250000 0.211207
O O21 0.443814 0.972803 0.306709
O O22 0.738075 0.250000 0.601898
#
# Coordination Sequence:
#
# PCOD8070742 Si02
#       8
#     4   4   4   4   4   4   4   4
#     4  12  25  41  61  86 119 157 196 241 293 349
#     4   9  18  34  56  79 110 148 188 233 283 340
#     4   9  18  34  57  83 112 147 191 238 285 343
#     4  10  20  34  55  81 111 145 186 236 285 338
#     4  12  23  38  61  89 119 152 193 240 289 345
#     4  10  21  37  55  80 113 150 190 234 284 339
#     4  10  19  31  52  84 115 145 186 238 292 342
#     4  10  20  35  57  85 118 154 191 237 290 341
#
# _framework density 18.436163000000001
#
# number of rings (size 3 to 8) (size 9 to 14) (size 15 to 20)
#    0.000    1.750    2.500    3.750    0.000    3.500 
#    0.000    1.250    0.000    3.000    0.000    0.000 
#    0.000    0.000    0.000    0.000    0.000    0.000 
#
# Total GULP energy -396837.718160 kJ/mol
# GULP energy per Si atom -12401.178692 kJ/mol
# Density = 1.839420 g / cm^3
# Si number density = 18.436163 Si / 1000 Ang^3
#
#
#
# Elastic Constant Matrix: (Units=GPa)
#
#
# Indices 1 2 3 4 5 6 
#
# 1 129.1432 56.2905 74.2264 0.0000 -3.3203 0.0000
# 2 56.2905 102.5559 49.3882 0.0000 0.4634 0.0000
# 3 74.2264 49.3882 127.8537 0.0000 -3.1066 0.0000
# 4 0.0000 0.0000 0.0000 32.1241 0.0000 -2.9136
# 5 -3.3203 0.4634 -3.1066 0.0000 28.2775 0.0000
# 6 0.0000 0.0000 0.0000 -2.9136 0.0000 30.3566
#
#
#
# Elastic Compliance Matrix: (Units=1/GPa)
#
#
# Indices 1 2 3 4 5 6 
#
# 1 0.013027 -0.004329 -0.005868 0.000000 0.000956 0.000000
# 2 -0.004329 0.013432 -0.002700 0.000000 -0.001025 0.000000
# 3 -0.005868 -0.002700 0.012288 0.000000 0.000705 0.000000
# 4 0.000000 0.000000 0.000000 0.031403 0.000000 0.003014
# 5 0.000956 -0.001025 0.000705 0.000000 0.035570 0.000000
# 6 0.000000 0.000000 0.000000 0.003014 0.000000 0.033231
#
#
# Mechanical properties :
#
#
# Convention : Reuss Voigt Hill
#
# Bulk Modulus (GPa) = 77.19873 79.92923 78.56398
# Shear Modulus (GPa) = 29.57478 30.12815 29.85146
#
# Velocity S-wave (km/s) = 4.00956 4.04689 4.02827
# Velocity P-wave (km/s) = 7.96240 8.07992 8.02138
#
# Compressibility (1/GPa) = 0.01295358
#
# Stress axis : x y z
#
# Youngs Moduli (GPa) = 76.76178 74.44985 81.37935
#
# Poissons Ratio (x) = 0.32229 0.47750
# Poissons Ratio (y) = 0.33230 0.21974
# Poissons Ratio (z) = 0.45041 0.20103
#
# Static dielectric constant tensor:
#      x y z
#    x 4.046480 0.000000 -0.139540 
#    y 0.000000 3.473440 0.000000 
#    z -0.139540 0.000000 3.438900 
# 
# 
# High freq. dielectric constant tensor:
#      x y z
#    x 1.723560 0.000000 -0.020760 
#    y 0.000000 1.718850 0.000000 
#    z -0.020760 0.000000 1.694600 
# 
# From -- ./inp_files/72048.got.cif
#   From: 2010.06.25/outbox.cif.g09.slc.cpg/sg11_37_cif.got.tgz:72048.got - 2010.06.27 23:14:04.
