data_PCOD8070639
_publ_section_title
;
Structure prediction by ZEFSAII (Michael W. Deem and Ramdas Pophale) SiO2 
 PCOD8070639
Probable space group: P 21/M
;
_chemical_formula_sum "Si O2"
_cell_formula_units_Z 32
_cell_length_a 14.872347
_cell_length_b 8.694889
_cell_length_c 23.187146
_cell_angle_alpha 90.000000
_cell_angle_beta 140.226562
_cell_angle_gamma 90.000000
_cell_volume 1918.242421
_symmetry_space_group_name_H-M "P 21/M"
_symmetry_group_IT_number 11
_symmetry_cell_setting 'monoclinic'
loop_
_space_group_symop_operation_xyz
x,y,z
-x,1/2+y,-z
-x,-y,-z
x,1/2-y,z
loop_
_atom_site_type_symbol
_atom_site_label
_atom_site_fract_x
_atom_site_fract_y
_atom_site_fract_z
Si Si1 0.220111 0.427349 0.628691
Si Si2 0.222123 0.572331 0.417631
Si Si3 0.965862 0.569578 0.896504
Si Si4 0.489467 0.069686 0.609300
Si Si5 0.231100 0.430393 0.301745
Si Si6 0.942626 0.073196 0.552561
Si Si7 0.496343 0.570487 0.737869
Si Si8 0.202935 0.429799 0.076253
O O1 0.263569 0.250000 0.651295
O O2 0.155687 0.464877 0.534374
O O3 0.359411 0.528510 0.708142
O O4 0.106390 0.467102 0.622301
O O5 0.232275 0.750000 0.404274
O O6 0.367309 0.525114 0.518475
O O7 0.188318 0.468217 0.345843
O O8 0.093602 0.544822 0.398634
O O9 0.978073 0.750000 0.905775
O O10 0.899014 0.518287 0.802819
O O11 0.865089 0.506769 0.897881
O O12 0.123038 0.502438 0.981846
O O13 0.460136 0.250000 0.588016
O O14 0.633060 0.027444 0.648315
O O15 0.496456 0.026853 0.679605
O O16 0.264008 0.250000 0.310471
O O17 0.912535 0.250000 0.519750
O O18 0.498390 0.750000 0.722551
O O19 0.632664 0.525629 0.842937
O O20 0.182279 0.250000 0.061782
#
# Coordination Sequence:
#
# PCOD8070639 Si02
#       8
#     4   4   4   4   4   4   4   4
#     4  10  19  31  50  75  98 127 167 204 245 297
#     4  11  22  36  52  71  98 135 172 207 247 289
#     4   9  18  33  50  70  96 128 162 202 246 287
#     4  12  23  34  49  72  99 134 175 209 238 286
#     4  11  22  37  52  70 100 135 169 207 247 290
#     4   9  19  34  50  69  99 132 163 206 251 289
#     4  11  20  33  50  73 104 136 162 199 252 297
#     4   9  18  32  50  71  97 128 161 198 245 297
#
# _framework density 16.681936
#
# number of rings (size 3 to 8) (size 9 to 14) (size 15 to 20)
#    0.000    1.750    2.500    3.000    0.000    3.000 
#    0.000    0.000    0.000    0.000    0.000    0.875 
#    0.000    0.000    0.000    0.000    0.000    0.000 
#
# Total GULP energy -396838.694259 kJ/mol
# GULP energy per Si atom -12401.209196 kJ/mol
# Density = 1.664397 g / cm^3
# Si number density = 16.681936 Si / 1000 Ang^3
#
#
#
# Elastic Constant Matrix: (Units=GPa)
#
#
# Indices 1 2 3 4 5 6 
#
# 1 89.0755 21.4566 54.8690 0.0000 12.1036 0.0000
# 2 21.4566 39.4100 13.5273 0.0000 4.3487 0.0000
# 3 54.8690 13.5273 86.6364 0.0000 7.6618 0.0000
# 4 0.0000 0.0000 0.0000 27.5568 0.0000 1.4994
# 5 12.1036 4.3487 7.6618 0.0000 21.9957 0.0000
# 6 0.0000 0.0000 0.0000 1.4994 0.0000 23.4729
#
#
#
# Elastic Compliance Matrix: (Units=1/GPa)
#
#
# Indices 1 2 3 4 5 6 
#
# 1 0.020804 -0.006675 -0.011595 0.000000 -0.006089 0.000000
# 2 -0.006675 0.029292 -0.000164 0.000000 -0.002061 0.000000
# 3 -0.011595 -0.000164 0.018927 0.000000 -0.000180 0.000000
# 4 0.000000 0.000000 0.000000 0.036415 0.000000 -0.002326
# 5 -0.006089 -0.002061 -0.000180 0.000000 0.049284 0.000000
# 6 0.000000 0.000000 0.000000 -0.002326 0.000000 0.042751
#
#
# Mechanical properties :
#
#
# Convention : Reuss Voigt Hill
#
# Bulk Modulus (GPa) = 31.09852 43.86974 37.48413
# Shear Modulus (GPa) = 20.40313 22.95634 21.67973
#
# Velocity S-wave (km/s) = 3.50103 3.71363 3.60890
# Velocity P-wave (km/s) = 5.91823 6.68902 6.31539
#
# Compressibility (1/GPa) = 0.03215587
#
# Stress axis : x y z
#
# Youngs Moduli (GPa) = 48.06771 34.13892 52.83337
#
# Poissons Ratio (x) = 0.22787 0.61260
# Poissons Ratio (y) = 0.32084 0.00867
# Poissons Ratio (z) = 0.55734 0.00560
#
# Static dielectric constant tensor:
#      x y z
#    x 3.188760 0.000000 0.143120 
#    y 0.000000 3.173830 0.000000 
#    z 0.143120 0.000000 3.155460 
# 
# 
# High freq. dielectric constant tensor:
#      x y z
#    x 1.624820 0.000000 0.014000 
#    y 0.000000 1.651980 0.000000 
#    z 0.014000 0.000000 1.626200 
# 
# From -- ./inp_files/51251.got.cif
#   From: 2010.06.25/outbox.cif.g09.slc.cpg/sg11_26_cif.got.tgz:51251.got - 2010.06.27 23:14:04.
