data_PCOD8070248
_publ_section_title
;
Structure prediction by ZEFSAII (Michael W. Deem and Ramdas Pophale) SiO2 
 PCOD8070248
Probable space group: P 21/M
;
_chemical_formula_sum "Si O2"
_cell_formula_units_Z 32
_cell_length_a 27.137930
_cell_length_b 8.624736
_cell_length_c 21.103454
_cell_angle_alpha 90.000000
_cell_angle_beta 19.638014
_cell_angle_gamma 90.000000
_cell_volume 1660.023533
_symmetry_space_group_name_H-M "P 21/M"
_symmetry_group_IT_number 11
_symmetry_cell_setting 'monoclinic'
loop_
_space_group_symop_operation_xyz
x,y,z
-x,1/2+y,-z
-x,-y,-z
x,1/2-y,z
loop_
_atom_site_type_symbol
_atom_site_label
_atom_site_fract_x
_atom_site_fract_y
_atom_site_fract_z
Si Si1 0.295576 0.434573 0.908147
Si Si2 0.286665 0.931889 0.277621
Si Si3 0.488998 0.933361 0.244913
Si Si4 0.345348 0.933708 0.709183
Si Si5 0.460013 0.931223 0.948033
Si Si6 0.062960 0.065685 0.988221
Si Si7 0.162173 0.565647 0.632866
Si Si8 0.021823 0.932486 0.675703
O O1 0.297960 0.250000 0.894970
O O2 0.424084 0.493128 0.798727
O O3 0.310805 0.514162 0.822126
O O4 0.144867 0.492604 0.124332
O O5 0.315264 0.750000 0.253443
O O6 0.116411 0.976289 0.498281
O O7 0.385899 0.019044 0.208668
O O8 0.328642 0.980819 0.155281
O O9 0.489544 0.750000 0.243554
O O10 0.324706 0.001615 0.448767
O O11 0.568632 0.987567 0.084248
O O12 0.349655 0.750000 0.699792
O O13 0.500000 0.000000 0.500000
O O14 0.222299 0.996229 0.810096
O O15 0.460984 0.750000 0.935125
O O16 0.075579 0.250000 0.970208
O O17 0.949119 0.007944 0.179023
O O18 0.000000 0.000000 0.000000
O O19 0.170067 0.750000 0.622144
O O20 0.105077 0.497056 0.635702
O O21 0.016428 0.750000 0.690839
#
# Coordination Sequence:
#
# PCOD8070248 Si02
#       8
#     4   4   4   4   4   4   4   4
#     4  10  21  38  61  85 111 146 192 238 282 344
#     4   9  17  31  53  76 106 147 187 228 284 341
#     4  10  20  35  56  81 111 150 187 227 282 343
#     4  12  26  44  64  87 119 159 197 240 295 355
#     4  10  19  30  48  79 112 142 183 237 284 330
#     4  11  23  41  63  92 123 154 195 243 294 349
#     4   9  17  32  57  82 108 144 187 232 275 334
#     4   9  15  31  57  81 104 141 188 231 277 335
#
# _framework density 19.276834999999998
#
# number of rings (size 3 to 8) (size 9 to 14) (size 15 to 20)
#    0.000    2.000    2.500    1.875    1.750    1.000 
#    0.000    3.750    0.000    0.000    0.000    0.000 
#    0.000    0.000    0.000    0.000    0.000    0.000 
#
# Total GULP energy -396715.254303 kJ/mol
# GULP energy per Si atom -12397.351697 kJ/mol
# Density = 1.923296 g / cm^3
# Si number density = 19.276835 Si / 1000 Ang^3
#
#
#
# Elastic Constant Matrix: (Units=GPa)
#
#
# Indices 1 2 3 4 5 6 
#
# 1 107.1487 30.3972 57.9170 0.0000 -11.8906 0.0000
# 2 30.3972 45.1518 33.5863 0.0000 -4.8596 0.0000
# 3 57.9170 33.5863 160.7351 0.0000 -3.4456 0.0000
# 4 0.0000 0.0000 0.0000 22.4480 0.0000 4.8842
# 5 -11.8906 -4.8596 -3.4456 0.0000 33.3197 0.0000
# 6 0.0000 0.0000 0.0000 4.8842 0.0000 28.1479
#
#
#
# Elastic Compliance Matrix: (Units=1/GPa)
#
#
# Indices 1 2 3 4 5 6 
#
# 1 0.013295 -0.005997 -0.003462 0.000000 0.003512 0.000000
# 2 -0.005997 0.029288 -0.003922 0.000000 0.001726 0.000000
# 3 -0.003462 -0.003922 0.008268 0.000000 -0.000953 0.000000
# 4 0.000000 0.000000 0.000000 0.046295 0.000000 -0.008033
# 5 0.003512 0.001726 -0.000953 0.000000 0.031419 0.000000
# 6 0.000000 0.000000 0.000000 -0.008033 0.000000 0.036920
#
#
# Mechanical properties :
#
#
# Convention : Reuss Voigt Hill
#
# Bulk Modulus (GPa) = 41.51347 61.87073 51.69210
# Shear Modulus (GPa) = 24.96525 29.52547 27.24536
#
# Velocity S-wave (km/s) = 3.60264 3.91788 3.76356
# Velocity P-wave (km/s) = 6.23599 7.25479 6.76460
#
# Compressibility (1/GPa) = 0.02408857
#
# Stress axis : x y z
#
# Youngs Moduli (GPa) = 75.21412 34.14360 120.94815
#
# Poissons Ratio (x) = 0.20477 0.41875
# Poissons Ratio (y) = 0.45109 0.47434
# Poissons Ratio (z) = 0.26041 0.13391
#
# Static dielectric constant tensor:
#      x y z
#    x 3.562390 0.000000 0.023340 
#    y 0.000000 3.302780 0.000000 
#    z 0.023340 0.000000 3.974720 
# 
# 
# High freq. dielectric constant tensor:
#      x y z
#    x 1.743460 0.000000 0.009480 
#    y 0.000000 1.723340 0.000000 
#    z 0.009480 0.000000 1.765880 
# 
# From -- ./inp_files/66931.got.cif
#   From: 2010.06.25/outbox.cif.g09.slc.cpg/sg11_34_cif.got.tgz:66931.got - 2010.06.27 23:14:04.
