data_PCOD8070598
_publ_section_title
;
Structure prediction by ZEFSAII (Michael W. Deem and Ramdas Pophale) SiO2 
 PCOD8070598
Probable space group: P 21/M
;
_chemical_formula_sum "Si O2"
_cell_formula_units_Z 28
_cell_length_a 14.187903
_cell_length_b 8.894143
_cell_length_c 17.446336
_cell_angle_alpha 90.000000
_cell_angle_beta 135.891779
_cell_angle_gamma 90.000000
_cell_volume 1532.306582
_symmetry_space_group_name_H-M "P 21/M"
_symmetry_group_IT_number 11
_symmetry_cell_setting 'monoclinic'
loop_
_space_group_symop_operation_xyz
x,y,z
-x,1/2+y,-z
-x,-y,-z
x,1/2-y,z
loop_
_atom_site_type_symbol
_atom_site_label
_atom_site_fract_x
_atom_site_fract_y
_atom_site_fract_z
Si Si1 0.331378 0.428309 0.172232
Si Si2 0.800928 0.925449 0.592484
Si Si3 0.081787 0.072537 0.731121
Si Si4 0.367213 0.572923 0.628051
Si Si5 0.875394 0.927270 0.073120
Si Si6 0.845910 0.574857 0.791421
Si Si7 0.864645 0.073147 0.388406
O O1 0.331052 0.250000 0.174144
O O2 0.485303 0.486543 0.260018
O O3 0.255603 0.490224 0.203731
O O4 0.253672 0.485390 0.050576
O O5 0.825757 0.750000 0.590904
O O6 0.779705 0.957829 0.670008
O O7 0.669398 0.985154 0.471278
O O8 0.927334 0.018781 0.633870
O O9 0.086107 0.250000 0.721066
O O10 0.143328 0.023434 0.849237
O O11 0.168031 0.991817 0.715141
O O12 0.367534 0.750000 0.611001
O O13 0.262687 0.529721 0.633680
O O14 0.891739 0.750000 0.077106
O O15 0.010077 0.995657 0.115234
O O16 0.872265 0.750000 0.819096
O O17 0.886542 0.250000 0.396718
O O18 0.000000 0.000000 0.500000
#
# Coordination Sequence:
#
# PCOD8070598 Si02
#       7
#     4   4   4   4   4   4   4
#     4   9  18  35  54  73 102 139 173 207 250 303
#     4  10  19  31  49  76 106 133 165 210 259 301
#     4  10  19  32  52  78 103 130 168 211 257 302
#     4  10  21  35  52  73 101 137 173 206 251 312
#     4   9  18  33  55  78 101 133 173 212 249 297
#     4   9  18  32  53  78 103 133 170 211 255 299
#     4  11  21  33  53  78 102 132 170 213 256 303
#
# _framework density 18.273105000000001
#
# number of rings (size 3 to 8) (size 9 to 14) (size 15 to 20)
#    0.000    2.286    1.429    1.714    0.000    2.286 
#    0.000    2.143    0.000    0.000    0.000    0.000 
#    0.000    0.000    0.000    0.000    0.000    0.000 
#
# Total GULP energy -347217.395484 kJ/mol
# GULP energy per Si atom -12400.621267 kJ/mol
# Density = 1.823152 g / cm^3
# Si number density = 18.273105 Si / 1000 Ang^3
#
#
#
# Elastic Constant Matrix: (Units=GPa)
#
#
# Indices 1 2 3 4 5 6 
#
# 1 110.0954 32.6555 82.6727 0.0000 -4.0892 0.0000
# 2 32.6555 42.3530 34.7292 0.0000 -0.9566 0.0000
# 3 82.6727 34.7292 162.5758 0.0000 2.3365 0.0000
# 4 0.0000 0.0000 0.0000 21.6199 0.0000 -1.8224
# 5 -4.0892 -0.9566 2.3365 0.0000 26.8858 0.0000
# 6 0.0000 0.0000 0.0000 -1.8224 0.0000 23.5162
#
#
#
# Elastic Compliance Matrix: (Units=1/GPa)
#
#
# Indices 1 2 3 4 5 6 
#
# 1 0.016445 -0.006940 -0.006921 0.000000 0.002856 0.000000
# 2 -0.006940 0.031619 -0.003230 0.000000 0.000350 0.000000
# 3 -0.006921 -0.003230 0.010390 0.000000 -0.002071 0.000000
# 4 0.000000 0.000000 0.000000 0.046558 0.000000 0.003608
# 5 0.002856 0.000350 -0.002071 0.000000 0.037821 0.000000
# 6 0.000000 0.000000 0.000000 0.003608 0.000000 0.042804
#
#
# Mechanical properties :
#
#
# Convention : Reuss Voigt Hill
#
# Bulk Modulus (GPa) = 41.20079 68.34877 54.77478
# Shear Modulus (GPa) = 21.93865 25.40216 23.67041
#
# Velocity S-wave (km/s) = 3.46872 3.73250 3.60303
# Velocity P-wave (km/s) = 6.21602 7.48737 6.88112
#
# Compressibility (1/GPa) = 0.02427138
#
# Stress axis : x y z
#
# Youngs Moduli (GPa) = 60.81051 31.62696 96.24423
#
# Poissons Ratio (x) = 0.21948 0.66610
# Poissons Ratio (y) = 0.42200 0.31091
# Poissons Ratio (z) = 0.42087 0.10217
#
# Static dielectric constant tensor:
#      x y z
#    x 3.520270 0.000000 -0.197180 
#    y 0.000000 3.238470 0.000000 
#    z -0.197180 0.000000 3.609520 
# 
# 
# High freq. dielectric constant tensor:
#      x y z
#    x 1.703640 0.000000 -0.018260 
#    y 0.000000 1.696640 0.000000 
#    z -0.018260 0.000000 1.708250 
# 
# From -- ./inp_files/53210.got.cif
#   From: 2010.06.25/outbox.cif.g09.slc.cpg/sg11_27_cif.got.tgz:53210.got - 2010.06.27 23:14:04.
