data_PCOD8070990
_publ_section_title
;
Structure prediction by ZEFSAII (Michael W. Deem and Ramdas Pophale) SiO2 
 PCOD8070990
Probable space group: P 21/M
;
_chemical_formula_sum "Si O2"
_cell_formula_units_Z 32
_cell_length_a 24.088490
_cell_length_b 9.399231
_cell_length_c 22.787081
_cell_angle_alpha 90.000000
_cell_angle_beta 19.638181
_cell_angle_gamma 90.000000
_cell_volume 1733.933023
_symmetry_space_group_name_H-M "P 21/M"
_symmetry_group_IT_number 11
_symmetry_cell_setting 'monoclinic'
loop_
_space_group_symop_operation_xyz
x,y,z
-x,1/2+y,-z
-x,-y,-z
x,1/2-y,z
loop_
_atom_site_type_symbol
_atom_site_label
_atom_site_fract_x
_atom_site_fract_y
_atom_site_fract_z
Si Si1 0.927986 0.581421 0.392517
Si Si2 0.353398 0.096020 0.662422
Si Si3 0.157491 0.080832 0.973100
Si Si4 0.945192 0.412915 0.610494
Si Si5 0.558751 0.087097 0.996867
Si Si6 0.559396 0.918556 0.761325
Si Si7 0.758828 0.079751 0.995718
Si Si8 0.947466 0.590097 0.108419
O O1 0.937337 0.750000 0.384180
O O2 0.742898 0.530231 0.556947
O O3 0.961243 0.525824 0.425393
O O4 0.074508 0.527957 0.203875
O O5 0.423066 0.250000 0.609973
O O6 0.260222 0.038835 0.812856
O O7 0.247256 0.105864 0.708209
O O8 0.500000 0.000000 0.500000
O O9 0.131180 0.250000 0.007714
O O10 0.246888 0.009287 0.938900
O O11 0.984339 0.998169 0.131899
O O12 0.994388 0.250000 0.550050
O O13 0.752354 0.429123 0.814564
O O14 0.000000 0.500000 0.500000
O O15 0.508944 0.250000 0.035392
O O16 0.468668 0.025710 0.144480
O O17 0.500000 0.000000 0.000000
O O18 0.551949 0.750000 0.769982
O O19 0.408518 0.970964 0.870661
O O20 0.760259 0.250000 0.004966
O O21 0.026877 0.750000 0.031457
O O22 0.000000 0.500000 0.000000
#
# Coordination Sequence:
#
# PCOD8070990 Si02
#       8
#     4   4   4   4   4   4   4   4
#     4   9  17  32  54  77 103 135 177 227 275 328
#     4   9  19  34  54  81 113 144 177 217 264 314
#     4  10  21  37  55  79 111 147 181 219 269 321
#     4  10  19  32  51  77 107 138 176 225 275 331
#     4  10  19  32  51  77 107 138 176 223 276 333
#     4   9  17  32  54  77 103 137 177 225 279 326
#     4  10  19  35  57  78 103 141 187 228 269 324
#     4   9  17  32  54  80 107 139 177 216 258 308
#
# _framework density 18.455154
#
# number of rings (size 3 to 8) (size 9 to 14) (size 15 to 20)
#    0.000    2.500    1.250    2.250    0.000    4.500 
#    2.250    1.250    0.000    1.500    0.000    0.000 
#    0.000    0.000    0.000    0.000    0.000    0.000 
#
# Total GULP energy -396455.588498 kJ/mol
# GULP energy per Si atom -12389.237141 kJ/mol
# Density = 1.841315 g / cm^3
# Si number density = 18.455154 Si / 1000 Ang^3
#
#
#
# Elastic Constant Matrix: (Units=GPa)
#
#
# Indices 1 2 3 4 5 6 
#
# 1 137.0568 47.6330 52.5529 0.0000 -17.6844 0.0000
# 2 47.6330 71.3293 30.2726 0.0000 -8.2578 0.0000
# 3 52.5529 30.2726 105.6480 0.0000 -12.9977 0.0000
# 4 0.0000 0.0000 0.0000 21.2515 0.0000 -0.2177
# 5 -17.6844 -8.2578 -12.9977 0.0000 22.7341 0.0000
# 6 0.0000 0.0000 0.0000 -0.2177 0.0000 32.2583
#
#
#
# Elastic Compliance Matrix: (Units=1/GPa)
#
#
# Indices 1 2 3 4 5 6 
#
# 1 0.011086 -0.005422 -0.003380 0.000000 0.004722 0.000000
# 2 -0.005422 0.018864 -0.002565 0.000000 0.001168 0.000000
# 3 -0.003380 -0.002565 0.012309 0.000000 0.003477 0.000000
# 4 0.000000 0.000000 0.000000 0.047059 0.000000 0.000318
# 5 0.004722 0.001168 0.003477 0.000000 0.050072 0.000000
# 6 0.000000 0.000000 0.000000 0.000318 0.000000 0.031002
#
#
# Mechanical properties :
#
#
# Convention : Reuss Voigt Hill
#
# Bulk Modulus (GPa) = 51.21342 63.88347 57.54844
# Shear Modulus (GPa) = 25.04597 27.48715 26.26656
#
# Velocity S-wave (km/s) = 3.68792 3.86346 3.77671
# Velocity P-wave (km/s) = 6.77825 7.38867 7.09004
#
# Compressibility (1/GPa) = 0.01952613
#
# Stress axis : x y z
#
# Youngs Moduli (GPa) = 90.20522 53.01156 81.23945
#
# Poissons Ratio (x) = 0.28742 0.27459
# Poissons Ratio (y) = 0.48908 0.20834
# Poissons Ratio (z) = 0.30489 0.13595
#
# Static dielectric constant tensor:
#      x y z
#    x 3.635250 0.000000 -0.228450 
#    y 0.000000 3.224510 0.000000 
#    z -0.228450 0.000000 3.592590 
# 
# 
# High freq. dielectric constant tensor:
#      x y z
#    x 1.717750 0.000000 -0.014920 
#    y 0.000000 1.690450 0.000000 
#    z -0.014920 0.000000 1.711370 
# 
# From -- ./inp_files/69947.got.cif
#   From: 2010.06.25/outbox.cif.g09.slc.cpg/sg11_35_cif.got.tgz:69947.got - 2010.06.27 23:14:04.
