data_PCOD8070982
_publ_section_title
;
Structure prediction by ZEFSAII (Michael W. Deem and Ramdas Pophale) SiO2 
 PCOD8070982
Probable space group: P 21/M
;
_chemical_formula_sum "Si O2"
_cell_formula_units_Z 32
_cell_length_a 26.125971
_cell_length_b 8.716674
_cell_length_c 13.280189
_cell_angle_alpha 90.000000
_cell_angle_beta 32.546357
_cell_angle_gamma 90.000000
_cell_volume 1627.028230
_symmetry_space_group_name_H-M "P 21/M"
_symmetry_group_IT_number 11
_symmetry_cell_setting 'monoclinic'
loop_
_space_group_symop_operation_xyz
x,y,z
-x,1/2+y,-z
-x,-y,-z
x,1/2-y,z
loop_
_atom_site_type_symbol
_atom_site_label
_atom_site_fract_x
_atom_site_fract_y
_atom_site_fract_z
Si Si1 0.365668 0.431303 0.998873
Si Si2 0.095805 0.571124 0.137486
Si Si3 0.470453 0.067972 0.157569
Si Si4 0.747701 0.573380 0.454558
Si Si5 0.225210 0.579108 0.390313
Si Si6 0.765261 0.430781 0.931327
Si Si7 0.081519 0.568853 0.936697
Si Si8 0.926450 0.080735 0.515198
O O1 0.359214 0.250000 0.023651
O O2 0.301704 0.519821 0.184674
O O3 0.330587 0.479088 0.943953
O O4 0.471628 0.490351 0.846727
O O5 0.086454 0.750000 0.140276
O O6 0.201257 0.532041 0.009215
O O7 0.020157 0.521423 0.348205
O O8 0.076899 0.499152 0.058438
O O9 0.485802 0.250000 0.128367
O O10 0.362553 0.025295 0.365189
O O11 0.500000 0.000000 0.000000
O O12 0.762977 0.750000 0.400948
O O13 0.784638 0.543499 0.505345
O O14 0.811703 0.470880 0.275042
O O15 0.256212 0.750000 0.376200
O O16 0.121348 0.588682 0.515013
O O17 0.747893 0.250000 0.943155
O O18 0.851091 0.490750 0.717912
O O19 0.067426 0.750000 0.958514
O O20 0.000000 0.500000 0.000000
O O21 0.957311 0.250000 0.500022
#
# Coordination Sequence:
#
# PCOD8070982 Si02
#       8
#     4   4   4   4   4   4   4   4
#     4  11  21  33  52  82 115 147 182 222 277 342
#     4  10  21  36  55  77 104 143 190 237 283 335
#     4  11  22  36  57  85 118 152 188 232 287 345
#     4  11  23  37  56  83 113 149 193 237 284 341
#     4  10  19  32  51  76 111 151 186 225 276 333
#     4   9  19  36  54  76 109 146 185 231 285 340
#     4  11  24  41  60  83 113 153 197 241 287 335
#     4   9  18  30  49  78 108 141 179 224 283 339
#
# _framework density 19.667759
#
# number of rings (size 3 to 8) (size 9 to 14) (size 15 to 20)
#    0.000    1.750    1.250    4.500    0.000    7.500 
#    0.000    0.000    0.000    0.750    0.000    0.000 
#    0.000    0.000    0.000    0.000    0.000    0.000 
#
# Total GULP energy -396578.291171 kJ/mol
# GULP energy per Si atom -12393.071599 kJ/mol
# Density = 1.962299 g / cm^3
# Si number density = 19.667759 Si / 1000 Ang^3
#
#
#
# Elastic Constant Matrix: (Units=GPa)
#
#
# Indices 1 2 3 4 5 6 
#
# 1 126.9882 42.2111 28.6842 0.0000 -20.6477 0.0000
# 2 42.2111 59.6460 24.5242 0.0000 -16.9042 0.0000
# 3 28.6842 24.5242 67.1890 0.0000 -15.7989 0.0000
# 4 0.0000 0.0000 0.0000 27.5305 0.0000 -5.8814
# 5 -20.6477 -16.9042 -15.7989 0.0000 22.0354 0.0000
# 6 0.0000 0.0000 0.0000 -5.8814 0.0000 28.6327
#
#
#
# Elastic Compliance Matrix: (Units=1/GPa)
#
#
# Indices 1 2 3 4 5 6 
#
# 1 0.010888 -0.005773 -0.001423 0.000000 0.004753 0.000000
# 2 -0.005773 0.025828 -0.004301 0.000000 0.011320 0.000000
# 3 -0.001423 -0.004301 0.019210 0.000000 0.009140 0.000000
# 4 0.000000 0.000000 0.000000 0.037990 0.000000 0.007804
# 5 0.004753 0.011320 0.009140 0.000000 0.065073 0.000000
# 6 0.000000 0.000000 0.000000 0.007804 0.000000 0.036528
#
#
# Mechanical properties :
#
#
# Convention : Reuss Voigt Hill
#
# Bulk Modulus (GPa) = 30.36614 49.40691 39.88652
# Shear Modulus (GPa) = 21.78755 26.19997 23.99376
#
# Velocity S-wave (km/s) = 3.33194 3.65379 3.49657
# Velocity P-wave (km/s) = 5.50232 6.55557 6.05190
#
# Compressibility (1/GPa) = 0.03293142
#
# Stress axis : x y z
#
# Youngs Moduli (GPa) = 91.84344 38.71805 52.05590
#
# Poissons Ratio (x) = 0.22352 0.07410
# Poissons Ratio (y) = 0.53022 0.22388
# Poissons Ratio (z) = 0.13074 0.16651
#
# Static dielectric constant tensor:
#      x y z
#    x 4.190100 0.000000 -0.165570 
#    y 0.000000 3.536920 0.000000 
#    z -0.165570 0.000000 3.456310 
# 
# 
# High freq. dielectric constant tensor:
#      x y z
#    x 1.778240 0.000000 -0.021010 
#    y 0.000000 1.766730 0.000000 
#    z -0.021010 0.000000 1.730630 
# 
# From -- ./inp_files/56158.got.cif
#   From: 2010.06.25/outbox.cif.g09.slc.cpg/sg11_29_cif.got.tgz:56158.got - 2010.06.27 23:14:04.
