data_PCOD8071354
_publ_section_title
;
Structure prediction by ZEFSAII (Michael W. Deem and Ramdas Pophale) SiO2 
 PCOD8071354
Probable space group: P 21/M
;
_chemical_formula_sum "Si O2"
_cell_formula_units_Z 32
_cell_length_a 23.363617
_cell_length_b 9.040989
_cell_length_c 10.617314
_cell_angle_alpha 90.000000
_cell_angle_beta 128.952496
_cell_angle_gamma 90.000000
_cell_volume 1744.072805
_symmetry_space_group_name_H-M "P 21/M"
_symmetry_group_IT_number 11
_symmetry_cell_setting 'monoclinic'
loop_
_space_group_symop_operation_xyz
x,y,z
-x,1/2+y,-z
-x,-y,-z
x,1/2-y,z
loop_
_atom_site_type_symbol
_atom_site_label
_atom_site_fract_x
_atom_site_fract_y
_atom_site_fract_z
Si Si1 0.505379 0.575942 0.138235
Si Si2 0.792822 0.573702 0.252233
Si Si3 0.850626 0.587538 0.073324
Si Si4 0.807609 0.574885 0.553585
Si Si5 0.657145 0.925805 0.457900
Si Si6 0.684724 0.914532 0.772789
Si Si7 0.350324 0.922506 0.034577
Si Si8 0.077115 0.072047 0.076326
O O1 0.511704 0.750000 0.130611
O O2 0.579334 0.511106 0.303355
O O3 0.432578 0.530792 0.112517
O O4 0.500000 0.500000 0.000000
O O5 0.785638 0.750000 0.226779
O O6 0.842491 0.511061 0.202143
O O7 0.827568 0.528836 0.436039
O O8 0.710121 0.510350 0.130830
O O9 0.883944 0.750000 0.143267
O O10 0.771863 0.598692 0.900095
O O11 0.900526 0.510784 0.033380
O O12 0.806112 0.750000 0.561075
O O13 0.726237 0.511443 0.472946
O O14 0.866833 0.515023 0.736874
O O15 0.658896 0.750000 0.454782
O O16 0.664181 0.980482 0.609863
O O17 0.650787 0.750000 0.748667
O O18 0.654238 0.034118 0.826682
O O19 0.335193 0.750000 0.994747
O O20 0.073303 0.250000 0.070890
O O21 0.000000 0.000000 0.000000
#
# Coordination Sequence:
#
# PCOD8071354 Si02
#       8
#     4   4   4   4   4   4   4   4
#     4  10  21  34  48  68  98 133 168 209 257 301
#     4   9  17  31  55  79  94 128 179 214 236 281
#     4   8  14  28  50  73  97 124 162 204 242 282
#     4   9  16  29  53  79  98 120 167 219 246 276
#     4   9  16  29  51  74  94 124 170 217 247 278
#     4   9  16  30  53  74  90 124 174 212 240 284
#     4  10  20  32  45  70 108 137 157 199 263 308
#     4  10  19  33  52  75 102 130 158 200 252 299
#
# _framework density 18.347857000000001
#
# number of rings (size 3 to 8) (size 9 to 14) (size 15 to 20)
#    0.000    2.750    1.250    1.875    0.000    2.500 
#    0.000    4.375    0.000    1.500    0.000    0.000 
#    0.000    0.000    0.000    0.000    0.000    0.000 
#
# Total GULP energy -396435.171766 kJ/mol
# GULP energy per Si atom -12388.599118 kJ/mol
# Density = 1.830610 g / cm^3
# Si number density = 18.347857 Si / 1000 Ang^3
#
#
#
# Elastic Constant Matrix: (Units=GPa)
#
#
# Indices 1 2 3 4 5 6 
#
# 1 143.0001 23.9444 70.7125 0.0000 -1.9938 0.0000
# 2 23.9444 15.0849 10.8514 0.0000 0.2954 0.0000
# 3 70.7125 10.8514 98.7374 0.0000 -15.4302 0.0000
# 4 0.0000 0.0000 0.0000 19.2353 0.0000 2.4036
# 5 -1.9938 0.2954 -15.4302 0.0000 27.6436 0.0000
# 6 0.0000 0.0000 0.0000 2.4036 0.0000 23.4366
#
#
#
# Elastic Compliance Matrix: (Units=1/GPa)
#
#
# Indices 1 2 3 4 5 6 
#
# 1 0.013945 -0.015694 -0.008851 0.000000 -0.003767 0.000000
# 2 -0.015694 0.090469 0.001062 0.000000 -0.001506 0.000000
# 3 -0.008851 0.001062 0.017801 0.000000 0.009287 0.000000
# 4 0.000000 0.000000 0.000000 0.052663 0.000000 -0.005401
# 5 -0.003767 -0.001506 0.009287 0.000000 0.041103 0.000000
# 6 0.000000 0.000000 0.000000 -0.005401 0.000000 0.043222
#
#
# Mechanical properties :
#
#
# Convention : Reuss Voigt Hill
#
# Bulk Modulus (GPa) = 13.28934 51.98212 32.63573
# Shear Modulus (GPa) = 15.09422 24.15071 19.62246
#
# Velocity S-wave (km/s) = 2.87133 3.63198 3.27382
# Velocity P-wave (km/s) = 4.27217 6.78095 5.66713
#
# Compressibility (1/GPa) = 0.07524830
#
# Stress axis : x y z
#
# Youngs Moduli (GPa) = 71.70983 11.05350 56.17622
#
# Poissons Ratio (x) = 0.17348 0.49721
# Poissons Ratio (y) = 1.12545 -0.05965
# Poissons Ratio (z) = 0.63469 -0.01174
#
# Static dielectric constant tensor:
#      x y z
#    x 2.877740 0.000000 -0.433130 
#    y 0.000000 2.930460 0.000000 
#    z -0.433130 0.000000 3.411560 
# 
# 
# High freq. dielectric constant tensor:
#      x y z
#    x 1.721070 0.000000 -0.017080 
#    y 0.000000 1.662140 0.000000 
#    z -0.017080 0.000000 1.707800 
# 
# From -- ./inp_files/42945.got.cif
#   From: 2010.06.25/outbox.cif.g09.slc.cpg/sg11_22_cif.got.tgz:42945.got - 2010.06.27 23:14:04.
