data_PCOD8071458
_publ_section_title
;
Structure prediction by ZEFSAII (Michael W. Deem and Ramdas Pophale) SiO2 
 PCOD8071458
Probable space group: P 21/M
;
_chemical_formula_sum "Si O2"
_cell_formula_units_Z 32
_cell_length_a 23.858076
_cell_length_b 9.221647
_cell_length_c 14.295627
_cell_angle_alpha 90.000000
_cell_angle_beta 147.477663
_cell_angle_gamma 90.000000
_cell_volume 1690.944272
_symmetry_space_group_name_H-M "P 21/M"
_symmetry_group_IT_number 11
_symmetry_cell_setting 'monoclinic'
loop_
_space_group_symop_operation_xyz
x,y,z
-x,1/2+y,-z
-x,-y,-z
x,1/2-y,z
loop_
_atom_site_type_symbol
_atom_site_label
_atom_site_fract_x
_atom_site_fract_y
_atom_site_fract_z
Si Si1 0.721918 0.584052 0.190915
Si Si2 0.804718 0.421954 0.483066
Si Si3 0.306830 0.577968 0.488083
Si Si4 0.542427 0.918914 0.802318
Si Si5 0.956585 0.580042 0.182616
Si Si6 0.411032 0.920598 0.316691
Si Si7 0.091698 0.417921 0.678991
Si Si8 0.212673 0.580953 0.162420
O O1 0.739202 0.750000 0.245753
O O2 0.739786 0.484412 0.305307
O O3 0.799871 0.541294 0.216741
O O4 0.606041 0.558597 0.987962
O O5 0.797609 0.250000 0.466215
O O6 0.753133 0.482056 0.505589
O O7 0.924117 0.474924 0.648163
O O8 0.305599 0.750000 0.486097
O O9 0.425969 0.523720 0.657100
O O10 0.250475 0.519435 0.315699
O O11 0.544148 0.750000 0.773874
O O12 0.594735 0.013917 0.794895
O O13 0.951862 0.750000 0.155472
O O14 0.902779 0.537040 0.204824
O O15 0.894141 0.499952 0.013035
O O16 0.435707 0.750000 0.348254
O O17 0.300781 0.951792 0.209949
O O18 0.500000 0.000000 0.500000
O O19 0.064311 0.250000 0.632119
O O20 0.000000 0.500000 0.500000
O O21 0.187519 0.750000 0.133393
#
# Coordination Sequence:
#
# PCOD8071458 Si02
#       8
#     4   4   4   4   4   4   4   4
#     4  10  21  35  56  83 112 146 183 228 282 332
#     4  10  21  38  59  79 108 149 191 233 274 326
#     4   9  19  38  59  79 108 149 189 226 278 332
#     4  10  20  38  60  82 114 151 183 224 281 337
#     4  10  21  36  55  83 112 143 184 229 277 325
#     4  11  21  35  58  87 115 147 184 225 276 333
#     4  10  19  33  53  79 109 142 177 218 274 331
#     4  10  21  37  57  82 111 147 185 222 274 336
#
# _framework density 18.924337999999999
#
# number of rings (size 3 to 8) (size 9 to 14) (size 15 to 20)
#    0.000    2.000    2.500    1.125    0.000    4.500 
#    0.000    1.250    0.000    0.000    0.000    0.000 
#    0.000    0.000    0.000    0.000    0.000    0.000 
#
# Total GULP energy -396883.926600 kJ/mol
# GULP energy per Si atom -12402.622706 kJ/mol
# Density = 1.888127 g / cm^3
# Si number density = 18.924338 Si / 1000 Ang^3
#
#
#
# Elastic Constant Matrix: (Units=GPa)
#
#
# Indices 1 2 3 4 5 6 
#
# 1 136.1582 35.5782 55.4828 0.0000 -14.4383 0.0000
# 2 35.5782 44.2933 39.7612 0.0000 -6.1486 0.0000
# 3 55.4828 39.7612 138.1906 0.0000 -19.5835 0.0000
# 4 0.0000 0.0000 0.0000 33.4203 0.0000 -5.6963
# 5 -14.4383 -6.1486 -19.5835 0.0000 17.1428 0.0000
# 6 0.0000 0.0000 0.0000 -5.6963 0.0000 23.8582
#
#
#
# Elastic Compliance Matrix: (Units=1/GPa)
#
#
# Indices 1 2 3 4 5 6 
#
# 1 0.010057 -0.005936 -0.001708 0.000000 0.004390 0.000000
# 2 -0.005936 0.033959 -0.007601 0.000000 -0.001502 0.000000
# 3 -0.001708 -0.007601 0.011357 0.000000 0.008810 0.000000
# 4 0.000000 0.000000 0.000000 0.031191 0.000000 0.007447
# 5 0.004390 -0.001502 0.008810 0.000000 0.071557 0.000000
# 6 0.000000 0.000000 0.000000 0.007447 0.000000 0.043692
#
#
# Mechanical properties :
#
#
# Convention : Reuss Voigt Hill
#
# Bulk Modulus (GPa) = 40.18445 64.47629 52.33037
# Shear Modulus (GPa) = 20.78166 27.40559 24.09362
#
# Velocity S-wave (km/s) = 3.31742 3.80961 3.57200
# Velocity P-wave (km/s) = 5.99617 7.31405 6.68765
#
# Compressibility (1/GPa) = 0.02488525
#
# Stress axis : x y z
#
# Youngs Moduli (GPa) = 99.43501 29.44732 88.04794
#
# Poissons Ratio (x) = 0.17479 0.15036
# Poissons Ratio (y) = 0.59021 0.66922
# Poissons Ratio (z) = 0.16981 0.22382
#
# Static dielectric constant tensor:
#      x y z
#    x 3.599700 0.000000 -0.086250 
#    y 0.000000 3.309920 0.000000 
#    z -0.086250 0.000000 3.090500 
# 
# 
# High freq. dielectric constant tensor:
#      x y z
#    x 1.735680 0.000000 -0.001410 
#    y 0.000000 1.714300 0.000000 
#    z -0.001410 0.000000 1.746750 
# 
# From -- ./inp_files/51719.got.cif
#   From: 2010.06.25/outbox.cif.g09.slc.cpg/sg11_26_cif.got.tgz:51719.got - 2010.06.27 23:14:04.
