data_PCOD8071116
_publ_section_title
;
Structure prediction by ZEFSAII (Michael W. Deem and Ramdas Pophale) SiO2 
 PCOD8071116
Probable space group: P 21/M
;
_chemical_formula_sum "Si O2"
_cell_formula_units_Z 24
_cell_length_a 25.674183
_cell_length_b 8.792388
_cell_length_c 11.395274
_cell_angle_alpha 90.000000
_cell_angle_beta 150.507940
_cell_angle_gamma 90.000000
_cell_volume 1266.370196
_symmetry_space_group_name_H-M "P 21/M"
_symmetry_group_IT_number 11
_symmetry_cell_setting 'monoclinic'
loop_
_space_group_symop_operation_xyz
x,y,z
-x,1/2+y,-z
-x,-y,-z
x,1/2-y,z
loop_
_atom_site_type_symbol
_atom_site_label
_atom_site_fract_x
_atom_site_fract_y
_atom_site_fract_z
Si Si1 0.512216 0.070535 0.650779
Si Si2 0.876116 0.571863 0.884315
Si Si3 0.392801 0.918009 0.811344
Si Si4 0.679747 0.417976 0.588773
Si Si5 0.094494 0.427005 0.323685
Si Si6 0.303373 0.424748 0.849509
O O1 0.503918 0.250000 0.625946
O O2 0.500000 0.000000 0.500000
O O3 0.417578 0.011416 0.547474
O O4 0.629033 0.026429 0.927922
O O5 0.862378 0.750000 0.868320
O O6 0.792686 0.501997 0.815058
O O7 0.861966 0.519689 0.719778
O O8 0.991545 0.522704 0.155702
O O9 0.407448 0.750000 0.899117
O O10 0.333735 0.897418 0.574987
O O11 0.332464 0.035321 0.774394
O O12 0.500000 0.000000 0.000000
O O13 0.684642 0.250000 0.657990
O O14 0.064249 0.250000 0.255532
O O15 0.176791 0.454258 0.594032
O O16 0.330369 0.250000 0.930710
#
# Coordination Sequence:
#
# PCOD8071116 Si02
#       6
#     4   4   4   4   4   4
#     4  12  26  43  62  83 110 145 191 238 289 340
#     4  10  19  32  52  81 117 155 192 229 274 330
#     4  11  21  31  50  80 115 150 185 227 279 342
#     4  11  22  36  56  82 116 152 189 231 281 337
#     4   9  19  33  51  79 117 156 189 227 274 331
#     4  11  21  36  57  82 116 151 189 232 282 338
#
# _framework density 18.951803000000002
#
# number of rings (size 3 to 8) (size 9 to 14) (size 15 to 20)
#    0.000    1.333    3.333    3.500    0.000    3.333 
#    0.000    0.000    0.000    1.000    0.000    0.000 
#    0.000    0.000    0.000    0.000    0.000    0.000 
#
# Total GULP energy -297375.036103 kJ/mol
# GULP energy per Si atom -12390.626504 kJ/mol
# Density = 1.890867 g / cm^3
# Si number density = 18.951803 Si / 1000 Ang^3
#
#
#
# Elastic Constant Matrix: (Units=GPa)
#
#
# Indices 1 2 3 4 5 6 
#
# 1 42.4875 23.5365 39.9533 0.0000 -9.0937 0.0000
# 2 23.5365 105.7978 57.3009 0.0000 2.7501 0.0000
# 3 39.9533 57.3009 117.6270 0.0000 6.2306 0.0000
# 4 0.0000 0.0000 0.0000 30.3115 0.0000 1.5993
# 5 -9.0937 2.7501 6.2306 0.0000 21.4126 0.0000
# 6 0.0000 0.0000 0.0000 1.5993 0.0000 26.5771
#
#
#
# Elastic Compliance Matrix: (Units=1/GPa)
#
#
# Indices 1 2 3 4 5 6 
#
# 1 0.043939 -0.002213 -0.015082 0.000000 0.023333 0.000000
# 2 -0.002213 0.012952 -0.005505 0.000000 -0.001001 0.000000
# 3 -0.015082 -0.005505 0.016868 0.000000 -0.010606 0.000000
# 4 0.000000 0.000000 0.000000 0.033096 0.000000 -0.001992
# 5 0.023333 -0.001001 -0.010606 0.000000 0.059826 0.000000
# 6 0.000000 0.000000 0.000000 -0.001992 0.000000 0.037746
#
#
# Mechanical properties :
#
#
# Convention : Reuss Voigt Hill
#
# Bulk Modulus (GPa) = 35.51293 56.38820 45.95056
# Shear Modulus (GPa) = 19.27436 25.33501 22.30469
#
# Velocity S-wave (km/s) = 3.19253 3.66021 3.43434
# Velocity P-wave (km/s) = 5.68937 6.90514 6.32653
#
# Compressibility (1/GPa) = 0.02815876
#
# Stress axis : x y z
#
# Youngs Moduli (GPa) = 22.75883 77.21027 59.28499
#
# Poissons Ratio (x) = 0.17085 0.89416
# Poissons Ratio (y) = 0.05036 0.32634
# Poissons Ratio (z) = 0.34326 0.42501
#
# Static dielectric constant tensor:
#      x y z
#    x 3.191310 0.000000 0.124520 
#    y 0.000000 3.778790 0.000000 
#    z 0.124520 0.000000 3.595500 
# 
# 
# High freq. dielectric constant tensor:
#      x y z
#    x 1.691560 0.000000 0.016880 
#    y 0.000000 1.753010 0.000000 
#    z 0.016880 0.000000 1.742650 
# 
# From -- ./inp_files/44033.got.cif
#   From: 2010.06.25/outbox.cif.g09.slc.cpg/sg11_23_cif.got.tgz:44033.got - 2010.06.27 23:14:04.
