data_PCOD8071965
_publ_section_title
;
Structure prediction by ZEFSAII (Michael W. Deem and Ramdas Pophale) SiO2 
 PCOD8071965
Probable space group: P 21/M
;
_chemical_formula_sum "Si O2"
_cell_formula_units_Z 28
_cell_length_a 21.605268
_cell_length_b 8.762498
_cell_length_c 16.435538
_cell_angle_alpha 90.000000
_cell_angle_beta 26.484960
_cell_angle_gamma 90.000000
_cell_volume 1387.618961
_symmetry_space_group_name_H-M "P 21/M"
_symmetry_group_IT_number 11
_symmetry_cell_setting 'monoclinic'
loop_
_space_group_symop_operation_xyz
x,y,z
-x,1/2+y,-z
-x,-y,-z
x,1/2-y,z
loop_
_atom_site_type_symbol
_atom_site_label
_atom_site_fract_x
_atom_site_fract_y
_atom_site_fract_z
Si Si1 0.222343 0.429320 0.520074
Si Si2 0.527471 0.927022 0.173846
Si Si3 0.685221 0.918130 0.328861
Si Si4 0.563025 0.922791 0.315005
Si Si5 0.078186 0.428125 0.520832
Si Si6 0.210655 0.927296 0.210981
Si Si7 0.109337 0.924113 0.812003
O O1 0.235813 0.250000 0.514891
O O2 0.378268 0.494888 0.336122
O O3 0.137600 0.473296 0.538861
O O4 0.128260 0.493918 0.703637
O O5 0.502592 0.750000 0.186837
O O6 0.591508 0.960115 0.187708
O O7 0.645334 0.986469 0.974782
O O8 0.738118 0.750000 0.295403
O O9 0.700043 0.928775 0.212599
O O10 0.526630 0.939250 0.542210
O O11 0.752255 0.058197 0.298370
O O12 0.500240 0.750000 0.395824
O O13 0.101578 0.250000 0.473946
O O14 0.163438 0.527381 0.356486
O O15 0.913486 0.467745 0.706891
O O16 0.245266 0.750000 0.167634
O O17 0.071010 0.750000 0.840368
O O18 0.000000 0.000000 0.000000
#
# Coordination Sequence:
#
# PCOD8071965 Si02
#       7
#     4   4   4   4   4   4   4
#     4  11  23  41  64  91 122 158 199 250 306 363
#     4  11  22  37  59  90 127 162 201 249 299 357
#     4  10  19  34  56  81 110 148 193 241 292 343
#     4   9  19  34  54  81 113 150 191 238 289 345
#     4   9  21  42  65  90 122 157 198 247 302 363
#     4  10  21  39  64  92 121 157 200 247 300 360
#     4  12  25  41  59  83 117 157 201 248 298 358
#
# _framework density 20.178450999999999
#
# number of rings (size 3 to 8) (size 9 to 14) (size 15 to 20)
#    0.000    1.714    1.429    3.000    0.000    4.571 
#    0.000    2.857    0.000    0.000    0.000    0.000 
#    0.000    0.000    0.000    0.000    0.000    0.000 
#
# Total GULP energy -346904.453919 kJ/mol
# GULP energy per Si atom -12389.444783 kJ/mol
# Density = 2.013252 g / cm^3
# Si number density = 20.178451 Si / 1000 Ang^3
#
#
#
# Elastic Constant Matrix: (Units=GPa)
#
#
# Indices 1 2 3 4 5 6 
#
# 1 135.2443 51.3065 48.2923 0.0000 15.5470 0.0000
# 2 51.3065 99.9356 46.1691 0.0000 6.4659 0.0000
# 3 48.2923 46.1691 108.0277 0.0000 9.7947 0.0000
# 4 0.0000 0.0000 0.0000 32.1141 0.0000 0.2406
# 5 15.5470 6.4659 9.7947 0.0000 11.8803 0.0000
# 6 0.0000 0.0000 0.0000 0.2406 0.0000 28.3513
#
#
#
# Elastic Compliance Matrix: (Units=1/GPa)
#
#
# Indices 1 2 3 4 5 6 
#
# 1 0.010843 -0.003855 -0.002273 0.000000 -0.010217 0.000000
# 2 -0.003855 0.013913 -0.004316 0.000000 0.001032 0.000000
# 3 -0.002273 -0.004316 0.012575 0.000000 -0.005044 0.000000
# 4 0.000000 0.000000 0.000000 0.031141 0.000000 -0.000264
# 5 -0.010217 0.001032 -0.005044 0.000000 0.101140 0.000000
# 6 0.000000 0.000000 0.000000 -0.000264 0.000000 0.035274
#
#
# Mechanical properties :
#
#
# Convention : Reuss Voigt Hill
#
# Bulk Modulus (GPa) = 60.82180 70.52704 65.67442
# Shear Modulus (GPa) = 21.62110 27.63178 24.62644
#
# Velocity S-wave (km/s) = 3.27692 3.70452 3.49726
# Velocity P-wave (km/s) = 6.67271 7.30243 6.99466
#
# Compressibility (1/GPa) = 0.01644147
#
# Stress axis : x y z
#
# Youngs Moduli (GPa) = 92.22743 71.87450 79.52287
#
# Poissons Ratio (x) = 0.27711 0.18075
# Poissons Ratio (y) = 0.35558 0.34324
# Poissons Ratio (z) = 0.20963 0.31023
#
# Static dielectric constant tensor:
#      x y z
#    x 3.703870 0.000000 0.160080 
#    y 0.000000 3.705920 0.000000 
#    z 0.160080 0.000000 3.398990 
# 
# 
# High freq. dielectric constant tensor:
#      x y z
#    x 1.798450 0.000000 0.002460 
#    y 0.000000 1.797410 0.000000 
#    z 0.002460 0.000000 1.770960 
# 
# From -- ./inp_files/54531.got.cif
#   From: 2010.06.25/outbox.cif.g09.slc.cpg/sg11_28_cif.got.tgz:54531.got - 2010.06.27 23:14:04.
