data_PCOD8071208
_publ_section_title
;
Structure prediction by ZEFSAII (Michael W. Deem and Ramdas Pophale) SiO2 
 PCOD8071208
Probable space group: P 21/M
;
_chemical_formula_sum "Si O2"
_cell_formula_units_Z 24
_cell_length_a 13.123126
_cell_length_b 7.654566
_cell_length_c 29.855248
_cell_angle_alpha 90.000000
_cell_angle_beta 25.624471
_cell_angle_gamma 90.000000
_cell_volume 1296.986410
_symmetry_space_group_name_H-M "P 21/M"
_symmetry_group_IT_number 11
_symmetry_cell_setting 'monoclinic'
loop_
_space_group_symop_operation_xyz
x,y,z
-x,1/2+y,-z
-x,-y,-z
x,1/2-y,z
loop_
_atom_site_type_symbol
_atom_site_label
_atom_site_fract_x
_atom_site_fract_y
_atom_site_fract_z
Si Si1 0.511636 0.750000 0.154239
Si Si2 0.171346 0.250000 0.508615
Si Si3 0.076961 0.451523 0.233538
Si Si4 0.497541 0.943188 0.680887
Si Si5 0.594228 0.443119 0.060637
Si Si6 0.634645 0.250000 0.691250
Si Si7 0.004995 0.954719 0.835409
Si Si8 0.976496 0.750000 0.336280
O O1 0.636987 0.578677 0.084077
O O2 0.538761 0.750000 0.197108
O O3 0.239168 0.750000 0.250563
O O4 0.303646 0.422917 0.436890
O O5 0.904314 0.250000 0.598534
O O6 0.197110 0.250000 0.552235
O O7 0.010262 0.250000 0.269786
O O8 0.355091 0.486670 0.128775
O O9 0.007505 0.509425 0.211310
O O10 0.931632 0.574875 0.325120
O O11 0.456799 0.750000 0.719028
O O12 0.257784 0.013715 0.753955
O O13 0.585608 0.075726 0.683137
O O14 0.579994 0.250000 0.087712
O O15 0.805269 0.445285 0.941754
O O16 0.960796 0.750000 0.858241
#
# Coordination Sequence:
#
# PCOD8071208 Si02
#       8
#     2   2   4   4   4   2   4   2
#     4   9  20  35  52  80 109 137 174 231 269 300
#     4   9  20  41  58  82 104 131 176 235 274 318
#     4   9  19  32  52  83 110 147 182 209 252 310
#     4   9  22  37  57  81 106 134 179 222 279 315
#     4  10  19  32  54  81 110 147 184 208 253 313
#     4  11  20  39  64  78 100 135 182 227 276 330
#     4  10  19  35  55  76 118 144 175 223 254 307
#     4   9  18  35  54  76 113 137 174 225 267 310
#
# _framework density 18.504435000000001
#
# number of rings (size 3 to 8) (size 9 to 14) (size 15 to 20)
#    0.500    2.000    0.833    1.000    2.333    0.667 
#    1.500    3.333    0.000    0.000    0.000    0.000 
#    0.000    0.000    0.000    0.000    0.000    0.000 
#
# Total GULP energy -297536.056440 kJ/mol
# GULP energy per Si atom -12397.335685 kJ/mol
# Density = 1.846232 g / cm^3
# Si number density = 18.504435 Si / 1000 Ang^3
#
#
#
# Elastic Constant Matrix: (Units=GPa)
#
#
# Indices 1 2 3 4 5 6 
#
# 1 78.2429 46.5710 55.2398 0.0000 21.0791 0.0000
# 2 46.5710 100.9481 38.3907 0.0000 20.3332 0.0000
# 3 55.2398 38.3907 46.5107 0.0000 17.5041 0.0000
# 4 0.0000 0.0000 0.0000 21.5888 0.0000 8.3357
# 5 21.0791 20.3332 17.5041 0.0000 35.9842 0.0000
# 6 0.0000 0.0000 0.0000 8.3357 0.0000 20.7796
#
#
#
# Elastic Compliance Matrix: (Units=1/GPa)
#
#
# Indices 1 2 3 4 5 6 
#
# 1 0.079237 -0.001067 -0.093013 0.000000 -0.000568 0.000000
# 2 -0.001067 0.014703 -0.009764 0.000000 -0.002933 0.000000
# 3 -0.093013 -0.009764 0.143768 0.000000 -0.009930 0.000000
# 4 0.000000 0.000000 0.000000 0.054810 0.000000 -0.021987
# 5 -0.000568 -0.002933 -0.009930 0.000000 0.034610 0.000000
# 6 0.000000 0.000000 0.000000 -0.021987 0.000000 0.056944
#
#
# Mechanical properties :
#
#
# Convention : Reuss Voigt Hill
#
# Bulk Modulus (GPa) = 33.31469 56.23386 44.77427
# Shear Modulus (GPa) = 8.30887 21.37053 14.83970
#
# Velocity S-wave (km/s) = 2.12131 3.40205 2.83495
# Velocity P-wave (km/s) = 4.90333 6.77402 5.91312
#
# Compressibility (1/GPa) = 0.03001679
#
# Stress axis : x y z
#
# Youngs Moduli (GPa) = 12.62040 68.01495 6.95567
#
# Poissons Ratio (x) = 0.07259 0.64697
# Poissons Ratio (y) = 0.01347 0.06792
# Poissons Ratio (z) = 1.17387 0.66413
#
# Static dielectric constant tensor:
#      x y z
#    x 3.340260 0.000000 0.103860 
#    y 0.000000 3.441650 0.000000 
#    z 0.103860 0.000000 3.321870 
# 
# 
# High freq. dielectric constant tensor:
#      x y z
#    x 1.706060 0.000000 0.003550 
#    y 0.000000 1.720780 0.000000 
#    z 0.003550 0.000000 1.704680 
# 
# From -- ./inp_files/71220.got.cif
#   From: 2010.06.25/outbox.cif.g09.slc.cpg/sg11_36_cif.got.tgz:71220.got - 2010.06.27 23:14:04.
