data_PCOD8071963
_publ_section_title
;
Structure prediction by ZEFSAII (Michael W. Deem and Ramdas Pophale) SiO2 
 PCOD8071963
Probable space group: P 21/M
;
_chemical_formula_sum "Si O2"
_cell_formula_units_Z 26
_cell_length_a 14.657345
_cell_length_b 17.365981
_cell_length_c 11.353640
_cell_angle_alpha 90.000000
_cell_angle_beta 151.240429
_cell_angle_gamma 90.000000
_cell_volume 1390.454867
_symmetry_space_group_name_H-M "P 21/M"
_symmetry_group_IT_number 11
_symmetry_cell_setting 'monoclinic'
loop_
_space_group_symop_operation_xyz
x,y,z
-x,1/2+y,-z
-x,-y,-z
x,1/2-y,z
loop_
_atom_site_type_symbol
_atom_site_label
_atom_site_fract_x
_atom_site_fract_y
_atom_site_fract_z
Si Si1 0.968051 0.099082 0.869509
Si Si2 0.194183 0.908683 0.800727
Si Si3 0.976791 0.250000 0.014726
Si Si4 0.225034 0.750000 0.963569
Si Si5 0.624640 0.914199 0.314972
Si Si6 0.334489 0.250000 0.568483
Si Si7 0.071471 0.531769 0.421120
Si Si8 0.684286 0.974458 0.639041
O O1 0.929959 0.091841 0.687407
O O2 0.825763 0.044503 0.778299
O O3 0.917000 0.181275 0.862514
O O4 0.191389 0.084994 0.144449
O O5 0.153636 0.825741 0.813125
O O6 0.083487 0.916156 0.551412
O O7 0.415235 0.920314 0.025293
O O8 0.117269 0.978254 0.796325
O O9 0.859104 0.250000 0.001795
O O10 0.198244 0.250000 0.300481
O O11 0.450492 0.750000 0.234392
O O12 0.702258 0.826169 0.393156
O O13 0.617108 0.934682 0.443739
O O14 0.753843 0.971973 0.387285
O O15 0.500000 0.000000 0.500000
#
# Coordination Sequence:
#
# PCOD8071963 Si02
#       8
#     4   4   2   2   4   2   4   4
#     4  10  23  34  54  84 112 151 179 226 286 335
#     4  10  21  37  59  80 109 147 187 234 267 333
#     4  12  22  37  55  83 121 144 184 234 284 344
#     4  10  24  35  57  85 109 144 192 228 284 328
#     4  10  19  34  56  81 110 142 188 232 275 325
#     4  10  20  34  52  82 112 144 178 234 282 330
#     4  10  21  38  55  81 112 146 190 223 279 329
#     4  10  20  34  55  80 114 144 184 230 277 332
#
# _framework density 18.698917000000002
#
# number of rings (size 3 to 8) (size 9 to 14) (size 15 to 20)
#    0.000    1.846    1.538    2.308    8.615    0.615 
#    0.000    0.000    0.000    0.000    0.000   14.000 
#    0.000    0.000    0.000    0.000    0.000    0.000 
#
# Total GULP energy -322344.857243 kJ/mol
# GULP energy per Si atom -12397.879125 kJ/mol
# Density = 1.865636 g / cm^3
# Si number density = 18.698917 Si / 1000 Ang^3
#
#
#
# Elastic Constant Matrix: (Units=GPa)
#
#
# Indices 1 2 3 4 5 6 
#
# 1 95.8019 44.3447 18.6355 0.0000 -5.1535 0.0000
# 2 44.3447 108.7911 29.9402 0.0000 -19.1528 0.0000
# 3 18.6355 29.9402 59.4752 0.0000 -1.3439 0.0000
# 4 0.0000 0.0000 0.0000 24.7868 0.0000 -4.1922
# 5 -5.1535 -19.1528 -1.3439 0.0000 24.5641 0.0000
# 6 0.0000 0.0000 0.0000 -4.1922 0.0000 19.7732
#
#
#
# Elastic Compliance Matrix: (Units=1/GPa)
#
#
# Indices 1 2 3 4 5 6 
#
# 1 0.013039 -0.005130 -0.001533 0.000000 -0.001348 0.000000
# 2 -0.005130 0.014549 -0.005491 0.000000 0.009967 0.000000
# 3 -0.001533 -0.005491 0.019979 0.000000 -0.003510 0.000000
# 4 0.000000 0.000000 0.000000 0.041844 0.000000 0.008872
# 5 -0.001348 0.009967 -0.003510 0.000000 0.048006 0.000000
# 6 0.000000 0.000000 0.000000 0.008872 0.000000 0.052454
#
#
# Mechanical properties :
#
#
# Convention : Reuss Voigt Hill
#
# Bulk Modulus (GPa) = 42.99757 49.98990 46.49374
# Shear Modulus (GPa) = 22.52921 25.23469 23.88195
#
# Velocity S-wave (km/s) = 3.47485 3.67758 3.57765
# Velocity P-wave (km/s) = 6.25652 6.69514 6.47954
#
# Compressibility (1/GPa) = 0.02325713
#
# Stress axis : x y z
#
# Youngs Moduli (GPa) = 76.69564 68.73302 50.05186
#
# Poissons Ratio (x) = 0.35261 0.07675
# Poissons Ratio (y) = 0.39345 0.27486
# Poissons Ratio (z) = 0.11760 0.37744
#
# Static dielectric constant tensor:
#      x y z
#    x 3.282770 0.000000 0.097050 
#    y 0.000000 3.550750 0.000000 
#    z 0.097050 0.000000 3.489260 
# 
# 
# High freq. dielectric constant tensor:
#      x y z
#    x 1.718360 0.000000 0.009040 
#    y 0.000000 1.726360 0.000000 
#    z 0.009040 0.000000 1.731690 
# 
# From -- ./inp_files/39837.got.cif
#   From: 2010.06.25/outbox.cif.g09.slc.cpg/sg11_20_cif.got.tgz:39837.got - 2010.06.27 23:14:04.
