data_PCOD8071726
_publ_section_title
;
Structure prediction by ZEFSAII (Michael W. Deem and Ramdas Pophale) SiO2 
 PCOD8071726
Probable space group: P 21/M
;
_chemical_formula_sum "Si O2"
_cell_formula_units_Z 32
_cell_length_a 11.404789
_cell_length_b 14.267846
_cell_length_c 10.138406
_cell_angle_alpha 90.000000
_cell_angle_beta 90.396638
_cell_angle_gamma 90.000000
_cell_volume 1649.699871
_symmetry_space_group_name_H-M "P 21/M"
_symmetry_group_IT_number 11
_symmetry_cell_setting 'monoclinic'
loop_
_space_group_symop_operation_xyz
x,y,z
-x,1/2+y,-z
-x,-y,-z
x,1/2-y,z
loop_
_atom_site_type_symbol
_atom_site_label
_atom_site_fract_x
_atom_site_fract_y
_atom_site_fract_z
Si Si1 0.572070 0.069349 0.589519
Si Si2 0.128619 0.541415 0.012864
Si Si3 0.159879 0.000518 0.726426
Si Si4 0.492339 0.143701 0.988213
Si Si5 0.641981 0.647555 0.271528
Si Si6 0.197079 0.644269 0.506971
Si Si7 0.352824 0.005817 0.143195
Si Si8 0.050167 0.854755 0.246622
O O1 0.481236 0.141402 0.653456
O O2 0.663974 0.126294 0.501291
O O3 0.500000 0.000000 0.500000
O O4 0.643214 0.010932 0.700715
O O5 0.220019 0.473487 0.092270
O O6 0.116132 0.633511 0.105527
O O7 0.177103 0.556497 0.864332
O O8 0.000000 0.500000 0.000000
O O9 0.272637 0.062885 0.689020
O O10 0.051911 0.070504 0.737067
O O11 0.137505 0.925399 0.611622
O O12 0.530847 0.250000 0.022248
O O13 0.385869 0.141239 0.883319
O O14 0.604748 0.087011 0.936140
O O15 0.439511 0.093258 0.117007
O O16 0.697378 0.750000 0.304399
O O17 0.175191 0.750000 0.556320
O O18 0.142777 0.628127 0.362935
O O19 0.997709 0.750000 0.251804
#
# Coordination Sequence:
#
# PCOD8071726 Si02
#       8
#     4   4   4   4   4   4   4   4
#     4  11  21  37  58  81 118 160 198 240 292 349
#     4  10  21  37  59  87 116 152 193 243 298 348
#     4  11  21  38  61  89 121 151 195 250 301 342
#     4   9  19  33  56  85 113 148 191 240 295 354
#     4  10  19  33  57  84 113 152 195 238 287 352
#     4  11  23  39  61  86 119 158 200 245 295 351
#     4  10  19  36  58  81 117 152 197 242 298 355
#     4  10  22  40  62  88 115 158 204 240 291 358
#
# _framework density 19.397468
#
# number of rings (size 3 to 8) (size 9 to 14) (size 15 to 20)
#    0.000    1.750    3.750    1.125    0.000    1.500 
#    0.000    2.500    0.000    0.750    0.000    0.000 
#    0.000    0.000    0.000    0.000    0.000    0.000 
#
# Total GULP energy -396648.012797 kJ/mol
# GULP energy per Si atom -12395.250400 kJ/mol
# Density = 1.935332 g / cm^3
# Si number density = 19.397468 Si / 1000 Ang^3
#
#
#
# Elastic Constant Matrix: (Units=GPa)
#
#
# Indices 1 2 3 4 5 6 
#
# 1 84.6247 30.8422 28.0543 0.0000 4.1939 0.0000
# 2 30.8422 121.5318 56.2077 0.0000 -3.6061 0.0000
# 3 28.0543 56.2077 100.9432 0.0000 1.9326 0.0000
# 4 0.0000 0.0000 0.0000 25.7443 0.0000 -0.1100
# 5 4.1939 -3.6061 1.9326 0.0000 30.1968 0.0000
# 6 0.0000 0.0000 0.0000 -0.1100 0.0000 25.6457
#
#
#
# Elastic Compliance Matrix: (Units=1/GPa)
#
#
# Indices 1 2 3 4 5 6 
#
# 1 0.013587 -0.002397 -0.002403 0.000000 -0.002019 0.000000
# 2 -0.002397 0.011595 -0.005830 0.000000 0.002091 0.000000
# 3 -0.002403 -0.005830 0.013845 0.000000 -0.001249 0.000000
# 4 0.000000 0.000000 0.000000 0.038844 0.000000 0.000167
# 5 -0.002019 0.002091 -0.001249 0.000000 0.033726 0.000000
# 6 0.000000 0.000000 0.000000 0.000167 0.000000 0.038994
#
#
# Mechanical properties :
#
#
# Convention : Reuss Voigt Hill
#
# Bulk Modulus (GPa) = 56.28429 59.70090 57.99260
# Shear Modulus (GPa) = 28.12573 29.11707 28.62140
#
# Velocity S-wave (km/s) = 3.81198 3.87858 3.84542
# Velocity P-wave (km/s) = 6.96090 7.13458 7.04828
#
# Compressibility (1/GPa) = 0.01776695
#
# Stress axis : x y z
#
# Youngs Moduli (GPa) = 73.59936 86.24363 72.22939
#
# Poissons Ratio (x) = 0.20670 0.17356
# Poissons Ratio (y) = 0.17639 0.42112
# Poissons Ratio (z) = 0.17686 0.50283
#
# Static dielectric constant tensor:
#      x y z
#    x 3.586470 0.000000 -0.044380 
#    y 0.000000 3.463870 0.000000 
#    z -0.044380 0.000000 3.700300 
# 
# 
# High freq. dielectric constant tensor:
#      x y z
#    x 1.758430 0.000000 -0.000060 
#    y 0.000000 1.739140 0.000000 
#    z -0.000060 0.000000 1.752080 
# 
# From -- ./inp_files/18082.got.cif
#   From: 2010.06.25/outbox.cif.g09.slc.cpg/sg11_10_cif.got.tgz:18082.got - 2010.06.27 23:14:04.
