data_PCOD8071577
_publ_section_title
;
Structure prediction by ZEFSAII (Michael W. Deem and Ramdas Pophale) SiO2 
 PCOD8071577
Probable space group: P 21/M
;
_chemical_formula_sum "Si O2"
_cell_formula_units_Z 24
_cell_length_a 16.453311
_cell_length_b 9.052565
_cell_length_c 23.223391
_cell_angle_alpha 90.000000
_cell_angle_beta 22.962838
_cell_angle_gamma 90.000000
_cell_volume 1349.473628
_symmetry_space_group_name_H-M "P 21/M"
_symmetry_group_IT_number 11
_symmetry_cell_setting 'monoclinic'
loop_
_space_group_symop_operation_xyz
x,y,z
-x,1/2+y,-z
-x,-y,-z
x,1/2-y,z
loop_
_atom_site_type_symbol
_atom_site_label
_atom_site_fract_x
_atom_site_fract_y
_atom_site_fract_z
Si Si1 0.854637 0.578655 0.414474
Si Si2 0.301236 0.576911 0.154877
Si Si3 0.591526 0.418358 0.675143
Si Si4 0.203030 0.579036 0.345101
Si Si5 0.784652 0.574485 0.157427
Si Si6 0.506331 0.426470 0.433731
O O1 0.829649 0.750000 0.441639
O O2 0.774343 0.507470 0.525417
O O3 0.716148 0.531236 0.449970
O O4 0.098280 0.536907 0.248205
O O5 0.343630 0.750000 0.127829
O O6 0.271382 0.515108 0.238980
O O7 0.500000 0.500000 0.000000
O O8 0.636213 0.250000 0.630130
O O9 0.606676 0.446397 0.733826
O O10 0.365146 0.462868 0.798850
O O11 0.146361 0.750000 0.375795
O O12 0.000000 0.500000 0.500000
O O13 0.811078 0.750000 0.150451
O O14 0.692812 0.498829 0.274999
O O15 0.000000 0.500000 0.000000
O O16 0.500000 0.500000 0.500000
O O17 0.540054 0.250000 0.415982
#
# Coordination Sequence:
#
# PCOD8071577 Si02
#       6
#     4   4   4   4   4   4
#     4   9  18  34  55  77 105 138 175 216 260 312
#     4  10  21  36  52  75 109 142 174 213 259 310
#     4   9  18  32  54  81 106 134 174 217 260 312
#     4  10  19  33  55  80 105 134 174 217 257 309
#     4  10  20  36  56  80 112 143 177 221 271 321
#     4  10  20  36  58  81 107 140 181 224 269 321
#
# _framework density 17.784711000000001
#
# number of rings (size 3 to 8) (size 9 to 14) (size 15 to 20)
#    0.000    2.333    1.667    1.000    0.000    2.667 
#    3.000    0.000    0.000    0.000    0.000    0.000 
#    0.000    0.000    0.000    0.000    0.000    0.000 
#
# Total GULP energy -297509.408390 kJ/mol
# GULP energy per Si atom -12396.225350 kJ/mol
# Density = 1.774423 g / cm^3
# Si number density = 17.784711 Si / 1000 Ang^3
#
#
#
# Elastic Constant Matrix: (Units=GPa)
#
#
# Indices 1 2 3 4 5 6 
#
# 1 129.2195 46.3999 80.3131 0.0000 8.1654 0.0000
# 2 46.3999 60.6598 57.9621 0.0000 1.2208 0.0000
# 3 80.3131 57.9621 157.2355 0.0000 -1.2839 0.0000
# 4 0.0000 0.0000 0.0000 35.8674 0.0000 1.7346
# 5 8.1654 1.2208 -1.2839 0.0000 25.4445 0.0000
# 6 0.0000 0.0000 0.0000 1.7346 0.0000 24.6345
#
#
#
# Elastic Compliance Matrix: (Units=1/GPa)
#
#
# Indices 1 2 3 4 5 6 
#
# 1 0.012750 -0.005274 -0.004601 0.000000 -0.004071 0.000000
# 2 -0.005274 0.027704 -0.007519 0.000000 -0.000016 0.000000
# 3 -0.004601 -0.007519 0.011502 0.000000 0.002418 0.000000
# 4 0.000000 0.000000 0.000000 0.027976 0.000000 -0.001970
# 5 -0.004071 -0.000016 0.002418 0.000000 0.040730 0.000000
# 6 0.000000 0.000000 0.000000 -0.001970 0.000000 0.040732
#
#
# Mechanical properties :
#
#
# Convention : Reuss Voigt Hill
#
# Bulk Modulus (GPa) = 58.25066 79.60722 68.92894
# Shear Modulus (GPa) = 24.76412 28.01860 26.39136
#
# Velocity S-wave (km/s) = 3.73559 3.97348 3.85637
# Velocity P-wave (km/s) = 7.17150 8.11851 7.65965
#
# Compressibility (1/GPa) = 0.01716719
#
# Stress axis : x y z
#
# Youngs Moduli (GPa) = 78.43412 36.09525 86.94309
#
# Poissons Ratio (x) = 0.19035 0.40006
# Poissons Ratio (y) = 0.41364 0.65374
# Poissons Ratio (z) = 0.36091 0.27141
#
# Static dielectric constant tensor:
#      x y z
#    x 3.892840 0.000000 -0.124060 
#    y 0.000000 3.444630 0.000000 
#    z -0.124060 0.000000 3.278920 
# 
# 
# High freq. dielectric constant tensor:
#      x y z
#    x 1.699920 0.000000 -0.009970 
#    y 0.000000 1.691640 0.000000 
#    z -0.009970 0.000000 1.672350 
# 
# From -- ./inp_files/20621.got.cif
#   From: 2010.06.25/outbox.cif.g09.slc.cpg/sg11_11_cif.got.tgz:20621.got - 2010.06.27 23:14:04.
