data_PCOD8071402
_publ_section_title
;
Structure prediction by ZEFSAII (Michael W. Deem and Ramdas Pophale) SiO2 
 PCOD8071402
Probable space group: P 21/M
;
_chemical_formula_sum "Si O2"
_cell_formula_units_Z 28
_cell_length_a 23.036552
_cell_length_b 8.963885
_cell_length_c 21.661215
_cell_angle_alpha 90.000000
_cell_angle_beta 19.631694
_cell_angle_gamma 90.000000
_cell_volume 1502.797509
_symmetry_space_group_name_H-M "P 21/M"
_symmetry_group_IT_number 11
_symmetry_cell_setting 'monoclinic'
loop_
_space_group_symop_operation_xyz
x,y,z
-x,1/2+y,-z
-x,-y,-z
x,1/2-y,z
loop_
_atom_site_type_symbol
_atom_site_label
_atom_site_fract_x
_atom_site_fract_y
_atom_site_fract_z
Si Si1 0.002297 0.572678 0.346571
Si Si2 0.994338 0.927755 0.216527
Si Si3 0.696485 0.424792 0.179853
Si Si4 0.312773 0.075864 0.557990
Si Si5 0.696540 0.925515 0.739427
Si Si6 0.693947 0.074449 0.870535
Si Si7 0.814393 0.927084 0.183646
O O1 0.002865 0.750000 0.343054
O O2 0.174761 0.515749 0.208597
O O3 0.001898 0.505160 0.277948
O O4 0.829769 0.516227 0.554219
O O5 0.988614 0.750000 0.225572
O O6 0.825096 0.995004 0.351711
O O7 0.163447 0.980859 0.009849
O O8 0.719836 0.250000 0.171232
O O9 0.507325 0.459266 0.341032
O O10 0.710348 0.514629 0.229216
O O11 0.275001 0.250000 0.596100
O O12 0.285333 0.017736 0.655132
O O13 0.714043 0.750000 0.731294
O O14 0.747166 0.000252 0.753047
O O15 0.501709 0.969627 0.914222
O O16 0.712218 0.250000 0.843161
O O17 0.832080 0.750000 0.162430
O O18 0.000000 0.000000 0.000000
#
# Coordination Sequence:
#
# PCOD8071402 Si02
#       7
#     4   4   4   4   4   4   4
#     4   9  17  28  45  69  97 125 156 195 234 277
#     4   9  17  30  47  71  99 125 158 200 239 280
#     4  10  19  33  53  74  98 128 161 199 245 291
#     4   9  18  31  49  74  99 125 160 199 242 291
#     4   9  17  29  46  69  95 122 154 194 238 280
#     4   9  17  29  46  70  95 120 156 196 236 280
#     4  11  20  33  53  76 102 128 160 203 247 290
#
# _framework density 18.631919
#
# number of rings (size 3 to 8) (size 9 to 14) (size 15 to 20)
#    0.000    2.571    1.429    1.286    0.000    1.143 
#    0.000    6.429    0.000    1.714    0.000    2.000 
#    0.000    0.000    0.000    0.000    0.000    0.000 
#
# Total GULP energy -347129.163966 kJ/mol
# GULP energy per Si atom -12397.470142 kJ/mol
# Density = 1.858951 g / cm^3
# Si number density = 18.631919 Si / 1000 Ang^3
#
#
#
# Elastic Constant Matrix: (Units=GPa)
#
#
# Indices 1 2 3 4 5 6 
#
# 1 175.3948 22.0849 106.7432 0.0000 5.4409 0.0000
# 2 22.0849 21.9614 17.4421 0.0000 -1.3395 0.0000
# 3 106.7432 17.4421 148.5683 0.0000 -7.5927 0.0000
# 4 0.0000 0.0000 0.0000 15.1292 0.0000 1.7131
# 5 5.4409 -1.3395 -7.5927 0.0000 28.9959 0.0000
# 6 0.0000 0.0000 0.0000 1.7131 0.0000 21.1188
#
#
#
# Elastic Compliance Matrix: (Units=1/GPa)
#
#
# Indices 1 2 3 4 5 6 
#
# 1 0.011136 -0.005439 -0.007583 0.000000 -0.004326 0.000000
# 2 -0.005439 0.052891 -0.002153 0.000000 0.002900 0.000000
# 3 -0.007583 -0.002153 0.012669 0.000000 0.004641 0.000000
# 4 0.000000 0.000000 0.000000 0.066710 0.000000 -0.005411
# 5 -0.004326 0.002900 0.004641 0.000000 0.036649 0.000000
# 6 0.000000 0.000000 0.000000 -0.005411 0.000000 0.047790
#
#
# Mechanical properties :
#
#
# Convention : Reuss Voigt Hill
#
# Bulk Modulus (GPa) = 21.57748 70.94055 46.25902
# Shear Modulus (GPa) = 18.27186 26.35907 22.31546
#
# Velocity S-wave (km/s) = 3.13497 3.76537 3.46454
# Velocity P-wave (km/s) = 4.97093 7.55390 6.39420
#
# Compressibility (1/GPa) = 0.04634460
#
# Stress axis : x y z
#
# Youngs Moduli (GPa) = 89.80219 18.90667 78.93123
#
# Poissons Ratio (x) = 0.10284 0.59855
# Poissons Ratio (y) = 0.48847 0.16996
# Poissons Ratio (z) = 0.68099 0.04071
#
# Static dielectric constant tensor:
#      x y z
#    x 4.138890 0.000000 -0.025020 
#    y 0.000000 3.016500 0.000000 
#    z -0.025020 0.000000 3.650740 
# 
# 
# High freq. dielectric constant tensor:
#      x y z
#    x 1.726130 0.000000 -0.008880 
#    y 0.000000 1.671290 0.000000 
#    z -0.008880 0.000000 1.737210 
# 
# From -- ./inp_files/29114.got.cif
#   From: 2010.06.25/outbox.cif.g09.slc.cpg/sg11_15_cif.got.tgz:29114.got - 2010.06.27 23:14:04.
