data_PCOD8071423
_publ_section_title
;
Structure prediction by ZEFSAII (Michael W. Deem and Ramdas Pophale) SiO2 
 PCOD8071423
Probable space group: P 21/M
;
_chemical_formula_sum "Si O2"
_cell_formula_units_Z 24
_cell_length_a 20.502599
_cell_length_b 8.966493
_cell_length_c 9.589684
_cell_angle_alpha 90.000000
_cell_angle_beta 48.052026
_cell_angle_gamma 90.000000
_cell_volume 1311.185194
_symmetry_space_group_name_H-M "P 21/M"
_symmetry_group_IT_number 11
_symmetry_cell_setting 'monoclinic'
loop_
_space_group_symop_operation_xyz
x,y,z
-x,1/2+y,-z
-x,-y,-z
x,1/2-y,z
loop_
_atom_site_type_symbol
_atom_site_label
_atom_site_fract_x
_atom_site_fract_y
_atom_site_fract_z
Si Si1 0.092693 0.922895 0.379198
Si Si2 0.233363 0.923473 0.949000
Si Si3 0.724181 0.924189 0.380319
Si Si4 0.524257 0.925324 0.610728
Si Si5 0.367545 0.424620 0.952865
Si Si6 0.227268 0.423791 0.379046
O O1 0.077727 0.750000 0.427135
O O2 0.145381 0.986205 0.435764
O O3 0.144908 0.953797 0.161559
O O4 0.000000 0.000000 0.500000
O O5 0.258807 0.750000 0.915437
O O6 0.219494 0.981063 0.811409
O O7 0.312979 0.018453 0.897966
O O8 0.739487 0.750000 0.330894
O O9 0.622226 0.966505 0.515934
O O10 0.759105 0.971787 0.481565
O O11 0.510273 0.750000 0.617990
O O12 0.500000 0.000000 0.500000
O O13 0.460534 0.990705 0.822002
O O14 0.383878 0.250000 0.910436
O O15 0.316156 0.462994 0.168189
O O16 0.205774 0.250000 0.393916
#
# Coordination Sequence:
#
# PCOD8071423 Si02
#       6
#     4   4   4   4   4   4
#     4  10  21  38  61  87 109 136 175 219 267 326
#     4  10  20  34  55  81 108 139 180 223 265 318
#     4  10  21  36  54  78 110 147 183 223 273 319
#     4  11  21  32  50  77 109 145 191 232 265 312
#     4  10  19  33  53  76 105 145 187 226 270 315
#     4   9  20  38  57  79 110 144 179 223 273 323
#
# _framework density 18.304048999999999
#
# number of rings (size 3 to 8) (size 9 to 14) (size 15 to 20)
#    0.000    2.000    1.667    2.000    0.000    4.667 
#    0.000    0.833    0.000    0.000    0.000    0.000 
#    0.000    0.000    0.000    0.000    0.000    0.000 
#
# Total GULP energy -297682.255583 kJ/mol
# GULP energy per Si atom -12403.427316 kJ/mol
# Density = 1.826239 g / cm^3
# Si number density = 18.304049 Si / 1000 Ang^3
#
#
#
# Elastic Constant Matrix: (Units=GPa)
#
#
# Indices 1 2 3 4 5 6 
#
# 1 119.3376 63.6370 72.5795 0.0000 2.3835 0.0000
# 2 63.6370 87.2021 53.4298 0.0000 -2.7061 0.0000
# 3 72.5795 53.4298 103.4243 0.0000 7.4021 0.0000
# 4 0.0000 0.0000 0.0000 34.8628 0.0000 -3.1934
# 5 2.3835 -2.7061 7.4021 0.0000 33.4515 0.0000
# 6 0.0000 0.0000 0.0000 -3.1934 0.0000 27.9157
#
#
#
# Elastic Compliance Matrix: (Units=1/GPa)
#
#
# Indices 1 2 3 4 5 6 
#
# 1 0.017563 -0.007707 -0.008342 0.000000 -0.000029 0.000000
# 2 -0.007707 0.020533 -0.005444 0.000000 0.003415 0.000000
# 3 -0.008342 -0.005444 0.018619 0.000000 -0.003966 0.000000
# 4 0.000000 0.000000 0.000000 0.028988 0.000000 0.003316
# 5 -0.000029 0.003415 -0.003966 0.000000 0.031050 0.000000
# 6 0.000000 0.000000 0.000000 0.003316 0.000000 0.036201
#
#
# Mechanical properties :
#
#
# Convention : Reuss Voigt Hill
#
# Bulk Modulus (GPa) = 72.82846 76.58405 74.70625
# Shear Modulus (GPa) = 24.93576 27.26718 26.10147
#
# Velocity S-wave (km/s) = 3.69495 3.86383 3.78033
# Velocity P-wave (km/s) = 7.62090 7.86361 7.74320
#
# Compressibility (1/GPa) = 0.01373090
#
# Stress axis : x y z
#
# Youngs Moduli (GPa) = 56.93736 48.70188 53.70891
#
# Poissons Ratio (x) = 0.37534 0.44803
# Poissons Ratio (y) = 0.43880 0.29237
# Poissons Ratio (z) = 0.47496 0.26511
#
# Static dielectric constant tensor:
#      x y z
#    x 3.349100 0.000000 0.125740 
#    y 0.000000 3.441510 0.000000 
#    z 0.125740 0.000000 3.696120 
# 
# 
# High freq. dielectric constant tensor:
#      x y z
#    x 1.690140 0.000000 0.001080 
#    y 0.000000 1.719050 0.000000 
#    z 0.001080 0.000000 1.715350 
# 
# From -- ./inp_files/23811.got.cif
#   From: 2010.06.25/outbox.cif.g09.slc.cpg/sg11_12_cif.got.tgz:23811.got - 2010.06.27 23:14:04.
