data_PCOD8071681
_publ_section_title
;
Structure prediction by ZEFSAII (Michael W. Deem and Ramdas Pophale) SiO2 
 PCOD8071681
Probable space group: P 21/M
;
_chemical_formula_sum "Si O2"
_cell_formula_units_Z 28
_cell_length_a 10.088763
_cell_length_b 9.187460
_cell_length_c 29.641395
_cell_angle_alpha 90.000000
_cell_angle_beta 33.828709
_cell_angle_gamma 90.000000
_cell_volume 1529.546003
_symmetry_space_group_name_H-M "P 21/M"
_symmetry_group_IT_number 11
_symmetry_cell_setting 'monoclinic'
loop_
_space_group_symop_operation_xyz
x,y,z
-x,1/2+y,-z
-x,-y,-z
x,1/2-y,z
loop_
_atom_site_type_symbol
_atom_site_label
_atom_site_fract_x
_atom_site_fract_y
_atom_site_fract_z
Si Si1 0.075238 0.080770 0.409402
Si Si2 0.398247 0.923124 0.250017
Si Si3 0.662329 0.919124 0.824876
Si Si4 0.129229 0.417952 0.833398
Si Si5 0.615981 0.417780 0.008505
Si Si6 0.144078 0.582443 0.737009
Si Si7 0.669394 0.582106 0.569622
O O1 0.053071 0.250000 0.403483
O O2 0.249456 0.052461 0.402136
O O3 0.174908 0.995028 0.338332
O O4 0.813731 0.019051 0.494392
O O5 0.371443 0.750000 0.258152
O O6 0.640446 0.976974 0.205483
O O7 0.406845 0.979181 0.196831
O O8 0.618051 0.750000 0.825407
O O9 0.494980 0.971832 0.913168
O O10 0.937963 0.946842 0.759154
O O11 0.163907 0.250000 0.811959
O O12 0.088785 0.496652 0.797820
O O13 0.899380 0.444519 0.929886
O O14 0.550817 0.250000 0.019877
O O15 0.500000 0.500000 0.000000
O O16 0.156557 0.750000 0.747905
O O17 0.393796 0.535775 0.643776
O O18 0.713174 0.750000 0.544147
#
# Coordination Sequence:
#
# PCOD8071681 Si02
#       7
#     4   4   4   4   4   4   4
#     4  10  19  33  56  83 112 145 184 228 279 330
#     4  11  23  38  55  80 116 152 187 228 279 331
#     4  10  22  38  57  81 113 149 187 229 277 332
#     4  10  21  35  56  84 113 145 185 232 276 327
#     4  10  20  36  58  84 113 144 184 232 279 327
#     4  10  19  35  58  85 111 145 187 228 275 332
#     4   9  18  32  54  84 114 141 180 229 278 329
#
# _framework density 18.306086000000001
#
# number of rings (size 3 to 8) (size 9 to 14) (size 15 to 20)
#    0.000    2.000    2.857    0.857    0.000    3.429 
#    0.000    0.714    0.000    0.000    0.000    0.000 
#    0.000    0.000    0.000    0.000    0.000    0.000 
#
# Total GULP energy -347297.052449 kJ/mol
# GULP energy per Si atom -12403.466159 kJ/mol
# Density = 1.826442 g / cm^3
# Si number density = 18.306086 Si / 1000 Ang^3
#
#
#
# Elastic Constant Matrix: (Units=GPa)
#
#
# Indices 1 2 3 4 5 6 
#
# 1 56.0383 27.8072 32.2113 0.0000 7.0612 0.0000
# 2 27.8072 65.9911 43.4477 0.0000 9.0906 0.0000
# 3 32.2113 43.4477 117.3089 0.0000 3.0602 0.0000
# 4 0.0000 0.0000 0.0000 31.7573 0.0000 6.3451
# 5 7.0612 9.0906 3.0602 0.0000 30.9346 0.0000
# 6 0.0000 0.0000 0.0000 6.3451 0.0000 28.2232
#
#
#
# Elastic Compliance Matrix: (Units=1/GPa)
#
#
# Indices 1 2 3 4 5 6 
#
# 1 0.023991 -0.007157 -0.003859 0.000000 -0.002992 0.000000
# 2 -0.007157 0.023035 -0.006449 0.000000 -0.004498 0.000000
# 3 -0.003859 -0.006449 0.011931 0.000000 0.001596 0.000000
# 4 0.000000 0.000000 0.000000 0.032970 0.000000 -0.007412
# 5 -0.002992 -0.004498 0.001596 0.000000 0.034173 0.000000
# 6 0.000000 0.000000 0.000000 -0.007412 0.000000 0.037098
#
#
# Mechanical properties :
#
#
# Convention : Reuss Voigt Hill
#
# Bulk Modulus (GPa) = 41.61830 49.58562 45.60196
# Shear Modulus (GPa) = 24.25579 27.24115 25.74847
#
# Velocity S-wave (km/s) = 3.64402 3.86177 3.75447
# Velocity P-wave (km/s) = 6.36311 6.85785 6.61511
#
# Compressibility (1/GPa) = 0.02402789
#
# Stress axis : x y z
#
# Youngs Moduli (GPa) = 41.68173 43.41292 83.81531
#
# Poissons Ratio (x) = 0.31069 0.32345
# Poissons Ratio (y) = 0.29830 0.54052
# Poissons Ratio (z) = 0.16085 0.27997
#
# Static dielectric constant tensor:
#      x y z
#    x 3.230800 0.000000 -0.202390 
#    y 0.000000 3.369900 0.000000 
#    z -0.202390 0.000000 3.631150 
# 
# 
# High freq. dielectric constant tensor:
#      x y z
#    x 1.690590 0.000000 -0.009940 
#    y 0.000000 1.709230 0.000000 
#    z -0.009940 0.000000 1.724430 
# 
# From -- ./inp_files/28598.got.cif
#   From: 2010.06.25/outbox.cif.g09.slc.cpg/sg11_15_cif.got.tgz:28598.got - 2010.06.27 23:14:04.
