data_PCOD8071459
_publ_section_title
;
Structure prediction by ZEFSAII (Michael W. Deem and Ramdas Pophale) SiO2 
 PCOD8071459
Probable space group: P 21/M
;
_chemical_formula_sum "Si O2"
_cell_formula_units_Z 32
_cell_length_a 22.665376
_cell_length_b 8.645095
_cell_length_c 17.317974
_cell_angle_alpha 90.000000
_cell_angle_beta 150.201554
_cell_angle_gamma 90.000000
_cell_volume 1686.331093
_symmetry_space_group_name_H-M "P 21/M"
_symmetry_group_IT_number 11
_symmetry_cell_setting 'monoclinic'
loop_
_space_group_symop_operation_xyz
x,y,z
-x,1/2+y,-z
-x,-y,-z
x,1/2-y,z
loop_
_atom_site_type_symbol
_atom_site_label
_atom_site_fract_x
_atom_site_fract_y
_atom_site_fract_z
Si Si1 0.314831 0.931381 0.568888
Si Si2 0.941350 0.071235 0.308010
Si Si3 0.261552 0.431284 0.821962
Si Si4 0.236870 0.571246 0.028506
Si Si5 0.120587 0.566836 0.046349
Si Si6 0.196161 0.569965 0.594689
Si Si7 0.570375 0.067197 0.867808
Si Si8 0.868052 0.432143 0.768351
O O1 0.343992 0.750000 0.599585
O O2 0.244407 0.977895 0.565732
O O3 0.237508 0.984264 0.407592
O O4 0.434710 0.027859 0.699958
O O5 0.975314 0.250000 0.359740
O O6 0.853220 0.019661 0.275715
O O7 0.879322 0.044247 0.155406
O O8 0.057711 0.967762 0.442581
O O9 0.245439 0.250000 0.815628
O O10 0.271194 0.473271 0.742618
O O11 0.382145 0.486767 0.000402
O O12 0.263598 0.750000 0.070308
O O13 0.210436 0.497773 0.083163
O O14 0.352426 0.500192 0.117043
O O15 0.117915 0.750000 0.037108
O O16 0.163039 0.512954 0.179547
O O17 0.989009 0.509341 0.877722
O O18 0.215556 0.750000 0.632707
O O19 0.589497 0.250000 0.898367
O O20 0.887579 0.250000 0.787004
#
# Coordination Sequence:
#
# PCOD8071459 Si02
#       8
#     4   4   4   4   4   4   4   4
#     4  10  22  38  53  73 104 140 176 214 259 307
#     4  10  19  33  53  79 110 138 170 211 257 308
#     4  11  22  37  56  77 103 134 170 212 262 313
#     4   8  16  31  52  77 102 133 171 210 252 300
#     4   9  16  30  54  80 107 137 168 204 251 305
#     4  11  22  35  52  75 104 137 174 215 259 309
#     4  10  21  38  57  75  99 133 176 220 258 303
#     4   9  18  32  51  78 110 138 166 206 253 301
#
# _framework density 18.976106000000001
#
# number of rings (size 3 to 8) (size 9 to 14) (size 15 to 20)
#    0.000    2.250    0.000    4.125    0.000    2.000 
#    0.000    3.750    0.000    0.000    0.000    0.000 
#    0.000    0.000    0.000    0.000    0.000    0.000 
#
# Total GULP energy -396789.126321 kJ/mol
# GULP energy per Si atom -12399.660198 kJ/mol
# Density = 1.893292 g / cm^3
# Si number density = 18.976106 Si / 1000 Ang^3
#
#
#
# Elastic Constant Matrix: (Units=GPa)
#
#
# Indices 1 2 3 4 5 6 
#
# 1 89.8081 28.0452 57.7291 0.0000 -17.9035 0.0000
# 2 28.0452 38.1989 25.0769 0.0000 -6.5540 0.0000
# 3 57.7291 25.0769 112.5927 0.0000 -2.8093 0.0000
# 4 0.0000 0.0000 0.0000 30.6223 0.0000 4.3535
# 5 -17.9035 -6.5540 -2.8093 0.0000 22.8472 0.0000
# 6 0.0000 0.0000 0.0000 4.3535 0.0000 20.4511
#
#
#
# Elastic Compliance Matrix: (Units=1/GPa)
#
#
# Indices 1 2 3 4 5 6 
#
# 1 0.022480 -0.007888 -0.009415 0.000000 0.014195 0.000000
# 2 -0.007888 0.034953 -0.003656 0.000000 0.003396 0.000000
# 3 -0.009415 -0.003656 0.014357 0.000000 -0.006661 0.000000
# 4 0.000000 0.000000 0.000000 0.033675 0.000000 -0.007169
# 5 0.014195 0.003396 -0.006661 0.000000 0.055048 0.000000
# 6 0.000000 0.000000 0.000000 -0.007169 0.000000 0.050423
#
#
# Mechanical properties :
#
#
# Convention : Reuss Voigt Hill
#
# Bulk Modulus (GPa) = 33.47616 51.36690 42.42153
# Shear Modulus (GPa) = 19.02511 23.43402 21.22956
#
# Velocity S-wave (km/s) = 3.16979 3.51796 3.34840
# Velocity P-wave (km/s) = 5.57461 6.60526 6.11170
#
# Compressibility (1/GPa) = 0.02987200
#
# Stress axis : x y z
#
# Youngs Moduli (GPa) = 44.48379 28.61011 69.65316
#
# Poissons Ratio (x) = 0.22568 0.65579
# Poissons Ratio (y) = 0.35090 0.25462
# Poissons Ratio (z) = 0.41882 0.10458
#
# Static dielectric constant tensor:
#      x y z
#    x 3.888340 0.000000 -0.212140 
#    y 0.000000 3.319550 0.000000 
#    z -0.212140 0.000000 3.411970 
# 
# 
# High freq. dielectric constant tensor:
#      x y z
#    x 1.745040 0.000000 -0.009850 
#    y 0.000000 1.726990 0.000000 
#    z -0.009850 0.000000 1.727980 
# 
# From -- ./inp_files/61792.got.cif
#   From: 2010.06.25/outbox.cif.g09.slc.cpg/sg11_31_cif.got.tgz:61792.got - 2010.06.27 23:14:04.
