data_PCOD8071813
_publ_section_title
;
Structure prediction by ZEFSAII (Michael W. Deem and Ramdas Pophale) SiO2 
 PCOD8071813
Probable space group: P 21/M
;
_chemical_formula_sum "Si O2"
_cell_formula_units_Z 32
_cell_length_a 17.688303
_cell_length_b 14.232132
_cell_length_c 15.867389
_cell_angle_alpha 90.000000
_cell_angle_beta 156.013195
_cell_angle_gamma 90.000000
_cell_volume 1623.866008
_symmetry_space_group_name_H-M "P 21/M"
_symmetry_group_IT_number 11
_symmetry_cell_setting 'monoclinic'
loop_
_space_group_symop_operation_xyz
x,y,z
-x,1/2+y,-z
-x,-y,-z
x,1/2-y,z
loop_
_atom_site_type_symbol
_atom_site_label
_atom_site_fract_x
_atom_site_fract_y
_atom_site_fract_z
Si Si1 0.352944 0.029306 0.056934
Si Si2 0.625534 0.360820 0.624074
Si Si3 0.575815 0.855612 0.025149
Si Si4 0.009862 0.854282 0.318442
Si Si5 0.056684 0.643149 0.184466
Si Si6 0.323182 0.463627 0.215366
Si Si7 0.665268 0.353562 0.066060
Si Si8 0.995983 0.391246 0.509930
O O1 0.419559 0.042520 0.221077
O O2 0.472331 0.086246 0.108982
O O3 0.144303 0.065641 0.837843
O O4 0.354726 0.919125 0.035788
O O5 0.619588 0.250000 0.642972
O O6 0.429065 0.393677 0.386347
O O7 0.671030 0.426805 0.750507
O O8 0.779001 0.383479 0.710321
O O9 0.508131 0.750000 0.939285
O O10 0.794248 0.853557 0.271740
O O11 0.459698 0.897259 0.985640
O O12 0.917429 0.750000 0.220610
O O13 0.133060 0.867376 0.359116
O O14 0.114870 0.866365 0.514986
O O15 0.988630 0.750000 0.098647
O O16 0.888439 0.571117 0.999841
O O17 0.595440 0.250000 0.968547
O O18 0.879589 0.345860 0.315346
O O19 0.000000 0.500000 0.500000
#
# Coordination Sequence:
#
# PCOD8071813 Si02
#       8
#     4   4   4   4   4   4   4   4
#     4  10  19  34  53  77 104 138 175 216 264 311
#     4  10  21  37  57  82 107 138 176 214 266 327
#     4  10  21  36  53  75 106 139 179 226 263 303
#     4   9  17  31  51  78 106 134 172 218 263 302
#     4   9  18  34  57  82 110 137 170 218 267 315
#     4  10  21  36  56  81 110 140 172 219 268 320
#     4  11  22  35  52  75 104 144 186 218 259 312
#     4  11  19  32  53  72 103 141 172 215 261 304
#
# _framework density 19.706057999999999
#
# number of rings (size 3 to 8) (size 9 to 14) (size 15 to 20)
#    0.000    2.000    2.500    3.375    0.000    3.000 
#    0.000    2.500    0.000    0.000    0.000    5.250 
#    0.000    0.000    0.000    0.000    0.000    0.000 
#
# Total GULP energy -396522.957332 kJ/mol
# GULP energy per Si atom -12391.342417 kJ/mol
# Density = 1.966121 g / cm^3
# Si number density = 19.706058 Si / 1000 Ang^3
#
#
#
# Elastic Constant Matrix: (Units=GPa)
#
#
# Indices 1 2 3 4 5 6 
#
# 1 69.9706 26.8958 4.0603 0.0000 -1.9558 0.0000
# 2 26.8958 109.9066 5.5923 0.0000 -5.1713 0.0000
# 3 4.0603 5.5923 32.8878 0.0000 -5.0447 0.0000
# 4 0.0000 0.0000 0.0000 38.2301 0.0000 7.9316
# 5 -1.9558 -5.1713 -5.0447 0.0000 21.4316 0.0000
# 6 0.0000 0.0000 0.0000 7.9316 0.0000 38.6607
#
#
#
# Elastic Compliance Matrix: (Units=1/GPa)
#
#
# Indices 1 2 3 4 5 6 
#
# 1 0.015832 -0.003799 -0.001274 0.000000 0.000228 0.000000
# 2 -0.003799 0.010166 -0.000972 0.000000 0.001878 0.000000
# 3 -0.001274 -0.000972 0.031824 0.000000 0.007140 0.000000
# 4 0.000000 0.000000 0.000000 0.027320 0.000000 -0.005605
# 5 0.000228 0.001878 0.007140 0.000000 0.048815 0.000000
# 6 0.000000 0.000000 0.000000 -0.005605 0.000000 0.027016
#
#
# Mechanical properties :
#
#
# Convention : Reuss Voigt Hill
#
# Bulk Modulus (GPa) = 21.86548 31.76241 26.81394
# Shear Modulus (GPa) = 26.55247 31.41225 28.98236
#
# Velocity S-wave (km/s) = 3.67471 3.99687 3.83917
# Velocity P-wave (km/s) = 5.39672 6.11989 5.76965
#
# Compressibility (1/GPa) = 0.04573420
#
# Stress axis : x y z
#
# Youngs Moduli (GPa) = 63.16227 98.36663 31.42267
#
# Poissons Ratio (x) = 0.37368 0.04002
# Poissons Ratio (y) = 0.23994 0.03053
# Poissons Ratio (z) = 0.08045 0.09558
#
# Static dielectric constant tensor:
#      x y z
#    x 3.798530 0.000000 -0.081970 
#    y 0.000000 3.549510 0.000000 
#    z -0.081970 0.000000 3.784210 
# 
# 
# High freq. dielectric constant tensor:
#      x y z
#    x 1.763460 0.000000 -0.003490 
#    y 0.000000 1.777240 0.000000 
#    z -0.003490 0.000000 1.740400 
# 
# From -- ./inp_files/53728.got.cif
#   From: 2010.06.25/outbox.cif.g09.slc.cpg/sg11_27_cif.got.tgz:53728.got - 2010.06.27 23:14:04.
