data_PCOD8071924
_publ_section_title
;
Structure prediction by ZEFSAII (Michael W. Deem and Ramdas Pophale) SiO2 
 PCOD8071924
Probable space group: P 21/M
;
_chemical_formula_sum "Si O2"
_cell_formula_units_Z 22
_cell_length_a 8.888290
_cell_length_b 14.513149
_cell_length_c 8.859825
_cell_angle_alpha 90.000000
_cell_angle_beta 72.642994
_cell_angle_gamma 90.000000
_cell_volume 1090.849341
_symmetry_space_group_name_H-M "P 21/M"
_symmetry_group_IT_number 11
_symmetry_cell_setting 'monoclinic'
loop_
_space_group_symop_operation_xyz
x,y,z
-x,1/2+y,-z
-x,-y,-z
x,1/2-y,z
loop_
_atom_site_type_symbol
_atom_site_label
_atom_site_fract_x
_atom_site_fract_y
_atom_site_fract_z
Si Si1 0.059003 0.914203 0.165292
Si Si2 0.508671 0.750000 0.272118
Si Si3 0.069842 0.605856 0.807000
Si Si4 0.692834 0.250000 0.387220
Si Si5 0.485314 0.750000 0.841117
Si Si6 0.821062 0.750000 0.882455
Si Si7 0.412135 0.904818 0.073779
Si Si8 0.843076 0.750000 0.233092
O O1 0.233370 0.922164 0.187265
O O2 0.947529 0.834171 0.262313
O O3 0.091029 0.895724 0.980108
O O4 0.954236 0.002174 0.240505
O O5 0.353976 0.750000 0.423800
O O6 0.506428 0.843931 0.170923
O O7 0.660399 0.750000 0.341377
O O8 0.212917 0.656503 0.680431
O O9 0.911866 0.658530 0.807543
O O10 0.535323 0.250000 0.332333
O O11 0.665291 0.750000 0.832600
O O12 0.399634 0.841496 0.929368
O O13 0.802017 0.750000 0.067455
O O14 0.500000 0.000000 0.000000
#
# Coordination Sequence:
#
# PCOD8071924 Si02
#       8
#     4   2   4   2   2   2   4   2
#     4  10  19  34  61  92 114 151 206 252 292 344
#     4  11  26  40  59  89 128 156 193 251 305 363
#     4   9  19  33  60  88 116 154 198 248 295 358
#     4  11  22  42  57  86 126 165 189 240 318 372
#     4  11  19  35  59  86 118 159 203 242 297 358
#     4   9  16  31  54  85 113 147 206 252 286 333
#     4  11  22  38  62  92 120 153 209 255 292 342
#     4  10  19  34  55  86 125 151 199 251 296 338
#
# _framework density 20.167771999999999
#
# number of rings (size 3 to 8) (size 9 to 14) (size 15 to 20)
#    0.000    1.818    3.636    2.727    5.091    0.000 
#    0.000    8.182    0.000    0.000    0.000    0.000 
#    0.000    0.000    0.000    0.000    0.000    0.000 
#
# Total GULP energy -272546.917556 kJ/mol
# GULP energy per Si atom -12388.496253 kJ/mol
# Density = 2.012187 g / cm^3
# Si number density = 20.167772 Si / 1000 Ang^3
#
#
#
# Elastic Constant Matrix: (Units=GPa)
#
#
# Indices 1 2 3 4 5 6 
#
# 1 134.4763 50.7963 10.0018 0.0000 -8.5030 0.0000
# 2 50.7963 173.4390 29.6705 0.0000 -13.2080 0.0000
# 3 10.0018 29.6705 55.2136 0.0000 -12.4933 0.0000
# 4 0.0000 0.0000 0.0000 14.7825 0.0000 -6.4666
# 5 -8.5030 -13.2080 -12.4933 0.0000 19.7208 0.0000
# 6 0.0000 0.0000 0.0000 -6.4666 0.0000 18.4671
#
#
#
# Elastic Compliance Matrix: (Units=1/GPa)
#
#
# Indices 1 2 3 4 5 6 
#
# 1 0.008445 -0.002344 0.000232 0.000000 0.002218 0.000000
# 2 -0.002344 0.007102 -0.002970 0.000000 0.001865 0.000000
# 3 0.000232 -0.002970 0.022457 0.000000 0.012338 0.000000
# 4 0.000000 0.000000 0.000000 0.079884 0.000000 0.027973
# 5 0.002218 0.001865 0.012338 0.000000 0.060729 0.000000
# 6 0.000000 0.000000 0.000000 0.027973 0.000000 0.063946
#
#
# Mechanical properties :
#
#
# Convention : Reuss Voigt Hill
#
# Bulk Modulus (GPa) = 35.92019 60.45179 48.18599
# Shear Modulus (GPa) = 19.08343 28.77143 23.92743
#
# Velocity S-wave (km/s) = 3.07943 3.78114 3.44818
# Velocity P-wave (km/s) = 5.52206 7.00730 6.30854
#
# Compressibility (1/GPa) = 0.02783950
#
# Stress axis : x y z
#
# Youngs Moduli (GPa) = 118.41794 140.79926 44.52906
#
# Poissons Ratio (x) = 0.33003 -0.01032
# Poissons Ratio (y) = 0.27757 0.13226
# Poissons Ratio (z) = -0.02744 0.41819
#
# Static dielectric constant tensor:
#      x y z
#    x 3.788150 0.000000 -0.093830 
#    y 0.000000 3.841400 0.000000 
#    z -0.093830 0.000000 3.108680 
# 
# 
# High freq. dielectric constant tensor:
#      x y z
#    x 1.806360 0.000000 -0.006830 
#    y 0.000000 1.797590 0.000000 
#    z -0.006830 0.000000 1.726710 
# 
# From -- ./inp_files/12504.got.cif
#   From: 2010.06.25/outbox.cif.g09.slc.cpg/sg11_7_cif.got.tgz:12504.got - 2010.06.27 23:14:04.
