data_PCOD8071471
_publ_section_title
;
Structure prediction by ZEFSAII (Michael W. Deem and Ramdas Pophale) SiO2 
 PCOD8071471
Probable space group: P 21/M
;
_chemical_formula_sum "Si O2"
_cell_formula_units_Z 32
_cell_length_a 23.006417
_cell_length_b 8.528733
_cell_length_c 28.244666
_cell_angle_alpha 90.000000
_cell_angle_beta 162.071592
_cell_angle_gamma 90.000000
_cell_volume 1705.998420
_symmetry_space_group_name_H-M "P 21/M"
_symmetry_group_IT_number 11
_symmetry_cell_setting 'monoclinic'
loop_
_space_group_symop_operation_xyz
x,y,z
-x,1/2+y,-z
-x,-y,-z
x,1/2-y,z
loop_
_atom_site_type_symbol
_atom_site_label
_atom_site_fract_x
_atom_site_fract_y
_atom_site_fract_z
Si Si1 0.965084 0.067170 0.023617
Si Si2 0.172792 0.932042 0.815435
Si Si3 0.206924 0.067005 0.740679
Si Si4 0.220274 0.934101 0.486178
Si Si5 0.438731 0.565029 0.307115
Si Si6 0.215245 0.935161 0.588067
Si Si7 0.473763 0.933841 0.871299
Si Si8 0.367803 0.435882 0.356313
O O1 0.963859 0.250000 0.016609
O O2 0.145667 0.020119 0.196527
O O3 0.749920 0.016253 0.870085
O O4 0.000000 0.000000 0.000000
O O5 0.177351 0.750000 0.806030
O O6 0.228387 0.034246 0.812869
O O7 0.968684 0.978900 0.677900
O O8 0.328231 0.974224 0.975367
O O9 0.244066 0.250000 0.759907
O O10 0.996789 0.013136 0.562393
O O11 0.356792 0.964638 0.828386
O O12 0.179617 0.750000 0.454636
O O13 0.268499 0.994481 0.576663
O O14 0.388709 0.973067 0.581696
O O15 0.476286 0.750000 0.333739
O O16 0.424008 0.514974 0.350388
O O17 0.227133 0.750000 0.598794
O O18 0.359653 0.005576 0.738186
O O19 0.511445 0.750000 0.895154
O O20 0.500000 0.500000 0.500000
O O21 0.394261 0.250000 0.372528
#
# Coordination Sequence:
#
# PCOD8071471 Si02
#       8
#     4   4   4   4   4   4   4   4
#     4   8  16  30  50  75 105 136 171 209 249 293
#     4  11  22  36  52  74 102 137 175 214 258 310
#     4  10  19  34  53  76 102 132 169 212 260 317
#     4  10  20  38  58  77 100 133 174 215 256 308
#     4  10  19  34  56  81 105 137 176 215 255 306
#     4   8  18  34  53  74 100 131 168 213 261 308
#     4  11  20  33  52  76 103 133 167 213 267 317
#     4  10  19  33  53  81 114 147 176 213 258 301
#
# _framework density 18.757345000000001
#
# number of rings (size 3 to 8) (size 9 to 14) (size 15 to 20)
#    0.000    2.250    0.000    4.500    0.000    1.000 
#    0.000    8.125    0.000    3.000    0.000    0.000 
#    0.000    0.000    0.000    0.000    0.000    0.000 
#
# Total GULP energy -396574.385316 kJ/mol
# GULP energy per Si atom -12392.949541 kJ/mol
# Density = 1.871465 g / cm^3
# Si number density = 18.757345 Si / 1000 Ang^3
#
#
#
# Elastic Constant Matrix: (Units=GPa)
#
#
# Indices 1 2 3 4 5 6 
#
# 1 47.7248 13.3263 48.6622 0.0000 9.6834 0.0000
# 2 13.3263 49.4460 30.1340 0.0000 -1.4050 0.0000
# 3 48.6622 30.1340 165.6171 0.0000 -5.6678 0.0000
# 4 0.0000 0.0000 0.0000 27.1240 0.0000 1.5833
# 5 9.6834 -1.4050 -5.6678 0.0000 27.3292 0.0000
# 6 0.0000 0.0000 0.0000 1.5833 0.0000 22.4646
#
#
#
# Elastic Compliance Matrix: (Units=1/GPa)
#
#
# Indices 1 2 3 4 5 6 
#
# 1 0.035470 -0.003735 -0.010252 0.000000 -0.014886 0.000000
# 2 -0.003735 0.023142 -0.003049 0.000000 0.001881 0.000000
# 3 -0.010252 -0.003049 0.009793 0.000000 0.005507 0.000000
# 4 0.000000 0.000000 0.000000 0.037020 0.000000 -0.002609
# 5 -0.014886 0.001881 0.005507 0.000000 0.043104 0.000000
# 6 0.000000 0.000000 0.000000 -0.002609 0.000000 0.044698
#
#
# Mechanical properties :
#
#
# Convention : Reuss Voigt Hill
#
# Bulk Modulus (GPa) = 29.12524 49.67032 39.39778
# Shear Modulus (GPa) = 20.94293 26.76124 23.85209
#
# Velocity S-wave (km/s) = 3.34506 3.78128 3.56984
# Velocity P-wave (km/s) = 5.52090 6.75293 6.16775
#
# Compressibility (1/GPa) = 0.03433448
#
# Stress axis : x y z
#
# Youngs Moduli (GPa) = 28.19299 43.21099 102.10897
#
# Poissons Ratio (x) = 0.16138 1.04680
# Poissons Ratio (y) = 0.10529 0.31133
# Poissons Ratio (z) = 0.28903 0.13175
#
# Static dielectric constant tensor:
#      x y z
#    x 3.207720 0.000000 -0.112830 
#    y 0.000000 3.364300 0.000000 
#    z -0.112830 0.000000 4.139870 
# 
# 
# High freq. dielectric constant tensor:
#      x y z
#    x 1.690160 0.000000 -0.000990 
#    y 0.000000 1.728710 0.000000 
#    z -0.000990 0.000000 1.750510 
# 
# From -- ./inp_files/72195.got.cif
#   From: 2010.06.25/outbox.cif.g09.slc.cpg/sg11_37_cif.got.tgz:72195.got - 2010.06.27 23:14:04.
