data_PCOD8071214
_publ_section_title
;
Structure prediction by ZEFSAII (Michael W. Deem and Ramdas Pophale) SiO2 
 PCOD8071214
Probable space group: P 21/M
;
_chemical_formula_sum "Si O2"
_cell_formula_units_Z 32
_cell_length_a 22.769459
_cell_length_b 9.052610
_cell_length_c 11.620967
_cell_angle_alpha 90.000000
_cell_angle_beta 133.430789
_cell_angle_gamma 90.000000
_cell_volume 1739.515218
_symmetry_space_group_name_H-M "P 21/M"
_symmetry_group_IT_number 11
_symmetry_cell_setting 'monoclinic'
loop_
_space_group_symop_operation_xyz
x,y,z
-x,1/2+y,-z
-x,-y,-z
x,1/2-y,z
loop_
_atom_site_type_symbol
_atom_site_label
_atom_site_fract_x
_atom_site_fract_y
_atom_site_fract_z
Si Si1 0.925259 0.920976 0.046289
Si Si2 0.105647 0.580872 0.224054
Si Si3 0.742972 0.076738 0.413823
Si Si4 0.188900 0.577340 0.942913
Si Si5 0.391460 0.575765 0.594532
Si Si6 0.646866 0.422277 0.709079
Si Si7 0.731463 0.924466 0.156922
Si Si8 0.571276 0.577331 0.813663
O O1 0.903059 0.750000 0.030188
O O2 0.021163 0.948647 0.174218
O O3 0.891775 0.010123 0.110365
O O4 0.884890 0.978649 0.874486
O O5 0.111895 0.750000 0.189925
O O6 0.176053 0.541991 0.407168
O O7 0.734588 0.250000 0.374097
O O8 0.666606 0.014686 0.383590
O O9 0.747835 0.984581 0.304761
O O10 0.176906 0.750000 0.904198
O O11 0.204382 0.498680 0.842292
O O12 0.262102 0.543965 0.128795
O O13 0.379494 0.750000 0.573816
O O14 0.364654 0.511865 0.434311
O O15 0.484006 0.530776 0.747221
O O16 0.627090 0.250000 0.686127
O O17 0.583145 0.499227 0.707520
O O18 0.744139 0.750000 0.170958
O O19 0.640307 0.969904 0.997092
O O20 0.574348 0.750000 0.792576
#
# Coordination Sequence:
#
# PCOD8071214 Si02
#       8
#     4   4   4   4   4   4   4   4
#     4  10  19  32  54  83 110 133 161 201 250 300
#     4   9  19  35  54  78 108 138 166 200 245 299
#     4  10  20  36  55  72  96 134 176 211 246 295
#     4  10  19  33  54  77 101 134 174 208 246 300
#     4   9  17  30  50  74  99 130 166 204 249 299
#     4   9  17  30  50  75 101 129 164 205 246 296
#     4  10  21  36  51  71 101 133 169 215 259 296
#     4   9  18  32  49  71 101 133 163 203 254 299
#
# _framework density 18.395931000000001
#
# number of rings (size 3 to 8) (size 9 to 14) (size 15 to 20)
#    0.000    2.500    0.000    2.250    0.000    4.500 
#    0.000    1.875    0.000    0.000    0.000    0.000 
#    0.000    0.000    0.000    0.000    0.000    0.000 
#
# Total GULP energy -396860.365712 kJ/mol
# GULP energy per Si atom -12401.886429 kJ/mol
# Density = 1.835406 g / cm^3
# Si number density = 18.395931 Si / 1000 Ang^3
#
#
#
# Elastic Constant Matrix: (Units=GPa)
#
#
# Indices 1 2 3 4 5 6 
#
# 1 150.8808 58.7474 66.0631 0.0000 -5.7126 0.0000
# 2 58.7474 68.3511 36.6453 0.0000 -5.0838 0.0000
# 3 66.0631 36.6453 75.0102 0.0000 -7.3808 0.0000
# 4 0.0000 0.0000 0.0000 21.2803 0.0000 -5.2509
# 5 -5.7126 -5.0838 -7.3808 0.0000 23.9810 0.0000
# 6 0.0000 0.0000 0.0000 -5.2509 0.0000 32.9964
#
#
#
# Elastic Compliance Matrix: (Units=1/GPa)
#
#
# Indices 1 2 3 4 5 6 
#
# 1 0.012706 -0.006693 -0.008005 0.000000 -0.000856 0.000000
# 2 -0.006693 0.023384 -0.005361 0.000000 0.001713 0.000000
# 3 -0.008005 -0.005361 0.023411 0.000000 0.004162 0.000000
# 4 0.000000 0.000000 0.000000 0.048913 0.000000 0.007784
# 5 -0.000856 0.001713 0.004162 0.000000 0.043140 0.000000
# 6 0.000000 0.000000 0.000000 0.007784 0.000000 0.031545
#
#
# Mechanical properties :
#
#
# Convention : Reuss Voigt Hill
#
# Bulk Modulus (GPa) = 51.59180 68.57263 60.08222
# Shear Modulus (GPa) = 21.76957 24.50396 23.13676
#
# Velocity S-wave (km/s) = 3.44378 3.65366 3.55027
# Velocity P-wave (km/s) = 6.62713 7.42670 7.03828
#
# Compressibility (1/GPa) = 0.01938292
#
# Stress axis : x y z
#
# Youngs Moduli (GPa) = 78.70050 42.76341 42.71569
#
# Poissons Ratio (x) = 0.28621 0.34195
# Poissons Ratio (y) = 0.52673 0.22901
# Poissons Ratio (z) = 0.63002 0.22926
#
# Static dielectric constant tensor:
#      x y z
#    x 3.554710 0.000000 0.098000 
#    y 0.000000 3.277640 0.000000 
#    z 0.098000 0.000000 3.308180 
# 
# 
# High freq. dielectric constant tensor:
#      x y z
#    x 1.721280 0.000000 0.004770 
#    y 0.000000 1.702460 0.000000 
#    z 0.004770 0.000000 1.702350 
# 
# From -- ./inp_files/42880.got.cif
#   From: 2010.06.25/outbox.cif.g09.slc.cpg/sg11_22_cif.got.tgz:42880.got - 2010.06.27 23:14:04.
