data_PCOD8071291
_publ_section_title
;
Structure prediction by ZEFSAII (Michael W. Deem and Ramdas Pophale) SiO2 
 PCOD8071291
Probable space group: P 21/M
;
_chemical_formula_sum "Si O2"
_cell_formula_units_Z 24
_cell_length_a 14.003808
_cell_length_b 9.017120
_cell_length_c 26.559310
_cell_angle_alpha 90.000000
_cell_angle_beta 154.808116
_cell_angle_gamma 90.000000
_cell_volume 1427.527763
_symmetry_space_group_name_H-M "P 21/M"
_symmetry_group_IT_number 11
_symmetry_cell_setting 'monoclinic'
loop_
_space_group_symop_operation_xyz
x,y,z
-x,1/2+y,-z
-x,-y,-z
x,1/2-y,z
loop_
_atom_site_type_symbol
_atom_site_label
_atom_site_fract_x
_atom_site_fract_y
_atom_site_fract_z
Si Si1 0.942063 0.579638 0.545853
Si Si2 0.355272 0.921524 0.670917
Si Si3 0.218073 0.925969 0.081267
Si Si4 0.841928 0.078071 0.249378
Si Si5 0.339369 0.420387 0.039192
Si Si6 0.265706 0.079664 0.894425
O O1 0.869008 0.750000 0.503917
O O2 0.747961 0.474931 0.431446
O O3 0.176646 0.551006 0.629764
O O4 0.976523 0.539509 0.620989
O O5 0.423569 0.750000 0.699139
O O6 0.571073 0.018648 0.786013
O O7 0.200833 0.750000 0.076877
O O8 0.236233 0.973018 0.031751
O O9 0.000000 0.000000 0.000000
O O10 0.844165 0.250000 0.237016
O O11 0.595658 0.031872 0.151340
O O12 0.905836 0.991083 0.228251
O O13 0.332487 0.250000 0.055096
O O14 0.190952 0.438908 0.917165
O O15 0.297911 0.250000 0.896094
O O16 0.500000 0.000000 0.000000
#
# Coordination Sequence:
#
# PCOD8071291 Si02
#       6
#     4   4   4   4   4   4
#     4   9  17  30  48  71 100 132 161 195 242 288
#     4  10  19  33  49  69  98 128 163 203 242 287
#     4  12  24  36  52  71  94 128 168 206 245 291
#     4   9  16  28  46  69 100 131 158 194 238 286
#     4   9  17  32  47  65  96 129 160 202 244 280
#     4   9  17  27  42  65  95 127 159 195 237 287
#
# _framework density 16.812282
#
# number of rings (size 3 to 8) (size 9 to 14) (size 15 to 20)
#    0.000    2.333    1.667    3.500    0.000    4.667 
#    0.000    0.000    0.000    0.000    0.000    1.167 
#    0.000    0.000    0.000    0.000    0.000    0.000 
#
# Total GULP energy -297515.621843 kJ/mol
# GULP energy per Si atom -12396.484243 kJ/mol
# Density = 1.677402 g / cm^3
# Si number density = 16.812282 Si / 1000 Ang^3
#
#
#
# Elastic Constant Matrix: (Units=GPa)
#
#
# Indices 1 2 3 4 5 6 
#
# 1 73.9202 55.3672 54.5931 0.0000 -22.9356 0.0000
# 2 55.3672 117.2193 55.0021 0.0000 -13.6863 0.0000
# 3 54.5931 55.0021 80.5469 0.0000 -23.2984 0.0000
# 4 0.0000 0.0000 0.0000 28.9471 0.0000 -7.9941
# 5 -22.9356 -13.6863 -23.2984 0.0000 28.7704 0.0000
# 6 0.0000 0.0000 0.0000 -7.9941 0.0000 28.3664
#
#
#
# Elastic Compliance Matrix: (Units=1/GPa)
#
#
# Indices 1 2 3 4 5 6 
#
# 1 0.033170 -0.007854 -0.013778 0.000000 0.011549 0.000000
# 2 -0.007854 0.014448 -0.005701 0.000000 -0.004005 0.000000
# 3 -0.013778 -0.005701 0.028319 0.000000 0.009236 0.000000
# 4 0.000000 0.000000 0.000000 0.037461 0.000000 0.010557
# 5 0.011549 -0.004005 0.009236 0.000000 0.049539 0.000000
# 6 0.000000 0.000000 0.000000 0.010557 0.000000 0.038228
#
#
# Mechanical properties :
#
#
# Convention : Reuss Voigt Hill
#
# Bulk Modulus (GPa) = 47.01483 66.84570 56.93026
# Shear Modulus (GPa) = 19.01699 24.33171 21.67435
#
# Velocity S-wave (km/s) = 3.36689 3.80841 3.59444
# Velocity P-wave (km/s) = 6.56809 7.69318 7.15279
#
# Compressibility (1/GPa) = 0.02126988
#
# Stress axis : x y z
#
# Youngs Moduli (GPa) = 30.14773 69.21208 35.31250
#
# Poissons Ratio (x) = 0.54359 0.48654
# Poissons Ratio (y) = 0.23678 0.20133
# Poissons Ratio (z) = 0.41538 0.39460
#
# Static dielectric constant tensor:
#      x y z
#    x 1.998940 0.000000 0.876920 
#    y 0.000000 3.329910 0.000000 
#    z 0.876920 0.000000 1.630780 
# 
# 
# High freq. dielectric constant tensor:
#      x y z
#    x 1.623700 0.000000 -0.044300 
#    y 0.000000 1.656470 0.000000 
#    z -0.044300 0.000000 1.625990 
# 
# From -- ./inp_files/37000.got.cif
#   From: 2010.06.25/outbox.cif.g09.slc.cpg/sg11_19_cif.got.tgz:37000.got - 2010.06.27 23:14:04.
