data_PCOD8071463
_publ_section_title
;
Structure prediction by ZEFSAII (Michael W. Deem and Ramdas Pophale) SiO2 
 PCOD8071463
Probable space group: P 21/M
;
_chemical_formula_sum "Si O2"
_cell_formula_units_Z 28
_cell_length_a 16.677456
_cell_length_b 8.771879
_cell_length_c 25.360392
_cell_angle_alpha 90.000000
_cell_angle_beta 154.621562
_cell_angle_gamma 90.000000
_cell_volume 1590.104451
_symmetry_space_group_name_H-M "P 21/M"
_symmetry_group_IT_number 11
_symmetry_cell_setting 'monoclinic'
loop_
_space_group_symop_operation_xyz
x,y,z
-x,1/2+y,-z
-x,-y,-z
x,1/2-y,z
loop_
_atom_site_type_symbol
_atom_site_label
_atom_site_fract_x
_atom_site_fract_y
_atom_site_fract_z
Si Si1 0.074473 0.427623 0.657844
Si Si2 0.669802 0.429612 0.385641
Si Si3 0.726350 0.927431 0.816429
Si Si4 0.301909 0.071732 0.896425
Si Si5 0.959124 0.926101 0.058751
Si Si6 0.358474 0.569989 0.749575
Si Si7 0.263779 0.570262 0.982904
O O1 0.098579 0.250000 0.657391
O O2 0.154316 0.463394 0.762750
O O3 0.176239 0.528767 0.674674
O O4 0.856628 0.477056 0.527826
O O5 0.650643 0.250000 0.369537
O O6 0.487307 0.488391 0.308974
O O7 0.672526 0.494284 0.327764
O O8 0.742361 0.750000 0.811334
O O9 0.812714 0.959103 0.925221
O O10 0.834125 0.022635 0.835956
O O11 0.332355 0.250000 0.923172
O O12 0.500000 0.000000 0.000000
O O13 0.214915 0.998416 0.896966
O O14 0.962313 0.750000 0.076362
O O15 0.898616 0.022015 0.073492
O O16 0.393457 0.750000 0.771400
O O17 0.535670 0.489131 0.880114
O O18 0.272202 0.750000 0.983315
#
# Coordination Sequence:
#
# PCOD8071463 Si02
#       7
#     4   4   4   4   4   4   4
#     4  10  21  36  54  77 106 143 182 218 260 318
#     4   9  18  34  54  78 110 144 176 212 262 319
#     4   9  17  32  53  78 109 142 171 208 262 322
#     4  11  22  36  55  78 106 140 181 225 267 309
#     4  10  19  33  53  80 109 137 172 217 267 317
#     4  11  20  33  53  78 110 144 175 216 265 316
#     4  12  23  35  54  78 107 142 181 223 267 315
#
# _framework density 17.608906000000001
#
# number of rings (size 3 to 8) (size 9 to 14) (size 15 to 20)
#    0.000    1.714    2.857    3.000    0.000    1.143 
#    0.000    1.429    0.000    0.857    0.000    0.000 
#    0.000    0.000    0.000    0.000    0.000    0.000 
#
# Total GULP energy -347271.303162 kJ/mol
# GULP energy per Si atom -12402.546542 kJ/mol
# Density = 1.756883 g / cm^3
# Si number density = 17.608906 Si / 1000 Ang^3
#
#
#
# Elastic Constant Matrix: (Units=GPa)
#
#
# Indices 1 2 3 4 5 6 
#
# 1 117.8680 39.5687 64.5484 0.0000 17.4241 0.0000
# 2 39.5687 74.1205 38.1724 0.0000 3.3208 0.0000
# 3 64.5484 38.1724 117.1246 0.0000 11.8279 0.0000
# 4 0.0000 0.0000 0.0000 15.8336 0.0000 0.8663
# 5 17.4241 3.3208 11.8279 0.0000 24.8108 0.0000
# 6 0.0000 0.0000 0.0000 0.8663 0.0000 31.6757
#
#
#
# Elastic Compliance Matrix: (Units=1/GPa)
#
#
# Indices 1 2 3 4 5 6 
#
# 1 0.013978 -0.004256 -0.005655 0.000000 -0.006551 0.000000
# 2 -0.004256 0.017512 -0.003600 0.000000 0.002362 0.000000
# 3 -0.005655 -0.003600 0.013004 0.000000 -0.001746 0.000000
# 4 0.000000 0.000000 0.000000 0.063252 0.000000 -0.001730
# 5 -0.006551 0.002362 -0.001746 0.000000 0.045422 0.000000
# 6 0.000000 0.000000 0.000000 -0.001730 0.000000 0.031617
#
#
# Mechanical properties :
#
#
# Convention : Reuss Voigt Hill
#
# Bulk Modulus (GPa) = 57.23554 65.96578 61.60066
# Shear Modulus (GPa) = 22.97463 25.58559 24.28011
#
# Velocity S-wave (km/s) = 3.61600 3.81595 3.71732
# Velocity P-wave (km/s) = 7.07165 7.54707 7.31322
#
# Compressibility (1/GPa) = 0.01747166
#
# Stress axis : x y z
#
# Youngs Moduli (GPa) = 71.54067 57.10344 76.89987
#
# Poissons Ratio (x) = 0.24306 0.43484
# Poissons Ratio (y) = 0.30451 0.27685
# Poissons Ratio (z) = 0.40454 0.20558
#
# Static dielectric constant tensor:
#      x y z
#    x 3.457860 0.000000 0.065680 
#    y 0.000000 3.235160 0.000000 
#    z 0.065680 0.000000 3.297590 
# 
# 
# High freq. dielectric constant tensor:
#      x y z
#    x 1.684350 0.000000 0.007490 
#    y 0.000000 1.677660 0.000000 
#    z 0.007490 0.000000 1.664560 
# 
# From -- ./inp_files/37684.got.cif
#   From: 2010.06.25/outbox.cif.g09.slc.cpg/sg11_19_cif.got.tgz:37684.got - 2010.06.27 23:14:04.
