data_PCOD8071376
_publ_section_title
;
Structure prediction by ZEFSAII (Michael W. Deem and Ramdas Pophale) SiO2 
 PCOD8071376
Probable space group: P 21/M
;
_chemical_formula_sum "Si O2"
_cell_formula_units_Z 32
_cell_length_a 10.353459
_cell_length_b 26.864855
_cell_length_c 5.470824
_cell_angle_alpha 90.000000
_cell_angle_beta 91.900275
_cell_angle_gamma 90.000000
_cell_volume 1520.840990
_symmetry_space_group_name_H-M "P 21/M"
_symmetry_group_IT_number 11
_symmetry_cell_setting 'monoclinic'
loop_
_space_group_symop_operation_xyz
x,y,z
-x,1/2+y,-z
-x,-y,-z
x,1/2-y,z
loop_
_atom_site_type_symbol
_atom_site_label
_atom_site_fract_x
_atom_site_fract_y
_atom_site_fract_z
Si Si1 0.143860 0.523124 0.502664
Si Si2 0.679730 0.809587 0.724565
Si Si3 0.545183 0.692218 0.220280
Si Si4 0.722316 0.194563 0.995123
Si Si5 0.850774 0.983678 0.996885
Si Si6 0.866218 0.371548 0.322212
Si Si7 0.017612 0.804753 0.294744
Si Si8 0.888508 0.626638 0.944046
O O1 0.214185 0.504032 0.259566
O O2 0.153920 0.583282 0.489556
O O3 0.000000 0.500000 0.500000
O O4 0.214097 0.506545 0.760595
O O5 0.703698 0.750000 0.721444
O O6 0.602498 0.829064 0.478853
O O7 0.813401 0.840906 0.733797
O O8 0.608623 0.827313 0.970925
O O9 0.570863 0.750000 0.234187
O O10 0.391951 0.679730 0.198898
O O11 0.691177 0.250000 0.105148
O O12 0.859592 0.196529 0.874323
O O13 0.733405 0.150961 0.200738
O O14 0.820348 0.924952 0.009559
O O15 0.000000 0.000000 0.000000
O O16 0.936148 0.324303 0.444218
O O17 0.968309 0.391017 0.128658
O O18 0.958251 0.750000 0.326535
O O19 0.902062 0.838705 0.183826
#
# Coordination Sequence:
#
# PCOD8071376 Si02
#       8
#     4   4   4   4   4   4   4   4
#     4  10  19  33  52  77 111 140 184 223 270 330
#     4  10  22  37  56  82 110 150 188 226 270 324
#     4   9  20  39  58  76 106 145 197 238 263 310
#     4   9  20  36  54  80 109 147 189 234 277 322
#     4  10  19  34  53  76 109 142 184 226 266 327
#     4  11  21  32  55  82 117 148 180 228 285 344
#     4  10  21  33  50  80 118 150 178 219 282 345
#     4  11  22  34  54  81 118 146 185 224 282 342
#
# _framework density 21.040991999999999
#
# number of rings (size 3 to 8) (size 9 to 14) (size 15 to 20)
#    0.000    2.000    2.500    2.250    5.250    1.500 
#    0.000    0.000    0.000    0.000    0.000    5.250 
#    0.000    0.000    0.000    0.000    0.000    0.000 
#
# Total GULP energy -396462.611724 kJ/mol
# GULP energy per Si atom -12389.456616 kJ/mol
# Density = 2.099310 g / cm^3
# Si number density = 21.040992 Si / 1000 Ang^3
#
#
#
# Elastic Constant Matrix: (Units=GPa)
#
#
# Indices 1 2 3 4 5 6 
#
# 1 33.4216 12.3001 24.2140 0.0000 17.6615 0.0000
# 2 12.3001 109.9549 39.8877 0.0000 11.9006 0.0000
# 3 24.2140 39.8877 162.2703 0.0000 10.4039 0.0000
# 4 0.0000 0.0000 0.0000 27.8828 0.0000 -0.2858
# 5 17.6615 11.9006 10.4039 0.0000 30.1544 0.0000
# 6 0.0000 0.0000 0.0000 -0.2858 0.0000 10.4339
#
#
#
# Elastic Compliance Matrix: (Units=1/GPa)
#
#
# Indices 1 2 3 4 5 6 
#
# 1 0.047637 -0.000610 -0.005302 0.000000 -0.025831 0.000000
# 2 -0.000610 0.010297 -0.002252 0.000000 -0.002930 0.000000
# 3 -0.005302 -0.002252 0.007415 0.000000 0.001436 0.000000
# 4 0.000000 0.000000 0.000000 0.035874 0.000000 0.000983
# 5 -0.025831 -0.002930 0.001436 0.000000 0.048953 0.000000
# 6 0.000000 0.000000 0.000000 0.000983 0.000000 0.095869
#
#
# Mechanical properties :
#
#
# Convention : Reuss Voigt Hill
#
# Bulk Modulus (GPa) = 20.39961 50.93895 35.66928
# Shear Modulus (GPa) = 17.93954 28.97722 23.45838
#
# Velocity S-wave (km/s) = 2.92310 3.71506 3.34262
# Velocity P-wave (km/s) = 4.59444 6.53178 5.64682
#
# Compressibility (1/GPa) = 0.04902054
#
# Stress axis : x y z
#
# Youngs Moduli (GPa) = 20.99212 97.11602 134.85543
#
# Poissons Ratio (x) = 0.05921 0.71506
# Poissons Ratio (y) = 0.01280 0.30373
# Poissons Ratio (z) = 0.11131 0.21873
#
# Static dielectric constant tensor:
#      x y z
#    x 3.348550 0.000000 -0.067370 
#    y 0.000000 3.810680 0.000000 
#    z -0.067370 0.000000 4.696540 
# 
# 
# High freq. dielectric constant tensor:
#      x y z
#    x 1.758230 0.000000 0.002580 
#    y 0.000000 1.814680 0.000000 
#    z 0.002580 0.000000 1.843100 
# 
# From -- ./inp_files/5492.got.cif
#   From: 2010.06.25/outbox.cif.g09.slc.cpg/sg11_3_cif.got.tgz:5492.got - 2010.06.27 23:14:04.
