data_PCOD8071932
_publ_section_title
;
Structure prediction by ZEFSAII (Michael W. Deem and Ramdas Pophale) SiO2 
 PCOD8071932
Probable space group: P 21/M
;
_chemical_formula_sum "Si O2"
_cell_formula_units_Z 32
_cell_length_a 14.426251
_cell_length_b 9.121827
_cell_length_c 12.530652
_cell_angle_alpha 90.000000
_cell_angle_beta 88.832668
_cell_angle_gamma 90.000000
_cell_volume 1648.613464
_symmetry_space_group_name_H-M "P 21/M"
_symmetry_group_IT_number 11
_symmetry_cell_setting 'monoclinic'
loop_
_space_group_symop_operation_xyz
x,y,z
-x,1/2+y,-z
-x,-y,-z
x,1/2-y,z
loop_
_atom_site_type_symbol
_atom_site_label
_atom_site_fract_x
_atom_site_fract_y
_atom_site_fract_z
Si Si1 0.340588 0.077718 0.706206
Si Si2 0.026355 0.085750 0.603405
Si Si3 0.223669 0.086429 0.519520
Si Si4 0.271513 0.922927 0.320023
Si Si5 0.473292 0.577545 0.390845
Si Si6 0.984254 0.419975 0.185487
Si Si7 0.811833 0.916579 0.876671
Si Si8 0.800717 0.921634 0.115511
O O1 0.323244 0.250000 0.707988
O O2 0.303878 0.017864 0.592477
O O3 0.450038 0.039701 0.703277
O O4 0.282899 0.013931 0.808403
O O5 0.983805 0.250000 0.606273
O O6 0.137256 0.092707 0.602007
O O7 0.989637 0.995217 0.703791
O O8 0.000000 0.000000 0.500000
O O9 0.247717 0.250000 0.477474
O O10 0.205947 0.985544 0.416031
O O11 0.263402 0.750000 0.318450
O O12 0.375675 0.977097 0.345233
O O13 0.239281 0.979762 0.206174
O O14 0.500000 0.500000 0.500000
O O15 0.471186 0.750000 0.414271
O O16 0.960979 0.250000 0.204293
O O17 0.896641 0.495176 0.133182
O O18 0.077414 0.442832 0.114358
O O19 0.793046 0.750000 0.840914
O O20 0.769244 0.948975 0.994317
O O21 0.819582 0.750000 0.135790
#
# Coordination Sequence:
#
# PCOD8071932 Si02
#       8
#     4   4   4   4   4   4   4   4
#     4   9  17  34  59  83 107 140 180 225 276 329
#     4  11  22  35  51  77 111 149 189 228 274 331
#     4  10  19  34  56  78 107 147 184 221 273 333
#     4  11  23  36  55  85 117 146 183 232 283 331
#     4  10  20  35  57  85 113 144 180 224 278 336
#     4  11  22  36  55  83 114 147 186 231 281 331
#     4  10  23  40  58  80 111 152 193 229 274 335
#     4  10  20  39  63  84 107 146 197 235 271 325
#
# _framework density 19.410249
#
# number of rings (size 3 to 8) (size 9 to 14) (size 15 to 20)
#    0.000    1.750    2.500    2.250    0.000    6.000 
#    0.000    1.250    0.000    0.000    0.000    0.000 
#    0.000    0.000    0.000    0.000    0.000    0.000 
#
# Total GULP energy -396708.360109 kJ/mol
# GULP energy per Si atom -12397.136253 kJ/mol
# Density = 1.936607 g / cm^3
# Si number density = 19.410249 Si / 1000 Ang^3
#
#
#
# Elastic Constant Matrix: (Units=GPa)
#
#
# Indices 1 2 3 4 5 6 
#
# 1 71.0639 27.8460 31.7458 0.0000 -6.4313 0.0000
# 2 27.8460 83.2380 43.5965 0.0000 -0.0154 0.0000
# 3 31.7458 43.5965 112.3929 0.0000 -8.6674 0.0000
# 4 0.0000 0.0000 0.0000 24.9254 0.0000 3.4954
# 5 -6.4313 -0.0154 -8.6674 0.0000 24.2566 0.0000
# 6 0.0000 0.0000 0.0000 3.4954 0.0000 23.8463
#
#
#
# Elastic Compliance Matrix: (Units=1/GPa)
#
#
# Indices 1 2 3 4 5 6 
#
# 1 0.017394 -0.004252 -0.002991 0.000000 0.003540 0.000000
# 2 -0.004252 0.016225 -0.005325 0.000000 -0.003020 0.000000
# 3 -0.002991 -0.005325 0.012079 0.000000 0.003520 0.000000
# 4 0.000000 0.000000 0.000000 0.040962 0.000000 -0.006004
# 5 0.003540 -0.003020 0.003520 0.000000 0.043420 0.000000
# 6 0.000000 0.000000 0.000000 -0.006004 0.000000 0.042815
#
#
# Mechanical properties :
#
#
# Convention : Reuss Voigt Hill
#
# Bulk Modulus (GPa) = 48.63290 52.56349 50.59820
# Shear Modulus (GPa) = 24.40380 25.50611 24.95496
#
# Velocity S-wave (km/s) = 3.54964 3.62892 3.58950
# Velocity P-wave (km/s) = 6.47376 6.68564 6.58055
#
# Compressibility (1/GPa) = 0.02056221
#
# Stress axis : x y z
#
# Youngs Moduli (GPa) = 57.48978 61.63392 82.78656
#
# Poissons Ratio (x) = 0.26206 0.24760
# Poissons Ratio (y) = 0.24444 0.44087
# Poissons Ratio (z) = 0.17194 0.32823
#
# Static dielectric constant tensor:
#      x y z
#    x 3.806880 0.000000 -0.148520 
#    y 0.000000 3.481070 0.000000 
#    z -0.148520 0.000000 3.410810 
# 
# 
# High freq. dielectric constant tensor:
#      x y z
#    x 1.756800 0.000000 -0.007870 
#    y 0.000000 1.742850 0.000000 
#    z -0.007870 0.000000 1.752390 
# 
# From -- ./inp_files/38175.got.cif
#   From: 2010.06.25/outbox.cif.g09.slc.cpg/sg11_20_cif.got.tgz:38175.got - 2010.06.27 23:14:04.
