data_PCOD8071859
_publ_section_title
;
Structure prediction by ZEFSAII (Michael W. Deem and Ramdas Pophale) SiO2 
 PCOD8071859
Probable space group: P 21/M
;
_chemical_formula_sum "Si O2"
_cell_formula_units_Z 20
_cell_length_a 23.546438
_cell_length_b 8.479267
_cell_length_c 5.148254
_cell_angle_alpha 90.000000
_cell_angle_beta 70.889105
_cell_angle_gamma 90.000000
_cell_volume 971.232527
_symmetry_space_group_name_H-M "P 21/M"
_symmetry_group_IT_number 11
_symmetry_cell_setting 'monoclinic'
loop_
_space_group_symop_operation_xyz
x,y,z
-x,1/2+y,-z
-x,-y,-z
x,1/2-y,z
loop_
_atom_site_type_symbol
_atom_site_label
_atom_site_fract_x
_atom_site_fract_y
_atom_site_fract_z
Si Si1 0.933166 0.437353 0.609861
Si Si2 0.533450 0.436610 0.200163
Si Si3 0.334569 0.063327 0.060126
Si Si4 0.271768 0.562557 0.656359
Si Si5 0.863493 0.437430 0.214261
O O1 0.934424 0.250000 0.605650
O O2 0.895749 0.503762 0.422134
O O3 0.000000 0.500000 0.500000
O O4 0.900304 0.503769 0.914096
O O5 0.500000 0.500000 0.500000
O O6 0.532331 0.250000 0.200494
O O7 0.601152 0.495575 0.109883
O O8 0.500000 0.500000 0.000000
O O9 0.337263 0.250000 0.065488
O O10 0.287728 0.006621 0.913488
O O11 0.316536 0.999768 0.369679
O O12 0.275786 0.750000 0.664267
O O13 0.204869 0.502215 0.690285
O O14 0.863914 0.250000 0.210649
#
# Coordination Sequence:
#
# PCOD8071859 Si02
#       5
#     4   4   4   4   4
#     4  10  19  34  54  80 110 146 187 236 291 350
#     4  12  25  44  67  94 125 163 206 251 300 358
#     4  12  25  42  62  92 129 162 196 249 309 361
#     4  11  22  41  66  90 116 160 211 252 295 360
#     4   9  19  35  57  80 109 147 193 240 289 347
#
# _framework density 20.592390999999999
#
# number of rings (size 3 to 8) (size 9 to 14) (size 15 to 20)
#    0.000    1.200    0.000    7.200    0.000    3.200 
#    0.000    6.000    0.000    0.000    0.000    0.000 
#    0.000    0.000    0.000    0.000    0.000    0.000 
#
# Total GULP energy -248104.082114 kJ/mol
# GULP energy per Si atom -12405.204106 kJ/mol
# Density = 2.054552 g / cm^3
# Si number density = 20.592391 Si / 1000 Ang^3
#
#
#
# Elastic Constant Matrix: (Units=GPa)
#
#
# Indices 1 2 3 4 5 6 
#
# 1 134.6192 38.8891 35.0623 0.0000 1.0671 0.0000
# 2 38.8891 126.8485 31.4126 0.0000 -0.1070 0.0000
# 3 35.0623 31.4126 133.5757 0.0000 1.3377 0.0000
# 4 0.0000 0.0000 0.0000 30.7690 0.0000 -0.8957
# 5 1.0671 -0.1070 1.3377 0.0000 50.2828 0.0000
# 6 0.0000 0.0000 0.0000 -0.8957 0.0000 32.6800
#
#
#
# Elastic Compliance Matrix: (Units=1/GPa)
#
#
# Indices 1 2 3 4 5 6 
#
# 1 0.008508 -0.002183 -0.001718 0.000000 -0.000139 0.000000
# 2 -0.002183 0.008931 -0.001528 0.000000 0.000106 0.000000
# 3 -0.001718 -0.001528 0.008299 0.000000 -0.000188 0.000000
# 4 0.000000 0.000000 0.000000 0.032526 0.000000 0.000891
# 5 -0.000139 0.000106 -0.000188 0.000000 0.019896 0.000000
# 6 0.000000 0.000000 0.000000 0.000891 0.000000 0.030624
#
#
# Mechanical properties :
#
#
# Convention : Reuss Voigt Hill
#
# Bulk Modulus (GPa) = 67.21223 67.30794 67.26008
# Shear Modulus (GPa) = 40.12760 42.05831 41.09296
#
# Velocity S-wave (km/s) = 4.41915 4.52422 4.47199
# Velocity P-wave (km/s) = 7.66477 7.74908 7.70704
#
# Compressibility (1/GPa) = 0.01487824
#
# Stress axis : x y z
#
# Youngs Moduli (GPa) = 117.54161 111.96689 120.49974
#
# Poissons Ratio (x) = 0.24440 0.20707
# Poissons Ratio (y) = 0.25657 0.18417
# Poissons Ratio (z) = 0.20199 0.17113
#
# Static dielectric constant tensor:
#      x y z
#    x 4.019260 0.000000 0.081220 
#    y 0.000000 3.617370 0.000000 
#    z 0.081220 0.000000 4.098740 
# 
# 
# High freq. dielectric constant tensor:
#      x y z
#    x 1.826060 0.000000 0.001350 
#    y 0.000000 1.793730 0.000000 
#    z 0.001350 0.000000 1.827360 
# 
# From -- ./inp_files/8481.got.cif
#   From: 2010.06.25/outbox.cif.g09.slc.cpg/sg11_5_cif.got.tgz:8481.got - 2010.06.27 23:14:04.
