data_PCOD8071705
_publ_section_title
;
Structure prediction by ZEFSAII (Michael W. Deem and Ramdas Pophale) SiO2 
 PCOD8071705
Probable space group: P 21/M
;
_chemical_formula_sum "Si O2"
_cell_formula_units_Z 28
_cell_length_a 10.249405
_cell_length_b 13.848963
_cell_length_c 20.088692
_cell_angle_alpha 90.000000
_cell_angle_beta 150.740878
_cell_angle_gamma 90.000000
_cell_volume 1393.680919
_symmetry_space_group_name_H-M "P 21/M"
_symmetry_group_IT_number 11
_symmetry_cell_setting 'monoclinic'
loop_
_space_group_symop_operation_xyz
x,y,z
-x,1/2+y,-z
-x,-y,-z
x,1/2-y,z
loop_
_atom_site_type_symbol
_atom_site_label
_atom_site_fract_x
_atom_site_fract_y
_atom_site_fract_z
Si Si1 0.321548 0.051026 0.611694
Si Si2 0.519793 0.643634 0.655354
Si Si3 0.277656 0.446426 0.054883
Si Si4 0.012831 0.858106 0.953347
Si Si5 0.166831 0.637449 0.227677
Si Si6 0.842555 0.997479 0.322472
Si Si7 0.170766 0.639529 0.379966
O O1 0.587697 0.108241 0.710517
O O2 0.241962 0.071538 0.652571
O O3 0.370502 0.935439 0.633130
O O4 0.078868 0.070730 0.451874
O O5 0.423069 0.750000 0.635687
O O6 0.839152 0.634394 0.807831
O O7 0.444760 0.627669 0.544219
O O8 0.190195 0.377651 0.076247
O O9 0.595818 0.437875 0.185056
O O10 0.238671 0.560451 0.054447
O O11 0.105552 0.417090 0.913915
O O12 0.135806 0.750000 0.015393
O O13 0.117124 0.750000 0.197049
O O14 0.235905 0.607406 0.333707
O O15 0.938537 0.927505 0.306249
O O16 0.068374 0.750000 0.335445
#
# Coordination Sequence:
#
# PCOD8071705 Si02
#       7
#     4   4   4   4   4   4   4
#     4  10  19  38  58  89 113 145 196 240 287 335
#     4   9  16  32  57  83 109 144 191 238 279 327
#     4  11  20  35  55  88 119 152 191 233 289 351
#     4  10  19  33  56  85 117 152 192 240 284 337
#     4  11  23  40  59  81 116 159 199 235 280 345
#     4  10  21  34  58  85 119 143 181 245 296 338
#     4   9  21  38  58  82 114 156 196 233 286 347
#
# _framework density 20.090682000000001
#
# number of rings (size 3 to 8) (size 9 to 14) (size 15 to 20)
#    0.000    2.000    2.857    1.286    0.000    4.000 
#    0.000    3.571    0.000    0.000    0.000    3.000 
#    0.000    0.000    0.000    0.000    0.000    0.000 
#
# Total GULP energy -347008.526528 kJ/mol
# GULP energy per Si atom -12393.161662 kJ/mol
# Density = 2.004495 g / cm^3
# Si number density = 20.090682 Si / 1000 Ang^3
#
#
#
# Elastic Constant Matrix: (Units=GPa)
#
#
# Indices 1 2 3 4 5 6 
#
# 1 70.0551 11.0332 4.7985 0.0000 -7.5652 0.0000
# 2 11.0332 80.3390 13.3272 0.0000 -0.1605 0.0000
# 3 4.7985 13.3272 89.0988 0.0000 -1.2756 0.0000
# 4 0.0000 0.0000 0.0000 21.6427 0.0000 -3.8808
# 5 -7.5652 -0.1605 -1.2756 0.0000 26.0448 0.0000
# 6 0.0000 0.0000 0.0000 -3.8808 0.0000 21.6552
#
#
#
# Elastic Compliance Matrix: (Units=1/GPa)
#
#
# Indices 1 2 3 4 5 6 
#
# 1 0.015088 -0.001988 -0.000453 0.000000 0.004348 0.000000
# 2 -0.001988 0.013026 -0.001850 0.000000 -0.000588 0.000000
# 3 -0.000453 -0.001850 0.011531 0.000000 0.000422 0.000000
# 4 0.000000 0.000000 0.000000 0.047739 0.000000 0.008555
# 5 0.004348 -0.000588 0.000422 0.000000 0.039675 0.000000
# 6 0.000000 0.000000 0.000000 0.008555 0.000000 0.047711
#
#
# Mechanical properties :
#
#
# Convention : Reuss Voigt Hill
#
# Bulk Modulus (GPa) = 32.19273 33.09005 32.64139
# Shear Modulus (GPa) = 25.81223 27.89083 26.85153
#
# Velocity S-wave (km/s) = 3.58828 3.72996 3.65981
# Velocity P-wave (km/s) = 5.76421 5.92083 5.84305
#
# Compressibility (1/GPa) = 0.03106291
#
# Stress axis : x y z
#
# Youngs Moduli (GPa) = 66.27694 76.76964 86.72575
#
# Poissons Ratio (x) = 0.15264 0.03928
# Poissons Ratio (y) = 0.13178 0.16042
# Poissons Ratio (z) = 0.03002 0.14200
#
# Static dielectric constant tensor:
#      x y z
#    x 3.391440 0.000000 -0.277020 
#    y 0.000000 3.607020 0.000000 
#    z -0.277020 0.000000 3.897890 
# 
# 
# High freq. dielectric constant tensor:
#      x y z
#    x 1.748800 0.000000 -0.024750 
#    y 0.000000 1.772780 0.000000 
#    z -0.024750 0.000000 1.796840 
# 
# From -- ./inp_files/63893.got.cif
#   From: 2010.06.25/outbox.cif.g09.slc.cpg/sg11_32_cif.got.tgz:63893.got - 2010.06.27 23:14:04.
