data_PCOD8072446
_publ_section_title
;
Structure prediction by ZEFSAII (Michael W. Deem and Ramdas Pophale) SiO2 
 PCOD8072446
Probable space group: P 21/M
;
_chemical_formula_sum "Si O2"
_cell_formula_units_Z 32
_cell_length_a 14.668471
_cell_length_b 18.451556
_cell_length_c 9.303223
_cell_angle_alpha 90.000000
_cell_angle_beta 138.090970
_cell_angle_gamma 90.000000
_cell_volume 1681.880487
_symmetry_space_group_name_H-M "P 21/M"
_symmetry_group_IT_number 11
_symmetry_cell_setting 'monoclinic'
loop_
_space_group_symop_operation_xyz
x,y,z
-x,1/2+y,-z
-x,-y,-z
x,1/2-y,z
loop_
_atom_site_type_symbol
_atom_site_label
_atom_site_fract_x
_atom_site_fract_y
_atom_site_fract_z
Si Si1 0.182166 0.472986 0.850346
Si Si2 0.733579 0.169012 0.743225
Si Si3 0.518167 0.665845 0.350103
Si Si4 0.712883 0.468392 0.545962
Si Si5 0.959315 0.831471 0.831766
Si Si6 0.467639 0.968932 0.118872
Si Si7 0.767450 0.901978 0.806876
Si Si8 0.904033 0.546408 0.562929
O O1 0.130105 0.436767 0.642174
O O2 0.058254 0.519611 0.769608
O O3 0.308424 0.525727 0.966797
O O4 0.227786 0.409806 0.014764
O O5 0.710476 0.250000 0.655302
O O6 0.620938 0.149194 0.728683
O O7 0.728937 0.115779 0.601848
O O8 0.878810 0.162891 0.991345
O O9 0.529502 0.750000 0.316634
O O10 0.516291 0.614795 0.204409
O O11 0.640975 0.645637 0.601997
O O12 0.552786 0.482195 0.330710
O O13 0.763862 0.516554 0.739492
O O14 0.799695 0.486950 0.504857
O O15 0.907518 0.750000 0.750710
O O16 0.907475 0.862369 0.924053
O O17 0.884424 0.877646 0.620656
O O18 0.500000 0.000000 0.000000
#
# Coordination Sequence:
#
# PCOD8072446 Si02
#       8
#     4   4   4   4   4   4   4   4
#     4  11  21  35  55  85 113 139 189 236 273 320
#     4  10  20  34  57  85 111 142 184 232 282 329
#     4  10  21  37  57  83 112 143 182 232 285 333
#     4  10  19  36  57  81 110 144 182 228 272 329
#     4  10  20  36  56  80 110 146 186 224 275 337
#     4  11  21  36  57  82 111 145 188 228 271 335
#     4  10  20  34  58  83 107 142 186 230 275 320
#     4  10  21  35  56  81 114 150 182 228 275 330
#
# _framework density 19.026322
#
# number of rings (size 3 to 8) (size 9 to 14) (size 15 to 20)
#    0.000    1.750    1.250    4.125    0.000    4.000 
#    0.000    1.875    0.000    5.250    0.000    0.000 
#    0.000    0.000    0.000    0.000    0.000    0.000 
#
# Total GULP energy -396776.763166 kJ/mol
# GULP energy per Si atom -12399.273849 kJ/mol
# Density = 1.898302 g / cm^3
# Si number density = 19.026322 Si / 1000 Ang^3
#
#
#
# Elastic Constant Matrix: (Units=GPa)
#
#
# Indices 1 2 3 4 5 6 
#
# 1 87.4827 40.4441 37.4870 0.0000 1.5003 0.0000
# 2 40.4441 131.1103 46.3447 0.0000 -17.2044 0.0000
# 3 37.4870 46.3447 88.0186 0.0000 -1.8930 0.0000
# 4 0.0000 0.0000 0.0000 23.5443 0.0000 1.1087
# 5 1.5003 -17.2044 -1.8930 0.0000 39.6117 0.0000
# 6 0.0000 0.0000 0.0000 1.1087 0.0000 24.5896
#
#
#
# Elastic Compliance Matrix: (Units=1/GPa)
#
#
# Indices 1 2 3 4 5 6 
#
# 1 0.014993 -0.003244 -0.004725 0.000000 -0.002203 0.000000
# 2 -0.003244 0.010695 -0.004151 0.000000 0.004570 0.000000
# 3 -0.004725 -0.004151 0.015540 0.000000 -0.000881 0.000000
# 4 0.000000 0.000000 0.000000 0.042563 0.000000 -0.001919
# 5 -0.002203 0.004570 -0.000881 0.000000 0.027271 0.000000
# 6 0.000000 0.000000 0.000000 -0.001919 0.000000 0.040754
#
#
# Mechanical properties :
#
#
# Convention : Reuss Voigt Hill
#
# Bulk Modulus (GPa) = 58.86479 61.68481 60.27480
# Shear Modulus (GPa) = 27.51494 29.70485 28.60989
#
# Velocity S-wave (km/s) = 3.80696 3.95555 3.88196
# Velocity P-wave (km/s) = 7.09434 7.30431 7.20009
#
# Compressibility (1/GPa) = 0.01698808
#
# Stress axis : x y z
#
# Youngs Moduli (GPa) = 66.69841 93.50315 64.34835
#
# Poissons Ratio (x) = 0.30330 0.30404
# Poissons Ratio (y) = 0.21636 0.26713
# Poissons Ratio (z) = 0.31514 0.38817
#
# Static dielectric constant tensor:
#      x y z
#    x 3.592120 0.000000 0.228210 
#    y 0.000000 3.430870 0.000000 
#    z 0.228210 0.000000 3.468090 
# 
# 
# High freq. dielectric constant tensor:
#      x y z
#    x 1.745630 0.000000 0.023040 
#    y 0.000000 1.726280 0.000000 
#    z 0.023040 0.000000 1.738980 
# 
# From -- ./inp_files/23113.got.cif
#   From: 2010.06.25/outbox.cif.g09.slc.cpg/sg11_12_cif.got.tgz:23113.got - 2010.06.27 23:14:04.
