data_PCOD8072475
_publ_section_title
;
Structure prediction by ZEFSAII (Michael W. Deem and Ramdas Pophale) SiO2 
 PCOD8072475
Probable space group: P 21/M
;
_chemical_formula_sum "Si O2"
_cell_formula_units_Z 32
_cell_length_a 27.028838
_cell_length_b 10.244973
_cell_length_c 13.693018
_cell_angle_alpha 90.000000
_cell_angle_beta 26.747747
_cell_angle_gamma 90.000000
_cell_volume 1706.518491
_symmetry_space_group_name_H-M "P 21/M"
_symmetry_group_IT_number 11
_symmetry_cell_setting 'monoclinic'
loop_
_space_group_symop_operation_xyz
x,y,z
-x,1/2+y,-z
-x,-y,-z
x,1/2-y,z
loop_
_atom_site_type_symbol
_atom_site_label
_atom_site_fract_x
_atom_site_fract_y
_atom_site_fract_z
Si Si1 0.298722 0.608230 0.635429
Si Si2 0.335048 0.103189 0.414656
Si Si3 0.151984 0.600624 0.071993
Si Si4 0.907594 0.599318 0.507177
Si Si5 0.483639 0.031386 0.642475
Si Si6 0.755446 0.604174 0.950849
Si Si7 0.570825 0.392991 0.075986
Si Si8 0.717802 0.598254 0.710227
O O1 0.300115 0.750000 0.580432
O O2 0.283932 0.495373 0.582484
O O3 0.408655 0.604016 0.507690
O O4 0.190827 0.598437 0.892132
O O5 0.290864 0.250000 0.512914
O O6 0.466135 0.099832 0.189467
O O7 0.299255 0.055131 0.370728
O O8 0.159094 0.750000 0.100417
O O9 0.232878 0.503074 0.985686
O O10 0.029285 0.537264 0.293569
O O11 0.928216 0.750000 0.487631
O O12 0.829201 0.547926 0.732051
O O13 0.845683 0.575754 0.513192
O O14 0.500000 0.000000 0.500000
O O15 0.465833 0.906598 0.745566
O O16 0.373175 0.116860 0.849478
O O17 0.794269 0.750000 0.913856
O O18 0.626839 0.250000 0.966119
O O19 0.648770 0.509532 0.905701
O O20 0.683648 0.750000 0.787039
#
# Coordination Sequence:
#
# PCOD8072475 Si02
#       8
#     4   4   4   4   4   4   4   4
#     4  10  21  36  55  80 110 147 183 219 269 326
#     4   9  20  36  55  80 110 144 179 221 275 326
#     4  10  21  38  56  77 109 147 182 221 273 325
#     4   9  19  36  57  80 106 140 185 227 266 318
#     4  11  21  36  53  82 115 148 181 217 266 326
#     4  11  21  35  57  83 108 142 186 227 266 317
#     4  10  21  34  52  82 114 144 177 223 275 321
#     4  10  19  36  59  80 106 143 184 225 271 324
#
# _framework density 18.751628
#
# number of rings (size 3 to 8) (size 9 to 14) (size 15 to 20)
#    0.000    2.000    2.500    1.125    0.000    4.500 
#    0.000    1.250    0.000    0.000    0.000    0.000 
#    0.000    0.000    0.000    0.000    0.000    0.000 
#
# Total GULP energy -396542.570340 kJ/mol
# GULP energy per Si atom -12391.955323 kJ/mol
# Density = 1.870895 g / cm^3
# Si number density = 18.751628 Si / 1000 Ang^3
#
#
#
# Elastic Constant Matrix: (Units=GPa)
#
#
# Indices 1 2 3 4 5 6 
#
# 1 87.9894 39.1955 25.2483 0.0000 13.0545 0.0000
# 2 39.1955 96.2957 32.1600 0.0000 11.9430 0.0000
# 3 25.2483 32.1600 96.7112 0.0000 1.0659 0.0000
# 4 0.0000 0.0000 0.0000 24.4539 0.0000 4.4876
# 5 13.0545 11.9430 1.0659 0.0000 22.8964 0.0000
# 6 0.0000 0.0000 0.0000 4.4876 0.0000 20.7119
#
#
#
# Elastic Compliance Matrix: (Units=1/GPa)
#
#
# Indices 1 2 3 4 5 6 
#
# 1 0.014961 -0.004565 -0.002321 0.000000 -0.006041 0.000000
# 2 -0.004565 0.013935 -0.003392 0.000000 -0.004508 0.000000
# 3 -0.002321 -0.003392 0.012046 0.000000 0.002532 0.000000
# 4 0.000000 0.000000 0.000000 0.042587 0.000000 -0.009227
# 5 -0.006041 -0.004508 0.002532 0.000000 0.049353 0.000000
# 6 0.000000 0.000000 0.000000 -0.009227 0.000000 0.050281
#
#
# Mechanical properties :
#
#
# Convention : Reuss Voigt Hill
#
# Bulk Modulus (GPa) = 49.05661 52.68932 50.87297
# Shear Modulus (GPa) = 23.75137 25.90526 24.82832
#
# Velocity S-wave (km/s) = 3.56284 3.72088 3.64271
# Velocity P-wave (km/s) = 6.56834 6.82784 6.69935
#
# Compressibility (1/GPa) = 0.02038461
#
# Stress axis : x y z
#
# Youngs Moduli (GPa) = 66.84104 71.76235 83.01366
#
# Poissons Ratio (x) = 0.32761 0.19269
# Poissons Ratio (y) = 0.30514 0.28161
# Poissons Ratio (z) = 0.15515 0.24344
#
# Static dielectric constant tensor:
#      x y z
#    x 3.422080 0.000000 -0.088530 
#    y 0.000000 3.386230 0.000000 
#    z -0.088530 0.000000 3.509960 
# 
# 
# High freq. dielectric constant tensor:
#      x y z
#    x 1.722160 0.000000 -0.001580 
#    y 0.000000 1.720860 0.000000 
#    z -0.001580 0.000000 1.718800 
# 
# From -- ./inp_files/44218.got.cif
#   From: 2010.06.25/outbox.cif.g09.slc.cpg/sg11_23_cif.got.tgz:44218.got - 2010.06.27 23:14:04.
