data_PCOD8072077
_publ_section_title
;
Structure prediction by ZEFSAII (Michael W. Deem and Ramdas Pophale) SiO2 
 PCOD8072077
Probable space group: P 21/M
;
_chemical_formula_sum "Si O2"
_cell_formula_units_Z 28
_cell_length_a 27.507993
_cell_length_b 8.578322
_cell_length_c 9.562951
_cell_angle_alpha 90.000000
_cell_angle_beta 138.752113
_cell_angle_gamma 90.000000
_cell_volume 1487.812387
_symmetry_space_group_name_H-M "P 21/M"
_symmetry_group_IT_number 11
_symmetry_cell_setting 'monoclinic'
loop_
_space_group_symop_operation_xyz
x,y,z
-x,1/2+y,-z
-x,-y,-z
x,1/2-y,z
loop_
_atom_site_type_symbol
_atom_site_label
_atom_site_fract_x
_atom_site_fract_y
_atom_site_fract_z
Si Si1 0.601074 0.571354 0.126697
Si Si2 0.987025 0.435036 0.817562
Si Si3 0.693976 0.068481 0.095812
Si Si4 0.438977 0.572322 0.679607
Si Si5 0.848400 0.934221 0.349782
Si Si6 0.579458 0.930829 0.639449
Si Si7 0.932929 0.931282 0.273430
O O1 0.606614 0.750000 0.186461
O O2 0.670530 0.525700 0.183176
O O3 0.601508 0.462819 0.263168
O O4 0.526587 0.541438 0.878079
O O5 0.975036 0.250000 0.799623
O O6 0.915543 0.514288 0.594451
O O7 0.059098 0.477923 0.874354
O O8 0.000000 0.500000 0.000000
O O9 0.685002 0.250000 0.106749
O O10 0.777738 0.029068 0.244314
O O11 0.642921 0.021331 0.856839
O O12 0.423204 0.750000 0.602677
O O13 0.405276 0.456616 0.491566
O O14 0.835307 0.750000 0.339599
O O15 0.861161 0.978303 0.211104
O O16 0.582342 0.750000 0.686758
O O17 0.500000 0.000000 0.500000
O O18 0.942467 0.750000 0.305278
O O19 0.000000 0.000000 0.500000
#
# Coordination Sequence:
#
# PCOD8072077 Si02
#       7
#     4   4   4   4   4   4   4
#     4  10  20  35  56  80 109 145 184 229 283 341
#     4  10  19  34  57  88 118 148 187 228 274 329
#     4  12  24  38  57  82 114 150 189 237 290 343
#     4  10  20  35  56  81 109 140 183 234 284 337
#     4  10  20  37  58  82 112 148 188 231 283 339
#     4  12  23  37  57  82 110 144 188 238 287 338
#     4   8  16  31  54  80 109 143 181 223 266 321
#
# _framework density 18.819576999999999
#
# number of rings (size 3 to 8) (size 9 to 14) (size 15 to 20)
#    0.000    1.714    1.429    4.286    0.000    2.286 
#    0.000    1.429    0.000    1.714    0.000    0.000 
#    0.000    0.000    0.000    0.000    0.000    0.000 
#
# Total GULP energy -347029.804445 kJ/mol
# GULP energy per Si atom -12393.921587 kJ/mol
# Density = 1.877674 g / cm^3
# Si number density = 18.819577 Si / 1000 Ang^3
#
#
#
# Elastic Constant Matrix: (Units=GPa)
#
#
# Indices 1 2 3 4 5 6 
#
# 1 130.4542 24.0262 38.3278 0.0000 -7.0632 0.0000
# 2 24.0262 56.5856 14.6841 0.0000 -3.1292 0.0000
# 3 38.3278 14.6841 61.1075 0.0000 -4.6206 0.0000
# 4 0.0000 0.0000 0.0000 30.0259 0.0000 -2.7531
# 5 -7.0632 -3.1292 -4.6206 0.0000 26.7759 0.0000
# 6 0.0000 0.0000 0.0000 -2.7531 0.0000 30.4666
#
#
#
# Elastic Compliance Matrix: (Units=1/GPa)
#
#
# Indices 1 2 3 4 5 6 
#
# 1 0.009825 -0.002692 -0.005414 0.000000 0.001343 0.000000
# 2 -0.002692 0.019640 -0.002949 0.000000 0.001076 0.000000
# 3 -0.005414 -0.002949 0.020604 0.000000 0.001783 0.000000
# 4 0.000000 0.000000 0.000000 0.033583 0.000000 0.003035
# 5 0.001343 0.001076 0.001783 0.000000 0.038135 0.000000
# 6 0.000000 0.000000 0.000000 0.003035 0.000000 0.033097
#
#
# Mechanical properties :
#
#
# Convention : Reuss Voigt Hill
#
# Bulk Modulus (GPa) = 35.76837 44.69148 40.22992
# Shear Modulus (GPa) = 26.83644 28.86095 27.84870
#
# Velocity S-wave (km/s) = 3.78032 3.92032 3.85095
# Velocity P-wave (km/s) = 6.17265 6.65513 6.41842
#
# Compressibility (1/GPa) = 0.02795766
#
# Stress axis : x y z
#
# Youngs Moduli (GPa) = 101.78466 50.91532 48.53490
#
# Poissons Ratio (x) = 0.13709 0.26275
# Poissons Ratio (y) = 0.27405 0.14315
# Poissons Ratio (z) = 0.55103 0.15017
#
# Static dielectric constant tensor:
#      x y z
#    x 3.932280 0.000000 -0.264560 
#    y 0.000000 3.565710 0.000000 
#    z -0.264560 0.000000 3.236970 
# 
# 
# High freq. dielectric constant tensor:
#      x y z
#    x 1.747400 0.000000 -0.019860 
#    y 0.000000 1.745230 0.000000 
#    z -0.019860 0.000000 1.696520 
# 
# From -- ./inp_files/28524.got.cif
#   From: 2010.06.25/outbox.cif.g09.slc.cpg/sg11_15_cif.got.tgz:28524.got - 2010.06.27 23:14:04.
