data_PCOD8072009
_publ_section_title
;
Structure prediction by ZEFSAII (Michael W. Deem and Ramdas Pophale) SiO2 
 PCOD8072009
Probable space group: P 21/M
;
_chemical_formula_sum "Si O2"
_cell_formula_units_Z 32
_cell_length_a 16.685045
_cell_length_b 12.612844
_cell_length_c 8.569694
_cell_angle_alpha 90.000000
_cell_angle_beta 63.370928
_cell_angle_gamma 90.000000
_cell_volume 1612.158514
_symmetry_space_group_name_H-M "P 21/M"
_symmetry_group_IT_number 11
_symmetry_cell_setting 'monoclinic'
loop_
_space_group_symop_operation_xyz
x,y,z
-x,1/2+y,-z
-x,-y,-z
x,1/2-y,z
loop_
_atom_site_type_symbol
_atom_site_label
_atom_site_fract_x
_atom_site_fract_y
_atom_site_fract_z
Si Si1 0.294084 0.868844 0.960951
Si Si2 0.837107 0.486939 0.119406
Si Si3 0.113093 0.872411 0.613537
Si Si4 0.542204 0.021757 0.294919
Si Si5 0.769612 0.990852 0.715827
Si Si6 0.911381 0.628001 0.799702
Si Si7 0.329982 0.364464 0.721046
Si Si8 0.617916 0.867686 0.674526
O O1 0.292520 0.750000 0.026283
O O2 0.382517 0.884983 0.775475
O O3 0.294718 0.949815 0.105813
O O4 0.202983 0.888480 0.943196
O O5 0.882809 0.440640 0.232435
O O6 0.756477 0.565008 0.231710
O O7 0.908273 0.554917 0.957334
O O8 0.140403 0.750000 0.619894
O O9 0.179097 0.920423 0.427984
O O10 0.011100 0.880060 0.640814
O O11 0.601032 0.915063 0.211168
O O12 0.500000 0.000000 0.500000
O O13 0.467194 0.051643 0.230022
O O14 0.840283 0.913030 0.735734
O O15 0.707843 0.918303 0.661744
O O16 0.889417 0.750000 0.861796
O O17 0.301911 0.250000 0.812672
O O18 0.377472 0.352222 0.514184
O O19 0.601738 0.750000 0.762736
#
# Coordination Sequence:
#
# PCOD8072009 Si02
#       8
#     4   4   4   4   4   4   4   4
#     4  10  21  37  58  82 115 156 190 233 289 349
#     4  10  19  36  59  85 113 148 196 245 291 343
#     4  11  22  38  58  84 117 154 199 247 296 349
#     4   9  19  35  56  83 112 143 186 232 284 334
#     4  11  22  38  58  83 120 156 197 237 289 355
#     4  10  22  38  58  84 117 154 195 248 301 350
#     4   9  17  32  55  83 114 144 181 231 285 340
#     4  10  19  34  57  80 111 149 188 233 282 341
#
# _framework density 19.849164999999999
#
# number of rings (size 3 to 8) (size 9 to 14) (size 15 to 20)
#    0.000    2.000    1.250    2.625    0.000    1.000 
#    0.000    1.875    0.000    6.000    0.000    0.000 
#    0.000    0.000    0.000    0.000    0.000    0.000 
#
# Total GULP energy -396508.608770 kJ/mol
# GULP energy per Si atom -12390.894024 kJ/mol
# Density = 1.980399 g / cm^3
# Si number density = 19.849165 Si / 1000 Ang^3
#
#
#
# Elastic Constant Matrix: (Units=GPa)
#
#
# Indices 1 2 3 4 5 6 
#
# 1 114.9005 66.2047 30.6166 0.0000 1.3283 0.0000
# 2 66.2047 145.7515 33.3903 0.0000 5.5497 0.0000
# 3 30.6166 33.3903 64.7290 0.0000 -3.3023 0.0000
# 4 0.0000 0.0000 0.0000 19.4822 0.0000 -0.0109
# 5 1.3283 5.5497 -3.3023 0.0000 19.0263 0.0000
# 6 0.0000 0.0000 0.0000 -0.0109 0.0000 23.0460
#
#
#
# Elastic Compliance Matrix: (Units=1/GPa)
#
#
# Indices 1 2 3 4 5 6 
#
# 1 0.012400 -0.004862 -0.003359 0.000000 -0.000031 0.000000
# 2 -0.004862 0.009859 -0.002942 0.000000 -0.003047 0.000000
# 3 -0.003359 -0.002942 0.018777 0.000000 0.004352 0.000000
# 4 0.000000 0.000000 0.000000 0.051329 0.000000 0.000024
# 5 -0.000031 -0.003047 0.004352 0.000000 0.054205 0.000000
# 6 0.000000 0.000000 0.000000 0.000024 0.000000 0.043392
#
#
# Mechanical properties :
#
#
# Convention : Reuss Voigt Hill
#
# Bulk Modulus (GPa) = 53.44203 65.08936 59.26569
# Shear Modulus (GPa) = 22.88083 25.32218 24.10151
#
# Velocity S-wave (km/s) = 3.39888 3.57561 3.48836
# Velocity P-wave (km/s) = 6.51043 7.06469 6.79321
#
# Compressibility (1/GPa) = 0.01871187
#
# Stress axis : x y z
#
# Youngs Moduli (GPa) = 80.64646 101.42720 53.25614
#
# Poissons Ratio (x) = 0.49311 0.17887
# Poissons Ratio (y) = 0.39208 0.15667
# Poissons Ratio (z) = 0.27087 0.29837
#
# Static dielectric constant tensor:
#      x y z
#    x 3.662030 0.000000 -0.146640 
#    y 0.000000 3.925760 0.000000 
#    z -0.146640 0.000000 3.432990 
# 
# 
# High freq. dielectric constant tensor:
#      x y z
#    x 1.778430 0.000000 -0.012820 
#    y 0.000000 1.784670 0.000000 
#    z -0.012820 0.000000 1.752600 
# 
# From -- ./inp_files/21517.got.cif
#   From: 2010.06.25/outbox.cif.g09.slc.cpg/sg11_11_cif.got.tgz:21517.got - 2010.06.27 23:14:04.
