data_PCOD8072083
_publ_section_title
;
Structure prediction by ZEFSAII (Michael W. Deem and Ramdas Pophale) SiO2 
 PCOD8072083
Probable space group: P 21/M
;
_chemical_formula_sum "Si O2"
_cell_formula_units_Z 32
_cell_length_a 27.522267
_cell_length_b 9.362252
_cell_length_c 21.490113
_cell_angle_alpha 90.000000
_cell_angle_beta 161.314128
_cell_angle_gamma 90.000000
_cell_volume 1774.058093
_symmetry_space_group_name_H-M "P 21/M"
_symmetry_group_IT_number 11
_symmetry_cell_setting 'monoclinic'
loop_
_space_group_symop_operation_xyz
x,y,z
-x,1/2+y,-z
-x,-y,-z
x,1/2-y,z
loop_
_atom_site_type_symbol
_atom_site_label
_atom_site_fract_x
_atom_site_fract_y
_atom_site_fract_z
Si Si1 0.104849 0.419000 0.812952
Si Si2 0.120241 0.083570 0.279986
Si Si3 0.315521 0.414745 0.397011
Si Si4 0.617935 0.915399 0.772084
Si Si5 0.353297 0.584398 0.801448
Si Si6 0.184658 0.415709 0.107178
Si Si7 0.957424 0.418022 0.510071
Si Si8 0.195268 0.582916 0.484128
O O1 0.098903 0.250000 0.811101
O O2 0.080709 0.464427 0.711955
O O3 0.966173 0.474534 0.686606
O O4 0.263225 0.476358 0.032445
O O5 0.103705 0.250000 0.275359
O O6 0.190306 0.058113 0.297359
O O7 0.229843 0.009500 0.464345
O O8 0.957174 0.010039 0.084538
O O9 0.361649 0.250000 0.447622
O O10 0.464350 0.500443 0.595390
O O11 0.246707 0.469766 0.248633
O O12 0.584136 0.750000 0.743409
O O13 0.682354 0.939536 0.781222
O O14 0.386119 0.750000 0.851627
O O15 0.209581 0.537650 0.668867
O O16 0.321318 0.553515 0.689836
O O17 0.500000 0.500000 0.000000
O O18 0.134174 0.250000 0.048182
O O19 0.965281 0.250000 0.506845
O O20 0.000000 0.500000 0.500000
O O21 0.191195 0.750000 0.461877
#
# Coordination Sequence:
#
# PCOD8072083 Si02
#       8
#     4   4   4   4   4   4   4   4
#     4   8  15  32  56  78 101 132 177 223 254 299
#     4  11  22  35  53  80 111 140 174 219 268 312
#     4  10  23  38  50  76 115 143 167 216 275 318
#     4  10  19  34  58  81 100 135 182 222 261 309
#     4   9  19  35  57  82 109 141 176 218 263 310
#     4  10  20  37  60  78 100 139 182 219 261 319
#     4   9  18  34  55  79 108 139 173 216 262 310
#     4   9  17  35  59  78 102 141 184 219 257 309
#
# _framework density 18.037741
#
# number of rings (size 3 to 8) (size 9 to 14) (size 15 to 20)
#    0.000    2.500    1.250    2.625    0.000    3.000 
#    2.250    2.500    0.000    0.000    0.000    0.000 
#    0.000    0.000    0.000    0.000    0.000    0.000 
#
# Total GULP energy -396770.515901 kJ/mol
# GULP energy per Si atom -12399.078622 kJ/mol
# Density = 1.799669 g / cm^3
# Si number density = 18.037741 Si / 1000 Ang^3
#
#
#
# Elastic Constant Matrix: (Units=GPa)
#
#
# Indices 1 2 3 4 5 6 
#
# 1 75.7652 28.1403 27.9541 0.0000 -22.8683 0.0000
# 2 28.1403 54.9582 40.1871 0.0000 -5.5753 0.0000
# 3 27.9541 40.1871 101.3746 0.0000 -16.9957 0.0000
# 4 0.0000 0.0000 0.0000 34.1589 0.0000 0.0643
# 5 -22.8683 -5.5753 -16.9957 0.0000 28.3838 0.0000
# 6 0.0000 0.0000 0.0000 0.0643 0.0000 31.7392
#
#
#
# Elastic Compliance Matrix: (Units=1/GPa)
#
#
# Indices 1 2 3 4 5 6 
#
# 1 0.021321 -0.009785 0.000619 0.000000 0.015627 0.000000
# 2 -0.009785 0.030148 -0.010651 0.000000 -0.008339 0.000000
# 3 0.000619 -0.010651 0.015172 0.000000 0.007492 0.000000
# 4 0.000000 0.000000 0.000000 0.029275 0.000000 -0.000059
# 5 0.015627 -0.008339 0.007492 0.000000 0.050669 0.000000
# 6 0.000000 0.000000 0.000000 -0.000059 0.000000 0.031507
#
#
# Mechanical properties :
#
#
# Convention : Reuss Voigt Hill
#
# Bulk Modulus (GPa) = 37.02597 47.18456 42.10526
# Shear Modulus (GPa) = 22.05280 27.91080 24.98180
#
# Velocity S-wave (km/s) = 3.50035 3.93791 3.72556
# Velocity P-wave (km/s) = 6.07521 6.84776 6.47302
#
# Compressibility (1/GPa) = 0.02700807
#
# Stress axis : x y z
#
# Youngs Moduli (GPa) = 46.90224 33.16937 65.91079
#
# Poissons Ratio (x) = 0.32455 -0.04083
# Poissons Ratio (y) = 0.45892 0.70204
# Poissons Ratio (z) = -0.02905 0.35330
#
# Static dielectric constant tensor:
#      x y z
#    x 3.395300 0.000000 -0.271330 
#    y 0.000000 3.166670 0.000000 
#    z -0.271330 0.000000 3.440280 
# 
# 
# High freq. dielectric constant tensor:
#      x y z
#    x 1.701200 0.000000 -0.015930 
#    y 0.000000 1.680980 0.000000 
#    z -0.015930 0.000000 1.698960 
# 
# From -- ./inp_files/67162.got.cif
#   From: 2010.06.25/outbox.cif.g09.slc.cpg/sg11_34_cif.got.tgz:67162.got - 2010.06.27 23:14:04.
