data_PCOD8072391
_publ_section_title
;
Structure prediction by ZEFSAII (Michael W. Deem and Ramdas Pophale) SiO2 
 PCOD8072391
Probable space group: P 21/M
;
_chemical_formula_sum "Si O2"
_cell_formula_units_Z 32
_cell_length_a 13.572527
_cell_length_b 20.057436
_cell_length_c 8.344870
_cell_angle_alpha 90.000000
_cell_angle_beta 136.689885
_cell_angle_gamma 90.000000
_cell_volume 1558.282358
_symmetry_space_group_name_H-M "P 21/M"
_symmetry_group_IT_number 11
_symmetry_cell_setting 'monoclinic'
loop_
_space_group_symop_operation_xyz
x,y,z
-x,1/2+y,-z
-x,-y,-z
x,1/2-y,z
loop_
_atom_site_type_symbol
_atom_site_label
_atom_site_fract_x
_atom_site_fract_y
_atom_site_fract_z
Si Si1 0.785521 0.173487 0.343402
Si Si2 0.020669 0.176286 0.861340
Si Si3 0.297317 0.178019 0.997601
Si Si4 0.070844 0.438385 0.169145
Si Si5 0.901687 0.049959 0.279449
Si Si6 0.465807 0.321398 0.886735
Si Si7 0.635645 0.536078 0.957152
Si Si8 0.628815 0.951337 0.330198
O O1 0.818304 0.250000 0.322655
O O2 0.847944 0.116217 0.304008
O O3 0.613994 0.162851 0.158760
O O4 0.860377 0.162224 0.605063
O O5 0.028519 0.250000 0.946948
O O6 0.127887 0.171460 0.834445
O O7 0.067287 0.126006 0.053402
O O8 0.353807 0.250000 0.138365
O O9 0.330328 0.180719 0.847235
O O10 0.368325 0.108123 0.138410
O O11 0.232281 0.460046 0.398164
O O12 0.991438 0.421028 0.238933
O O13 0.000000 0.500000 0.000000
O O14 0.767475 0.008263 0.049610
O O15 0.000000 0.000000 0.500000
O O16 0.479337 0.250000 0.814358
O O17 0.437495 0.377435 0.720518
O O18 0.657915 0.539515 0.175705
O O19 0.483395 0.504413 0.734394
#
# Coordination Sequence:
#
# PCOD8072391 Si02
#       8
#     4   4   4   4   4   4   4   4
#     4  10  21  39  65  92 120 156 202 256 307 363
#     4  10  23  42  61  87 124 162 201 246 303 369
#     4   9  18  34  58  86 114 154 200 246 297 359
#     4  12  26  40  59  88 127 168 203 245 310 373
#     4  12  22  38  63  92 122 158 207 257 304 357
#     4   9  18  35  62  92 117 148 202 257 309 360
#     4  10  19  35  60  90 119 148 201 262 305 350
#     4  10  21  36  57  88 119 157 193 252 313 351
#
# _framework density 20.535432
#
# number of rings (size 3 to 8) (size 9 to 14) (size 15 to 20)
#    0.000    1.750    2.500    2.250    1.750    1.000 
#    0.000    3.750    0.000    0.000    0.000    0.000 
#    0.000    0.000    0.000    0.000    0.000    0.000 
#
# Total GULP energy -396439.328413 kJ/mol
# GULP energy per Si atom -12388.729013 kJ/mol
# Density = 2.048869 g / cm^3
# Si number density = 20.535432 Si / 1000 Ang^3
#
#
#
# Elastic Constant Matrix: (Units=GPa)
#
#
# Indices 1 2 3 4 5 6 
#
# 1 66.5152 41.8944 39.7589 0.0000 12.5349 0.0000
# 2 41.8944 166.4467 61.4230 0.0000 13.4284 0.0000
# 3 39.7589 61.4230 121.5950 0.0000 24.4398 0.0000
# 4 0.0000 0.0000 0.0000 29.2533 0.0000 3.3629
# 5 12.5349 13.4284 24.4398 0.0000 25.1338 0.0000
# 6 0.0000 0.0000 0.0000 3.3629 0.0000 29.3267
#
#
#
# Elastic Compliance Matrix: (Units=1/GPa)
#
#
# Indices 1 2 3 4 5 6 
#
# 1 0.020384 -0.003248 -0.004139 0.000000 -0.004406 0.000000
# 2 -0.003248 0.007905 -0.002993 0.000000 0.000306 0.000000
# 3 -0.004139 -0.002993 0.012868 0.000000 -0.008849 0.000000
# 4 0.000000 0.000000 0.000000 0.034641 0.000000 -0.003972
# 5 -0.004406 0.000306 -0.008849 0.000000 0.050426 0.000000
# 6 0.000000 0.000000 0.000000 -0.003972 0.000000 0.034554
#
#
# Mechanical properties :
#
#
# Convention : Reuss Voigt Hill
#
# Bulk Modulus (GPa) = 49.02462 71.18995 60.10729
# Shear Modulus (GPa) = 26.54825 30.84146 28.69485
#
# Velocity S-wave (km/s) = 3.59946 3.87960 3.74215
# Velocity P-wave (km/s) = 6.41871 7.40341 6.92857
#
# Compressibility (1/GPa) = 0.02039791
#
# Stress axis : x y z
#
# Youngs Moduli (GPa) = 49.05764 126.50040 77.71317
#
# Poissons Ratio (x) = 0.41085 0.32165
# Poissons Ratio (y) = 0.15933 0.23258
# Poissons Ratio (z) = 0.20305 0.37860
#
# Static dielectric constant tensor:
#      x y z
#    x 3.726070 0.000000 0.340110 
#    y 0.000000 4.315360 0.000000 
#    z 0.340110 0.000000 3.456780 
# 
# 
# High freq. dielectric constant tensor:
#      x y z
#    x 1.787290 0.000000 0.035950 
#    y 0.000000 1.837460 0.000000 
#    z 0.035950 0.000000 1.766780 
# 
# From -- ./inp_files/23127.got.cif
#   From: 2010.06.25/outbox.cif.g09.slc.cpg/sg11_12_cif.got.tgz:23127.got - 2010.06.27 23:14:04.
