data_PCOD8072864
_publ_section_title
;
Structure prediction by ZEFSAII (Michael W. Deem and Ramdas Pophale) SiO2 
 PCOD8072864
Probable space group: P 21/M
;
_chemical_formula_sum "Si O2"
_cell_formula_units_Z 20
_cell_length_a 27.104102
_cell_length_b 9.089475
_cell_length_c 9.525550
_cell_angle_alpha 90.000000
_cell_angle_beta 28.401974
_cell_angle_gamma 90.000000
_cell_volume 1116.234669
_symmetry_space_group_name_H-M "P 21/M"
_symmetry_group_IT_number 11
_symmetry_cell_setting 'monoclinic'
loop_
_space_group_symop_operation_xyz
x,y,z
-x,1/2+y,-z
-x,-y,-z
x,1/2-y,z
loop_
_atom_site_type_symbol
_atom_site_label
_atom_site_fract_x
_atom_site_fract_y
_atom_site_fract_z
Si Si1 0.390231 0.423534 0.263391
Si Si2 0.772971 0.918324 0.094080
Si Si3 0.067813 0.423078 0.068009
Si Si4 0.229377 0.578261 0.477558
Si Si5 0.834414 0.080479 0.672514
O O1 0.402178 0.250000 0.208302
O O2 0.328024 0.457721 0.561704
O O3 0.329144 0.492242 0.285055
O O4 0.500000 0.500000 0.000000
O O5 0.772102 0.750000 0.051867
O O6 0.875797 0.956148 0.925742
O O7 0.769428 0.008522 0.959881
O O8 0.074255 0.250000 0.014393
O O9 0.950982 0.483713 0.370424
O O10 0.123416 0.513227 0.805614
O O11 0.237253 0.750000 0.496790
O O12 0.227819 0.553517 0.314772
O O13 0.844676 0.250000 0.683872
#
# Coordination Sequence:
#
# PCOD8072864 Si02
#       5
#     4   4   4   4   4
#     4  10  21  39  60  79  98 127 168 214 260 310
#     4   9  19  33  51  76 104 133 170 211 254 304
#     4   9  18  33  50  73 106 143 179 213 247 293
#     4  10  20  33  51  78 106 136 174 212 251 303
#     4  10  20  32  49  76 110 141 172 210 252 298
#
# _framework density 17.917380000000001
#
# number of rings (size 3 to 8) (size 9 to 14) (size 15 to 20)
#    0.000    2.400    0.000    3.600    0.000    6.400 
#    0.000    1.000    0.000    0.000    0.000    0.000 
#    0.000    0.000    0.000    0.000    0.000    0.000 
#
# Total GULP energy -248043.486689 kJ/mol
# GULP energy per Si atom -12402.174334 kJ/mol
# Density = 1.787660 g / cm^3
# Si number density = 17.917380 Si / 1000 Ang^3
#
#
#
# Elastic Constant Matrix: (Units=GPa)
#
#
# Indices 1 2 3 4 5 6 
#
# 1 101.6891 63.9596 73.6255 0.0000 3.8013 0.0000
# 2 63.9596 89.9454 59.7152 0.0000 3.3543 0.0000
# 3 73.6255 59.7152 101.0056 0.0000 -8.8984 0.0000
# 4 0.0000 0.0000 0.0000 33.3274 0.0000 2.7979
# 5 3.8013 3.3543 -8.8984 0.0000 30.1656 0.0000
# 6 0.0000 0.0000 0.0000 2.7979 0.0000 32.0794
#
#
#
# Elastic Compliance Matrix: (Units=1/GPa)
#
#
# Indices 1 2 3 4 5 6 
#
# 1 0.025907 -0.008657 -0.014341 0.000000 -0.006532 0.000000
# 2 -0.008657 0.022081 -0.007047 0.000000 -0.003443 0.000000
# 3 -0.014341 -0.007047 0.025409 0.000000 0.010086 0.000000
# 4 0.000000 0.000000 0.000000 0.030227 0.000000 -0.002636
# 5 -0.006532 -0.003443 0.010086 0.000000 0.037332 0.000000
# 6 0.000000 0.000000 0.000000 -0.002636 0.000000 0.031403
#
#
# Mechanical properties :
#
#
# Convention : Reuss Voigt Hill
#
# Bulk Modulus (GPa) = 75.15864 76.36007 75.75936
# Shear Modulus (GPa) = 21.10728 25.47048 23.28888
#
# Velocity S-wave (km/s) = 3.43597 3.77444 3.60917
# Velocity P-wave (km/s) = 7.60129 7.85529 7.72933
#
# Compressibility (1/GPa) = 0.01330519
#
# Stress axis : x y z
#
# Youngs Moduli (GPa) = 38.59999 45.28753 39.35573
#
# Poissons Ratio (x) = 0.39206 0.56442
# Poissons Ratio (y) = 0.33417 0.27736
# Poissons Ratio (z) = 0.55358 0.31916
#
# Static dielectric constant tensor:
#      x y z
#    x 3.245740 0.000000 -0.023800 
#    y 0.000000 3.332930 0.000000 
#    z -0.023800 0.000000 3.214730 
# 
# 
# High freq. dielectric constant tensor:
#      x y z
#    x 1.692070 0.000000 0.002970 
#    y 0.000000 1.698140 0.000000 
#    z 0.002970 0.000000 1.683330 
# 
# From -- ./inp_files/15891.got.cif
#   From: 2010.06.25/outbox.cif.g09.slc.cpg/sg11_8_cif.got.tgz:15891.got - 2010.06.27 23:14:04.
