data_PCOD8072528
_publ_section_title
;
Structure prediction by ZEFSAII (Michael W. Deem and Ramdas Pophale) SiO2 
 PCOD8072528
Probable space group: P 21/M
;
_chemical_formula_sum "Si O2"
_cell_formula_units_Z 28
_cell_length_a 16.783405
_cell_length_b 9.030290
_cell_length_c 15.328665
_cell_angle_alpha 90.000000
_cell_angle_beta 142.911289
_cell_angle_gamma 90.000000
_cell_volume 1401.006090
_symmetry_space_group_name_H-M "P 21/M"
_symmetry_group_IT_number 11
_symmetry_cell_setting 'monoclinic'
loop_
_space_group_symop_operation_xyz
x,y,z
-x,1/2+y,-z
-x,-y,-z
x,1/2-y,z
loop_
_atom_site_type_symbol
_atom_site_label
_atom_site_fract_x
_atom_site_fract_y
_atom_site_fract_z
Si Si1 0.083456 0.411247 0.454541
Si Si2 0.115346 0.917165 0.150327
Si Si3 0.615624 0.927184 0.657115
Si Si4 0.814527 0.088183 0.312874
Si Si5 0.605268 0.924380 0.029080
Si Si6 0.325949 0.075753 0.100028
Si Si7 0.964817 0.915256 0.193315
O O1 0.145752 0.250000 0.488215
O O2 0.193776 0.513478 0.598169
O O3 0.965258 0.389010 0.419190
O O4 0.030415 0.480407 0.320694
O O5 0.137444 0.750000 0.132688
O O6 0.072709 0.906632 0.212564
O O7 0.246884 0.014221 0.260148
O O8 0.000000 0.000000 0.000000
O O9 0.608752 0.750000 0.642056
O O10 0.604889 0.979295 0.749899
O O11 0.500000 0.000000 0.500000
O O12 0.743778 0.250000 0.255829
O O13 0.748167 0.982398 0.183184
O O14 0.597184 0.750000 0.034724
O O15 0.589229 0.968700 0.912409
O O16 0.500000 0.000000 0.000000
O O17 0.313053 0.250000 0.095332
O O18 0.175128 0.014834 0.961202
O O19 0.940357 0.750000 0.210562
#
# Coordination Sequence:
#
# PCOD8072528 Si02
#       7
#     4   4   4   4   4   4   4
#     4  10  20  33  54  85 116 148 189 243 294 348
#     4  11  22  38  63  95 127 162 202 257 315 373
#     4  11  23  44  67  93 126 166 212 260 316 383
#     4  10  20  35  55  81 113 151 190 237 297 357
#     4  11  22  39  61  84 114 155 203 254 302 360
#     4   9  19  38  64  87 115 158 202 246 309 374
#     4  10  19  36  60  87 118 157 199 243 304 372
#
# _framework density 19.985638000000002
#
# number of rings (size 3 to 8) (size 9 to 14) (size 15 to 20)
#    0.000    1.714    2.857    2.143    0.000    2.286 
#    2.571    2.857    0.000    0.000    0.000    0.000 
#    0.000    0.000    0.000    0.000    0.000    0.000 
#
# Total GULP energy -347039.503862 kJ/mol
# GULP energy per Si atom -12394.267995 kJ/mol
# Density = 1.994015 g / cm^3
# Si number density = 19.985638 Si / 1000 Ang^3
#
#
#
# Elastic Constant Matrix: (Units=GPa)
#
#
# Indices 1 2 3 4 5 6 
#
# 1 93.8210 42.1585 46.1734 0.0000 -11.0895 0.0000
# 2 42.1585 129.7866 59.5029 0.0000 -13.7688 0.0000
# 3 46.1734 59.5029 133.1150 0.0000 -24.6298 0.0000
# 4 0.0000 0.0000 0.0000 36.2481 0.0000 -0.2546
# 5 -11.0895 -13.7688 -24.6298 0.0000 34.0954 0.0000
# 6 0.0000 0.0000 0.0000 -0.2546 0.0000 28.4560
#
#
#
# Elastic Compliance Matrix: (Units=1/GPa)
#
#
# Indices 1 2 3 4 5 6 
#
# 1 0.013664 -0.002825 -0.003308 0.000000 0.000914 0.000000
# 2 -0.002825 0.010299 -0.003491 0.000000 0.000719 0.000000
# 3 -0.003308 -0.003491 0.011266 0.000000 0.005653 0.000000
# 4 0.000000 0.000000 0.000000 0.027589 0.000000 0.000247
# 5 0.000914 0.000719 0.005653 0.000000 0.034000 0.000000
# 6 0.000000 0.000000 0.000000 0.000247 0.000000 0.035144
#
#
# Mechanical properties :
#
#
# Convention : Reuss Voigt Hill
#
# Bulk Modulus (GPa) = 62.57078 72.48803 67.52941
# Shear Modulus (GPa) = 31.94118 33.68576 32.81347
#
# Velocity S-wave (km/s) = 4.00209 4.10994 4.05637
# Velocity P-wave (km/s) = 7.26165 7.67274 7.47002
#
# Compressibility (1/GPa) = 0.01598190
#
# Stress axis : x y z
#
# Youngs Moduli (GPa) = 73.18557 97.09365 88.76244
#
# Poissons Ratio (x) = 0.27429 0.29360
# Poissons Ratio (y) = 0.20675 0.30987
# Poissons Ratio (z) = 0.24207 0.33895
#
# Static dielectric constant tensor:
#      x y z
#    x 3.482090 0.000000 -0.284230 
#    y 0.000000 3.918460 0.000000 
#    z -0.284230 0.000000 3.646960 
# 
# 
# High freq. dielectric constant tensor:
#      x y z
#    x 1.764200 0.000000 -0.015690 
#    y 0.000000 1.783720 0.000000 
#    z -0.015690 0.000000 1.777780 
# 
# From -- ./inp_files/53278.got.cif
#   From: 2010.06.25/outbox.cif.g09.slc.cpg/sg11_27_cif.got.tgz:53278.got - 2010.06.27 23:14:04.
