data_PCOD8072170
_publ_section_title
;
Structure prediction by ZEFSAII (Michael W. Deem and Ramdas Pophale) SiO2 
 PCOD8072170
Probable space group: P 21/M
;
_chemical_formula_sum "Si O2"
_cell_formula_units_Z 32
_cell_length_a 20.644425
_cell_length_b 12.531093
_cell_length_c 8.128930
_cell_angle_alpha 90.000000
_cell_angle_beta 53.850398
_cell_angle_gamma 90.000000
_cell_volume 1698.074089
_symmetry_space_group_name_H-M "P 21/M"
_symmetry_group_IT_number 11
_symmetry_cell_setting 'monoclinic'
loop_
_space_group_symop_operation_xyz
x,y,z
-x,1/2+y,-z
-x,-y,-z
x,1/2-y,z
loop_
_atom_site_type_symbol
_atom_site_label
_atom_site_fract_x
_atom_site_fract_y
_atom_site_fract_z
Si Si1 0.820110 0.519601 0.736672
Si Si2 0.331349 0.126749 0.936625
Si Si3 0.407926 0.028360 0.149184
Si Si4 0.726717 0.128212 0.658098
Si Si5 0.090896 0.626565 0.171827
Si Si6 0.817953 0.023614 0.247660
Si Si7 0.086726 0.372999 0.689591
Si Si8 0.666738 0.872889 0.430256
O O1 0.759821 0.427019 0.771147
O O2 0.896442 0.459465 0.701896
O O3 0.851540 0.597252 0.547341
O O4 0.762790 0.591575 0.937882
O O5 0.333850 0.250000 0.974675
O O6 0.370842 0.103523 0.696400
O O7 0.379020 0.073370 0.016258
O O8 0.394532 0.106378 0.326565
O O9 0.358793 0.921266 0.264311
O O10 0.500000 0.000000 0.000000
O O11 0.711953 0.250000 0.718588
O O12 0.794200 0.111125 0.418537
O O13 0.101106 0.750000 0.213754
O O14 0.003920 0.607298 0.228026
O O15 0.160094 0.595827 0.939990
O O16 0.894259 0.950961 0.186286
O O17 0.744814 0.944356 0.331850
O O18 0.100233 0.250000 0.719305
O O19 0.693656 0.750000 0.398307
#
# Coordination Sequence:
#
# PCOD8072170 Si02
#       8
#     4   4   4   4   4   4   4   4
#     4  10  19  35  54  75 108 142 185 235 279 328
#     4  10  20  36  60  86 111 145 189 232 276 329
#     4  10  22  37  58  85 117 149 174 225 278 338
#     4   9  19  34  54  76 100 140 184 219 268 334
#     4  11  21  33  51  77 109 146 185 230 287 340
#     4  10  19  35  54  75 108 142 185 235 279 328
#     4  10  21  34  51  76 107 145 188 236 289 340
#     4  10  20  36  60  86 111 145 189 232 276 329
#
# _framework density 18.844878999999999
#
# number of rings (size 3 to 8) (size 9 to 14) (size 15 to 20)
#    0.000    2.000    1.250    3.375    0.000    1.500 
#    0.000    0.000    0.000    6.000    0.000    0.000 
#    0.000    0.000    0.000    0.000    0.000    0.000 
#
# Total GULP energy -396562.431290 kJ/mol
# GULP energy per Si atom -12392.575978 kJ/mol
# Density = 1.880199 g / cm^3
# Si number density = 18.844879 Si / 1000 Ang^3
#
#
#
# Elastic Constant Matrix: (Units=GPa)
#
#
# Indices 1 2 3 4 5 6 
#
# 1 62.7657 26.3480 26.0276 0.0000 -2.8590 0.0000
# 2 26.3480 68.1550 16.3234 0.0000 -7.4831 0.0000
# 3 26.0276 16.3234 69.1406 0.0000 5.2336 0.0000
# 4 0.0000 0.0000 0.0000 22.3374 0.0000 -0.7279
# 5 -2.8590 -7.4831 5.2336 0.0000 33.4431 0.0000
# 6 0.0000 0.0000 0.0000 -0.7279 0.0000 19.2169
#
#
#
# Elastic Compliance Matrix: (Units=1/GPa)
#
#
# Indices 1 2 3 4 5 6 
#
# 1 0.021513 -0.006568 -0.006655 0.000000 0.001411 0.000000
# 2 -0.006568 0.018134 -0.002098 0.000000 0.003825 0.000000
# 3 -0.006655 -0.002098 0.017753 0.000000 -0.003817 0.000000
# 4 0.000000 0.000000 0.000000 0.044823 0.000000 0.001698
# 5 0.001411 0.003825 -0.003817 0.000000 0.031475 0.000000
# 6 0.000000 0.000000 0.000000 0.001698 0.000000 0.052102
#
#
# Mechanical properties :
#
#
# Convention : Reuss Voigt Hill
#
# Bulk Modulus (GPa) = 37.37206 37.49549 37.43378
# Shear Modulus (GPa) = 22.18656 23.75696 22.97176
#
# Velocity S-wave (km/s) = 3.43494 3.55443 3.49519
# Velocity P-wave (km/s) = 5.96709 6.06509 6.01629
#
# Compressibility (1/GPa) = 0.02675796
#
# Stress axis : x y z
#
# Youngs Moduli (GPa) = 46.48290 55.14495 56.32946
#
# Poissons Ratio (x) = 0.36220 0.37486
# Poissons Ratio (y) = 0.30530 0.11819
# Poissons Ratio (z) = 0.30933 0.11571
#
# Static dielectric constant tensor:
#      x y z
#    x 3.428080 0.000000 0.174440 
#    y 0.000000 3.492910 0.000000 
#    z 0.174440 0.000000 3.486930 
# 
# 
# High freq. dielectric constant tensor:
#      x y z
#    x 1.723510 0.000000 0.010220 
#    y 0.000000 1.737440 0.000000 
#    z 0.010220 0.000000 1.727370 
# 
# From -- ./inp_files/21521.got.cif
#   From: 2010.06.25/outbox.cif.g09.slc.cpg/sg11_11_cif.got.tgz:21521.got - 2010.06.27 23:14:04.
