data_PCOD8072375
_publ_section_title
;
Structure prediction by ZEFSAII (Michael W. Deem and Ramdas Pophale) SiO2 
 PCOD8072375
Probable space group: P 21/M
;
_chemical_formula_sum "Si O2"
_cell_formula_units_Z 32
_cell_length_a 31.364515
_cell_length_b 9.092890
_cell_length_c 12.691510
_cell_angle_alpha 90.000000
_cell_angle_beta 153.082278
_cell_angle_gamma 90.000000
_cell_volume 1638.605482
_symmetry_space_group_name_H-M "P 21/M"
_symmetry_group_IT_number 11
_symmetry_cell_setting 'monoclinic'
loop_
_space_group_symop_operation_xyz
x,y,z
-x,1/2+y,-z
-x,-y,-z
x,1/2-y,z
loop_
_atom_site_type_symbol
_atom_site_label
_atom_site_fract_x
_atom_site_fract_y
_atom_site_fract_z
Si Si1 0.358619 0.416939 0.607538
Si Si2 0.098048 0.077770 0.733839
Si Si3 0.293904 0.578833 0.661683
Si Si4 0.387203 0.920863 0.087511
Si Si5 0.572377 0.076596 0.439148
Si Si6 0.144435 0.414365 0.072363
Si Si7 0.087202 0.921830 0.139805
Si Si8 0.724221 0.078518 0.947781
O O1 0.395430 0.250000 0.699508
O O2 0.361473 0.492849 0.728676
O O3 0.423698 0.501255 0.667046
O O4 0.254495 0.424252 0.333600
O O5 0.088802 0.250000 0.691005
O O6 0.126893 0.039535 0.915315
O O7 0.000000 0.000000 0.500000
O O8 0.178689 0.011697 0.836613
O O9 0.303525 0.750000 0.655402
O O10 0.184957 0.528950 0.410575
O O11 0.324866 0.541236 0.847884
O O12 0.416537 0.750000 0.153152
O O13 0.328494 0.963482 0.061028
O O14 0.479959 0.019625 0.294631
O O15 0.565945 0.250000 0.408979
O O16 0.660931 0.033951 0.707639
O O17 0.106944 0.250000 0.013850
O O18 0.089015 0.529835 0.022196
O O19 0.070921 0.750000 0.111937
O O20 0.000000 0.000000 0.000000
O O21 0.749125 0.250000 0.999710
#
# Coordination Sequence:
#
# PCOD8072375 Si02
#       8
#     4   4   4   4   4   4   4   4
#     4  10  19  35  60  85 111 148 192 237 287 344
#     4  11  23  39  60  88 119 153 195 242 295 350
#     4   9  20  38  57  81 114 151 191 239 293 345
#     4  10  22  40  60  83 117 158 197 239 294 355
#     4  11  22  36  59  89 118 151 197 245 293 350
#     4   9  19  36  56  79 109 146 189 237 285 338
#     4  10  20  34  56  84 113 148 191 237 289 349
#     4  10  22  40  61  86 118 157 198 243 294 351
#
# _framework density 19.528801000000001
#
# number of rings (size 3 to 8) (size 9 to 14) (size 15 to 20)
#    0.000    2.000    1.250    1.875    0.000    5.000 
#    0.000    2.500    0.000    0.000    0.000    0.000 
#    0.000    0.000    0.000    0.000    0.000    0.000 
#
# Total GULP energy -396901.803282 kJ/mol
# GULP energy per Si atom -12403.181353 kJ/mol
# Density = 1.948435 g / cm^3
# Si number density = 19.528801 Si / 1000 Ang^3
#
#
#
# Elastic Constant Matrix: (Units=GPa)
#
#
# Indices 1 2 3 4 5 6 
#
# 1 125.8810 63.8198 39.8209 0.0000 12.3788 0.0000
# 2 63.8198 91.0143 40.8645 0.0000 9.0652 0.0000
# 3 39.8209 40.8645 59.6596 0.0000 10.0579 0.0000
# 4 0.0000 0.0000 0.0000 29.4464 0.0000 6.0385
# 5 12.3788 9.0652 10.0579 0.0000 31.3114 0.0000
# 6 0.0000 0.0000 0.0000 6.0385 0.0000 39.9275
#
#
#
# Elastic Compliance Matrix: (Units=1/GPa)
#
#
# Indices 1 2 3 4 5 6 
#
# 1 0.012911 -0.007420 -0.003211 0.000000 -0.001925 0.000000
# 2 -0.007420 0.020172 -0.008854 0.000000 -0.000063 0.000000
# 3 -0.003211 -0.008854 0.025716 0.000000 -0.004428 0.000000
# 4 0.000000 0.000000 0.000000 0.035047 0.000000 -0.005300
# 5 -0.001925 -0.000063 -0.004428 0.000000 0.034139 0.000000
# 6 0.000000 0.000000 0.000000 -0.005300 0.000000 0.025847
#
#
# Mechanical properties :
#
#
# Convention : Reuss Voigt Hill
#
# Bulk Modulus (GPa) = 50.42979 62.84057 56.63518
# Shear Modulus (GPa) = 25.07413 28.94036 27.00725
#
# Velocity S-wave (km/s) = 3.58712 3.85376 3.72283
# Velocity P-wave (km/s) = 6.56018 7.21459 6.89515
#
# Compressibility (1/GPa) = 0.01982955
#
# Stress axis : x y z
#
# Youngs Moduli (GPa) = 77.45540 49.57485 38.88667
#
# Poissons Ratio (x) = 0.36783 0.12486
# Poissons Ratio (y) = 0.57470 0.34429
# Poissons Ratio (z) = 0.24869 0.43892
#
# Static dielectric constant tensor:
#      x y z
#    x 3.682580 0.000000 -0.064610 
#    y 0.000000 3.560700 0.000000 
#    z -0.064610 0.000000 3.640660 
# 
# 
# High freq. dielectric constant tensor:
#      x y z
#    x 1.769000 0.000000 -0.000460 
#    y 0.000000 1.763120 0.000000 
#    z -0.000460 0.000000 1.756590 
# 
# From -- ./inp_files/45300.got.cif
#   From: 2010.06.25/outbox.cif.g09.slc.cpg/sg11_23_cif.got.tgz:45300.got - 2010.06.27 23:14:04.
