data_PCOD8072125
_publ_section_title
;
Structure prediction by ZEFSAII (Michael W. Deem and Ramdas Pophale) SiO2 
 PCOD8072125
Probable space group: P 21/M
;
_chemical_formula_sum "Si O2"
_cell_formula_units_Z 32
_cell_length_a 15.397787
_cell_length_b 8.392213
_cell_length_c 11.903209
_cell_angle_alpha 90.000000
_cell_angle_beta 91.207045
_cell_angle_gamma 90.000000
_cell_volume 1537.809306
_symmetry_space_group_name_H-M "P 21/M"
_symmetry_group_IT_number 11
_symmetry_cell_setting 'monoclinic'
loop_
_space_group_symop_operation_xyz
x,y,z
-x,1/2+y,-z
-x,-y,-z
x,1/2-y,z
loop_
_atom_site_type_symbol
_atom_site_label
_atom_site_fract_x
_atom_site_fract_y
_atom_site_fract_z
Si Si1 0.395835 0.435648 0.758319
Si Si2 0.137723 0.932918 0.986095
Si Si3 0.253335 0.564430 0.365551
Si Si4 0.900909 0.935000 0.781048
Si Si5 0.919207 0.563826 0.248811
Si Si6 0.239591 0.436687 0.610133
Si Si7 0.412715 0.939983 0.224773
Si Si8 0.659489 0.431985 0.011094
O O1 0.401987 0.250000 0.734761
O O2 0.325546 0.513803 0.671093
O O3 0.492183 0.507726 0.739127
O O4 0.366480 0.460484 0.884934
O O5 0.108353 0.750000 0.967764
O O6 0.239352 0.946127 0.013338
O O7 0.114339 0.035631 0.877495
O O8 0.087492 0.007741 0.090453
O O9 0.261192 0.750000 0.393371
O O10 0.173812 0.537200 0.279632
O O11 0.237201 0.470155 0.479040
O O12 0.341852 0.497211 0.312027
O O13 0.876820 0.750000 0.773035
O O14 0.992461 0.968350 0.722500
O O15 0.936842 0.750000 0.267728
O O16 0.846979 0.495020 0.333018
O O17 0.241353 0.250000 0.633251
O O18 0.408871 0.750000 0.222409
O O19 0.390638 0.000597 0.098803
O O20 0.633753 0.250000 0.037206
#
# Coordination Sequence:
#
# PCOD8072125 Si02
#       8
#     4   4   4   4   4   4   4   4
#     4  10  20  37  61  88 122 158 198 244 295 351
#     4  11  21  37  62  91 125 160 197 243 296 356
#     4  11  23  42  64  86 116 159 203 248 301 355
#     4  12  25  41  63  91 121 155 198 247 300 358
#     4  11  23  41  63  89 123 160 199 244 298 357
#     4  10  23  41  60  87 119 156 201 251 298 349
#     4   9  19  37  60  88 121 158 195 243 299 352
#     4  10  19  34  58  88 124 157 195 241 294 354
#
# _framework density 20.808821999999999
#
# number of rings (size 3 to 8) (size 9 to 14) (size 15 to 20)
#    0.000    1.500    2.500    3.000    0.000    3.000 
#    0.000    1.250    0.000    0.000    0.000    0.000 
#    0.000    0.000    0.000    0.000    0.000    0.000 
#
# Total GULP energy -396904.985375 kJ/mol
# GULP energy per Si atom -12403.280793 kJ/mol
# Density = 2.076146 g / cm^3
# Si number density = 20.808822 Si / 1000 Ang^3
#
#
#
# Elastic Constant Matrix: (Units=GPa)
#
#
# Indices 1 2 3 4 5 6 
#
# 1 108.2329 13.6332 33.0553 0.0000 -12.9542 0.0000
# 2 13.6332 29.3110 -2.0350 0.0000 -1.8643 0.0000
# 3 33.0553 -2.0350 108.7682 0.0000 -16.1380 0.0000
# 4 0.0000 0.0000 0.0000 30.8031 0.0000 -0.5507
# 5 -12.9542 -1.8643 -16.1380 0.0000 19.1539 0.0000
# 6 0.0000 0.0000 0.0000 -0.5507 0.0000 19.6738
#
#
#
# Elastic Compliance Matrix: (Units=1/GPa)
#
#
# Indices 1 2 3 4 5 6 
#
# 1 0.011325 -0.005160 -0.002830 0.000000 0.004772 0.000000
# 2 -0.005160 0.036843 0.002596 0.000000 0.002284 0.000000
# 3 -0.002830 0.002596 0.011264 0.000000 0.007829 0.000000
# 4 0.000000 0.000000 0.000000 0.032481 0.000000 0.000909
# 5 0.004772 0.002284 0.007829 0.000000 0.062255 0.000000
# 6 0.000000 0.000000 0.000000 0.000909 0.000000 0.050855
#
#
# Mechanical properties :
#
#
# Convention : Reuss Voigt Hill
#
# Bulk Modulus (GPa) = 20.55779 37.29101 28.92440
# Shear Modulus (GPa) = 21.54942 27.37005 24.45973
#
# Velocity S-wave (km/s) = 3.22155 3.63065 3.43220
# Velocity P-wave (km/s) = 4.87223 5.96114 5.44398
#
# Compressibility (1/GPa) = 0.04864336
#
# Stress axis : x y z
#
# Youngs Moduli (GPa) = 88.30092 27.14247 88.77711
#
# Poissons Ratio (x) = 0.14007 0.25125
# Poissons Ratio (y) = 0.45567 -0.23050
# Poissons Ratio (z) = 0.24991 -0.07047
#
# Static dielectric constant tensor:
#      x y z
#    x 4.194290 0.000000 -0.037200 
#    y 0.000000 3.478830 0.000000 
#    z -0.037200 0.000000 3.588940 
# 
# 
# High freq. dielectric constant tensor:
#      x y z
#    x 1.834850 0.000000 -0.001850 
#    y 0.000000 1.792370 0.000000 
#    z -0.001850 0.000000 1.807670 
# 
# From -- ./inp_files/38081.got.cif
#   From: 2010.06.25/outbox.cif.g09.slc.cpg/sg11_20_cif.got.tgz:38081.got - 2010.06.27 23:14:04.
