data_PCOD8072909
_publ_section_title
;
Structure prediction by ZEFSAII (Michael W. Deem and Ramdas Pophale) SiO2 
 PCOD8072909
Probable space group: P 21/M
;
_chemical_formula_sum "Si O2"
_cell_formula_units_Z 32
_cell_length_a 20.242122
_cell_length_b 9.385740
_cell_length_c 12.120880
_cell_angle_alpha 90.000000
_cell_angle_beta 115.166239
_cell_angle_gamma 90.000000
_cell_volume 2084.225057
_symmetry_space_group_name_H-M "P 21/M"
_symmetry_group_IT_number 11
_symmetry_cell_setting 'monoclinic'
loop_
_space_group_symop_operation_xyz
x,y,z
-x,1/2+y,-z
-x,-y,-z
x,1/2-y,z
loop_
_atom_site_type_symbol
_atom_site_label
_atom_site_fract_x
_atom_site_fract_y
_atom_site_fract_z
Si Si1 0.252525 0.415209 0.944125
Si Si2 0.122547 0.907447 0.902825
Si Si3 0.162323 0.913162 0.187201
Si Si4 0.514960 0.415870 0.175183
Si Si5 0.295194 0.415729 0.221738
Si Si6 0.538145 0.916913 0.624360
Si Si7 0.027818 0.418658 0.126606
Si Si8 0.608940 0.583840 0.086909
O O1 0.237274 0.250000 0.923133
O O2 0.174101 0.488795 0.868994
O O3 0.309956 0.464766 0.891640
O O4 0.286429 0.453472 0.086778
O O5 0.140856 0.750000 0.873419
O O6 0.035734 0.938957 0.825642
O O7 0.139833 0.921128 0.044164
O O8 0.165337 0.750000 0.231826
O O9 0.241053 0.987956 0.257132
O O10 0.103273 0.004586 0.216802
O O11 0.533060 0.250000 0.183110
O O12 0.498429 0.466459 0.287197
O O13 0.585638 0.499285 0.179988
O O14 0.444624 0.453386 0.051977
O O15 0.277423 0.250000 0.229923
O O16 0.376613 0.455343 0.315287
O O17 0.526647 0.750000 0.598643
O O18 0.500000 0.000000 0.500000
O O19 0.040118 0.250000 0.110818
O O20 0.000000 0.500000 0.000000
O O21 0.606561 0.750000 0.112895
#
# Coordination Sequence:
#
# PCOD8072909 Si02
#       8
#     4   4   4   4   4   4   4   4
#     4   9  15  24  39  56  76 104 134 166 203 242
#     4   8  15  23  31  48  74 100 130 164 195 233
#     4   9  16  24  35  52  72  96 131 171 203 238
#     4   9  17  30  44  60  82 106 134 170 212 254
#     4   9  16  28  42  55  75 104 135 168 208 250
#     4  10  20  33  47  62  83 110 141 176 215 257
#     4   9  15  23  33  47  70 100 133 167 200 236
#     4   9  16  27  43  62  82 104 135 172 208 249
#
# _framework density 15.353429
#
# number of rings (size 3 to 8) (size 9 to 14) (size 15 to 20)
#    0.000    3.000    1.250    1.500    0.000    5.000 
#    0.000    0.000    0.000    0.000    0.000    0.000 
#    0.000    0.000    0.000    1.125    0.000   14.875 
#
# Total GULP energy -396583.891558 kJ/mol
# GULP energy per Si atom -12393.246611 kJ/mol
# Density = 1.531848 g / cm^3
# Si number density = 15.353429 Si / 1000 Ang^3
#
#
#
# Elastic Constant Matrix: (Units=GPa)
#
#
# Indices 1 2 3 4 5 6 
#
# 1 158.3789 76.6192 38.7313 0.0000 9.1757 0.0000
# 2 76.6192 80.3631 26.5356 0.0000 4.7455 0.0000
# 3 38.7313 26.5356 39.7709 0.0000 -1.5555 0.0000
# 4 0.0000 0.0000 0.0000 15.9367 0.0000 2.0306
# 5 9.1757 4.7455 -1.5555 0.0000 11.8752 0.0000
# 6 0.0000 0.0000 0.0000 2.0306 0.0000 33.5977
#
#
#
# Elastic Compliance Matrix: (Units=1/GPa)
#
#
# Indices 1 2 3 4 5 6 
#
# 1 0.013103 -0.009975 -0.006378 0.000000 -0.006974 0.000000
# 2 -0.009975 0.024308 -0.006617 0.000000 -0.002873 0.000000
# 3 -0.006378 -0.006617 0.036252 0.000000 0.012321 0.000000
# 4 0.000000 0.000000 0.000000 0.063235 0.000000 -0.003822
# 5 -0.006974 -0.002873 0.012321 0.000000 0.092360 0.000000
# 6 0.000000 0.000000 0.000000 -0.003822 0.000000 0.029995
#
#
# Mechanical properties :
#
#
# Convention : Reuss Voigt Hill
#
# Bulk Modulus (GPa) = 36.07011 62.47615 49.27313
# Shear Modulus (GPa) = 15.90149 21.39037 18.64593
#
# Velocity S-wave (km/s) = 3.22171 3.73661 3.48867
# Velocity P-wave (km/s) = 6.11420 7.70692 6.95630
#
# Compressibility (1/GPa) = 0.02772378
#
# Stress axis : x y z
#
# Youngs Moduli (GPa) = 76.31550 41.13792 27.58447
#
# Poissons Ratio (x) = 0.41036 0.17594
# Poissons Ratio (y) = 0.76126 0.18252
# Poissons Ratio (z) = 0.48676 0.27220
#
# Static dielectric constant tensor:
#      x y z
#    x 3.455650 0.000000 0.122050 
#    y 0.000000 3.013390 0.000000 
#    z 0.122050 0.000000 2.363660 
# 
# 
# High freq. dielectric constant tensor:
#      x y z
#    x 1.606900 0.000000 0.012350 
#    y 0.000000 1.594700 0.000000 
#    z 0.012350 0.000000 1.507230 
# 
# From -- ./inp_files/42532.got.cif
#   From: 2010.06.25/outbox.cif.g09.slc.cpg/sg11_22_cif.got.tgz:42532.got - 2010.06.27 23:14:04.
