data_PCOD8072782
_publ_section_title
;
Structure prediction by ZEFSAII (Michael W. Deem and Ramdas Pophale) SiO2 
 PCOD8072782
Probable space group: P 21/M
;
_chemical_formula_sum "Si O2"
_cell_formula_units_Z 32
_cell_length_a 33.636564
_cell_length_b 9.391659
_cell_length_c 22.603791
_cell_angle_alpha 90.000000
_cell_angle_beta 17.405109
_cell_angle_gamma 90.000000
_cell_volume 2135.940808
_symmetry_space_group_name_H-M "P 21/M"
_symmetry_group_IT_number 11
_symmetry_cell_setting 'monoclinic'
loop_
_space_group_symop_operation_xyz
x,y,z
-x,1/2+y,-z
-x,-y,-z
x,1/2-y,z
loop_
_atom_site_type_symbol
_atom_site_label
_atom_site_fract_x
_atom_site_fract_y
_atom_site_fract_z
Si Si1 0.186062 0.088336 0.961566
Si Si2 0.464023 0.415016 0.609449
Si Si3 0.547070 0.413410 0.842459
Si Si4 0.324024 0.411793 0.238633
Si Si5 0.069875 0.411152 0.661251
Si Si6 0.134928 0.416391 0.800504
Si Si7 0.741401 0.916459 0.498345
Si Si8 0.316713 0.083638 0.653219
O O1 0.139061 0.250000 0.022655
O O2 0.304052 0.072907 0.842823
O O3 0.233863 0.035821 0.828862
O O4 0.061275 0.001677 0.162040
O O5 0.500000 0.500000 0.500000
O O6 0.506770 0.250000 0.543625
O O7 0.546209 0.491888 0.545398
O O8 0.585306 0.250000 0.776870
O O9 0.616263 0.468425 0.803770
O O10 0.600842 0.503945 0.710433
O O11 0.387311 0.430629 0.082626
O O12 0.358221 0.250000 0.212933
O O13 0.163764 0.429217 0.469535
O O14 0.022584 0.250000 0.736691
O O15 0.151598 0.459538 0.603540
O O16 0.101163 0.250000 0.846434
O O17 0.204399 0.467673 0.641629
O O18 0.232371 0.454499 0.715576
O O19 0.000000 0.500000 0.000000
O O20 0.710898 0.750000 0.542072
O O21 0.353884 0.250000 0.603963
#
# Coordination Sequence:
#
# PCOD8072782 Si02
#       8
#     4   4   4   4   4   4   4   4
#     4   9  17  27  39  58  82 103 128 165 203 239
#     4   9  17  29  44  61  80 103 132 168 208 247
#     4   9  15  24  40  57  74 102 138 171 200 235
#     4   8  15  26  37  54  80 105 131 165 203 241
#     4   9  16  25  38  56  80 109 136 160 193 241
#     4  10  20  32  45  61  84 113 144 178 210 240
#     4   9  18  30  40  55  82 112 140 171 205 238
#     4   9  18  31  44  59  80 107 140 175 206 238
#
# _framework density 14.981688999999999
#
# number of rings (size 3 to 8) (size 9 to 14) (size 15 to 20)
#    0.000    3.000    0.000    3.000    0.000    6.000 
#    0.000    0.000    0.000    0.000    0.000    0.000 
#    0.000    1.000    0.000    2.250    0.000    4.250 
#
# Total GULP energy -396471.908834 kJ/mol
# GULP energy per Si atom -12389.747151 kJ/mol
# Density = 1.494759 g / cm^3
# Si number density = 14.981689 Si / 1000 Ang^3
#
#
#
# Elastic Constant Matrix: (Units=GPa)
#
#
# Indices 1 2 3 4 5 6 
#
# 1 58.4744 32.7006 54.4490 0.0000 1.4514 0.0000
# 2 32.7006 66.1534 56.8093 0.0000 -1.3835 0.0000
# 3 54.4490 56.8093 124.9348 0.0000 8.4481 0.0000
# 4 0.0000 0.0000 0.0000 30.5840 0.0000 -1.1037
# 5 1.4514 -1.3835 8.4481 0.0000 21.9242 0.0000
# 6 0.0000 0.0000 0.0000 -1.1037 0.0000 17.1509
#
#
#
# Elastic Compliance Matrix: (Units=1/GPa)
#
#
# Indices 1 2 3 4 5 6 
#
# 1 0.030202 -0.005721 -0.010680 0.000000 0.001755 0.000000
# 2 -0.005721 0.026697 -0.010047 0.000000 0.005935 0.000000
# 3 -0.010680 -0.010047 0.017683 0.000000 -0.006741 0.000000
# 4 0.000000 0.000000 0.000000 0.032773 0.000000 0.002109
# 5 0.001755 0.005935 -0.006741 0.000000 0.048467 0.000000
# 6 0.000000 0.000000 0.000000 0.002109 0.000000 0.058442
#
#
# Mechanical properties :
#
#
# Convention : Reuss Voigt Hill
#
# Bulk Modulus (GPa) = 46.11436 59.72004 52.91720
# Shear Modulus (GPa) = 18.22234 20.97206 19.59720
#
# Velocity S-wave (km/s) = 3.49134 3.74551 3.62066
# Velocity P-wave (km/s) = 6.86294 7.65857 7.27164
#
# Compressibility (1/GPa) = 0.02168522
#
# Stress axis : x y z
#
# Youngs Moduli (GPa) = 33.11040 37.45794 56.55172
#
# Poissons Ratio (x) = 0.21431 0.60396
# Poissons Ratio (y) = 0.18944 0.56818
# Poissons Ratio (z) = 0.35361 0.37634
#
# Static dielectric constant tensor:
#      x y z
#    x 2.747410 0.000000 0.047750 
#    y 0.000000 3.027270 0.000000 
#    z 0.047750 0.000000 3.163380 
# 
# 
# High freq. dielectric constant tensor:
#      x y z
#    x 1.521290 0.000000 0.006620 
#    y 0.000000 1.583240 0.000000 
#    z 0.006620 0.000000 1.575260 
# 
# From -- ./inp_files/56468.got.cif
#   From: 2010.06.25/outbox.cif.g09.slc.cpg/sg11_29_cif.got.tgz:56468.got - 2010.06.27 23:14:04.
