data_PCOD8072695
_publ_section_title
;
Structure prediction by ZEFSAII (Michael W. Deem and Ramdas Pophale) SiO2 
 PCOD8072695
Probable space group: P 21/M
;
_chemical_formula_sum "Si O2"
_cell_formula_units_Z 32
_cell_length_a 14.374065
_cell_length_b 17.101938
_cell_length_c 11.936876
_cell_angle_alpha 90.000000
_cell_angle_beta 149.059660
_cell_angle_gamma 90.000000
_cell_volume 1508.694996
_symmetry_space_group_name_H-M "P 21/M"
_symmetry_group_IT_number 11
_symmetry_cell_setting 'monoclinic'
loop_
_space_group_symop_operation_xyz
x,y,z
-x,1/2+y,-z
-x,-y,-z
x,1/2-y,z
loop_
_atom_site_type_symbol
_atom_site_label
_atom_site_fract_x
_atom_site_fract_y
_atom_site_fract_z
Si Si1 0.622299 0.338036 0.976530
Si Si2 0.763067 0.842027 0.182509
Si Si3 0.813519 0.568225 0.695681
Si Si4 0.141223 0.893346 0.178407
Si Si5 0.739130 0.588229 0.373377
Si Si6 0.444018 0.840483 0.332372
Si Si7 0.622379 0.421098 0.196998
Si Si8 0.915452 0.338470 0.639906
O O1 0.685940 0.250000 0.068748
O O2 0.403384 0.342652 0.749002
O O3 0.672568 0.363128 0.900596
O O4 0.698759 0.393601 0.154004
O O5 0.731345 0.750000 0.160361
O O6 0.860209 0.877578 0.395938
O O7 0.889207 0.863432 0.207803
O O8 0.569704 0.883746 0.968826
O O9 0.809015 0.481241 0.738169
O O10 0.851719 0.567718 0.600726
O O11 0.623212 0.607409 0.529379
O O12 0.978481 0.614214 0.921894
O O13 0.319771 0.854388 0.311663
O O14 0.075825 0.844840 0.217830
O O15 0.619037 0.515227 0.201757
O O16 0.502355 0.750000 0.386325
O O17 0.761469 0.394714 0.435512
O O18 0.871372 0.250000 0.558000
#
# Coordination Sequence:
#
# PCOD8072695 Si02
#       8
#     4   4   4   4   4   4   4   4
#     4   9  18  34  58  90 120 150 197 250 299 361
#     4  10  22  39  61  91 125 160 197 248 307 363
#     4  10  23  43  62  91 122 160 205 260 307 353
#     4  11  23  44  61  87 125 165 209 255 304 360
#     4  10  19  38  62  92 118 158 201 244 305 362
#     4  10  22  40  66  92 118 159 206 256 310 362
#     4  11  20  38  60  89 122 160 194 244 308 361
#     4  11  24  40  59  88 124 161 206 247 293 367
#
# _framework density 21.210384000000001
#
# number of rings (size 3 to 8) (size 9 to 14) (size 15 to 20)
#    0.000    1.750    1.250    4.500    0.000    4.000 
#   13.500    2.500    0.000    0.000    0.000    0.000 
#    0.000    0.000    0.000    0.000    0.000    0.000 
#
# Total GULP energy -396678.776388 kJ/mol
# GULP energy per Si atom -12396.211762 kJ/mol
# Density = 2.116211 g / cm^3
# Si number density = 21.210384 Si / 1000 Ang^3
#
#
#
# Elastic Constant Matrix: (Units=GPa)
#
#
# Indices 1 2 3 4 5 6 
#
# 1 147.9659 44.2492 48.0737 0.0000 -4.8460 0.0000
# 2 44.2492 71.1339 26.3264 0.0000 4.7689 0.0000
# 3 48.0737 26.3264 93.4489 0.0000 -12.7455 0.0000
# 4 0.0000 0.0000 0.0000 20.2812 0.0000 -9.1000
# 5 -4.8460 4.7689 -12.7455 0.0000 32.2168 0.0000
# 6 0.0000 0.0000 0.0000 -9.1000 0.0000 20.5957
#
#
#
# Elastic Compliance Matrix: (Units=1/GPa)
#
#
# Indices 1 2 3 4 5 6 
#
# 1 0.009237 -0.004547 -0.003372 0.000000 0.000729 0.000000
# 2 -0.004547 0.018519 -0.003536 0.000000 -0.004824 0.000000
# 3 -0.003372 -0.003536 0.014200 0.000000 0.005634 0.000000
# 4 0.000000 0.000000 0.000000 0.061499 0.000000 0.027173
# 5 0.000729 -0.004824 0.005634 0.000000 0.034092 0.000000
# 6 0.000000 0.000000 0.000000 0.027173 0.000000 0.060560
#
#
# Mechanical properties :
#
#
# Convention : Reuss Voigt Hill
#
# Bulk Modulus (GPa) = 52.50210 61.09414 56.79812
# Shear Modulus (GPa) = 21.99104 27.54537 24.76820
#
# Velocity S-wave (km/s) = 3.22344 3.60762 3.42093
# Velocity P-wave (km/s) = 6.21778 6.79850 6.51462
#
# Compressibility (1/GPa) = 0.01904686
#
# Stress axis : x y z
#
# Youngs Moduli (GPa) = 108.25467 53.99981 70.42221
#
# Poissons Ratio (x) = 0.24555 0.23744
# Poissons Ratio (y) = 0.49226 0.24899
# Poissons Ratio (z) = 0.36500 0.19093
#
# Static dielectric constant tensor:
#      x y z
#    x 3.996830 0.000000 -0.336440 
#    y 0.000000 3.809480 0.000000 
#    z -0.336440 0.000000 3.700320 
# 
# 
# High freq. dielectric constant tensor:
#      x y z
#    x 1.834640 0.000000 -0.019330 
#    y 0.000000 1.840340 0.000000 
#    z -0.019330 0.000000 1.818340 
# 
# From -- ./inp_files/40014.got.cif
#   From: 2010.06.25/outbox.cif.g09.slc.cpg/sg11_21_cif.got.tgz:40014.got - 2010.06.27 23:14:04.
