data_PCOD8072881
_publ_section_title
;
Structure prediction by ZEFSAII (Michael W. Deem and Ramdas Pophale) SiO2 
 PCOD8072881
Probable space group: P 21/M
;
_chemical_formula_sum "Si O2"
_cell_formula_units_Z 28
_cell_length_a 20.258822
_cell_length_b 9.007089
_cell_length_c 15.949358
_cell_angle_alpha 90.000000
_cell_angle_beta 151.264405
_cell_angle_gamma 90.000000
_cell_volume 1399.193252
_symmetry_space_group_name_H-M "P 21/M"
_symmetry_group_IT_number 11
_symmetry_cell_setting 'monoclinic'
loop_
_space_group_symop_operation_xyz
x,y,z
-x,1/2+y,-z
-x,-y,-z
x,1/2-y,z
loop_
_atom_site_type_symbol
_atom_site_label
_atom_site_fract_x
_atom_site_fract_y
_atom_site_fract_z
Si Si1 0.811120 0.920082 0.019117
Si Si2 0.342383 0.577220 0.916168
Si Si3 0.256058 0.074356 0.475560
Si Si4 0.238894 0.421375 0.650906
Si Si5 0.012261 0.576388 0.102509
Si Si6 0.937200 0.080646 0.306039
Si Si7 0.532239 0.926764 0.787811
O O1 0.811503 0.750000 0.044675
O O2 0.656487 0.978740 0.864366
O O3 0.864480 0.946441 0.983953
O O4 0.922069 0.993319 0.203013
O O5 0.383134 0.750000 0.963478
O O6 0.349339 0.514218 0.828869
O O7 0.185465 0.545794 0.767455
O O8 0.442833 0.489698 0.090473
O O9 0.254448 0.250000 0.457736
O O10 0.247658 0.033002 0.563956
O O11 0.397444 0.003092 0.598891
O O12 0.131844 0.000333 0.288115
O O13 0.276630 0.250000 0.705888
O O14 0.084227 0.458448 0.510673
O O15 0.046023 0.750000 0.129947
O O16 0.000000 0.500000 0.000000
O O17 0.937129 0.250000 0.277292
O O18 0.514328 0.750000 0.771880
#
# Coordination Sequence:
#
# PCOD8072881 Si02
#       7
#     4   4   4   4   4   4   4
#     4   9  19  36  60  87 115 150 191 234 284 342
#     4  10  20  32  51  80 113 153 201 244 285 336
#     4  11  23  40  61  87 118 154 194 239 290 345
#     4  10  20  33  51  77 114 154 194 241 292 338
#     4  11  23  41  66  95 121 147 184 232 288 349
#     4   9  17  31  51  78 112 150 192 240 289 338
#     4  10  21  39  60  83 117 158 197 239 286 338
#
# _framework density 20.011531999999999
#
# number of rings (size 3 to 8) (size 9 to 14) (size 15 to 20)
#    0.000    2.000    1.429    2.143    0.000    4.000 
#    0.000    0.714    0.000    0.000    0.000    0.000 
#    0.000    0.000    0.000    0.000    0.000    0.000 
#
# Total GULP energy -347135.685165 kJ/mol
# GULP energy per Si atom -12397.703042 kJ/mol
# Density = 1.996598 g / cm^3
# Si number density = 20.011532 Si / 1000 Ang^3
#
#
#
# Elastic Constant Matrix: (Units=GPa)
#
#
# Indices 1 2 3 4 5 6 
#
# 1 65.1456 45.3241 53.4109 0.0000 -9.8759 0.0000
# 2 45.3241 92.5715 48.9000 0.0000 -6.7728 0.0000
# 3 53.4109 48.9000 95.3674 0.0000 8.7200 0.0000
# 4 0.0000 0.0000 0.0000 36.4380 0.0000 -3.7357
# 5 -9.8759 -6.7728 8.7200 0.0000 25.4237 0.0000
# 6 0.0000 0.0000 0.0000 -3.7357 0.0000 26.8057
#
#
#
# Elastic Compliance Matrix: (Units=1/GPa)
#
#
# Indices 1 2 3 4 5 6 
#
# 1 0.041024 -0.007367 -0.021139 0.000000 0.021224 0.000000
# 2 -0.007367 0.017358 -0.005095 0.000000 0.003510 0.000000
# 3 -0.021139 -0.005095 0.026648 0.000000 -0.018709 0.000000
# 4 0.000000 0.000000 0.000000 0.027842 0.000000 0.003880
# 5 0.021224 0.003510 -0.018709 0.000000 0.054930 0.000000
# 6 0.000000 0.000000 0.000000 0.003880 0.000000 0.037846
#
#
# Mechanical properties :
#
#
# Convention : Reuss Voigt Hill
#
# Bulk Modulus (GPa) = 56.09254 60.92827 58.51040
# Shear Modulus (GPa) = 17.93444 24.76345 21.34895
#
# Velocity S-wave (km/s) = 2.99692 3.52157 3.26978
# Velocity P-wave (km/s) = 6.32980 6.85915 6.59978
#
# Compressibility (1/GPa) = 0.01782768
#
# Stress axis : x y z
#
# Youngs Moduli (GPa) = 24.37579 57.61138 37.52595
#
# Poissons Ratio (x) = 0.42440 0.79327
# Poissons Ratio (y) = 0.17957 0.19121
# Poissons Ratio (z) = 0.51528 0.29356
#
# Static dielectric constant tensor:
#      x y z
#    x 3.892080 0.000000 0.513600 
#    y 0.000000 3.714930 0.000000 
#    z 0.513600 0.000000 4.165150 
# 
# 
# High freq. dielectric constant tensor:
#      x y z
#    x 1.779080 0.000000 0.020630 
#    y 0.000000 1.785070 0.000000 
#    z 0.020630 0.000000 1.771810 
# 
# From -- ./inp_files/54599.got.cif
#   From: 2010.06.25/outbox.cif.g09.slc.cpg/sg11_28_cif.got.tgz:54599.got - 2010.06.27 23:14:04.
