data_PCOD8072346
_publ_section_title
;
Structure prediction by ZEFSAII (Michael W. Deem and Ramdas Pophale) SiO2 
 PCOD8072346
Probable space group: P 21/M
;
_chemical_formula_sum "Si O2"
_cell_formula_units_Z 28
_cell_length_a 9.484464
_cell_length_b 8.878816
_cell_length_c 26.882978
_cell_angle_alpha 90.000000
_cell_angle_beta 41.170557
_cell_angle_gamma 90.000000
_cell_volume 1490.290309
_symmetry_space_group_name_H-M "P 21/M"
_symmetry_group_IT_number 11
_symmetry_cell_setting 'monoclinic'
loop_
_space_group_symop_operation_xyz
x,y,z
-x,1/2+y,-z
-x,-y,-z
x,1/2-y,z
loop_
_atom_site_type_symbol
_atom_site_label
_atom_site_fract_x
_atom_site_fract_y
_atom_site_fract_z
Si Si1 0.361621 0.073775 0.579335
Si Si2 0.863625 0.079593 0.706084
Si Si3 0.945393 0.428993 0.067659
Si Si4 0.051331 0.586669 0.210678
Si Si5 0.527994 0.427633 0.238931
Si Si6 0.717193 0.417503 0.952466
Si Si7 0.364380 0.575613 0.680526
O O1 0.399228 0.250000 0.567584
O O2 0.112939 0.030607 0.635544
O O3 0.500000 0.000000 0.500000
O O4 0.447668 0.013767 0.609944
O O5 0.830809 0.250000 0.695666
O O6 0.797287 0.060535 0.781565
O O7 0.707040 0.972927 0.716894
O O8 0.942665 0.250000 0.062945
O O9 0.719698 0.488533 0.151772
O O10 0.135051 0.478196 0.053340
O O11 0.000000 0.500000 0.000000
O O12 0.930497 0.750000 0.251881
O O13 0.192195 0.601930 0.125795
O O14 0.890018 0.448218 0.247958
O O15 0.549742 0.250000 0.234430
O O16 0.543193 0.488362 0.291736
O O17 0.688140 0.250000 0.984140
O O18 0.500000 0.500000 0.000000
O O19 0.419513 0.750000 0.658575
#
# Coordination Sequence:
#
# PCOD8072346 Si02
#       7
#     4   4   4   4   4   4   4
#     4  10  21  39  62  91 120 150 189 232 281 342
#     4   9  20  36  57  85 115 147 188 233 281 339
#     4  11  24  42  58  82 116 156 202 251 304 357
#     4   9  19  36  55  79 108 144 191 238 286 342
#     4  10  22  38  57  84 117 151 194 240 288 346
#     4  11  23  38  57  82 112 150 195 247 301 354
#     4  10  19  35  59  85 113 149 188 233 282 334
#
# _framework density 18.788284000000001
#
# number of rings (size 3 to 8) (size 9 to 14) (size 15 to 20)
#    0.000    2.000    1.429    2.571    2.000    5.714 
#    0.000    0.714    0.000    0.000    0.000    0.000 
#    0.000    0.000    0.000    0.000    0.000    0.000 
#
# Total GULP energy -346977.656112 kJ/mol
# GULP energy per Si atom -12392.059147 kJ/mol
# Density = 1.874552 g / cm^3
# Si number density = 18.788284 Si / 1000 Ang^3
#
#
#
# Elastic Constant Matrix: (Units=GPa)
#
#
# Indices 1 2 3 4 5 6 
#
# 1 137.8595 40.2780 67.9757 0.0000 13.4988 0.0000
# 2 40.2780 68.5494 41.3319 0.0000 9.1788 0.0000
# 3 67.9757 41.3319 98.9886 0.0000 22.4169 0.0000
# 4 0.0000 0.0000 0.0000 28.5475 0.0000 -0.5347
# 5 13.4988 9.1788 22.4169 0.0000 28.6868 0.0000
# 6 0.0000 0.0000 0.0000 -0.5347 0.0000 34.5403
#
#
#
# Elastic Compliance Matrix: (Units=1/GPa)
#
#
# Indices 1 2 3 4 5 6 
#
# 1 0.011328 -0.002624 -0.006885 0.000000 0.000889 0.000000
# 2 -0.002624 0.020105 -0.006580 0.000000 -0.000056 0.000000
# 3 -0.006885 -0.006580 0.019886 0.000000 -0.010195 0.000000
# 4 0.000000 0.000000 0.000000 0.035040 0.000000 0.000542
# 5 0.000889 -0.000056 -0.010195 0.000000 0.042425 0.000000
# 6 0.000000 0.000000 0.000000 0.000542 0.000000 0.028960
#
#
# Mechanical properties :
#
#
# Convention : Reuss Voigt Hill
#
# Bulk Modulus (GPa) = 52.24241 67.17430 59.70836
# Shear Modulus (GPa) = 25.47100 28.74235 27.10668
#
# Velocity S-wave (km/s) = 3.68596 3.91551 3.80247
# Velocity P-wave (km/s) = 6.78095 7.50150 7.15031
#
# Compressibility (1/GPa) = 0.01914154
#
# Stress axis : x y z
#
# Youngs Moduli (GPa) = 88.27627 49.73949 50.28669
#
# Poissons Ratio (x) = 0.13052 0.34621
# Poissons Ratio (y) = 0.23164 0.33088
# Poissons Ratio (z) = 0.60776 0.32728
#
# Static dielectric constant tensor:
#      x y z
#    x 3.349240 0.000000 0.344580 
#    y 0.000000 4.059080 0.000000 
#    z 0.344580 0.000000 3.453880 
# 
# 
# High freq. dielectric constant tensor:
#      x y z
#    x 1.732560 0.000000 0.017850 
#    y 0.000000 1.734340 0.000000 
#    z 0.017850 0.000000 1.720540 
# 
# From -- ./inp_files/28241.got.cif
#   From: 2010.06.25/outbox.cif.g09.slc.cpg/sg11_15_cif.got.tgz:28241.got - 2010.06.27 23:14:04.
