data_PCOD8072449
_publ_section_title
;
Structure prediction by ZEFSAII (Michael W. Deem and Ramdas Pophale) SiO2 
 PCOD8072449
Probable space group: P 21/M
;
_chemical_formula_sum "Si O2"
_cell_formula_units_Z 28
_cell_length_a 16.783406
_cell_length_b 8.530260
_cell_length_c 21.874739
_cell_angle_alpha 90.000000
_cell_angle_beta 25.363336
_cell_angle_gamma 90.000000
_cell_volume 1341.501343
_symmetry_space_group_name_H-M "P 21/M"
_symmetry_group_IT_number 11
_symmetry_cell_setting 'monoclinic'
loop_
_space_group_symop_operation_xyz
x,y,z
-x,1/2+y,-z
-x,-y,-z
x,1/2-y,z
loop_
_atom_site_type_symbol
_atom_site_label
_atom_site_fract_x
_atom_site_fract_y
_atom_site_fract_z
Si Si1 0.548875 0.932415 0.582123
Si Si2 0.158869 0.935833 0.707720
Si Si3 0.432407 0.565430 0.189075
Si Si4 0.150073 0.065032 0.848216
Si Si5 0.809290 0.562964 0.872509
Si Si6 0.721404 0.068830 0.578953
Si Si7 0.147406 0.430030 0.293798
O O1 0.503521 0.750000 0.606875
O O2 0.650072 0.989219 0.449943
O O3 0.357638 0.024565 0.726582
O O4 0.682977 0.964010 0.546517
O O5 0.179054 0.750000 0.690667
O O6 0.989429 0.998677 0.783626
O O7 0.116757 0.987066 0.805660
O O8 0.448346 0.750000 0.178937
O O9 0.404551 0.507052 0.277801
O O10 0.260093 0.523983 0.265927
O O11 0.624795 0.491921 0.031671
O O12 0.125546 0.250000 0.860239
O O13 0.000000 0.000000 0.000000
O O14 0.811854 0.750000 0.871289
O O15 0.809581 0.500635 0.803096
O O16 0.683625 0.250000 0.587703
O O17 0.930710 0.047479 0.457111
O O18 0.208464 0.250000 0.255486
#
# Coordination Sequence:
#
# PCOD8072449 Si02
#       7
#     4   4   4   4   4   4   4
#     4  12  25  43  67  97 129 168 216 265 318 379
#     4  11  22  43  70  96 129 172 216 262 317 379
#     4  10  21  35  56  87 120 161 208 259 320 378
#     4  12  27  47  70 101 135 167 206 256 316 379
#     4   9  19  36  59  87 121 161 206 254 311 373
#     4  10  21  38  60  86 122 165 210 261 319 379
#     4  10  19  36  57  82 119 165 210 257 314 375
#
# _framework density 20.872136999999999
#
# number of rings (size 3 to 8) (size 9 to 14) (size 15 to 20)
#    0.000    1.429    1.429    4.286    2.000    1.143 
#    0.000    1.429    0.000    0.000    0.000    0.000 
#    0.000    0.000    0.000    0.000    0.000    0.000 
#
# Total GULP energy -347287.649863 kJ/mol
# GULP energy per Si atom -12403.130352 kJ/mol
# Density = 2.082463 g / cm^3
# Si number density = 20.872137 Si / 1000 Ang^3
#
#
#
# Elastic Constant Matrix: (Units=GPa)
#
#
# Indices 1 2 3 4 5 6 
#
# 1 98.4766 15.0958 35.2054 0.0000 10.9357 0.0000
# 2 15.0958 41.7016 24.6017 0.0000 4.7469 0.0000
# 3 35.2054 24.6017 123.8672 0.0000 20.6069 0.0000
# 4 0.0000 0.0000 0.0000 27.0277 0.0000 -0.8474
# 5 10.9357 4.7469 20.6069 0.0000 39.5102 0.0000
# 6 0.0000 0.0000 0.0000 -0.8474 0.0000 32.6270
#
#
#
# Elastic Compliance Matrix: (Units=1/GPa)
#
#
# Indices 1 2 3 4 5 6 
#
# 1 0.011626 -0.002531 -0.002537 0.000000 -0.001591 0.000000
# 2 -0.002531 0.027722 -0.004762 0.000000 -0.000146 0.000000
# 3 -0.002537 -0.004762 0.010433 0.000000 -0.004167 0.000000
# 4 0.000000 0.000000 0.000000 0.037029 0.000000 0.000962
# 5 -0.001591 -0.000146 -0.004167 0.000000 0.027941 0.000000
# 6 0.000000 0.000000 0.000000 0.000962 0.000000 0.030674
#
#
# Mechanical properties :
#
#
# Convention : Reuss Voigt Hill
#
# Bulk Modulus (GPa) = 33.19911 45.98347 39.59129
# Shear Modulus (GPa) = 28.55056 32.44249 30.49652
#
# Velocity S-wave (km/s) = 3.70250 3.94679 3.82660
# Velocity P-wave (km/s) = 5.84965 6.54587 6.20753
#
# Compressibility (1/GPa) = 0.03012129
#
# Stress axis : x y z
#
# Youngs Moduli (GPa) = 86.01172 36.07215 95.84591
#
# Poissons Ratio (x) = 0.09129 0.24318
# Poissons Ratio (y) = 0.21768 0.45645
# Poissons Ratio (z) = 0.21822 0.17179
#
# Static dielectric constant tensor:
#      x y z
#    x 3.804230 0.000000 0.118860 
#    y 0.000000 3.523730 0.000000 
#    z 0.118860 0.000000 4.165400 
# 
# 
# High freq. dielectric constant tensor:
#      x y z
#    x 1.827820 0.000000 0.005370 
#    y 0.000000 1.795390 0.000000 
#    z 0.005370 0.000000 1.834200 
# 
# From -- ./inp_files/65373.got.cif
#   From: 2010.06.25/outbox.cif.g09.slc.cpg/sg11_33_cif.got.tgz:65373.got - 2010.06.27 23:14:04.
