data_PCOD8072593
_publ_section_title
;
Structure prediction by ZEFSAII (Michael W. Deem and Ramdas Pophale) SiO2 
 PCOD8072593
Probable space group: P 21/M
;
_chemical_formula_sum "Si O2"
_cell_formula_units_Z 32
_cell_length_a 15.614629
_cell_length_b 19.568052
_cell_length_c 9.604831
_cell_angle_alpha 90.000000
_cell_angle_beta 144.678162
_cell_angle_gamma 90.000000
_cell_volume 1696.772161
_symmetry_space_group_name_H-M "P 21/M"
_symmetry_group_IT_number 11
_symmetry_cell_setting 'monoclinic'
loop_
_space_group_symop_operation_xyz
x,y,z
-x,1/2+y,-z
-x,-y,-z
x,1/2-y,z
loop_
_atom_site_type_symbol
_atom_site_label
_atom_site_fract_x
_atom_site_fract_y
_atom_site_fract_z
Si Si1 0.404455 0.062852 0.319718
Si Si2 0.418117 0.943726 0.701222
Si Si3 0.917611 0.949183 0.205360
Si Si4 0.085503 0.933650 0.171239
Si Si5 0.435105 0.414120 0.841081
Si Si6 0.973019 0.672965 0.827651
Si Si7 0.649608 0.672505 0.515563
Si Si8 0.891720 0.582320 0.478790
O O1 0.485016 0.092626 0.289706
O O2 0.395762 0.124055 0.418195
O O3 0.500000 0.000000 0.500000
O O4 0.244277 0.033307 0.067812
O O5 0.250881 0.952901 0.430863
O O6 0.481531 0.019975 0.812063
O O7 0.441573 0.900556 0.875204
O O8 0.907185 0.905462 0.333690
O O9 0.003429 0.905691 0.201284
O O10 0.007912 0.018762 0.344322
O O11 0.091904 0.874600 0.063457
O O12 0.000000 0.000000 0.000000
O O13 0.433304 0.349111 0.737029
O O14 0.278195 0.431027 0.706415
O O15 0.032970 0.750000 0.902962
O O16 0.823749 0.666261 0.719167
O O17 0.949809 0.648902 0.637781
O O18 0.603581 0.750000 0.490405
#
# Coordination Sequence:
#
# PCOD8072593 Si02
#       8
#     4   4   4   4   4   4   4   4
#     4  12  22  36  57  93 120 150 196 247 295 343
#     4  11  22  34  59  88 119 149 190 247 295 334
#     4  11  21  35  60  89 117 147 198 248 288 337
#     4  12  20  38  60  88 116 154 197 243 292 346
#     4  10  19  37  55  89 120 147 194 238 294 353
#     4  10  21  38  61  85 116 155 198 240 292 354
#     4  10  21  39  61  83 115 159 197 237 290 356
#     4  10  20  35  57  87 118 150 192 243 292 345
#
# _framework density 18.859337
#
# number of rings (size 3 to 8) (size 9 to 14) (size 15 to 20)
#    0.000    1.250    6.250    1.500    0.000    0.000 
#    0.000    3.125    0.000    0.000    0.000    0.000 
#    0.000    0.000    0.000    0.000    0.000    0.000 
#
# Total GULP energy -396726.535580 kJ/mol
# GULP energy per Si atom -12397.704237 kJ/mol
# Density = 1.881641 g / cm^3
# Si number density = 18.859337 Si / 1000 Ang^3
#
#
#
# Elastic Constant Matrix: (Units=GPa)
#
#
# Indices 1 2 3 4 5 6 
#
# 1 103.2903 34.7904 35.1610 0.0000 -17.6986 0.0000
# 2 34.7904 104.4304 47.3236 0.0000 -20.2119 0.0000
# 3 35.1610 47.3236 130.1882 0.0000 -10.1112 0.0000
# 4 0.0000 0.0000 0.0000 18.8635 0.0000 -2.4853
# 5 -17.6986 -20.2119 -10.1112 0.0000 32.2577 0.0000
# 6 0.0000 0.0000 0.0000 -2.4853 0.0000 23.5383
#
#
#
# Elastic Compliance Matrix: (Units=1/GPa)
#
#
# Indices 1 2 3 4 5 6 
#
# 1 0.011887 -0.002141 -0.002080 0.000000 0.004528 0.000000
# 2 -0.002141 0.013118 -0.003734 0.000000 0.005874 0.000000
# 3 -0.002080 -0.003734 0.009563 0.000000 -0.000484 0.000000
# 4 0.000000 0.000000 0.000000 0.053760 0.000000 0.005676
# 5 0.004528 0.005874 -0.000484 0.000000 0.037014 0.000000
# 6 0.000000 0.000000 0.000000 0.005676 0.000000 0.043083
#
#
# Mechanical properties :
#
#
# Convention : Reuss Voigt Hill
#
# Bulk Modulus (GPa) = 53.59916 63.60655 58.60285
# Shear Modulus (GPa) = 26.23923 29.64083 27.94003
#
# Velocity S-wave (km/s) = 3.73408 3.96874 3.85320
# Velocity P-wave (km/s) = 6.86100 7.40279 7.13704
#
# Compressibility (1/GPa) = 0.01865701
#
# Stress axis : x y z
#
# Youngs Moduli (GPa) = 84.12814 76.23124 104.57164
#
# Poissons Ratio (x) = 0.16319 0.21756
# Poissons Ratio (y) = 0.18010 0.39047
# Poissons Ratio (z) = 0.17502 0.28465
#
# Static dielectric constant tensor:
#      x y z
#    x 3.791290 0.000000 -0.283540 
#    y 0.000000 3.162940 0.000000 
#    z -0.283540 0.000000 3.702550 
# 
# 
# High freq. dielectric constant tensor:
#      x y z
#    x 1.738610 0.000000 -0.017120 
#    y 0.000000 1.689590 0.000000 
#    z -0.017120 0.000000 1.747270 
# 
# From -- ./inp_files/23133.got.cif
#   From: 2010.06.25/outbox.cif.g09.slc.cpg/sg11_12_cif.got.tgz:23133.got - 2010.06.27 23:14:04.
