data_PCOD8072248
_publ_section_title
;
Structure prediction by ZEFSAII (Michael W. Deem and Ramdas Pophale) SiO2 
 PCOD8072248
Probable space group: P 21/M
;
_chemical_formula_sum "Si O2"
_cell_formula_units_Z 24
_cell_length_a 14.842521
_cell_length_b 8.800967
_cell_length_c 15.132656
_cell_angle_alpha 90.000000
_cell_angle_beta 139.757171
_cell_angle_gamma 90.000000
_cell_volume 1277.041082
_symmetry_space_group_name_H-M "P 21/M"
_symmetry_group_IT_number 11
_symmetry_cell_setting 'monoclinic'
loop_
_space_group_symop_operation_xyz
x,y,z
-x,1/2+y,-z
-x,-y,-z
x,1/2-y,z
loop_
_atom_site_type_symbol
_atom_site_label
_atom_site_fract_x
_atom_site_fract_y
_atom_site_fract_z
Si Si1 0.646729 0.071229 0.324782
Si Si2 0.645147 0.929827 0.138566
Si Si3 0.653855 0.930106 0.837955
Si Si4 0.152208 0.430343 0.863023
Si Si5 0.352855 0.070237 0.365191
Si Si6 0.837288 0.428997 0.631557
O O1 0.642144 0.250000 0.302247
O O2 0.497291 0.008802 0.245267
O O3 0.759945 0.028900 0.483217
O O4 0.690748 0.985468 0.269018
O O5 0.629855 0.750000 0.125256
O O6 0.764883 0.986503 0.161169
O O7 0.500000 0.000000 0.000000
O O8 0.649662 0.750000 0.839726
O O9 0.687429 0.983843 0.763832
O O10 0.771572 0.995209 0.992122
O O11 0.150835 0.250000 0.864899
O O12 0.994604 0.491336 0.741658
O O13 0.367412 0.250000 0.381656
O O14 0.500000 0.000000 0.500000
O O15 0.232203 0.013508 0.338650
O O16 0.829688 0.250000 0.644193
#
# Coordination Sequence:
#
# PCOD8072248 Si02
#       6
#     4   4   4   4   4   4
#     4  10  19  35  57  81 110 146 184 226 278 333
#     4  11  21  35  58  86 111 146 190 232 274 327
#     4   9  17  33  56  80 108 145 183 221 275 334
#     4   9  19  36  57  79 110 148 184 222 279 342
#     4  11  21  35  58  85 112 146 187 232 276 328
#     4  10  21  38  58  81 111 149 185 225 280 336
#
# _framework density 18.793444999999998
#
# number of rings (size 3 to 8) (size 9 to 14) (size 15 to 20)
#    0.000    2.000    3.333    1.000    0.000    2.000 
#    0.000    1.667    0.000    0.000    0.000    0.000 
#    0.000    0.000    0.000    0.000    0.000    0.000 
#
# Total GULP energy -297628.123098 kJ/mol
# GULP energy per Si atom -12401.171796 kJ/mol
# Density = 1.875067 g / cm^3
# Si number density = 18.793445 Si / 1000 Ang^3
#
#
#
# Elastic Constant Matrix: (Units=GPa)
#
#
# Indices 1 2 3 4 5 6 
#
# 1 186.6994 42.6508 105.3918 0.0000 -6.3815 0.0000
# 2 42.6508 39.5195 33.2865 0.0000 -6.2801 0.0000
# 3 105.3918 33.2865 174.3746 0.0000 -1.4353 0.0000
# 4 0.0000 0.0000 0.0000 16.6687 0.0000 -6.2567
# 5 -6.3815 -6.2801 -1.4353 0.0000 44.2816 0.0000
# 6 0.0000 0.0000 0.0000 -6.2567 0.0000 31.1096
#
#
#
# Elastic Compliance Matrix: (Units=1/GPa)
#
#
# Indices 1 2 3 4 5 6 
#
# 1 0.009290 -0.006256 -0.004418 0.000000 0.000308 0.000000
# 2 -0.006256 0.035124 -0.002891 0.000000 0.003986 0.000000
# 3 -0.004418 -0.002891 0.008951 0.000000 -0.000757 0.000000
# 4 0.000000 0.000000 0.000000 0.064891 0.000000 0.013051
# 5 0.000308 0.003986 -0.000757 0.000000 0.023168 0.000000
# 6 0.000000 0.000000 0.000000 0.013051 0.000000 0.034769
#
#
# Mechanical properties :
#
#
# Convention : Reuss Voigt Hill
#
# Bulk Modulus (GPa) = 38.11741 84.80573 61.46157
# Shear Modulus (GPa) = 23.57741 33.02962 28.30351
#
# Velocity S-wave (km/s) = 3.54581 4.19681 3.88497
# Velocity P-wave (km/s) = 6.09016 8.28899 7.27315
#
# Compressibility (1/GPa) = 0.02623473
#
# Stress axis : x y z
#
# Youngs Moduli (GPa) = 107.64468 28.47070 111.72291
#
# Poissons Ratio (x) = 0.17810 0.49360
# Poissons Ratio (y) = 0.67339 0.32300
# Poissons Ratio (z) = 0.47558 0.08231
#
# Static dielectric constant tensor:
#      x y z
#    x 3.749050 0.000000 -0.088990 
#    y 0.000000 3.148180 0.000000 
#    z -0.088990 0.000000 3.831360 
# 
# 
# High freq. dielectric constant tensor:
#      x y z
#    x 1.740540 0.000000 -0.008530 
#    y 0.000000 1.697820 0.000000 
#    z -0.008530 0.000000 1.740410 
# 
# From -- ./inp_files/20637.got.cif
#   From: 2010.06.25/outbox.cif.g09.slc.cpg/sg11_11_cif.got.tgz:20637.got - 2010.06.27 23:14:04.
