data_PCOD8072118
_publ_section_title
;
Structure prediction by ZEFSAII (Michael W. Deem and Ramdas Pophale) SiO2 
 PCOD8072118
Probable space group: P 21/M
;
_chemical_formula_sum "Si O2"
_cell_formula_units_Z 24
_cell_length_a 24.729841
_cell_length_b 8.605575
_cell_length_c 17.346901
_cell_angle_alpha 90.000000
_cell_angle_beta 19.590299
_cell_angle_gamma 90.000000
_cell_volume 1237.788343
_symmetry_space_group_name_H-M "P 21/M"
_symmetry_group_IT_number 11
_symmetry_cell_setting 'monoclinic'
loop_
_space_group_symop_operation_xyz
x,y,z
-x,1/2+y,-z
-x,-y,-z
x,1/2-y,z
loop_
_atom_site_type_symbol
_atom_site_label
_atom_site_fract_x
_atom_site_fract_y
_atom_site_fract_z
Si Si1 0.441260 0.431696 0.351008
Si Si2 0.255483 0.566981 0.337508
Si Si3 0.054532 0.066337 0.159082
Si Si4 0.413787 0.066389 0.690584
Si Si5 0.093082 0.934275 0.802794
Si Si6 0.453198 0.430739 0.942029
O O1 0.447385 0.250000 0.359368
O O2 0.491336 0.519679 0.360837
O O3 0.264345 0.485070 0.565187
O O4 0.557532 0.475609 0.123707
O O5 0.258248 0.750000 0.317433
O O6 0.382897 0.524938 0.233348
O O7 0.080205 0.504883 0.599795
O O8 0.299622 0.477942 0.199809
O O9 0.053575 0.250000 0.165899
O O10 0.010446 0.015368 0.132027
O O11 0.231095 0.999436 0.941894
O O12 0.410526 0.250000 0.686635
O O13 0.500000 0.000000 0.500000
O O14 0.116319 0.750000 0.777417
O O15 0.000000 0.000000 0.000000
O O16 0.446226 0.250000 0.931567
#
# Coordination Sequence:
#
# PCOD8072118 Si02
#       6
#     4   4   4   4   4   4
#     4  12  24  39  58  85 119 160 203 243 289 347
#     4   9  17  34  58  86 118 150 186 237 299 360
#     4   9  19  37  60  84 114 151 192 239 296 354
#     4  11  23  41  63  86 117 158 199 244 300 359
#     4  11  21  37  59  88 118 149 192 248 302 355
#     4  10  19  34  58  88 119 151 190 241 298 352
#
# _framework density 19.389422
#
# number of rings (size 3 to 8) (size 9 to 14) (size 15 to 20)
#    0.000    1.667    1.667    4.000    0.000    2.000 
#    0.000    5.000    0.000    0.000    0.000    0.000 
#    0.000    0.000    0.000    0.000    0.000    0.000 
#
# Total GULP energy -297655.473720 kJ/mol
# GULP energy per Si atom -12402.311405 kJ/mol
# Density = 1.934529 g / cm^3
# Si number density = 19.389422 Si / 1000 Ang^3
#
#
#
# Elastic Constant Matrix: (Units=GPa)
#
#
# Indices 1 2 3 4 5 6 
#
# 1 84.3786 22.0960 28.3154 0.0000 22.2194 0.0000
# 2 22.0960 55.5721 31.9952 0.0000 7.3369 0.0000
# 3 28.3154 31.9952 107.7231 0.0000 20.3717 0.0000
# 4 0.0000 0.0000 0.0000 29.7856 0.0000 8.0395
# 5 22.2194 7.3369 20.3717 0.0000 33.2775 0.0000
# 6 0.0000 0.0000 0.0000 8.0395 0.0000 27.2173
#
#
#
# Elastic Compliance Matrix: (Units=1/GPa)
#
#
# Indices 1 2 3 4 5 6 
#
# 1 0.015717 -0.004423 -0.001151 0.000000 -0.008815 0.000000
# 2 -0.004423 0.022978 -0.005952 0.000000 0.001531 0.000000
# 3 -0.001151 -0.005952 0.012395 0.000000 -0.005507 0.000000
# 4 0.000000 0.000000 0.000000 0.036482 0.000000 -0.010776
# 5 -0.008815 0.001531 -0.005507 0.000000 0.038970 0.000000
# 6 0.000000 0.000000 0.000000 -0.010776 0.000000 0.039924
#
#
# Mechanical properties :
#
#
# Convention : Reuss Voigt Hill
#
# Bulk Modulus (GPa) = 35.66459 45.83189 40.74824
# Shear Modulus (GPa) = 25.14308 29.07390 27.10849
#
# Velocity S-wave (km/s) = 3.60494 3.87650 3.74318
# Velocity P-wave (km/s) = 5.98007 6.61251 6.30422
#
# Compressibility (1/GPa) = 0.02803902
#
# Stress axis : x y z
#
# Youngs Moduli (GPa) = 63.62604 43.52044 80.67984
#
# Poissons Ratio (x) = 0.19249 0.09283
# Poissons Ratio (y) = 0.28141 0.48017
# Poissons Ratio (z) = 0.07321 0.25901
#
# Static dielectric constant tensor:
#      x y z
#    x 3.637250 0.000000 0.094300 
#    y 0.000000 4.057320 0.000000 
#    z 0.094300 0.000000 3.885100 
# 
# 
# High freq. dielectric constant tensor:
#      x y z
#    x 1.752920 0.000000 0.018080 
#    y 0.000000 1.746400 0.000000 
#    z 0.018080 0.000000 1.761580 
# 
# From -- ./inp_files/61722.got.cif
#   From: 2010.06.25/outbox.cif.g09.slc.cpg/sg11_31_cif.got.tgz:61722.got - 2010.06.27 23:14:04.
