data_PCOD8072913
_publ_section_title
;
Structure prediction by ZEFSAII (Michael W. Deem and Ramdas Pophale) SiO2 
 PCOD8072913
Probable space group: P 21/M
;
_chemical_formula_sum "Si O2"
_cell_formula_units_Z 32
_cell_length_a 23.418438
_cell_length_b 8.817748
_cell_length_c 11.241066
_cell_angle_alpha 90.000000
_cell_angle_beta 125.443828
_cell_angle_gamma 90.000000
_cell_volume 1891.091432
_symmetry_space_group_name_H-M "P 21/M"
_symmetry_group_IT_number 11
_symmetry_cell_setting 'monoclinic'
loop_
_space_group_symop_operation_xyz
x,y,z
-x,1/2+y,-z
-x,-y,-z
x,1/2-y,z
loop_
_atom_site_type_symbol
_atom_site_label
_atom_site_fract_x
_atom_site_fract_y
_atom_site_fract_z
Si Si1 0.458612 0.425991 0.125586
Si Si2 0.437561 0.571981 0.350942
Si Si3 0.865444 0.575183 0.695449
Si Si4 0.717849 0.921294 0.453601
Si Si5 0.014565 0.924945 0.893086
Si Si6 0.837499 0.426201 0.906184
Si Si7 0.398908 0.925108 0.830366
Si Si8 0.301666 0.075697 0.290531
O O1 0.447522 0.250000 0.140692
O O2 0.440420 0.522594 0.218302
O O3 0.538337 0.462521 0.184805
O O4 0.406178 0.474369 0.957125
O O5 0.500000 0.500000 0.500000
O O6 0.446370 0.750000 0.369596
O O7 0.364148 0.525838 0.318445
O O8 0.860810 0.750000 0.737940
O O9 0.800838 0.551347 0.525577
O O10 0.855367 0.457789 0.790214
O O11 0.943040 0.547645 0.728307
O O12 0.695251 0.750000 0.393916
O O13 0.704842 0.952320 0.576895
O O14 0.673968 0.037009 0.321374
O O15 0.025203 0.750000 0.932993
O O16 0.091110 0.976963 0.933533
O O17 0.000000 0.000000 0.000000
O O18 0.818791 0.250000 0.902016
O O19 0.769939 0.524246 0.862826
O O20 0.400092 0.750000 0.869201
O O21 0.316408 0.250000 0.277278
#
# Coordination Sequence:
#
# PCOD8072913 Si02
#       8
#     4   4   4   4   4   4   4   4
#     4  10  21  37  54  71  92 120 154 190 230 274
#     4  12  24  37  53  73  97 123 154 190 229 272
#     4   8  14  24  36  54  83 119 155 188 225 272
#     4   9  17  28  44  65  91 124 158 191 228 272
#     4   8  13  21  34  52  78 113 151 188 225 268
#     4   9  15  23  37  58  83 114 152 192 232 271
#     4  10  20  33  51  72  93 118 150 190 232 274
#     4  10  20  33  47  65  92 126 161 194 231 276
#
# _framework density 16.921444999999999
#
# number of rings (size 3 to 8) (size 9 to 14) (size 15 to 20)
#    0.000    2.500    0.000    4.125    0.000    6.500 
#    0.000    0.000    0.000    0.000    0.000    0.000 
#    0.000    1.000    0.000    2.750    0.000    6.000 
#
# Total GULP energy -396442.485221 kJ/mol
# GULP energy per Si atom -12388.827663 kJ/mol
# Density = 1.688293 g / cm^3
# Si number density = 16.921445 Si / 1000 Ang^3
#
#
#
# Elastic Constant Matrix: (Units=GPa)
#
#
# Indices 1 2 3 4 5 6 
#
# 1 77.1439 33.4535 53.8441 0.0000 29.2685 0.0000
# 2 33.4535 77.2699 32.9510 0.0000 7.8523 0.0000
# 3 53.8441 32.9510 84.0944 0.0000 28.9472 0.0000
# 4 0.0000 0.0000 0.0000 25.7454 0.0000 3.1897
# 5 29.2685 7.8523 28.9472 0.0000 29.9470 0.0000
# 6 0.0000 0.0000 0.0000 3.1897 0.0000 22.2890
#
#
#
# Elastic Compliance Matrix: (Units=1/GPa)
#
#
# Indices 1 2 3 4 5 6 
#
# 1 0.029651 -0.006619 -0.010511 0.000000 -0.017084 0.000000
# 2 -0.006619 0.017164 -0.004743 0.000000 0.006553 0.000000
# 3 -0.010511 -0.004743 0.024751 0.000000 -0.012408 0.000000
# 4 0.000000 0.000000 0.000000 0.039543 0.000000 -0.005659
# 5 -0.017084 0.006553 -0.012408 0.000000 0.060365 0.000000
# 6 0.000000 0.000000 0.000000 -0.005659 0.000000 0.045675
#
#
# Mechanical properties :
#
#
# Convention : Reuss Voigt Hill
#
# Bulk Modulus (GPa) = 35.94537 53.22283 44.58410
# Shear Modulus (GPa) = 18.50701 23.48026 20.99363
#
# Velocity S-wave (km/s) = 3.31070 3.72910 3.52611
# Velocity P-wave (km/s) = 5.99191 7.07550 6.55613
#
# Compressibility (1/GPa) = 0.02782000
#
# Stress axis : x y z
#
# Youngs Moduli (GPa) = 33.72586 58.26145 40.40216
#
# Poissons Ratio (x) = 0.38562 0.42466
# Poissons Ratio (y) = 0.22323 0.19164
# Poissons Ratio (z) = 0.35449 0.27635
#
# Static dielectric constant tensor:
#      x y z
#    x 3.296930 0.000000 0.588290 
#    y 0.000000 3.197550 0.000000 
#    z 0.588290 0.000000 3.208340 
# 
# 
# High freq. dielectric constant tensor:
#      x y z
#    x 1.630260 0.000000 0.051790 
#    y 0.000000 1.663970 0.000000 
#    z 0.051790 0.000000 1.628580 
# 
# From -- ./inp_files/42533.got.cif
#   From: 2010.06.25/outbox.cif.g09.slc.cpg/sg11_22_cif.got.tgz:42533.got - 2010.06.27 23:14:04.
