data_PCOD8072325
_publ_section_title
;
Structure prediction by ZEFSAII (Michael W. Deem and Ramdas Pophale) SiO2 
 PCOD8072325
Probable space group: P 21/M
;
_chemical_formula_sum "Si O2"
_cell_formula_units_Z 28
_cell_length_a 9.601532
_cell_length_b 8.949970
_cell_length_c 27.462924
_cell_angle_alpha 90.000000
_cell_angle_beta 140.994375
_cell_angle_gamma 90.000000
_cell_volume 1485.365522
_symmetry_space_group_name_H-M "P 21/M"
_symmetry_group_IT_number 11
_symmetry_cell_setting 'monoclinic'
loop_
_space_group_symop_operation_xyz
x,y,z
-x,1/2+y,-z
-x,-y,-z
x,1/2-y,z
loop_
_atom_site_type_symbol
_atom_site_label
_atom_site_fract_x
_atom_site_fract_y
_atom_site_fract_z
Si Si1 0.839723 0.927989 0.496292
Si Si2 0.218121 0.916433 0.045735
Si Si3 0.989499 0.423468 0.794312
Si Si4 0.315990 0.077269 0.794980
Si Si5 0.961329 0.925212 0.637967
Si Si6 0.271697 0.581421 0.946359
Si Si7 0.363492 0.072692 0.364901
O O1 0.840557 0.750000 0.490561
O O2 0.918067 0.977772 0.571290
O O3 0.594837 0.989735 0.423302
O O4 0.000000 0.000000 0.500000
O O5 0.199129 0.750000 0.061167
O O6 0.437646 0.989406 0.129895
O O7 0.232268 0.915195 0.992268
O O8 0.000000 0.000000 0.000000
O O9 0.924793 0.250000 0.782788
O O10 0.188089 0.446187 0.810563
O O11 0.070396 0.490562 0.867347
O O12 0.777845 0.517444 0.719506
O O13 0.324752 0.250000 0.783254
O O14 0.194424 0.993895 0.717935
O O15 0.986654 0.750000 0.648700
O O16 0.759951 0.977151 0.618554
O O17 0.281819 0.750000 0.927909
O O18 0.500000 0.500000 0.000000
O O19 0.398468 0.250000 0.371931
#
# Coordination Sequence:
#
# PCOD8072325 Si02
#       7
#     4   4   4   4   4   4   4
#     4  11  23  40  59  84 118 154 189 230 281 338
#     4  10  22  39  55  80 114 151 192 236 282 336
#     4  10  19  35  58  87 117 147 187 236 285 334
#     4   9  18  35  57  82 114 146 186 235 281 332
#     4   9  20  37  60  88 113 143 188 234 281 336
#     4  11  21  36  58  84 115 150 192 238 285 335
#     4  10  20  37  61  89 116 146 187 234 283 338
#
# _framework density 18.850579
#
# number of rings (size 3 to 8) (size 9 to 14) (size 15 to 20)
#    0.000    2.000    1.429    2.143    0.000    4.000 
#    2.571    0.000    0.000    0.000    0.000    0.000 
#    0.000    0.000    0.000    0.000    0.000    0.000 
#
# Total GULP energy -347201.545846 kJ/mol
# GULP energy per Si atom -12400.055209 kJ/mol
# Density = 1.880767 g / cm^3
# Si number density = 18.850579 Si / 1000 Ang^3
#
#
#
# Elastic Constant Matrix: (Units=GPa)
#
#
# Indices 1 2 3 4 5 6 
#
# 1 80.4088 39.7938 64.4803 0.0000 18.1576 0.0000
# 2 39.7938 72.4130 46.9584 0.0000 5.3806 0.0000
# 3 64.4803 46.9584 162.7145 0.0000 14.3006 0.0000
# 4 0.0000 0.0000 0.0000 39.9488 0.0000 2.5220
# 5 18.1576 5.3806 14.3006 0.0000 25.2170 0.0000
# 6 0.0000 0.0000 0.0000 2.5220 0.0000 29.5175
#
#
#
# Elastic Compliance Matrix: (Units=1/GPa)
#
#
# Indices 1 2 3 4 5 6 
#
# 1 0.024286 -0.008481 -0.006103 0.000000 -0.012217 0.000000
# 2 -0.008481 0.019970 -0.002699 0.000000 0.003376 0.000000
# 3 -0.006103 -0.002699 0.009373 0.000000 -0.000345 0.000000
# 4 0.000000 0.000000 0.000000 0.025168 0.000000 -0.002150
# 5 -0.012217 0.003376 -0.000345 0.000000 0.047928 0.000000
# 6 0.000000 0.000000 0.000000 -0.002150 0.000000 0.034062
#
#
# Mechanical properties :
#
#
# Convention : Reuss Voigt Hill
#
# Bulk Modulus (GPa) = 52.45565 68.66680 60.56122
# Shear Modulus (GPa) = 24.78839 29.89026 27.33932
#
# Velocity S-wave (km/s) = 3.63022 3.98633 3.81243
# Velocity P-wave (km/s) = 6.74231 7.59564 7.18166
#
# Compressibility (1/GPa) = 0.01906372
#
# Stress axis : x y z
#
# Youngs Moduli (GPa) = 41.17553 50.07595 106.68409
#
# Poissons Ratio (x) = 0.42469 0.65108
# Poissons Ratio (y) = 0.34920 0.28795
# Poissons Ratio (z) = 0.25129 0.13516
#
# Static dielectric constant tensor:
#      x y z
#    x 3.123710 0.000000 -0.136170 
#    y 0.000000 3.612840 0.000000 
#    z -0.136170 0.000000 3.653670 
# 
# 
# High freq. dielectric constant tensor:
#      x y z
#    x 1.712340 0.000000 0.000870 
#    y 0.000000 1.737810 0.000000 
#    z 0.000870 0.000000 1.750180 
# 
# From -- ./inp_files/28135.got.cif
#   From: 2010.06.25/outbox.cif.g09.slc.cpg/sg11_15_cif.got.tgz:28135.got - 2010.06.27 23:14:04.
