data_PCOD8072000
_publ_section_title
;
Structure prediction by ZEFSAII (Michael W. Deem and Ramdas Pophale) SiO2 
 PCOD8072000
Probable space group: P 21/M
;
_chemical_formula_sum "Si O2"
_cell_formula_units_Z 32
_cell_length_a 9.457312
_cell_length_b 14.028444
_cell_length_c 22.290408
_cell_angle_alpha 90.000000
_cell_angle_beta 34.268704
_cell_angle_gamma 90.000000
_cell_volume 1665.180354
_symmetry_space_group_name_H-M "P 21/M"
_symmetry_group_IT_number 11
_symmetry_cell_setting 'monoclinic'
loop_
_space_group_symop_operation_xyz
x,y,z
-x,1/2+y,-z
-x,-y,-z
x,1/2-y,z
loop_
_atom_site_type_symbol
_atom_site_label
_atom_site_fract_x
_atom_site_fract_y
_atom_site_fract_z
Si Si1 0.896120 0.639562 0.505436
Si Si2 0.872855 0.855953 0.144964
Si Si3 0.852465 0.357997 0.233670
Si Si4 0.395634 0.645426 0.387795
Si Si5 0.460724 0.473994 0.445536
Si Si6 0.294188 0.020457 0.896516
Si Si7 0.526521 0.857886 0.738846
Si Si8 0.729165 0.517163 0.962912
O O1 0.839323 0.750000 0.515731
O O2 0.780926 0.590829 0.486270
O O3 0.758290 0.606677 0.615866
O O4 0.190961 0.614403 0.408688
O O5 0.977952 0.750000 0.093609
O O6 0.680739 0.852662 0.266705
O O7 0.693201 0.891109 0.153460
O O8 0.103845 0.922929 0.082932
O O9 0.876333 0.250000 0.250413
O O10 0.710185 0.424121 0.331849
O O11 0.715823 0.359078 0.218045
O O12 0.122816 0.400641 0.124025
O O13 0.313162 0.750000 0.439626
O O14 0.390546 0.575969 0.444593
O O15 0.500000 0.500000 0.500000
O O16 0.467377 0.931309 0.813732
O O17 0.377365 0.050343 0.934604
O O18 0.000000 0.000000 0.000000
O O19 0.571736 0.750000 0.748257
O O20 0.500000 0.500000 0.000000
#
# Coordination Sequence:
#
# PCOD8072000 Si02
#       8
#     4   4   4   4   4   4   4   4
#     4   9  19  36  59  88 117 154 201 245 290 349
#     4  10  20  38  61  84 115 152 193 241 295 353
#     4  10  20  39  62  83 113 154 197 241 293 351
#     4  10  20  37  59  84 119 155 195 242 292 352
#     4  11  21  36  59  87 119 158 191 238 297 354
#     4  10  19  34  56  86 111 146 197 240 284 345
#     4   9  16  32  60  86 113 146 192 246 291 335
#     4  11  23  41  59  83 120 157 196 243 299 358
#
# _framework density 19.217137999999998
#
# number of rings (size 3 to 8) (size 9 to 14) (size 15 to 20)
#    0.000    2.000    3.750    2.250    0.000    4.000 
#    4.500    0.000    0.000    0.000    0.000    0.000 
#    0.000    0.000    0.000    0.000    0.000    0.000 
#
# Total GULP energy -396472.115885 kJ/mol
# GULP energy per Si atom -12389.753621 kJ/mol
# Density = 1.917340 g / cm^3
# Si number density = 19.217138 Si / 1000 Ang^3
#
#
#
# Elastic Constant Matrix: (Units=GPa)
#
#
# Indices 1 2 3 4 5 6 
#
# 1 125.7047 58.2795 39.9336 0.0000 10.2911 0.0000
# 2 58.2795 119.7742 35.2259 0.0000 6.6245 0.0000
# 3 39.9336 35.2259 51.2954 0.0000 -0.0275 0.0000
# 4 0.0000 0.0000 0.0000 22.7933 0.0000 -8.1208
# 5 10.2911 6.6245 -0.0275 0.0000 28.3089 0.0000
# 6 0.0000 0.0000 0.0000 -8.1208 0.0000 13.8523
#
#
#
# Elastic Compliance Matrix: (Units=1/GPa)
#
#
# Indices 1 2 3 4 5 6 
#
# 1 0.012157 -0.003677 -0.006941 0.000000 -0.003566 0.000000
# 2 -0.003677 0.011747 -0.005206 0.000000 -0.001418 0.000000
# 3 -0.006941 -0.005206 0.028476 0.000000 0.003769 0.000000
# 4 0.000000 0.000000 0.000000 0.055455 0.000000 0.032510
# 5 -0.003566 -0.001418 0.003769 0.000000 0.036956 0.000000
# 6 0.000000 0.000000 0.000000 0.032510 0.000000 0.091248
#
#
# Mechanical properties :
#
#
# Convention : Reuss Voigt Hill
#
# Bulk Modulus (GPa) = 48.23300 62.62805 55.43052
# Shear Modulus (GPa) = 18.20850 23.87993 21.04421
#
# Velocity S-wave (km/s) = 3.08151 3.52893 3.31278
# Velocity P-wave (km/s) = 6.14934 7.01890 6.59846
#
# Compressibility (1/GPa) = 0.02073269
#
# Stress axis : x y z
#
# Youngs Moduli (GPa) = 82.25970 85.12511 35.11778
#
# Poissons Ratio (x) = 0.31297 0.24376
# Poissons Ratio (y) = 0.30243 0.18282
# Poissons Ratio (z) = 0.57097 0.44315
#
# Static dielectric constant tensor:
#      x y z
#    x 3.421360 0.000000 0.120070 
#    y 0.000000 4.064240 0.000000 
#    z 0.120070 0.000000 3.790230 
# 
# 
# High freq. dielectric constant tensor:
#      x y z
#    x 1.715820 0.000000 -0.006690 
#    y 0.000000 1.760230 0.000000 
#    z -0.006690 0.000000 1.741900 
# 
# From -- ./inp_files/63797.got.cif
#   From: 2010.06.25/outbox.cif.g09.slc.cpg/sg11_32_cif.got.tgz:63797.got - 2010.06.27 23:14:04.
