data_PCOD8072062
_publ_section_title
;
Structure prediction by ZEFSAII (Michael W. Deem and Ramdas Pophale) SiO2 
 PCOD8072062
Probable space group: P 21/M
;
_chemical_formula_sum "Si O2"
_cell_formula_units_Z 28
_cell_length_a 24.457378
_cell_length_b 8.922577
_cell_length_c 19.412715
_cell_angle_alpha 90.000000
_cell_angle_beta 21.412582
_cell_angle_gamma 90.000000
_cell_volume 1546.592812
_symmetry_space_group_name_H-M "P 21/M"
_symmetry_group_IT_number 11
_symmetry_cell_setting 'monoclinic'
loop_
_space_group_symop_operation_xyz
x,y,z
-x,1/2+y,-z
-x,-y,-z
x,1/2-y,z
loop_
_atom_site_type_symbol
_atom_site_label
_atom_site_fract_x
_atom_site_fract_y
_atom_site_fract_z
Si Si1 0.310431 0.922937 0.286863
Si Si2 0.902502 0.425020 0.673565
Si Si3 0.962019 0.925656 0.337716
Si Si4 0.126960 0.577762 0.809221
Si Si5 0.348567 0.077797 0.098231
Si Si6 0.924700 0.926763 0.928055
Si Si7 0.339830 0.572360 0.673153
O O1 0.266749 0.750000 0.327943
O O2 0.202733 0.000678 0.468863
O O3 0.295959 0.005147 0.231248
O O4 0.476681 0.941035 0.121490
O O5 0.896899 0.250000 0.666427
O O6 0.735710 0.494096 0.864968
O O7 0.000000 0.500000 0.500000
O O8 0.963480 0.463965 0.676926
O O9 0.948878 0.750000 0.338691
O O10 0.063979 0.001787 0.160343
O O11 0.102273 0.750000 0.852626
O O12 0.289224 0.534545 0.652352
O O13 0.086869 0.542036 0.776208
O O14 0.000000 0.500000 0.000000
O O15 0.299384 0.250000 0.159674
O O16 0.892623 0.750000 0.960296
O O17 0.784496 0.003855 0.130219
O O18 0.500000 0.500000 0.500000
O O19 0.351303 0.750000 0.672138
#
# Coordination Sequence:
#
# PCOD8072062 Si02
#       7
#     4   4   4   4   4   4   4
#     4  10  20  34  54  77 102 136 175 220 273 327
#     4  11  22  35  54  78 106 142 186 231 280 335
#     4  11  23  37  54  79 110 143 182 230 280 332
#     4   8  16  31  53  79 106 137 175 216 256 308
#     4  10  20  34  53  78 104 132 175 226 274 325
#     4  10  20  36  57  81 109 144 184 225 273 327
#     4  10  19  34  57  86 117 147 181 221 265 317
#
# _framework density 18.104313000000001
#
# number of rings (size 3 to 8) (size 9 to 14) (size 15 to 20)
#    0.000    2.000    1.429    2.571    0.000    4.571 
#    0.000    1.429    0.000    1.714    0.000    0.000 
#    0.000    0.000    0.000    0.000    0.000    0.000 
#
# Total GULP energy -347001.172277 kJ/mol
# GULP energy per Si atom -12392.899010 kJ/mol
# Density = 1.806311 g / cm^3
# Si number density = 18.104313 Si / 1000 Ang^3
#
#
#
# Elastic Constant Matrix: (Units=GPa)
#
#
# Indices 1 2 3 4 5 6 
#
# 1 111.1731 71.5296 61.2598 0.0000 -12.2378 0.0000
# 2 71.5296 110.6716 56.1938 0.0000 -5.2523 0.0000
# 3 61.2598 56.1938 99.2425 0.0000 -8.3586 0.0000
# 4 0.0000 0.0000 0.0000 34.3122 0.0000 -1.9763
# 5 -12.2378 -5.2523 -8.3586 0.0000 29.3742 0.0000
# 6 0.0000 0.0000 0.0000 -1.9763 0.0000 28.9692
#
#
#
# Elastic Compliance Matrix: (Units=1/GPa)
#
#
# Indices 1 2 3 4 5 6 
#
# 1 0.018344 -0.008542 -0.006118 0.000000 0.004374 0.000000
# 2 -0.008542 0.016661 -0.004313 0.000000 -0.001807 0.000000
# 3 -0.006118 -0.004313 0.016409 0.000000 0.001349 0.000000
# 4 0.000000 0.000000 0.000000 0.029259 0.000000 0.001996
# 5 0.004374 -0.001807 0.001349 0.000000 0.035927 0.000000
# 6 0.000000 0.000000 0.000000 0.001996 0.000000 0.034656
#
#
# Mechanical properties :
#
#
# Convention : Reuss Voigt Hill
#
# Bulk Modulus (GPa) = 74.25660 77.67261 75.96461
# Shear Modulus (GPa) = 25.81447 27.33806 26.57627
#
# Velocity S-wave (km/s) = 3.78017 3.89013 3.83554
# Velocity P-wave (km/s) = 7.75616 7.94817 7.85275
#
# Compressibility (1/GPa) = 0.01346682
#
# Stress axis : x y z
#
# Youngs Moduli (GPa) = 54.51515 60.02078 60.94300
#
# Poissons Ratio (x) = 0.51269 0.37285
# Poissons Ratio (y) = 0.46566 0.26287
# Poissons Ratio (z) = 0.33352 0.25889
#
# Static dielectric constant tensor:
#      x y z
#    x 3.756110 0.000000 -0.253350 
#    y 0.000000 3.529870 0.000000 
#    z -0.253350 0.000000 3.148030 
# 
# 
# High freq. dielectric constant tensor:
#      x y z
#    x 1.701100 0.000000 -0.020960 
#    y 0.000000 1.721190 0.000000 
#    z -0.020960 0.000000 1.680780 
# 
# From -- ./inp_files/61245.got.cif
#   From: 2010.06.25/outbox.cif.g09.slc.cpg/sg11_31_cif.got.tgz:61245.got - 2010.06.27 23:14:04.
