data_PCOD8072247
_publ_section_title
;
Structure prediction by ZEFSAII (Michael W. Deem and Ramdas Pophale) SiO2 
 PCOD8072247
Probable space group: P 21/M
;
_chemical_formula_sum "Si O2"
_cell_formula_units_Z 32
_cell_length_a 26.179611
_cell_length_b 8.717917
_cell_length_c 21.001549
_cell_angle_alpha 90.000000
_cell_angle_beta 20.795863
_cell_angle_gamma 90.000000
_cell_volume 1701.781802
_symmetry_space_group_name_H-M "P 21/M"
_symmetry_group_IT_number 11
_symmetry_cell_setting 'monoclinic'
loop_
_space_group_symop_operation_xyz
x,y,z
-x,1/2+y,-z
-x,-y,-z
x,1/2-y,z
loop_
_atom_site_type_symbol
_atom_site_label
_atom_site_fract_x
_atom_site_fract_y
_atom_site_fract_z
Si Si1 0.750622 0.567003 0.949468
Si Si2 0.140228 0.567958 0.304309
Si Si3 0.143033 0.072536 0.806774
Si Si4 0.575540 0.570456 0.972512
Si Si5 0.346568 0.073555 0.686821
Si Si6 0.853962 0.567221 0.967215
Si Si7 0.835856 0.432325 0.352105
Si Si8 0.551582 0.428049 0.746466
O O1 0.759557 0.750000 0.931552
O O2 0.850620 0.493595 0.778617
O O3 0.804954 0.509936 0.954831
O O4 0.586712 0.506982 0.130877
O O5 0.132622 0.750000 0.312645
O O6 0.274998 0.514283 0.189275
O O7 0.000000 0.500000 0.500000
O O8 0.116468 0.250000 0.822740
O O9 0.266226 0.046971 0.714563
O O10 0.191182 0.984738 0.687936
O O11 0.000000 0.000000 0.000000
O O12 0.606449 0.750000 0.927249
O O13 0.500000 0.500000 0.000000
O O14 0.466868 0.540318 0.157396
O O15 0.369807 0.250000 0.675325
O O16 0.500000 0.000000 0.500000
O O17 0.255200 0.001224 0.852001
O O18 0.855629 0.750000 0.968373
O O19 0.013887 0.502424 0.795217
O O20 0.840236 0.250000 0.349406
O O21 0.702394 0.502081 0.548202
O O22 0.559837 0.250000 0.721368
#
# Coordination Sequence:
#
# PCOD8072247 Si02
#       8
#     4   4   4   4   4   4   4   4
#     4   9  18  35  56  79 109 147 189 232 275 330
#     4  11  22  38  59  85 116 153 193 236 288 340
#     4  11  22  38  57  80 111 144 184 232 282 333
#     4  10  20  37  59  88 121 152 192 236 280 337
#     4  10  22  38  55  81 111 144 187 232 280 334
#     4   9  18  34  55  79 110 144 183 229 276 333
#     4  10  19  35  57  81 109 145 186 227 274 332
#     4   8  17  32  54  80 107 145 188 222 267 332
#
# _framework density 18.803820999999999
#
# number of rings (size 3 to 8) (size 9 to 14) (size 15 to 20)
#    0.000    2.250    1.250    2.625    1.750    2.000 
#    0.000    6.875    0.000    0.000    0.000    0.000 
#    0.000    0.000    0.000    0.000    0.000    0.000 
#
# Total GULP energy -396766.492321 kJ/mol
# GULP energy per Si atom -12398.952885 kJ/mol
# Density = 1.876102 g / cm^3
# Si number density = 18.803821 Si / 1000 Ang^3
#
#
#
# Elastic Constant Matrix: (Units=GPa)
#
#
# Indices 1 2 3 4 5 6 
#
# 1 132.3077 36.6975 73.2756 0.0000 10.4715 0.0000
# 2 36.6975 52.6103 39.9950 0.0000 -2.3236 0.0000
# 3 73.2756 39.9950 185.5706 0.0000 5.5227 0.0000
# 4 0.0000 0.0000 0.0000 26.6571 0.0000 1.2436
# 5 10.4715 -2.3236 5.5227 0.0000 23.6547 0.0000
# 6 0.0000 0.0000 0.0000 1.2436 0.0000 30.4203
#
#
#
# Elastic Compliance Matrix: (Units=1/GPa)
#
#
# Indices 1 2 3 4 5 6 
#
# 1 0.011215 -0.005714 -0.003054 0.000000 -0.004813 0.000000
# 2 -0.005714 0.025918 -0.003505 0.000000 0.005894 0.000000
# 3 -0.003054 -0.003505 0.007371 0.000000 -0.000713 0.000000
# 4 0.000000 0.000000 0.000000 0.037585 0.000000 -0.001537
# 5 -0.004813 0.005894 -0.000713 0.000000 0.045151 0.000000
# 6 0.000000 0.000000 0.000000 -0.001537 0.000000 0.032936
#
#
# Mechanical properties :
#
#
# Convention : Reuss Voigt Hill
#
# Bulk Modulus (GPa) = 50.10279 74.49164 62.29721
# Shear Modulus (GPa) = 26.12662 30.84779 28.48720
#
# Velocity S-wave (km/s) = 3.73155 4.05471 3.89648
# Velocity P-wave (km/s) = 6.72821 7.84997 7.31064
#
# Compressibility (1/GPa) = 0.01995897
#
# Stress axis : x y z
#
# Youngs Moduli (GPa) = 89.16471 38.58256 135.66156
#
# Poissons Ratio (x) = 0.22046 0.41428
# Poissons Ratio (y) = 0.50949 0.47552
# Poissons Ratio (z) = 0.27229 0.13524
#
# Static dielectric constant tensor:
#      x y z
#    x 3.398260 0.000000 -0.086910 
#    y 0.000000 3.230600 0.000000 
#    z -0.086910 0.000000 3.792000 
# 
# 
# High freq. dielectric constant tensor:
#      x y z
#    x 1.738820 0.000000 0.000870 
#    y 0.000000 1.704610 0.000000 
#    z 0.000870 0.000000 1.743010 
# 
# From -- ./inp_files/66953.got.cif
#   From: 2010.06.25/outbox.cif.g09.slc.cpg/sg11_34_cif.got.tgz:66953.got - 2010.06.27 23:14:04.
