data_PCOD8072014
_publ_section_title
;
Structure prediction by ZEFSAII (Michael W. Deem and Ramdas Pophale) SiO2 
 PCOD8072014
Probable space group: P 21/M
;
_chemical_formula_sum "Si O2"
_cell_formula_units_Z 32
_cell_length_a 16.223320
_cell_length_b 8.909484
_cell_length_c 12.160167
_cell_angle_alpha 90.000000
_cell_angle_beta 91.692993
_cell_angle_gamma 90.000000
_cell_volume 1756.880436
_symmetry_space_group_name_H-M "P 21/M"
_symmetry_group_IT_number 11
_symmetry_cell_setting 'monoclinic'
loop_
_space_group_symop_operation_xyz
x,y,z
-x,1/2+y,-z
-x,-y,-z
x,1/2-y,z
loop_
_atom_site_type_symbol
_atom_site_label
_atom_site_fract_x
_atom_site_fract_y
_atom_site_fract_z
Si Si1 0.874320 0.073580 0.491220
Si Si2 0.462232 0.427592 0.606368
Si Si3 0.622318 0.923887 0.025701
Si Si4 0.507293 0.924031 0.824985
Si Si5 0.288622 0.924611 0.635954
Si Si6 0.771788 0.424563 0.121370
Si Si7 0.019006 0.427041 0.337555
Si Si8 0.958836 0.072663 0.102666
O O1 0.880758 0.250000 0.505027
O O2 0.782039 0.027220 0.453322
O O3 0.938429 0.017350 0.400965
O O4 0.897917 0.998242 0.608399
O O5 0.500000 0.500000 0.500000
O O6 0.468998 0.250000 0.598391
O O7 0.515548 0.483931 0.712703
O O8 0.367474 0.474454 0.615344
O O9 0.613843 0.750000 0.058299
O O10 0.572242 0.022305 0.111017
O O11 0.716400 0.978959 0.034684
O O12 0.589120 0.951021 0.900865
O O13 0.493970 0.750000 0.795849
O O14 0.312056 0.750000 0.623623
O O15 0.254857 0.958086 0.755518
O O16 0.762455 0.250000 0.092191
O O17 0.864670 0.480993 0.108832
O O18 0.026941 0.250000 0.344259
O O19 0.008997 0.481710 0.211976
O O20 0.962429 0.250000 0.092335
O O21 0.000000 0.000000 0.000000
#
# Coordination Sequence:
#
# PCOD8072014 Si02
#       8
#     4   4   4   4   4   4   4   4
#     4   9  17  31  54  82 109 139 179 225 274 327
#     4  12  25  40  59  84 114 148 188 230 279 338
#     4  10  20  33  55  87 115 142 184 234 279 327
#     4  10  20  36  56  81 116 151 183 226 279 330
#     4  10  19  35  58  83 111 145 184 231 280 329
#     4  10  19  34  57  81 111 148 187 231 282 331
#     4   9  17  32  52  77 110 144 180 223 274 324
#     4  10  21  37  55  79 111 151 188 225 277 333
#
# _framework density 18.214102
#
# number of rings (size 3 to 8) (size 9 to 14) (size 15 to 20)
#    0.000    2.000    2.500    1.875    0.000    3.000 
#    0.000    1.250    0.000    3.000    0.000    0.000 
#    0.000    0.000    0.000    0.000    0.000    0.000 
#
# Total GULP energy -396848.566000 kJ/mol
# GULP energy per Si atom -12401.517687 kJ/mol
# Density = 1.817265 g / cm^3
# Si number density = 18.214102 Si / 1000 Ang^3
#
#
#
# Elastic Constant Matrix: (Units=GPa)
#
#
# Indices 1 2 3 4 5 6 
#
# 1 104.8724 49.1688 70.6413 0.0000 17.1999 0.0000
# 2 49.1688 83.7593 58.0672 0.0000 7.1265 0.0000
# 3 70.6413 58.0672 139.4132 0.0000 15.7377 0.0000
# 4 0.0000 0.0000 0.0000 33.0390 0.0000 3.3605
# 5 17.1999 7.1265 15.7377 0.0000 34.7614 0.0000
# 6 0.0000 0.0000 0.0000 3.3605 0.0000 30.8105
#
#
#
# Elastic Compliance Matrix: (Units=1/GPa)
#
#
# Indices 1 2 3 4 5 6 
#
# 1 0.016651 -0.005475 -0.005642 0.000000 -0.004562 0.000000
# 2 -0.005475 0.018589 -0.005105 0.000000 0.001209 0.000000
# 3 -0.005642 -0.005105 0.012356 0.000000 -0.001756 0.000000
# 4 0.000000 0.000000 0.000000 0.030607 0.000000 -0.003338
# 5 -0.004562 0.001209 -0.001756 0.000000 0.031572 0.000000
# 6 0.000000 0.000000 0.000000 -0.003338 0.000000 0.032821
#
#
# Mechanical properties :
#
#
# Convention : Reuss Voigt Hill
#
# Bulk Modulus (GPa) = 65.99438 75.97772 70.98605
# Shear Modulus (GPa) = 27.76406 29.73336 28.74871
#
# Velocity S-wave (km/s) = 3.90849 4.04472 3.97719
# Velocity P-wave (km/s) = 7.52858 7.97605 7.75554
#
# Compressibility (1/GPa) = 0.01515281
#
# Stress axis : x y z
#
# Youngs Moduli (GPa) = 60.05751 53.79502 80.93278
#
# Poissons Ratio (x) = 0.29454 0.45658
# Poissons Ratio (y) = 0.32882 0.41314
# Poissons Ratio (z) = 0.33882 0.27461
#
# Static dielectric constant tensor:
#      x y z
#    x 3.635700 0.000000 0.227950 
#    y 0.000000 3.332760 0.000000 
#    z 0.227950 0.000000 3.435900 
# 
# 
# High freq. dielectric constant tensor:
#      x y z
#    x 1.699120 0.000000 0.025320 
#    y 0.000000 1.703450 0.000000 
#    z 0.025320 0.000000 1.701620 
# 
# From -- ./inp_files/38065.got.cif
#   From: 2010.06.25/outbox.cif.g09.slc.cpg/sg11_20_cif.got.tgz:38065.got - 2010.06.27 23:14:04.
