data_PCOD8073013
_publ_section_title
;
Structure prediction by ZEFSAII (Michael W. Deem and Ramdas Pophale) SiO2 
 PCOD8073013
Probable space group: P 21/M
;
_chemical_formula_sum "Si O2"
_cell_formula_units_Z 24
_cell_length_a 9.343896
_cell_length_b 16.491869
_cell_length_c 12.306447
_cell_angle_alpha 90.000000
_cell_angle_beta 38.950313
_cell_angle_gamma 90.000000
_cell_volume 1192.166355
_symmetry_space_group_name_H-M "P 21/M"
_symmetry_group_IT_number 11
_symmetry_cell_setting 'monoclinic'
loop_
_space_group_symop_operation_xyz
x,y,z
-x,1/2+y,-z
-x,-y,-z
x,1/2-y,z
loop_
_atom_site_type_symbol
_atom_site_label
_atom_site_fract_x
_atom_site_fract_y
_atom_site_fract_z
Si Si1 0.428427 0.591936 0.023134
Si Si2 0.275070 0.593711 0.338057
Si Si3 0.225316 0.095353 0.350554
Si Si4 0.447326 0.655765 0.669938
Si Si5 0.559094 0.654951 0.365697
Si Si6 0.087297 0.655268 0.059194
O O1 0.390598 0.634506 0.162795
O O2 0.196715 0.600331 0.089490
O O3 0.500000 0.500000 0.000000
O O4 0.628893 0.635177 0.834669
O O5 0.228596 0.500985 0.335439
O O6 0.438340 0.603697 0.343648
O O7 0.027600 0.633074 0.506983
O O8 0.337605 0.114687 0.399628
O O9 0.499928 0.750000 0.640496
O O10 0.443259 0.626673 0.547206
O O11 0.210484 0.635170 0.871088
O O12 0.522948 0.750000 0.364925
O O13 0.824135 0.631462 0.205785
O O14 0.117508 0.750000 0.070910
#
# Coordination Sequence:
#
# PCOD8073013 Si02
#       6
#     4   4   4   4   4   4
#     4   9  18  34  53  74 100 130 168 209 245 290
#     4  10  20  33  50  74 104 130 161 207 250 291
#     4   9  19  35  52  72  98 132 169 203 243 291
#     4   9  18  34  53  72  97 130 168 204 241 293
#     4  10  21  34  50  76 105 131 162 203 250 296
#     4   9  18  34  54  73  98 134 169 201 244 297
#
# _framework density 20.131419000000001
#
# number of rings (size 3 to 8) (size 9 to 14) (size 15 to 20)
#    0.000    2.667    0.000    1.000    0.000    3.333 
#    0.000    7.500    0.000    0.000    0.000    0.000 
#    0.000    0.000    0.000    0.000    0.000    0.000 
#
# Total GULP energy -297478.994756 kJ/mol
# GULP energy per Si atom -12394.958115 kJ/mol
# Density = 2.008560 g / cm^3
# Si number density = 20.131419 Si / 1000 Ang^3
#
#
#
# Elastic Constant Matrix: (Units=GPa)
#
#
# Indices 1 2 3 4 5 6 
#
# 1 130.6785 20.3371 90.0622 0.0000 12.0715 0.0000
# 2 20.3371 17.6712 20.4340 0.0000 -3.3736 0.0000
# 3 90.0622 20.4340 154.0277 0.0000 18.5998 0.0000
# 4 0.0000 0.0000 0.0000 10.3683 0.0000 -4.8199
# 5 12.0715 -3.3736 18.5998 0.0000 32.9054 0.0000
# 6 0.0000 0.0000 0.0000 -4.8199 0.0000 12.4599
#
#
#
# Elastic Compliance Matrix: (Units=1/GPa)
#
#
# Indices 1 2 3 4 5 6 
#
# 1 0.013772 -0.008570 -0.006654 0.000000 -0.002170 0.000000
# 2 -0.008570 0.077548 -0.007101 0.000000 0.015108 0.000000
# 3 -0.006654 -0.007101 0.011933 0.000000 -0.005032 0.000000
# 4 0.000000 0.000000 0.000000 0.117594 0.000000 0.045489
# 5 -0.002170 0.015108 -0.005032 0.000000 0.035579 0.000000
# 6 0.000000 0.000000 0.000000 0.045489 0.000000 0.097854
#
#
# Mechanical properties :
#
#
# Convention : Reuss Voigt Hill
#
# Bulk Modulus (GPa) = 17.06410 62.67156 39.86783
# Shear Modulus (GPa) = 11.94841 22.58299 17.26570
#
# Velocity S-wave (km/s) = 2.43887 3.35293 2.93174
# Velocity P-wave (km/s) = 4.05284 6.79620 5.59526
#
# Compressibility (1/GPa) = 0.05860257
#
# Stress axis : x y z
#
# Youngs Moduli (GPa) = 72.60918 12.89523 83.80341
#
# Poissons Ratio (x) = 0.11051 0.55762
# Poissons Ratio (y) = 0.62227 0.59511
# Poissons Ratio (z) = 0.48313 0.09157
#
# Static dielectric constant tensor:
#      x y z
#    x 3.469370 0.000000 0.197800 
#    y 0.000000 3.281230 0.000000 
#    z 0.197800 0.000000 4.566020 
# 
# 
# High freq. dielectric constant tensor:
#      x y z
#    x 1.776480 0.000000 0.007140 
#    y 0.000000 1.750560 0.000000 
#    z 0.007140 0.000000 1.812150 
# 
# From -- ./inp_files/18706.got.cif
#   From: 2010.06.25/outbox.cif.g09.slc.cpg/sg11_10_cif.got.tgz:18706.got - 2010.06.27 23:14:04.
