data_PCOD8073500
_publ_section_title
;
Structure prediction by ZEFSAII (Michael W. Deem and Ramdas Pophale) SiO2 
 PCOD8073500
Probable space group: P 21/M
;
_chemical_formula_sum "Si O2"
_cell_formula_units_Z 24
_cell_length_a 15.413959
_cell_length_b 8.998685
_cell_length_c 15.471677
_cell_angle_alpha 90.000000
_cell_angle_beta 37.969210
_cell_angle_gamma 90.000000
_cell_volume 1320.303377
_symmetry_space_group_name_H-M "P 21/M"
_symmetry_group_IT_number 11
_symmetry_cell_setting 'monoclinic'
loop_
_space_group_symop_operation_xyz
x,y,z
-x,1/2+y,-z
-x,-y,-z
x,1/2-y,z
loop_
_atom_site_type_symbol
_atom_site_label
_atom_site_fract_x
_atom_site_fract_y
_atom_site_fract_z
Si Si1 0.642719 0.575575 0.916288
Si Si2 0.611063 0.576678 0.302036
Si Si3 0.239882 0.077527 0.990532
Si Si4 0.085930 0.577488 0.357835
Si Si5 0.030868 0.421193 0.739328
Si Si6 0.300109 0.924132 0.599952
O O1 0.636939 0.750000 0.901984
O O2 0.764292 0.503209 0.763229
O O3 0.500000 0.500000 0.000000
O O4 0.668504 0.540695 0.996824
O O5 0.634653 0.750000 0.301557
O O6 0.666505 0.528936 0.164596
O O7 0.700078 0.486976 0.302831
O O8 0.446177 0.535267 0.437290
O O9 0.199310 0.250000 0.019044
O O10 0.094293 0.987139 0.103758
O O11 0.109621 0.750000 0.360558
O O12 0.000000 0.500000 0.500000
O O13 0.002093 0.554784 0.335059
O O14 0.047307 0.250000 0.751157
O O15 0.176453 0.503545 0.642137
O O16 0.274242 0.750000 0.624875
#
# Coordination Sequence:
#
# PCOD8073500 Si02
#       6
#     4   4   4   4   4   4
#     4  10  20  35  55  80 109 141 178 220 267 318
#     4   9  19  36  55  76 103 135 174 218 260 306
#     4   9  19  36  56  77 103 137 176 217 261 309
#     4  10  21  37  56  79 107 140 178 220 266 315
#     4  10  21  36  54  78 107 138 173 214 259 309
#     4  10  20  34  54  79 106 138 173 212 261 312
#
# _framework density 18.177638999999999
#
# number of rings (size 3 to 8) (size 9 to 14) (size 15 to 20)
#    0.000    2.333    0.000    2.000    0.000    6.000 
#    0.000    1.667    0.000    0.000    0.000    0.000 
#    0.000    0.000    0.000    0.000    0.000    0.000 
#
# Total GULP energy -297698.674268 kJ/mol
# GULP energy per Si atom -12404.111428 kJ/mol
# Density = 1.813627 g / cm^3
# Si number density = 18.177639 Si / 1000 Ang^3
#
#
#
# Elastic Constant Matrix: (Units=GPa)
#
#
# Indices 1 2 3 4 5 6 
#
# 1 89.1224 58.9722 65.2695 0.0000 -19.5684 0.0000
# 2 58.9722 105.5475 67.2615 0.0000 -8.2615 0.0000
# 3 65.2695 67.2615 146.9075 0.0000 6.6325 0.0000
# 4 0.0000 0.0000 0.0000 33.3306 0.0000 -4.0689
# 5 -19.5684 -8.2615 6.6325 0.0000 30.7547 0.0000
# 6 0.0000 0.0000 0.0000 -4.0689 0.0000 36.5476
#
#
#
# Elastic Compliance Matrix: (Units=1/GPa)
#
#
# Indices 1 2 3 4 5 6 
#
# 1 0.026749 -0.007861 -0.009046 0.000000 0.016859 0.000000
# 2 -0.007861 0.016482 -0.004068 0.000000 0.000303 0.000000
# 3 -0.009046 -0.004068 0.013126 0.000000 -0.009679 0.000000
# 4 0.000000 0.000000 0.000000 0.030416 0.000000 0.003386
# 5 0.016859 0.000303 -0.009679 0.000000 0.045411 0.000000
# 6 0.000000 0.000000 0.000000 0.003386 0.000000 0.027739
#
#
# Mechanical properties :
#
#
# Convention : Reuss Voigt Hill
#
# Bulk Modulus (GPa) = 69.40972 80.50930 74.95951
# Shear Modulus (GPa) = 24.19270 30.13154 27.16212
#
# Velocity S-wave (km/s) = 3.65211 4.07580 3.86976
# Velocity P-wave (km/s) = 7.48672 8.15696 7.82901
#
# Compressibility (1/GPa) = 0.01440720
#
# Stress axis : x y z
#
# Youngs Moduli (GPa) = 37.38490 60.67101 76.18739
#
# Poissons Ratio (x) = 0.47692 0.68921
# Poissons Ratio (y) = 0.29388 0.30990
# Poissons Ratio (z) = 0.33819 0.24679
#
# Static dielectric constant tensor:
#      x y z
#    x 3.327430 0.000000 -0.007000 
#    y 0.000000 3.573100 0.000000 
#    z -0.007000 0.000000 3.439350 
# 
# 
# High freq. dielectric constant tensor:
#      x y z
#    x 1.702820 0.000000 -0.003220 
#    y 0.000000 1.716300 0.000000 
#    z -0.003220 0.000000 1.709470 
# 
# From -- ./inp_files/20314.got.cif
#   From: 2010.06.25/outbox.cif.g09.slc.cpg/sg11_11_cif.got.tgz:20314.got - 2010.06.27 23:14:04.
