data_PCOD8073153
_publ_section_title
;
Structure prediction by ZEFSAII (Michael W. Deem and Ramdas Pophale) SiO2 
 PCOD8073153
Probable space group: P 21/M
;
_chemical_formula_sum "Si O2"
_cell_formula_units_Z 28
_cell_length_a 15.374861
_cell_length_b 9.366759
_cell_length_c 20.497363
_cell_angle_alpha 90.000000
_cell_angle_beta 150.968055
_cell_angle_gamma 90.000000
_cell_volume 1432.538521
_symmetry_space_group_name_H-M "P 21/M"
_symmetry_group_IT_number 11
_symmetry_cell_setting 'monoclinic'
loop_
_space_group_symop_operation_xyz
x,y,z
-x,1/2+y,-z
-x,-y,-z
x,1/2-y,z
loop_
_atom_site_type_symbol
_atom_site_label
_atom_site_fract_x
_atom_site_fract_y
_atom_site_fract_z
Si Si1 0.367962 0.913298 0.586829
Si Si2 0.833741 0.413576 0.417683
Si Si3 0.082134 0.913945 0.297506
Si Si4 0.446961 0.586544 0.872089
Si Si5 0.992231 0.085105 0.898379
Si Si6 0.271860 0.917196 0.158207
Si Si7 0.244638 0.584479 0.871552
O O1 0.435649 0.750000 0.639300
O O2 0.210980 0.946124 0.536426
O O3 0.280127 0.937605 0.457850
O O4 0.531193 0.019629 0.704348
O O5 0.884979 0.250000 0.439584
O O6 0.654628 0.453306 0.260568
O O7 0.000000 0.500000 0.500000
O O8 0.022220 0.750000 0.267781
O O9 0.083245 0.956192 0.222173
O O10 0.948687 0.014450 0.249605
O O11 0.512488 0.750000 0.916295
O O12 0.313013 0.554841 0.843690
O O13 0.621376 0.487590 0.988748
O O14 0.050108 0.250000 0.940324
O O15 0.833322 0.050237 0.844131
O O16 0.167542 0.991330 0.029733
O O17 0.286641 0.750000 0.153043
O O18 0.231207 0.750000 0.879604
#
# Coordination Sequence:
#
# PCOD8073153 Si02
#       7
#     4   4   4   4   4   4   4
#     4  10  22  38  57  84 116 151 189 228 278 339
#     4  10  21  36  55  78 108 147 188 228 275 328
#     4  10  21  37  57  80 111 151 187 225 278 339
#     4   9  19  35  52  73 105 148 186 225 280 334
#     4   9  20  39  61  83 112 150 186 228 283 340
#     4  10  21  38  60  87 114 143 186 235 282 334
#     4  10  20  33  52  79 109 139 185 238 279 323
#
# _framework density 19.545721
#
# number of rings (size 3 to 8) (size 9 to 14) (size 15 to 20)
#    0.000    2.286    0.000    1.714    2.000    4.000 
#    0.000    0.000    0.000    0.000    0.000    0.000 
#    0.000    0.000    0.000    0.000    0.000    0.000 
#
# Total GULP energy -347284.952585 kJ/mol
# GULP energy per Si atom -12403.034021 kJ/mol
# Density = 1.950123 g / cm^3
# Si number density = 19.545721 Si / 1000 Ang^3
#
#
#
# Elastic Constant Matrix: (Units=GPa)
#
#
# Indices 1 2 3 4 5 6 
#
# 1 51.9075 34.0495 49.4887 0.0000 -13.2627 0.0000
# 2 34.0495 92.0763 62.5631 0.0000 2.7769 0.0000
# 3 49.4887 62.5631 120.0985 0.0000 -9.4752 0.0000
# 4 0.0000 0.0000 0.0000 33.8939 0.0000 8.2344
# 5 -13.2627 2.7769 -9.4752 0.0000 34.7886 0.0000
# 6 0.0000 0.0000 0.0000 8.2344 0.0000 26.4299
#
#
#
# Elastic Compliance Matrix: (Units=1/GPa)
#
#
# Indices 1 2 3 4 5 6 
#
# 1 0.036938 -0.006647 -0.010838 0.000000 0.011661 0.000000
# 2 -0.006647 0.018516 -0.007382 0.000000 -0.006023 0.000000
# 3 -0.010838 -0.007382 0.016718 0.000000 0.001011 0.000000
# 4 0.000000 0.000000 0.000000 0.031920 0.000000 -0.009945
# 5 0.011661 -0.006023 0.001011 0.000000 0.033947 0.000000
# 6 0.000000 0.000000 0.000000 -0.009945 0.000000 0.040934
#
#
# Mechanical properties :
#
#
# Convention : Reuss Voigt Hill
#
# Bulk Modulus (GPa) = 44.56803 61.80944 53.18874
# Shear Modulus (GPa) = 21.16987 26.88789 24.02888
#
# Velocity S-wave (km/s) = 3.29461 3.71299 3.51004
# Velocity P-wave (km/s) = 6.10934 7.07625 6.61050
#
# Compressibility (1/GPa) = 0.02243761
#
# Stress axis : x y z
#
# Youngs Moduli (GPa) = 27.07258 54.00798 59.81679
#
# Poissons Ratio (x) = 0.35898 0.64832
# Poissons Ratio (y) = 0.17995 0.44155
# Poissons Ratio (z) = 0.29342 0.39867
#
# Static dielectric constant tensor:
#      x y z
#    x 3.625430 0.000000 -0.136820 
#    y 0.000000 3.549580 0.000000 
#    z -0.136820 0.000000 3.640000 
# 
# 
# High freq. dielectric constant tensor:
#      x y z
#    x 1.757200 0.000000 -0.010710 
#    y 0.000000 1.759200 0.000000 
#    z -0.010710 0.000000 1.764930 
# 
# From -- ./inp_files/54477.got.cif
#   From: 2010.06.25/outbox.cif.g09.slc.cpg/sg11_28_cif.got.tgz:54477.got - 2010.06.27 23:14:04.
