data_PCOD8073855
_publ_section_title
;
Structure prediction by ZEFSAII (Michael W. Deem and Ramdas Pophale) SiO2 
 PCOD8073855
Probable space group: P 21/M
;
_chemical_formula_sum "Si O2"
_cell_formula_units_Z 32
_cell_length_a 23.220492
_cell_length_b 8.991467
_cell_length_c 14.427302
_cell_angle_alpha 90.000000
_cell_angle_beta 144.287037
_cell_angle_gamma 90.000000
_cell_volume 1758.309551
_symmetry_space_group_name_H-M "P 21/M"
_symmetry_group_IT_number 11
_symmetry_cell_setting 'monoclinic'
loop_
_space_group_symop_operation_xyz
x,y,z
-x,1/2+y,-z
-x,-y,-z
x,1/2-y,z
loop_
_atom_site_type_symbol
_atom_site_label
_atom_site_fract_x
_atom_site_fract_y
_atom_site_fract_z
Si Si1 0.682899 0.919143 0.456042
Si Si2 0.213556 0.578672 0.915672
Si Si3 0.697354 0.921440 0.128997
Si Si4 0.627642 0.925053 0.747735
Si Si5 0.809862 0.922030 0.458139
Si Si6 0.405182 0.924375 0.486864
Si Si7 0.996382 0.922504 0.594772
Si Si8 0.489365 0.917845 0.081901
O O1 0.704543 0.750000 0.517482
O O2 0.772910 0.985426 0.509849
O O3 0.588531 0.919656 0.268060
O O4 0.663288 0.023547 0.517884
O O5 0.246491 0.750000 0.958567
O O6 0.221240 0.507917 0.823761
O O7 0.097324 0.561404 0.785881
O O8 0.282760 0.490893 0.076541
O O9 0.695143 0.750000 0.096195
O O10 0.721701 0.942887 0.268916
O O11 0.592691 0.994110 0.966593
O O12 0.642248 0.750000 0.759471
O O13 0.520960 0.964137 0.653830
O O14 0.635112 0.993190 0.655801
O O15 0.829790 0.750000 0.501570
O O16 0.910547 0.993555 0.548522
O O17 0.390860 0.750000 0.453705
O O18 0.971842 0.750000 0.542431
O O19 0.000000 0.000000 0.500000
O O20 0.453846 0.750000 0.016550
O O21 0.500000 0.000000 0.000000
#
# Coordination Sequence:
#
# PCOD8073855 Si02
#       8
#     4   4   4   4   4   4   4   4
#     4  10  20  35  53  74 104 147 185 216 266 328
#     4  11  22  34  53  83 112 140 179 232 282 324
#     4  11  20  33  51  72 104 147 186 222 267 322
#     4  10  21  38  60  83 109 145 179 216 272 334
#     4   9  18  34  52  72 103 144 185 222 264 319
#     4  10  21  37  58  85 112 138 175 225 272 321
#     4  10  20  35  55  78 107 144 186 232 280 322
#     4  11  21  32  47  72 106 143 182 222 263 316
#
# _framework density 18.199297000000001
#
# number of rings (size 3 to 8) (size 9 to 14) (size 15 to 20)
#    0.000    1.750    2.500    2.625    0.000    5.000 
#    0.000    0.625    0.000    0.750    0.000    0.000 
#    0.000    0.000    0.000    0.000    0.000    0.000 
#
# Total GULP energy -396662.309081 kJ/mol
# GULP energy per Si atom -12395.697159 kJ/mol
# Density = 1.815787 g / cm^3
# Si number density = 18.199297 Si / 1000 Ang^3
#
#
#
# Elastic Constant Matrix: (Units=GPa)
#
#
# Indices 1 2 3 4 5 6 
#
# 1 143.0138 50.4088 45.0325 0.0000 8.2664 0.0000
# 2 50.4088 83.4818 34.8022 0.0000 -1.1163 0.0000
# 3 45.0325 34.8022 68.0678 0.0000 4.6246 0.0000
# 4 0.0000 0.0000 0.0000 23.7680 0.0000 -4.7339
# 5 8.2664 -1.1163 4.6246 0.0000 27.3898 0.0000
# 6 0.0000 0.0000 0.0000 -4.7339 0.0000 31.0055
#
#
#
# Elastic Compliance Matrix: (Units=1/GPa)
#
#
# Indices 1 2 3 4 5 6 
#
# 1 0.009984 -0.004293 -0.004242 0.000000 -0.002472 0.000000
# 2 -0.004293 0.017174 -0.006147 0.000000 0.003034 0.000000
# 3 -0.004242 -0.006147 0.020809 0.000000 -0.002484 0.000000
# 4 0.000000 0.000000 0.000000 0.043393 0.000000 0.006625
# 5 -0.002472 0.003034 -0.002484 0.000000 0.037799 0.000000
# 6 0.000000 0.000000 0.000000 0.006625 0.000000 0.033264
#
#
# Mechanical properties :
#
#
# Convention : Reuss Voigt Hill
#
# Bulk Modulus (GPa) = 53.75438 61.67229 57.71333
# Shear Modulus (GPa) = 25.25390 27.38733 26.32062
#
# Velocity S-wave (km/s) = 3.72913 3.88346 3.80708
# Velocity P-wave (km/s) = 6.93848 7.35317 7.14883
#
# Compressibility (1/GPa) = 0.01860314
#
# Stress axis : x y z
#
# Youngs Moduli (GPa) = 100.15656 58.22733 48.05527
#
# Poissons Ratio (x) = 0.24999 0.20387
# Poissons Ratio (y) = 0.43000 0.29538
# Poissons Ratio (z) = 0.42491 0.35790
#
# Static dielectric constant tensor:
#      x y z
#    x 3.600780 0.000000 0.197420 
#    y 0.000000 3.363000 0.000000 
#    z 0.197420 0.000000 3.271110 
# 
# 
# High freq. dielectric constant tensor:
#      x y z
#    x 1.708750 0.000000 0.009750 
#    y 0.000000 1.702910 0.000000 
#    z 0.009750 0.000000 1.683490 
# 
# From -- ./inp_files/54370.got.cif
#   From: 2010.06.25/outbox.cif.g09.slc.cpg/sg11_28_cif.got.tgz:54370.got - 2010.06.27 23:14:04.
