data_PCOD8073870
_publ_section_title
;
Structure prediction by ZEFSAII (Michael W. Deem and Ramdas Pophale) SiO2 
 PCOD8073870
Probable space group: P 21/M
;
_chemical_formula_sum "Si O2"
_cell_formula_units_Z 32
_cell_length_a 15.790126
_cell_length_b 9.064725
_cell_length_c 12.192646
_cell_angle_alpha 90.000000
_cell_angle_beta 99.017875
_cell_angle_gamma 90.000000
_cell_volume 1723.600611
_symmetry_space_group_name_H-M "P 21/M"
_symmetry_group_IT_number 11
_symmetry_cell_setting 'monoclinic'
loop_
_space_group_symop_operation_xyz
x,y,z
-x,1/2+y,-z
-x,-y,-z
x,1/2-y,z
loop_
_atom_site_type_symbol
_atom_site_label
_atom_site_fract_x
_atom_site_fract_y
_atom_site_fract_z
Si Si1 0.264326 0.422029 0.603025
Si Si2 0.295372 0.584410 0.279794
Si Si3 0.783170 0.082837 0.957927
Si Si4 0.589180 0.577980 0.537043
Si Si5 0.199736 0.921714 0.788144
Si Si6 0.937878 0.578040 0.905782
Si Si7 0.017884 0.419962 0.727745
Si Si8 0.850544 0.416460 0.581624
O O1 0.255130 0.250000 0.625284
O O2 0.349568 0.460990 0.552888
O O3 0.268941 0.507960 0.719615
O O4 0.180120 0.472289 0.518990
O O5 0.323228 0.750000 0.316626
O O6 0.294198 0.568967 0.145967
O O7 0.367551 0.475707 0.341316
O O8 0.202037 0.548761 0.315460
O O9 0.822147 0.250000 0.956029
O O10 0.844303 0.951712 0.932864
O O11 0.762336 0.052122 0.081589
O O12 0.500000 0.500000 0.500000
O O13 0.573028 0.750000 0.544173
O O14 0.187933 0.750000 0.761842
O O15 0.108221 0.997321 0.743380
O O16 0.956850 0.750000 0.900195
O O17 0.952653 0.500428 0.794771
O O18 0.000000 0.500000 0.000000
O O19 0.035493 0.250000 0.764004
O O20 0.954820 0.429952 0.609295
O O21 0.827467 0.250000 0.540625
#
# Coordination Sequence:
#
# PCOD8073870 Si02
#       8
#     4   4   4   4   4   4   4   4
#     4  10  22  39  57  79 110 142 179 224 271 328
#     4   9  17  33  56  83 114 142 172 221 277 325
#     4  10  20  35  53  77 108 145 187 230 275 323
#     4  10  21  38  63  93 115 137 169 213 269 329
#     4  11  23  36  53  76 107 151 195 229 270 325
#     4  12  22  31  47  71 103 144 191 242 283 320
#     4  11  21  34  51  74 105 144 191 241 285 324
#     4   9  18  33  54  76 103 142 185 231 282 327
#
# _framework density 18.565785000000002
#
# number of rings (size 3 to 8) (size 9 to 14) (size 15 to 20)
#    0.000    1.750    2.500    2.625    0.000    4.000 
#    0.000    0.000    0.000    0.750    0.000    0.000 
#    0.000    0.000    0.000    0.000    0.000    0.000 
#
# Total GULP energy -396502.651500 kJ/mol
# GULP energy per Si atom -12390.707859 kJ/mol
# Density = 1.852353 g / cm^3
# Si number density = 18.565785 Si / 1000 Ang^3
#
#
#
# Elastic Constant Matrix: (Units=GPa)
#
#
# Indices 1 2 3 4 5 6 
#
# 1 82.7244 50.8392 48.8111 0.0000 13.2965 0.0000
# 2 50.8392 110.1617 59.2857 0.0000 0.5864 0.0000
# 3 48.8111 59.2857 118.0213 0.0000 -1.3327 0.0000
# 4 0.0000 0.0000 0.0000 28.5145 0.0000 -0.8423
# 5 13.2965 0.5864 -1.3327 0.0000 19.3944 0.0000
# 6 0.0000 0.0000 0.0000 -0.8423 0.0000 28.7019
#
#
#
# Elastic Compliance Matrix: (Units=1/GPa)
#
#
# Indices 1 2 3 4 5 6 
#
# 1 0.022425 -0.007100 -0.005884 0.000000 -0.015564 0.000000
# 2 -0.007100 0.014701 -0.004402 0.000000 0.004120 0.000000
# 3 -0.005884 -0.004402 0.013175 0.000000 0.005072 0.000000
# 4 0.000000 0.000000 0.000000 0.035100 0.000000 0.001030
# 5 -0.015564 0.004120 0.005072 0.000000 0.062456 0.000000
# 6 0.000000 0.000000 0.000000 0.001030 0.000000 0.034871
#
#
# Mechanical properties :
#
#
# Convention : Reuss Voigt Hill
#
# Bulk Modulus (GPa) = 64.39151 69.86438 67.12795
# Shear Modulus (GPa) = 22.45416 25.45357 23.95386
#
# Velocity S-wave (km/s) = 3.48147 3.70671 3.59585
# Velocity P-wave (km/s) = 7.13576 7.48545 7.31270
#
# Compressibility (1/GPa) = 0.01553000
#
# Stress axis : x y z
#
# Youngs Moduli (GPa) = 44.59338 68.02190 75.90110
#
# Poissons Ratio (x) = 0.48293 0.44659
# Poissons Ratio (y) = 0.31660 0.33412
# Poissons Ratio (z) = 0.26238 0.29944
#
# Static dielectric constant tensor:
#      x y z
#    x 3.086450 0.000000 0.010420 
#    y 0.000000 3.429070 0.000000 
#    z 0.010420 0.000000 3.562470 
# 
# 
# High freq. dielectric constant tensor:
#      x y z
#    x 1.677670 0.000000 0.008240 
#    y 0.000000 1.732490 0.000000 
#    z 0.008240 0.000000 1.723190 
# 
# From -- ./inp_files/38171.got.cif
#   From: 2010.06.25/outbox.cif.g09.slc.cpg/sg11_20_cif.got.tgz:38171.got - 2010.06.27 23:14:04.
