data_PCOD8073254
_publ_section_title
;
Structure prediction by ZEFSAII (Michael W. Deem and Ramdas Pophale) SiO2 
 PCOD8073254
Probable space group: P 21/M
;
_chemical_formula_sum "Si O2"
_cell_formula_units_Z 28
_cell_length_a 16.905821
_cell_length_b 18.645804
_cell_length_c 8.835776
_cell_angle_alpha 90.000000
_cell_angle_beta 31.951451
_cell_angle_gamma 90.000000
_cell_volume 1473.948520
_symmetry_space_group_name_H-M "P 21/M"
_symmetry_group_IT_number 11
_symmetry_cell_setting 'monoclinic'
loop_
_space_group_symop_operation_xyz
x,y,z
-x,1/2+y,-z
-x,-y,-z
x,1/2-y,z
loop_
_atom_site_type_symbol
_atom_site_label
_atom_site_fract_x
_atom_site_fract_y
_atom_site_fract_z
Si Si1 0.821619 0.170137 0.882617
Si Si2 0.045199 0.560560 0.547164
Si Si3 0.484713 0.997334 0.272111
Si Si4 0.260893 0.472384 0.379334
Si Si5 0.204209 0.329726 0.051152
Si Si6 0.481991 0.613609 0.542481
Si Si7 0.869301 0.670731 0.483873
O O1 0.842556 0.250000 0.781480
O O2 0.835416 0.113994 0.723256
O O3 0.953068 0.155886 0.791450
O O4 0.661644 0.165079 0.222672
O O5 0.119517 0.523270 0.572241
O O6 0.000000 0.500000 0.500000
O O7 0.903401 0.606933 0.836521
O O8 0.454710 0.939806 0.449292
O O9 0.338602 0.999761 0.404237
O O10 0.509703 0.073834 0.309817
O O11 0.629034 0.975007 0.942654
O O12 0.206231 0.390542 0.496165
O O13 0.149803 0.250000 0.089026
O O14 0.370069 0.340013 0.719308
O O15 0.204611 0.334752 0.231128
O O16 0.838708 0.750000 0.463379
#
# Coordination Sequence:
#
# PCOD8073254 Si02
#       7
#     4   4   4   4   4   4   4
#     4  10  20  33  56  84 113 147 186 225 274 331
#     4  11  18  33  60  87 107 143 187 230 268 328
#     4  10  23  33  58  84 113 141 187 234 277 327
#     4  11  19  38  57  85 111 148 186 231 276 330
#     4  10  20  34  57  83 112 149 186 222 274 336
#     4  11  20  38  55  84 111 146 183 234 278 322
#     4   9  18  34  56  82 110 148 189 224 269 340
#
# _framework density 18.996594000000002
#
# number of rings (size 3 to 8) (size 9 to 14) (size 15 to 20)
#    0.000    1.714    5.714    1.714    2.000    0.000 
#    0.000    4.286    0.000    5.143    0.000    0.000 
#    0.000    0.000    0.000    0.000    0.000    0.000 
#
# Total GULP energy -347138.254529 kJ/mol
# GULP energy per Si atom -12397.794805 kJ/mol
# Density = 1.895336 g / cm^3
# Si number density = 18.996594 Si / 1000 Ang^3
#
#
#
# Elastic Constant Matrix: (Units=GPa)
#
#
# Indices 1 2 3 4 5 6 
#
# 1 85.9305 43.3605 24.4743 0.0000 -11.3034 0.0000
# 2 43.3605 131.5417 34.4742 0.0000 -19.2458 0.0000
# 3 24.4743 34.4742 107.2542 0.0000 -26.1654 0.0000
# 4 0.0000 0.0000 0.0000 21.6318 0.0000 -10.1909
# 5 -11.3034 -19.2458 -26.1654 0.0000 22.3717 0.0000
# 6 0.0000 0.0000 0.0000 -10.1909 0.0000 14.4797
#
#
#
# Elastic Compliance Matrix: (Units=1/GPa)
#
#
# Indices 1 2 3 4 5 6 
#
# 1 0.014371 -0.004050 -0.001478 0.000000 0.002048 0.000000
# 2 -0.004050 0.009982 -0.000963 0.000000 0.005414 0.000000
# 3 -0.001478 -0.000963 0.013413 0.000000 0.014112 0.000000
# 4 0.000000 0.000000 0.000000 0.069160 0.000000 0.048675
# 5 0.002048 0.005414 0.014112 0.000000 0.066897 0.000000
# 6 0.000000 0.000000 0.000000 0.048675 0.000000 0.103321
#
#
# Mechanical properties :
#
#
# Convention : Reuss Voigt Hill
#
# Bulk Modulus (GPa) = 40.34923 58.81603 49.58263
# Shear Modulus (GPa) = 16.75666 26.52446 21.64056
#
# Velocity S-wave (km/s) = 2.97322 3.74073 3.37884
# Velocity P-wave (km/s) = 5.75092 7.04883 6.43269
#
# Compressibility (1/GPa) = 0.02478362
#
# Stress axis : x y z
#
# Youngs Moduli (GPa) = 69.58246 100.18175 74.55255
#
# Poissons Ratio (x) = 0.40576 0.11017
# Poissons Ratio (y) = 0.28183 0.07183
# Poissons Ratio (z) = 0.10283 0.09652
#
# Static dielectric constant tensor:
#      x y z
#    x 3.184600 0.000000 -0.237450 
#    y 0.000000 3.758450 0.000000 
#    z -0.237450 0.000000 3.473670 
# 
# 
# High freq. dielectric constant tensor:
#      x y z
#    x 1.701860 0.000000 -0.024850 
#    y 0.000000 1.753690 0.000000 
#    z -0.024850 0.000000 1.735840 
# 
# From -- ./inp_files/25256.got.cif
#   From: 2010.06.25/outbox.cif.g09.slc.cpg/sg11_13_cif.got.tgz:25256.got - 2010.06.27 23:14:04.
