data_PCOD8073244
_publ_section_title
;
Structure prediction by ZEFSAII (Michael W. Deem and Ramdas Pophale) SiO2 
 PCOD8073244
Probable space group: P 21/M
;
_chemical_formula_sum "Si O2"
_cell_formula_units_Z 24
_cell_length_a 12.141714
_cell_length_b 18.066347
_cell_length_c 8.904133
_cell_angle_alpha 90.000000
_cell_angle_beta 37.647122
_cell_angle_gamma 90.000000
_cell_volume 1192.994852
_symmetry_space_group_name_H-M "P 21/M"
_symmetry_group_IT_number 11
_symmetry_cell_setting 'monoclinic'
loop_
_space_group_symop_operation_xyz
x,y,z
-x,1/2+y,-z
-x,-y,-z
x,1/2-y,z
loop_
_atom_site_type_symbol
_atom_site_label
_atom_site_fract_x
_atom_site_fract_y
_atom_site_fract_z
Si Si1 0.039978 0.664280 0.063745
Si Si2 0.846397 0.402055 0.749316
Si Si3 0.840111 0.922380 0.801224
Si Si4 0.339170 0.582908 0.579859
Si Si5 0.739073 0.579090 0.236850
Si Si6 0.463736 0.921319 0.110652
O O1 0.994441 0.750000 0.102440
O O2 0.192252 0.645539 0.775321
O O3 0.120486 0.645051 0.138997
O O4 0.849857 0.621119 0.247108
O O5 0.839649 0.489000 0.790019
O O6 0.657733 0.375643 0.876950
O O7 0.998555 0.384707 0.461867
O O8 0.849645 0.902527 0.966070
O O9 0.658214 0.885091 0.929521
O O10 0.530689 0.605223 0.449284
O O11 0.259622 0.508340 0.737330
O O12 0.356697 0.570695 0.383193
O O13 0.500000 0.000000 0.000000
#
# Coordination Sequence:
#
# PCOD8073244 Si02
#       6
#     4   4   4   4   4   4
#     4  12  26  39  57  87 129 169 198 240 308 380
#     4  10  20  33  55  85 123 151 191 241 299 356
#     4   9  18  34  58  89 111 146 193 258 298 333
#     4  10  21  39  65  93 119 152 206 261 307 348
#     4  10  21  38  64  92 116 152 204 260 300 355
#     4   9  19  33  58  92 118 141 188 254 308 347
#
# _framework density 20.117438
#
# number of rings (size 3 to 8) (size 9 to 14) (size 15 to 20)
#    0.000    2.000    1.667    1.500    9.333    0.667 
#    0.000    3.333    0.000    2.000    0.000    0.000 
#    0.000    0.000    0.000    0.000    0.000    0.000 
#
# Total GULP energy -297500.645535 kJ/mol
# GULP energy per Si atom -12395.860231 kJ/mol
# Density = 2.007165 g / cm^3
# Si number density = 20.117438 Si / 1000 Ang^3
#
#
#
# Elastic Constant Matrix: (Units=GPa)
#
#
# Indices 1 2 3 4 5 6 
#
# 1 148.0696 33.2680 45.9528 0.0000 -7.4442 0.0000
# 2 33.2680 49.9360 33.5716 0.0000 -8.9768 0.0000
# 3 45.9528 33.5716 98.7312 0.0000 -2.3882 0.0000
# 4 0.0000 0.0000 0.0000 15.0814 0.0000 1.8438
# 5 -7.4442 -8.9768 -2.3882 0.0000 29.2573 0.0000
# 6 0.0000 0.0000 0.0000 1.8438 0.0000 14.2838
#
#
#
# Elastic Compliance Matrix: (Units=1/GPa)
#
#
# Indices 1 2 3 4 5 6 
#
# 1 0.008449 -0.003701 -0.002655 0.000000 0.000798 0.000000
# 2 -0.003701 0.029216 -0.008034 0.000000 0.007367 0.000000
# 3 -0.002655 -0.008034 0.014048 0.000000 -0.001994 0.000000
# 4 0.000000 0.000000 0.000000 0.067370 0.000000 -0.008696
# 5 0.000798 0.007367 -0.001994 0.000000 0.036480 0.000000
# 6 0.000000 0.000000 0.000000 -0.008696 0.000000 0.071132
#
#
# Mechanical properties :
#
#
# Convention : Reuss Voigt Hill
#
# Bulk Modulus (GPa) = 43.60245 58.03570 50.81908
# Shear Modulus (GPa) = 19.00283 23.98747 21.49515
#
# Velocity S-wave (km/s) = 3.07676 3.45682 3.27231
# Velocity P-wave (km/s) = 5.86029 6.69656 6.29233
#
# Compressibility (1/GPa) = 0.02293449
#
# Stress axis : x y z
#
# Youngs Moduli (GPa) = 118.35644 34.22725 71.18603
#
# Poissons Ratio (x) = 0.12666 0.18899
# Poissons Ratio (y) = 0.43800 0.57190
# Poissons Ratio (z) = 0.31422 0.27498
#
# Static dielectric constant tensor:
#      x y z
#    x 4.198600 0.000000 -0.211220 
#    y 0.000000 3.036370 0.000000 
#    z -0.211220 0.000000 3.863200 
# 
# 
# High freq. dielectric constant tensor:
#      x y z
#    x 1.810930 0.000000 -0.005650 
#    y 0.000000 1.714180 0.000000 
#    z -0.005650 0.000000 1.798980 
# 
# From -- ./inp_files/19075.got.cif
#   From: 2010.06.25/outbox.cif.g09.slc.cpg/sg11_10_cif.got.tgz:19075.got - 2010.06.27 23:14:04.
