data_PCOD8073510
_publ_section_title
;
Structure prediction by ZEFSAII (Michael W. Deem and Ramdas Pophale) SiO2 
 PCOD8073510
Probable space group: P 21/M
;
_chemical_formula_sum "Si O2"
_cell_formula_units_Z 32
_cell_length_a 11.373162
_cell_length_b 8.865568
_cell_length_c 21.104181
_cell_angle_alpha 90.000000
_cell_angle_beta 52.741725
_cell_angle_gamma 90.000000
_cell_volume 1693.646429
_symmetry_space_group_name_H-M "P 21/M"
_symmetry_group_IT_number 11
_symmetry_cell_setting 'monoclinic'
loop_
_space_group_symop_operation_xyz
x,y,z
-x,1/2+y,-z
-x,-y,-z
x,1/2-y,z
loop_
_atom_site_type_symbol
_atom_site_label
_atom_site_fract_x
_atom_site_fract_y
_atom_site_fract_z
Si Si1 0.988311 0.426891 0.571453
Si Si2 0.157773 0.926076 0.942562
Si Si3 0.286062 0.072428 0.538381
Si Si4 0.375224 0.078022 0.116367
Si Si5 0.304589 0.573398 0.261807
Si Si6 0.558320 0.927759 0.385865
Si Si7 0.677744 0.920352 0.004175
Si Si8 0.614030 0.572545 0.225985
O O1 0.998857 0.250000 0.558993
O O2 0.120811 0.481810 0.574635
O O3 0.000000 0.500000 0.500000
O O4 0.830505 0.475625 0.650096
O O5 0.140563 0.750000 0.936835
O O6 0.232710 0.958243 0.985376
O O7 0.252383 0.992191 0.853773
O O8 0.000000 0.000000 0.000000
O O9 0.303611 0.250000 0.525673
O O10 0.323757 0.023140 0.598477
O O11 0.399276 0.998629 0.452104
O O12 0.432368 0.250000 0.107114
O O13 0.278667 0.024366 0.207051
O O14 0.506407 0.958166 0.067969
O O15 0.276882 0.068268 0.084549
O O16 0.298982 0.750000 0.247498
O O17 0.458331 0.527911 0.244886
O O18 0.534659 0.750000 0.392011
O O19 0.614851 0.983426 0.298709
O O20 0.703822 0.750000 0.021454
O O21 0.640673 0.750000 0.212946
#
# Coordination Sequence:
#
# PCOD8073510 Si02
#       8
#     4   4   4   4   4   4   4   4
#     4  10  21  36  54  81 115 152 189 231 284 335
#     4  12  25  41  61  84 113 149 189 235 289 343
#     4   9  18  34  55  81 115 148 189 236 275 329
#     4  10  20  34  57  86 113 146 187 231 281 335
#     4  10  20  34  54  79 113 151 189 235 286 338
#     4   9  18  34  58  83 111 150 191 229 279 333
#     4  10  20  37  59  83 115 146 184 233 280 337
#     4  10  20  36  57  81 110 146 189 236 282 337
#
# _framework density 18.894144000000001
#
# number of rings (size 3 to 8) (size 9 to 14) (size 15 to 20)
#    0.000    2.000    1.250    2.625    0.000    4.000 
#    2.250    0.000    0.000    0.000    0.000    0.000 
#    0.000    0.000    0.000    0.000    0.000    0.000 
#
# Total GULP energy -396776.432212 kJ/mol
# GULP energy per Si atom -12399.263507 kJ/mol
# Density = 1.885114 g / cm^3
# Si number density = 18.894144 Si / 1000 Ang^3
#
#
#
# Elastic Constant Matrix: (Units=GPa)
#
#
# Indices 1 2 3 4 5 6 
#
# 1 92.5657 29.3841 77.3277 0.0000 1.8255 0.0000
# 2 29.3841 55.2976 55.3375 0.0000 3.9177 0.0000
# 3 77.3277 55.3375 166.6914 0.0000 8.5143 0.0000
# 4 0.0000 0.0000 0.0000 33.5846 0.0000 0.8769
# 5 1.8255 3.9177 8.5143 0.0000 35.0943 0.0000
# 6 0.0000 0.0000 0.0000 0.8769 0.0000 26.1068
#
#
#
# Elastic Compliance Matrix: (Units=1/GPa)
#
#
# Indices 1 2 3 4 5 6 
#
# 1 0.017801 -0.001824 -0.007711 0.000000 0.001148 0.000000
# 2 -0.001824 0.027293 -0.008165 0.000000 -0.000971 0.000000
# 3 -0.007711 -0.008165 0.012373 0.000000 -0.001689 0.000000
# 4 0.000000 0.000000 0.000000 0.029802 0.000000 -0.001001
# 5 0.001148 -0.000971 -0.001689 0.000000 0.028953 0.000000
# 6 0.000000 0.000000 0.000000 -0.001001 0.000000 0.038338
#
#
# Mechanical properties :
#
#
# Convention : Reuss Voigt Hill
#
# Bulk Modulus (GPa) = 45.31595 70.96148 58.13872
# Shear Modulus (GPa) = 25.34021 29.12416 27.23218
#
# Velocity S-wave (km/s) = 3.66617 3.93038 3.80057
# Velocity P-wave (km/s) = 6.47744 7.63126 7.07790
#
# Compressibility (1/GPa) = 0.02206728
#
# Stress axis : x y z
#
# Youngs Moduli (GPa) = 56.17615 36.63992 80.82084
#
# Poissons Ratio (x) = 0.06683 0.62321
# Poissons Ratio (y) = 0.10246 0.65988
# Poissons Ratio (z) = 0.43318 0.29916
#
# Static dielectric constant tensor:
#      x y z
#    x 1.860090 0.000000 0.152350 
#    y 0.000000 3.409340 0.000000 
#    z 0.152350 0.000000 3.593400 
# 
# 
# High freq. dielectric constant tensor:
#      x y z
#    x 1.731350 0.000000 0.014630 
#    y 0.000000 1.731050 0.000000 
#    z 0.014630 0.000000 1.736190 
# 
# From -- ./inp_files/64380.got.cif
#   From: 2010.06.25/outbox.cif.g09.slc.cpg/sg11_33_cif.got.tgz:64380.got - 2010.06.27 23:14:04.
