data_PCOD8073469
_publ_section_title
;
Structure prediction by ZEFSAII (Michael W. Deem and Ramdas Pophale) SiO2 
 PCOD8073469
Probable space group: P 21/M
;
_chemical_formula_sum "Si O2"
_cell_formula_units_Z 32
_cell_length_a 22.829373
_cell_length_b 9.145584
_cell_length_c 15.388680
_cell_angle_alpha 90.000000
_cell_angle_beta 30.849015
_cell_angle_gamma 90.000000
_cell_volume 1647.539182
_symmetry_space_group_name_H-M "P 21/M"
_symmetry_group_IT_number 11
_symmetry_cell_setting 'monoclinic'
loop_
_space_group_symop_operation_xyz
x,y,z
-x,1/2+y,-z
-x,-y,-z
x,1/2-y,z
loop_
_atom_site_type_symbol
_atom_site_label
_atom_site_fract_x
_atom_site_fract_y
_atom_site_fract_z
Si Si1 0.462634 0.085841 0.337791
Si Si2 0.668883 0.420206 0.830581
Si Si3 0.312609 0.916244 0.858536
Si Si4 0.306655 0.419659 0.697060
Si Si5 0.946409 0.418041 0.798243
Si Si6 0.462093 0.580180 0.173586
Si Si7 0.925295 0.421211 0.023966
Si Si8 0.068069 0.923515 0.491116
O O1 0.432921 0.250000 0.345895
O O2 0.599186 0.065512 0.174678
O O3 0.406309 0.050711 0.501681
O O4 0.414190 0.978095 0.326140
O O5 0.652220 0.250000 0.870934
O O6 0.632985 0.458217 0.777345
O O7 0.798768 0.468489 0.682993
O O8 0.584185 0.505408 0.001748
O O9 0.315228 0.750000 0.818067
O O10 0.350170 0.027432 0.735282
O O11 0.186106 0.951017 0.054750
O O12 0.271626 0.250000 0.746090
O O13 0.200434 0.516798 0.803852
O O14 0.976398 0.250000 0.738153
O O15 0.971425 0.452725 0.867710
O O16 0.021981 0.523849 0.642924
O O17 0.485395 0.750000 0.149958
O O18 0.924162 0.250000 0.044474
O O19 0.000000 0.500000 0.000000
O O20 0.052621 0.750000 0.503370
O O21 0.000000 0.000000 0.500000
#
# Coordination Sequence:
#
# PCOD8073469 Si02
#       8
#     4   4   4   4   4   4   4   4
#     4  10  21  35  54  82 115 151 187 227 284 341
#     4   9  21  42  60  78 113 151 181 229 295 348
#     4   9  19  36  56  77 111 154 189 229 284 337
#     4  10  20  34  53  81 114 148 190 234 279 334
#     4   9  20  38  57  82 114 150 191 236 290 344
#     4  10  21  37  60  87 109 142 193 238 282 341
#     4  10  21  38  60  84 114 153 193 236 289 345
#     4  11  24  40  61  87 117 153 194 241 294 350
#
# _framework density 19.422906000000001
#
# number of rings (size 3 to 8) (size 9 to 14) (size 15 to 20)
#    0.000    2.250    0.000    2.625    1.750    6.500 
#    0.000    2.500    0.000    0.000    0.000    0.000 
#    0.000    0.000    0.000    0.000    0.000    0.000 
#
# Total GULP energy -396825.542636 kJ/mol
# GULP energy per Si atom -12400.798207 kJ/mol
# Density = 1.937870 g / cm^3
# Si number density = 19.422906 Si / 1000 Ang^3
#
#
#
# Elastic Constant Matrix: (Units=GPa)
#
#
# Indices 1 2 3 4 5 6 
#
# 1 98.0302 50.8487 38.4304 0.0000 -7.0810 0.0000
# 2 50.8487 87.1207 46.4717 0.0000 -0.7676 0.0000
# 3 38.4304 46.4717 75.4194 0.0000 -4.9055 0.0000
# 4 0.0000 0.0000 0.0000 35.6824 0.0000 5.4775
# 5 -7.0810 -0.7676 -4.9055 0.0000 24.3874 0.0000
# 6 0.0000 0.0000 0.0000 5.4775 0.0000 36.3598
#
#
#
# Elastic Compliance Matrix: (Units=1/GPa)
#
#
# Indices 1 2 3 4 5 6 
#
# 1 0.015503 -0.007342 -0.003139 0.000000 0.003639 0.000000
# 2 -0.007342 0.020637 -0.009192 0.000000 -0.003331 0.000000
# 3 -0.003139 -0.009192 0.020715 0.000000 0.002966 0.000000
# 4 0.000000 0.000000 0.000000 0.028688 0.000000 -0.004322
# 5 0.003639 -0.003331 0.002966 0.000000 0.042553 0.000000
# 6 0.000000 0.000000 0.000000 -0.004322 0.000000 0.028154
#
#
# Mechanical properties :
#
#
# Convention : Reuss Voigt Hill
#
# Bulk Modulus (GPa) = 57.10982 59.11909 58.11446
# Shear Modulus (GPa) = 24.82229 27.60722 26.21475
#
# Velocity S-wave (km/s) = 3.57878 3.77420 3.67779
# Velocity P-wave (km/s) = 6.82232 7.03539 6.92967
#
# Compressibility (1/GPa) = 0.01751012
#
# Stress axis : x y z
#
# Youngs Moduli (GPa) = 64.50566 48.45646 48.27355
#
# Poissons Ratio (x) = 0.35576 0.15152
# Poissons Ratio (y) = 0.47359 0.44372
# Poissons Ratio (z) = 0.20248 0.44540
#
# Static dielectric constant tensor:
#      x y z
#    x 4.532490 0.000000 -0.274700 
#    y 0.000000 3.665850 0.000000 
#    z -0.274700 0.000000 3.539710 
# 
# 
# High freq. dielectric constant tensor:
#      x y z
#    x 1.761250 0.000000 0.000690 
#    y 0.000000 1.759630 0.000000 
#    z 0.000690 0.000000 1.750320 
# 
# From -- ./inp_files/55613.got.cif
#   From: 2010.06.25/outbox.cif.g09.slc.cpg/sg11_28_cif.got.tgz:55613.got - 2010.06.27 23:14:04.
