data_PCOD8073207
_publ_section_title
;
Structure prediction by ZEFSAII (Michael W. Deem and Ramdas Pophale) SiO2 
 PCOD8073207
Probable space group: P 21/M
;
_chemical_formula_sum "Si O2"
_cell_formula_units_Z 28
_cell_length_a 15.335505
_cell_length_b 9.421451
_cell_length_c 12.450255
_cell_angle_alpha 90.000000
_cell_angle_beta 125.259336
_cell_angle_gamma 90.000000
_cell_volume 1468.843673
_symmetry_space_group_name_H-M "P 21/M"
_symmetry_group_IT_number 11
_symmetry_cell_setting 'monoclinic'
loop_
_space_group_symop_operation_xyz
x,y,z
-x,1/2+y,-z
-x,-y,-z
x,1/2-y,z
loop_
_atom_site_type_symbol
_atom_site_label
_atom_site_fract_x
_atom_site_fract_y
_atom_site_fract_z
Si Si1 0.647016 0.586602 0.578218
Si Si2 0.127884 0.403761 0.338163
Si Si3 0.434477 0.083514 0.043496
Si Si4 0.807747 0.587541 0.098256
Si Si5 0.495545 0.083377 0.327218
Si Si6 0.003175 0.912457 0.395508
Si Si7 0.060383 0.593217 0.956556
O O1 0.619187 0.750000 0.536006
O O2 0.773508 0.555876 0.669044
O O3 0.602871 0.541647 0.663803
O O4 0.598934 0.497072 0.445411
O O5 0.151630 0.250000 0.411459
O O6 0.107260 0.529747 0.406994
O O7 0.020870 0.384243 0.196707
O O8 0.455644 0.250000 0.042184
O O9 0.470568 0.034095 0.188250
O O10 0.309167 0.046873 0.940847
O O11 0.500000 0.000000 0.000000
O O12 0.808241 0.750000 0.057006
O O13 0.892325 0.566493 0.253715
O O14 0.836265 0.489296 0.016092
O O15 0.518301 0.250000 0.346490
O O16 0.025009 0.750000 0.438067
O O17 0.000000 0.000000 0.500000
O O18 0.093606 0.750000 0.025130
O O19 0.000000 0.500000 0.000000
#
# Coordination Sequence:
#
# PCOD8073207 Si02
#       7
#     4   4   4   4   4   4   4
#     4   9  18  34  56  80 107 141 181 226 276 330
#     4   9  19  34  53  77 105 140 178 216 263 324
#     4  10  22  39  59  80 109 148 190 234 280 333
#     4   9  20  38  57  77 106 144 183 225 270 322
#     4   9  19  35  55  79 107 142 182 228 281 328
#     4  10  20  35  55  79 108 142 179 221 268 321
#     4  10  20  33  53  81 111 142 175 215 265 325
#
# _framework density 19.062614
#
# number of rings (size 3 to 8) (size 9 to 14) (size 15 to 20)
#    0.000    2.571    0.000    0.857    2.000    4.000 
#    0.000    4.286    0.000    0.000    0.000    0.000 
#    0.000    0.000    0.000    0.000    0.000    0.000 
#
# Total GULP energy -347062.664353 kJ/mol
# GULP energy per Si atom -12395.095155 kJ/mol
# Density = 1.901923 g / cm^3
# Si number density = 19.062614 Si / 1000 Ang^3
#
#
#
# Elastic Constant Matrix: (Units=GPa)
#
#
# Indices 1 2 3 4 5 6 
#
# 1 144.4023 67.1775 43.6437 0.0000 -7.1419 0.0000
# 2 67.1775 111.0362 38.8668 0.0000 -17.1647 0.0000
# 3 43.6437 38.8668 61.7608 0.0000 -17.2052 0.0000
# 4 0.0000 0.0000 0.0000 30.1140 0.0000 -6.1127
# 5 -7.1419 -17.1647 -17.2052 0.0000 30.3181 0.0000
# 6 0.0000 0.0000 0.0000 -6.1127 0.0000 37.0780
#
#
#
# Elastic Compliance Matrix: (Units=1/GPa)
#
#
# Indices 1 2 3 4 5 6 
#
# 1 0.010771 -0.005190 -0.005294 0.000000 -0.003405 0.000000
# 2 -0.005190 0.014265 -0.004039 0.000000 0.004562 0.000000
# 3 -0.005294 -0.004039 0.025525 0.000000 0.010952 0.000000
# 4 0.000000 0.000000 0.000000 0.034357 0.000000 0.005664
# 5 -0.003405 0.004562 0.010952 0.000000 0.040979 0.000000
# 6 0.000000 0.000000 0.000000 0.005664 0.000000 0.027904
#
#
# Mechanical properties :
#
#
# Convention : Reuss Voigt Hill
#
# Bulk Modulus (GPa) = 46.47806 68.50838 57.49322
# Shear Modulus (GPa) = 26.31324 30.66942 28.49133
#
# Velocity S-wave (km/s) = 3.71935 4.01543 3.87022
# Velocity P-wave (km/s) = 6.54824 7.58386 7.08500
#
# Compressibility (1/GPa) = 0.02151553
#
# Stress axis : x y z
#
# Youngs Moduli (GPa) = 92.84076 70.10220 39.17705
#
# Poissons Ratio (x) = 0.36382 0.20741
# Poissons Ratio (y) = 0.48183 0.15823
# Poissons Ratio (z) = 0.49151 0.28313
#
# Static dielectric constant tensor:
#      x y z
#    x 3.477820 0.000000 0.044410 
#    y 0.000000 4.112180 0.000000 
#    z 0.044410 0.000000 3.425400 
# 
# 
# High freq. dielectric constant tensor:
#      x y z
#    x 1.744740 0.000000 -0.001360 
#    y 0.000000 1.746460 0.000000 
#    z -0.001360 0.000000 1.722840 
# 
# From -- ./inp_files/37836.got.cif
#   From: 2010.06.25/outbox.cif.g09.slc.cpg/sg11_19_cif.got.tgz:37836.got - 2010.06.27 23:14:04.
