data_PCOD8073692
_publ_section_title
;
Structure prediction by ZEFSAII (Michael W. Deem and Ramdas Pophale) SiO2 
 PCOD8073692
Probable space group: P 21/M
;
_chemical_formula_sum "Si O2"
_cell_formula_units_Z 32
_cell_length_a 25.573968
_cell_length_b 9.604069
_cell_length_c 19.858269
_cell_angle_alpha 90.000000
_cell_angle_beta 21.188002
_cell_angle_gamma 90.000000
_cell_volume 1762.861407
_symmetry_space_group_name_H-M "P 21/M"
_symmetry_group_IT_number 11
_symmetry_cell_setting 'monoclinic'
loop_
_space_group_symop_operation_xyz
x,y,z
-x,1/2+y,-z
-x,-y,-z
x,1/2-y,z
loop_
_atom_site_type_symbol
_atom_site_label
_atom_site_fract_x
_atom_site_fract_y
_atom_site_fract_z
Si Si1 0.855503 0.087560 0.669956
Si Si2 0.356432 0.909796 0.809675
Si Si3 0.188071 0.410397 0.908336
Si Si4 0.356197 0.590458 0.345133
Si Si5 0.139272 0.911571 0.721737
Si Si6 0.680854 0.588726 0.391641
Si Si7 0.361735 0.589198 0.185333
Si Si8 0.370423 0.590546 0.946554
O O1 0.895067 0.250000 0.625904
O O2 0.772808 0.049542 0.700365
O O3 0.756323 0.041613 0.851738
O O4 0.000000 0.000000 0.500000
O O5 0.342769 0.750000 0.803018
O O6 0.519330 0.963304 0.601378
O O7 0.315013 0.929341 0.937277
O O8 0.244074 0.000188 0.903075
O O9 0.190435 0.250000 0.927838
O O10 0.289678 0.436767 0.722220
O O11 0.026105 0.458637 0.086128
O O12 0.404729 0.750000 0.294930
O O13 0.216954 0.556596 0.557615
O O14 0.314053 0.556735 0.318850
O O15 0.487640 0.498110 0.211933
O O16 0.152105 0.750000 0.726315
O O17 0.207325 0.999996 0.699747
O O18 0.700961 0.750000 0.387423
O O19 0.404435 0.750000 0.123644
O O20 0.500000 0.500000 0.000000
O O21 0.412865 0.750000 0.910295
#
# Coordination Sequence:
#
# PCOD8073692 Si02
#       8
#     4   4   4   4   4   4   4   4
#     4  10  22  38  57  83 115 148 182 224 274 325
#     4  10  21  36  56  81 110 145 187 230 273 328
#     4  10  22  37  54  81 115 146 183 230 278 329
#     4  10  20  34  56  84 110 141 185 229 273 327
#     4  10  21  36  54  81 114 145 182 230 278 329
#     4  10  20  36  58  82 108 145 189 230 274 329
#     4  10  20  35  57  83 109 142 183 226 272 322
#     4  10  20  37  58  81 111 145 184 229 273 323
#
# _framework density 18.152305999999999
#
# number of rings (size 3 to 8) (size 9 to 14) (size 15 to 20)
#    0.000    2.000    2.500    0.750    0.000    4.000 
#    0.000    1.250    0.000    0.000    0.000    0.000 
#    0.000    0.000    0.000    0.000    0.000    0.000 
#
# Total GULP energy -396943.979799 kJ/mol
# GULP energy per Si atom -12404.499369 kJ/mol
# Density = 1.811099 g / cm^3
# Si number density = 18.152306 Si / 1000 Ang^3
#
#
#
# Elastic Constant Matrix: (Units=GPa)
#
#
# Indices 1 2 3 4 5 6 
#
# 1 93.7022 37.9963 14.7310 0.0000 -7.6069 0.0000
# 2 37.9963 52.3356 22.9362 0.0000 -12.1186 0.0000
# 3 14.7310 22.9362 56.0230 0.0000 -5.0891 0.0000
# 4 0.0000 0.0000 0.0000 29.5477 0.0000 -7.9373
# 5 -7.6069 -12.1186 -5.0891 0.0000 33.2188 0.0000
# 6 0.0000 0.0000 0.0000 -7.9373 0.0000 33.3798
#
#
#
# Elastic Compliance Matrix: (Units=1/GPa)
#
#
# Indices 1 2 3 4 5 6 
#
# 1 0.015154 -0.011419 0.000636 0.000000 -0.000598 0.000000
# 2 -0.011419 0.033686 -0.010050 0.000000 0.008134 0.000000
# 3 0.000636 -0.010050 0.021780 0.000000 -0.000184 0.000000
# 4 0.000000 0.000000 0.000000 0.036153 0.000000 0.008597
# 5 -0.000598 0.008134 -0.000184 0.000000 0.032906 0.000000
# 6 0.000000 0.000000 0.000000 0.008597 0.000000 0.032002
#
#
# Mechanical properties :
#
#
# Convention : Reuss Voigt Hill
#
# Bulk Modulus (GPa) = 34.53702 39.26533 36.90118
# Shear Modulus (GPa) = 22.42165 27.65573 25.03869
#
# Velocity S-wave (km/s) = 3.51835 3.90749 3.71801
# Velocity P-wave (km/s) = 5.96428 6.48351 6.22931
#
# Compressibility (1/GPa) = 0.02895443
#
# Stress axis : x y z
#
# Youngs Moduli (GPa) = 65.98876 29.68602 45.91312
#
# Poissons Ratio (x) = 0.33900 -0.02921
# Poissons Ratio (y) = 0.75355 0.46141
# Poissons Ratio (z) = -0.04198 0.29833
#
# Static dielectric constant tensor:
#      x y z
#    x 3.549010 0.000000 0.290410 
#    y 0.000000 3.436170 0.000000 
#    z 0.290410 0.000000 3.513770 
# 
# 
# High freq. dielectric constant tensor:
#      x y z
#    x 1.711680 0.000000 0.010530 
#    y 0.000000 1.700970 0.000000 
#    z 0.010530 0.000000 1.706420 
# 
# From -- ./inp_files/67025.got.cif
#   From: 2010.06.25/outbox.cif.g09.slc.cpg/sg11_34_cif.got.tgz:67025.got - 2010.06.27 23:14:04.
