data_PCOD8073673
_publ_section_title
;
Structure prediction by ZEFSAII (Michael W. Deem and Ramdas Pophale) SiO2 
 PCOD8073673
Probable space group: P 21/M
;
_chemical_formula_sum "Si O2"
_cell_formula_units_Z 32
_cell_length_a 6.665710
_cell_length_b 22.875133
_cell_length_c 11.717623
_cell_angle_alpha 90.000000
_cell_angle_beta 72.305438
_cell_angle_gamma 90.000000
_cell_volume 1702.163692
_symmetry_space_group_name_H-M "P 21/M"
_symmetry_group_IT_number 11
_symmetry_cell_setting 'monoclinic'
loop_
_space_group_symop_operation_xyz
x,y,z
-x,1/2+y,-z
-x,-y,-z
x,1/2-y,z
loop_
_atom_site_type_symbol
_atom_site_label
_atom_site_fract_x
_atom_site_fract_y
_atom_site_fract_z
Si Si1 0.887486 0.535958 0.303573
Si Si2 0.281018 0.459852 0.913320
Si Si3 0.972027 0.683343 0.557166
Si Si4 0.811471 0.096613 0.315814
Si Si5 0.379922 0.119453 0.510587
Si Si6 0.294661 0.899693 0.151698
Si Si7 0.867362 0.411530 0.051010
Si Si8 0.623393 0.316889 0.662849
O O1 0.745164 0.546971 0.217790
O O2 0.916168 0.466677 0.318373
O O3 0.768838 0.564754 0.431741
O O4 0.116310 0.564521 0.250520
O O5 0.516330 0.444126 0.906595
O O6 0.231615 0.525349 0.960107
O O7 0.120908 0.416449 0.007209
O O8 0.955402 0.750000 0.602406
O O9 0.746705 0.663831 0.548165
O O10 0.038715 0.644614 0.653572
O O11 0.143669 0.676814 0.428231
O O12 0.578455 0.095446 0.407283
O O13 0.792173 0.113337 0.185193
O O14 0.450730 0.153246 0.611872
O O15 0.377693 0.846050 0.212694
O O16 0.210511 0.873589 0.044888
O O17 0.556133 0.250000 0.689550
#
# Coordination Sequence:
#
# PCOD8073673 Si02
#       8
#     4   4   4   4   4   4   4   4
#     4  10  20  34  55  91 119 142 183 232 295 339
#     4   9  18  34  56  80 118 149 187 227 274 338
#     4  10  22  40  59  79 109 153 197 231 277 339
#     4  10  23  37  55  85 120 149 186 230 279 341
#     4  11  20  37  58  84 113 152 182 233 286 341
#     4  11  19  34  61  83 115 151 186 238 284 337
#     4   9  20  35  53  84 113 154 188 221 276 343
#     4  10  21  37  57  85 113 144 192 241 283 333
#
# _framework density 18.799600999999999
#
# number of rings (size 3 to 8) (size 9 to 14) (size 15 to 20)
#    0.000    2.000    2.500    1.875    0.000    4.000 
#    0.000    0.625    0.000    2.250    0.000    0.000 
#    0.000    0.000    0.000    0.000    0.000    0.000 
#
# Total GULP energy -396842.803737 kJ/mol
# GULP energy per Si atom -12401.337617 kJ/mol
# Density = 1.875681 g / cm^3
# Si number density = 18.799601 Si / 1000 Ang^3
#
#
#
# Elastic Constant Matrix: (Units=GPa)
#
#
# Indices 1 2 3 4 5 6 
#
# 1 99.2645 31.9442 44.9408 0.0000 2.0596 0.0000
# 2 31.9442 91.5693 44.4995 0.0000 9.3302 0.0000
# 3 44.9408 44.4995 111.0235 0.0000 10.9797 0.0000
# 4 0.0000 0.0000 0.0000 17.9263 0.0000 5.6419
# 5 2.0596 9.3302 10.9797 0.0000 27.3260 0.0000
# 6 0.0000 0.0000 0.0000 5.6419 0.0000 24.3749
#
#
#
# Elastic Compliance Matrix: (Units=1/GPa)
#
#
# Indices 1 2 3 4 5 6 
#
# 1 0.012818 -0.002532 -0.004336 0.000000 0.001641 0.000000
# 2 -0.002532 0.014235 -0.004394 0.000000 -0.002904 0.000000
# 3 -0.004336 -0.004394 0.012853 0.000000 -0.003338 0.000000
# 4 0.000000 0.000000 0.000000 0.060167 0.000000 -0.013926
# 5 0.001641 -0.002904 -0.003338 0.000000 0.038804 0.000000
# 6 0.000000 0.000000 0.000000 -0.013926 0.000000 0.044249
#
#
# Mechanical properties :
#
#
# Convention : Reuss Voigt Hill
#
# Bulk Modulus (GPa) = 57.52499 60.51402 59.01950
# Shear Modulus (GPa) = 23.64702 25.95697 24.80199
#
# Velocity S-wave (km/s) = 3.55046 3.71983 3.63613
# Velocity P-wave (km/s) = 6.89008 7.12098 7.00648
#
# Compressibility (1/GPa) = 0.01738375
#
# Stress axis : x y z
#
# Youngs Moduli (GPa) = 78.01636 70.25017 77.80075
#
# Poissons Ratio (x) = 0.17784 0.33735
# Poissons Ratio (y) = 0.19750 0.34182
# Poissons Ratio (z) = 0.33828 0.30865
#
# Static dielectric constant tensor:
#      x y z
#    x 3.416130 0.000000 -0.002840 
#    y 0.000000 3.272250 0.000000 
#    z -0.002840 0.000000 3.438560 
# 
# 
# High freq. dielectric constant tensor:
#      x y z
#    x 1.738270 0.000000 0.001400 
#    y 0.000000 1.704760 0.000000 
#    z 0.001400 0.000000 1.729310 
# 
# From -- ./inp_files/5359.got.cif
#   From: 2010.06.25/outbox.cif.g09.slc.cpg/sg11_3_cif.got.tgz:5359.got - 2010.06.27 23:14:04.
