data_PCOD8073406
_publ_section_title
;
Structure prediction by ZEFSAII (Michael W. Deem and Ramdas Pophale) SiO2 
 PCOD8073406
Probable space group: P 21/M
;
_chemical_formula_sum "Si O2"
_cell_formula_units_Z 32
_cell_length_a 12.891849
_cell_length_b 9.403011
_cell_length_c 31.649765
_cell_angle_alpha 90.000000
_cell_angle_beta 153.324405
_cell_angle_gamma 90.000000
_cell_volume 1722.421452
_symmetry_space_group_name_H-M "P 21/M"
_symmetry_group_IT_number 11
_symmetry_cell_setting 'monoclinic'
loop_
_space_group_symop_operation_xyz
x,y,z
-x,1/2+y,-z
-x,-y,-z
x,1/2-y,z
loop_
_atom_site_type_symbol
_atom_site_label
_atom_site_fract_x
_atom_site_fract_y
_atom_site_fract_z
Si Si1 0.544750 0.907418 0.631402
Si Si2 0.449058 0.417825 0.214005
Si Si3 0.772524 0.414462 0.407513
Si Si4 0.856505 0.914881 0.209062
Si Si5 0.031873 0.582253 0.922815
Si Si6 0.922050 0.091337 0.153589
Si Si7 0.615431 0.416055 0.579663
Si Si8 0.473772 0.582905 0.136989
O O1 0.462411 0.750000 0.586287
O O2 0.414249 0.956591 0.625596
O O3 0.810588 0.900918 0.738962
O O4 0.493204 0.024751 0.577216
O O5 0.426957 0.250000 0.197404
O O6 0.663350 0.453554 0.322551
O O7 0.504442 0.496933 0.190948
O O8 0.211410 0.477508 0.148187
O O9 0.836968 0.250000 0.432890
O O10 0.000000 0.500000 0.500000
O O11 0.826439 0.750000 0.187461
O O12 0.676693 0.964412 0.179169
O O13 0.111347 0.948042 0.319613
O O14 0.798024 0.996116 0.144103
O O15 0.007020 0.750000 0.907578
O O16 0.101503 0.521341 0.901800
O O17 0.228769 0.540436 0.027653
O O18 0.813026 0.250000 0.115355
O O19 0.500000 0.500000 0.500000
O O20 0.561678 0.250000 0.555706
O O21 0.487360 0.750000 0.151764
#
# Coordination Sequence:
#
# PCOD8073406 Si02
#       8
#     4   4   4   4   4   4   4   4
#     4   9  17  33  54  74 100 135 173 215 264 315
#     4  10  20  37  57  78 108 142 181 226 266 310
#     4  10  21  36  55  80 108 139 176 222 275 321
#     4   9  20  36  50  73 111 142 168 216 274 316
#     4   9  17  33  58  82 105 139 181 221 265 318
#     4   9  16  31  57  80  99 134 179 217 257 313
#     4  10  20  34  53  76 102 136 177 219 264 316
#     4  10  21  36  54  78 111 148 179 214 268 325
#
# _framework density 18.578496000000001
#
# number of rings (size 3 to 8) (size 9 to 14) (size 15 to 20)
#    0.000    2.500    1.250    0.750    0.000    3.500 
#    0.000    5.000    0.000    0.000    0.000    0.000 
#    0.000    0.000    0.000    0.000    0.000    0.000 
#
# Total GULP energy -396761.274985 kJ/mol
# GULP energy per Si atom -12398.789843 kJ/mol
# Density = 1.853621 g / cm^3
# Si number density = 18.578496 Si / 1000 Ang^3
#
#
#
# Elastic Constant Matrix: (Units=GPa)
#
#
# Indices 1 2 3 4 5 6 
#
# 1 160.5162 63.1536 62.4462 0.0000 -15.6055 0.0000
# 2 63.1536 65.8883 44.4017 0.0000 -10.4296 0.0000
# 3 62.4462 44.4017 78.0056 0.0000 -14.8850 0.0000
# 4 0.0000 0.0000 0.0000 22.0952 0.0000 -2.6512
# 5 -15.6055 -10.4296 -14.8850 0.0000 30.3145 0.0000
# 6 0.0000 0.0000 0.0000 -2.6512 0.0000 32.9606
#
#
#
# Elastic Compliance Matrix: (Units=1/GPa)
#
#
# Indices 1 2 3 4 5 6 
#
# 1 0.010922 -0.007379 -0.004364 0.000000 0.000941 0.000000
# 2 -0.007379 0.029692 -0.010779 0.000000 0.001124 0.000000
# 3 -0.004364 -0.010779 0.023516 0.000000 0.005592 0.000000
# 4 0.000000 0.000000 0.000000 0.045700 0.000000 0.003676
# 5 0.000941 0.001124 0.005592 0.000000 0.036604 0.000000
# 6 0.000000 0.000000 0.000000 0.003676 0.000000 0.030635
#
#
# Mechanical properties :
#
#
# Convention : Reuss Voigt Hill
#
# Bulk Modulus (GPa) = 52.39578 71.60144 61.99861
# Shear Modulus (GPa) = 21.88412 26.03462 23.95937
#
# Velocity S-wave (km/s) = 3.43582 3.74750 3.59504
# Velocity P-wave (km/s) = 6.63351 7.57289 7.11871
#
# Compressibility (1/GPa) = 0.01908551
#
# Stress axis : x y z
#
# Youngs Moduli (GPa) = 91.55510 33.67872 42.52490
#
# Poissons Ratio (x) = 0.24853 0.18557
# Poissons Ratio (y) = 0.67562 0.45839
# Poissons Ratio (z) = 0.39952 0.36303
#
# Static dielectric constant tensor:
#      x y z
#    x 3.175100 0.000000 -0.414340 
#    y 0.000000 3.356070 0.000000 
#    z -0.414340 0.000000 3.172040 
# 
# 
# High freq. dielectric constant tensor:
#      x y z
#    x 1.730740 0.000000 -0.006230 
#    y 0.000000 1.701610 0.000000 
#    z -0.006230 0.000000 1.718800 
# 
# From -- ./inp_files/54249.got.cif
#   From: 2010.06.25/outbox.cif.g09.slc.cpg/sg11_28_cif.got.tgz:54249.got - 2010.06.27 23:14:04.
