data_PCOD8073805
_publ_section_title
;
Structure prediction by ZEFSAII (Michael W. Deem and Ramdas Pophale) SiO2 
 PCOD8073805
Probable space group: P 21/M
;
_chemical_formula_sum "Si O2"
_cell_formula_units_Z 32
_cell_length_a 26.050627
_cell_length_b 8.869235
_cell_length_c 20.143901
_cell_angle_alpha 90.000000
_cell_angle_beta 159.043523
_cell_angle_gamma 90.000000
_cell_volume 1664.626065
_symmetry_space_group_name_H-M "P 21/M"
_symmetry_group_IT_number 11
_symmetry_cell_setting 'monoclinic'
loop_
_space_group_symop_operation_xyz
x,y,z
-x,1/2+y,-z
-x,-y,-z
x,1/2-y,z
loop_
_atom_site_type_symbol
_atom_site_label
_atom_site_fract_x
_atom_site_fract_y
_atom_site_fract_z
Si Si1 0.151021 0.423617 0.851684
Si Si2 0.616868 0.926113 0.758971
Si Si3 0.706328 0.428324 0.619758
Si Si4 0.111956 0.570823 0.284294
Si Si5 0.851614 0.574311 0.302195
Si Si6 0.187942 0.571799 0.110015
Si Si7 0.346043 0.427757 0.819656
Si Si8 0.863597 0.927444 0.550708
O O1 0.101417 0.250000 0.798692
O O2 0.192459 0.463896 0.826243
O O3 0.023542 0.529072 0.722259
O O4 0.291830 0.456576 0.064697
O O5 0.617671 0.750000 0.740257
O O6 0.456863 0.986850 0.579835
O O7 0.676297 0.022575 0.769564
O O8 0.705573 0.250000 0.614651
O O9 0.794896 0.494112 0.664441
O O10 0.784061 0.481470 0.780894
O O11 0.109702 0.750000 0.282680
O O12 0.181874 0.510404 0.436475
O O13 0.950219 0.512665 0.084555
O O14 0.873060 0.750000 0.339988
O O15 0.727025 0.514175 0.200448
O O16 0.000000 0.500000 0.500000
O O17 0.165180 0.750000 0.077244
O O18 0.364504 0.250000 0.842024
O O19 0.247721 0.480946 0.639656
O O20 0.500000 0.500000 0.000000
O O21 0.858603 0.750000 0.556333
#
# Coordination Sequence:
#
# PCOD8073805 Si02
#       8
#     4   4   4   4   4   4   4   4
#     4  10  20  34  59  87 112 146 194 237 282 339
#     4  10  20  37  58  84 114 148 192 240 287 343
#     4   9  21  38  57  83 116 150 192 243 290 339
#     4  11  22  38  60  85 113 154 199 235 282 344
#     4  10  20  36  58  86 114 149 193 236 281 331
#     4  11  21  36  58  85 115 151 192 239 291 341
#     4  10  23  40  59  87 121 155 190 233 284 339
#     4  11  22  38  59  85 119 150 187 239 290 338
#
# _framework density 19.223537
#
# number of rings (size 3 to 8) (size 9 to 14) (size 15 to 20)
#    0.000    1.750    2.500    1.875    0.000    2.500 
#    0.000    6.250    0.000    0.000    0.000    0.000 
#    0.000    0.000    0.000    0.000    0.000    0.000 
#
# Total GULP energy -396916.952433 kJ/mol
# GULP energy per Si atom -12403.654764 kJ/mol
# Density = 1.917978 g / cm^3
# Si number density = 19.223537 Si / 1000 Ang^3
#
#
#
# Elastic Constant Matrix: (Units=GPa)
#
#
# Indices 1 2 3 4 5 6 
#
# 1 160.4721 35.7144 47.1038 0.0000 -5.1623 0.0000
# 2 35.7144 48.2657 23.1609 0.0000 -5.2508 0.0000
# 3 47.1038 23.1609 81.1462 0.0000 0.3787 0.0000
# 4 0.0000 0.0000 0.0000 24.4577 0.0000 -0.1461
# 5 -5.1623 -5.2508 0.3787 0.0000 36.8138 0.0000
# 6 0.0000 0.0000 0.0000 -0.1461 0.0000 25.8827
#
#
#
# Elastic Compliance Matrix: (Units=1/GPa)
#
#
# Indices 1 2 3 4 5 6 
#
# 1 0.008261 -0.004343 -0.003559 0.000000 0.000576 0.000000
# 2 -0.004343 0.026748 -0.005129 0.000000 0.003259 0.000000
# 3 -0.003559 -0.005129 0.015860 0.000000 -0.001394 0.000000
# 4 0.000000 0.000000 0.000000 0.040888 0.000000 0.000231
# 5 0.000576 0.003259 -0.001394 0.000000 0.027724 0.000000
# 6 0.000000 0.000000 0.000000 0.000231 0.000000 0.038637
#
#
# Mechanical properties :
#
#
# Convention : Reuss Voigt Hill
#
# Bulk Modulus (GPa) = 40.30916 55.76024 48.03470
# Shear Modulus (GPa) = 25.98122 29.69119 27.83621
#
# Velocity S-wave (km/s) = 3.68031 3.93431 3.80942
# Velocity P-wave (km/s) = 6.25090 7.05036 6.66263
#
# Compressibility (1/GPa) = 0.02480826
#
# Stress axis : x y z
#
# Youngs Moduli (GPa) = 121.04774 37.38657 63.05360
#
# Poissons Ratio (x) = 0.16236 0.22439
# Poissons Ratio (y) = 0.52566 0.32339
# Poissons Ratio (z) = 0.43077 0.19175
#
# Static dielectric constant tensor:
#      x y z
#    x 7.683940 0.000000 -1.955970 
#    y 0.000000 3.373310 0.000000 
#    z -1.955970 0.000000 4.454530 
# 
# 
# High freq. dielectric constant tensor:
#      x y z
#    x 1.765480 0.000000 -0.007170 
#    y 0.000000 1.733610 0.000000 
#    z -0.007170 0.000000 1.750040 
# 
# From -- ./inp_files/67006.got.cif
#   From: 2010.06.25/outbox.cif.g09.slc.cpg/sg11_34_cif.got.tgz:67006.got - 2010.06.27 23:14:04.
