data_PCOD8073392
_publ_section_title
;
Structure prediction by ZEFSAII (Michael W. Deem and Ramdas Pophale) SiO2 
 PCOD8073392
Probable space group: P 21/M
;
_chemical_formula_sum "Si O2"
_cell_formula_units_Z 28
_cell_length_a 9.773212
_cell_length_b 8.963493
_cell_length_c 27.724726
_cell_angle_alpha 90.000000
_cell_angle_beta 38.722994
_cell_angle_gamma 90.000000
_cell_volume 1519.315356
_symmetry_space_group_name_H-M "P 21/M"
_symmetry_group_IT_number 11
_symmetry_cell_setting 'monoclinic'
loop_
_space_group_symop_operation_xyz
x,y,z
-x,1/2+y,-z
-x,-y,-z
x,1/2-y,z
loop_
_atom_site_type_symbol
_atom_site_label
_atom_site_fract_x
_atom_site_fract_y
_atom_site_fract_z
Si Si1 0.202047 0.079719 0.967956
Si Si2 0.534722 0.074010 0.341183
Si Si3 0.732063 0.922075 0.939442
Si Si4 0.653348 0.072764 0.801782
Si Si5 0.997789 0.927498 0.216651
Si Si6 0.271938 0.925684 0.326540
Si Si7 0.874183 0.920435 0.493267
O O1 0.194776 0.250000 0.953433
O O2 0.429755 0.008735 0.886338
O O3 0.179335 0.062955 0.031118
O O4 0.000000 0.000000 0.000000
O O5 0.579864 0.250000 0.322621
O O6 0.383121 0.038249 0.430570
O O7 0.420724 0.014474 0.323698
O O8 0.755655 0.987420 0.291280
O O9 0.708082 0.750000 0.930529
O O10 0.907355 0.005019 0.858400
O O11 0.500000 0.000000 0.000000
O O12 0.652278 0.250000 0.802674
O O13 0.855479 0.017053 0.778755
O O14 0.676584 0.012731 0.740904
O O15 0.995462 0.750000 0.212561
O O16 0.326127 0.750000 0.316384
O O17 0.008376 0.955062 0.407063
O O18 0.897104 0.750000 0.500177
O O19 0.000000 0.000000 0.500000
#
# Coordination Sequence:
#
# PCOD8073392 Si02
#       7
#     4   4   4   4   4   4   4
#     4  10  22  39  56  80 110 140 176 222 265 313
#     4  10  20  34  52  81 114 140 175 225 270 317
#     4  11  22  39  60  82 109 142 181 220 264 318
#     4   9  19  37  56  77 107 139 179 225 265 312
#     4  11  22  38  57  78 107 145 185 223 265 316
#     4   9  17  33  58  82 104 141 183 220 268 322
#     4   8  15  29  51  77 107 139 174 217 266 317
#
# _framework density 18.429352999999999
#
# number of rings (size 3 to 8) (size 9 to 14) (size 15 to 20)
#    0.000    2.286    1.429    1.286    2.000    1.714 
#    0.000    2.143    0.000    0.000    0.000    0.000 
#    0.000    0.000    0.000    0.000    0.000    0.000 
#
# Total GULP energy -346986.111524 kJ/mol
# GULP energy per Si atom -12392.361126 kJ/mol
# Density = 1.838741 g / cm^3
# Si number density = 18.429353 Si / 1000 Ang^3
#
#
#
# Elastic Constant Matrix: (Units=GPa)
#
#
# Indices 1 2 3 4 5 6 
#
# 1 106.1046 40.0345 63.7330 0.0000 -15.1586 0.0000
# 2 40.0345 66.7115 36.6948 0.0000 -10.6221 0.0000
# 3 63.7330 36.6948 130.3410 0.0000 -18.4045 0.0000
# 4 0.0000 0.0000 0.0000 28.1672 0.0000 -4.8535
# 5 -15.1586 -10.6221 -18.4045 0.0000 32.5700 0.0000
# 6 0.0000 0.0000 0.0000 -4.8535 0.0000 26.4619
#
#
#
# Elastic Compliance Matrix: (Units=1/GPa)
#
#
# Indices 1 2 3 4 5 6 
#
# 1 0.015213 -0.005760 -0.005523 0.000000 0.002081 0.000000
# 2 -0.005760 0.020234 -0.002528 0.000000 0.002489 0.000000
# 3 -0.005523 -0.002528 0.011525 0.000000 0.003117 0.000000
# 4 0.000000 0.000000 0.000000 0.036661 0.000000 0.006724
# 5 0.002081 0.002489 0.003117 0.000000 0.034245 0.000000
# 6 0.000000 0.000000 0.000000 0.006724 0.000000 0.039024
#
#
# Mechanical properties :
#
#
# Convention : Reuss Voigt Hill
#
# Bulk Modulus (GPa) = 51.68471 64.89797 58.29134
# Shear Modulus (GPa) = 26.18165 28.28613 27.23389
#
# Velocity S-wave (km/s) = 3.77324 3.92196 3.84832
# Velocity P-wave (km/s) = 6.86213 7.46993 7.17247
#
# Compressibility (1/GPa) = 0.01934808
#
# Stress axis : x y z
#
# Youngs Moduli (GPa) = 65.73393 49.42246 86.76901
#
# Poissons Ratio (x) = 0.28468 0.47924
# Poissons Ratio (y) = 0.37863 0.21938
# Poissons Ratio (z) = 0.36306 0.12496
#
# Static dielectric constant tensor:
#      x y z
#    x 3.289270 0.000000 0.181790 
#    y 0.000000 3.328440 0.000000 
#    z 0.181790 0.000000 4.669660 
# 
# 
# High freq. dielectric constant tensor:
#      x y z
#    x 1.695000 0.000000 -0.004390 
#    y 0.000000 1.707190 0.000000 
#    z -0.004390 0.000000 1.737630 
# 
# From -- ./inp_files/28968.got.cif
#   From: 2010.06.25/outbox.cif.g09.slc.cpg/sg11_15_cif.got.tgz:28968.got - 2010.06.27 23:14:04.
