data_PCOD8073644
_publ_section_title
;
Structure prediction by ZEFSAII (Michael W. Deem and Ramdas Pophale) SiO2 
 PCOD8073644
Probable space group: P 21/M
;
_chemical_formula_sum "Si O2"
_cell_formula_units_Z 32
_cell_length_a 16.158457
_cell_length_b 8.891221
_cell_length_c 12.083217
_cell_angle_alpha 90.000000
_cell_angle_beta 91.394249
_cell_angle_gamma 90.000000
_cell_volume 1735.462642
_symmetry_space_group_name_H-M "P 21/M"
_symmetry_group_IT_number 11
_symmetry_cell_setting 'monoclinic'
loop_
_space_group_symop_operation_xyz
x,y,z
-x,1/2+y,-z
-x,-y,-z
x,1/2-y,z
loop_
_atom_site_type_symbol
_atom_site_label
_atom_site_fract_x
_atom_site_fract_y
_atom_site_fract_z
Si Si1 0.382359 0.576060 0.760686
Si Si2 0.799440 0.923950 0.643256
Si Si3 0.764546 0.423964 0.074208
Si Si4 0.473794 0.927797 0.114176
Si Si5 0.872356 0.577506 0.247644
Si Si6 0.028694 0.573919 0.387973
Si Si7 0.700261 0.575013 0.861821
Si Si8 0.272377 0.422680 0.589199
O O1 0.406565 0.750000 0.754685
O O2 0.316617 0.544161 0.855362
O O3 0.464246 0.480340 0.787532
O O4 0.345230 0.524646 0.642003
O O5 0.824956 0.750000 0.632938
O O6 0.748638 0.958036 0.751268
O O7 0.741674 0.970727 0.538057
O O8 0.882234 0.020545 0.648984
O O9 0.772383 0.250000 0.042607
O O10 0.846148 0.473584 0.143894
O O11 0.758684 0.522808 0.963922
O O12 0.476399 0.750000 0.100957
O O13 0.382429 0.977623 0.144100
O O14 0.500000 0.000000 0.000000
O O15 0.866430 0.750000 0.208812
O O16 0.813362 0.547743 0.350388
O O17 0.964581 0.532959 0.287820
O O18 0.029845 0.750000 0.409661
O O19 0.000000 0.500000 0.500000
O O20 0.678047 0.750000 0.874847
O O21 0.300242 0.250000 0.600757
#
# Coordination Sequence:
#
# PCOD8073644 Si02
#       8
#     4   4   4   4   4   4   4   4
#     4  10  20  34  55  86 116 143 186 236 283 331
#     4  10  22  40  59  84 117 154 192 232 284 342
#     4  10  20  34  55  83 115 147 187 235 281 335
#     4  12  23  37  59  86 115 147 190 236 282 334
#     4   9  18  33  55  82 113 146 186 234 283 333
#     4  11  21  35  58  87 117 150 191 239 284 335
#     4  11  23  39  60  83 116 155 189 231 285 341
#     4   9  17  34  56  80 114 149 186 230 281 333
#
# _framework density 18.438887000000001
#
# number of rings (size 3 to 8) (size 9 to 14) (size 15 to 20)
#    0.000    1.750    2.500    2.625    0.000    3.500 
#    0.000    1.250    0.000    0.000    0.000    0.000 
#    0.000    0.000    0.000    0.000    0.000    0.000 
#
# Total GULP energy -396942.062590 kJ/mol
# GULP energy per Si atom -12404.439456 kJ/mol
# Density = 1.839692 g / cm^3
# Si number density = 18.438887 Si / 1000 Ang^3
#
#
#
# Elastic Constant Matrix: (Units=GPa)
#
#
# Indices 1 2 3 4 5 6 
#
# 1 106.0778 63.1444 60.2266 0.0000 18.9226 0.0000
# 2 63.1444 111.4076 58.4460 0.0000 11.5204 0.0000
# 3 60.2266 58.4460 124.1157 0.0000 17.7789 0.0000
# 4 0.0000 0.0000 0.0000 27.9676 0.0000 5.6858
# 5 18.9226 11.5204 17.7789 0.0000 25.8286 0.0000
# 6 0.0000 0.0000 0.0000 5.6858 0.0000 34.2875
#
#
#
# Elastic Compliance Matrix: (Units=1/GPa)
#
#
# Indices 1 2 3 4 5 6 
#
# 1 0.016966 -0.006788 -0.004093 0.000000 -0.006585 0.000000
# 2 -0.006788 0.014698 -0.003773 0.000000 0.001014 0.000000
# 3 -0.004093 -0.003773 0.012369 0.000000 -0.003832 0.000000
# 4 0.000000 0.000000 0.000000 0.037003 0.000000 -0.006136
# 5 -0.006585 0.001014 -0.003832 0.000000 0.045726 0.000000
# 6 0.000000 0.000000 0.000000 -0.006136 0.000000 0.030183
#
#
# Mechanical properties :
#
#
# Convention : Reuss Voigt Hill
#
# Bulk Modulus (GPa) = 67.91084 78.35945 73.13514
# Shear Modulus (GPa) = 26.15603 28.26902 27.21252
#
# Velocity S-wave (km/s) = 3.77042 3.91975 3.84581
# Velocity P-wave (km/s) = 7.47428 7.94198 7.71168
#
# Compressibility (1/GPa) = 0.01472519
#
# Stress axis : x y z
#
# Youngs Moduli (GPa) = 58.94058 68.03796 80.84986
#
# Poissons Ratio (x) = 0.46185 0.33093
# Poissons Ratio (y) = 0.40009 0.30501
# Poissons Ratio (z) = 0.24125 0.25668
#
# Static dielectric constant tensor:
#      x y z
#    x 3.499690 0.000000 0.198530 
#    y 0.000000 3.458940 0.000000 
#    z 0.198530 0.000000 3.386540 
# 
# 
# High freq. dielectric constant tensor:
#      x y z
#    x 1.706950 0.000000 0.024440 
#    y 0.000000 1.723260 0.000000 
#    z 0.024440 0.000000 1.709120 
# 
# From -- ./inp_files/38125.got.cif
#   From: 2010.06.25/outbox.cif.g09.slc.cpg/sg11_20_cif.got.tgz:38125.got - 2010.06.27 23:14:04.
