data_PCOD8073104
_publ_section_title
;
Structure prediction by ZEFSAII (Michael W. Deem and Ramdas Pophale) SiO2 
 PCOD8073104
Probable space group: P 21/M
;
_chemical_formula_sum "Si O2"
_cell_formula_units_Z 24
_cell_length_a 15.669010
_cell_length_b 13.563208
_cell_length_c 10.322050
_cell_angle_alpha 90.000000
_cell_angle_beta 142.954067
_cell_angle_gamma 90.000000
_cell_volume 1321.583507
_symmetry_space_group_name_H-M "P 21/M"
_symmetry_group_IT_number 11
_symmetry_cell_setting 'monoclinic'
loop_
_space_group_symop_operation_xyz
x,y,z
-x,1/2+y,-z
-x,-y,-z
x,1/2-y,z
loop_
_atom_site_type_symbol
_atom_site_label
_atom_site_fract_x
_atom_site_fract_y
_atom_site_fract_z
Si Si1 0.799986 0.358253 0.876222
Si Si2 0.045483 0.865029 0.455161
Si Si3 0.819512 0.473283 0.151588
Si Si4 0.466922 0.141848 0.494267
Si Si5 0.514888 0.976517 0.731142
Si Si6 0.246956 0.866023 0.465934
O O1 0.871629 0.250000 0.981263
O O2 0.634084 0.346156 0.694908
O O3 0.823210 0.397301 0.757191
O O4 0.856540 0.435160 0.051303
O O5 0.009012 0.750000 0.406261
O O6 0.141382 0.898509 0.450524
O O7 0.898744 0.923992 0.271868
O O8 0.129116 0.889256 0.687633
O O9 0.652298 0.489598 0.978559
O O10 0.394811 0.250000 0.422658
O O11 0.417598 0.091065 0.301295
O O12 0.429141 0.070718 0.568677
O O13 0.399513 0.917811 0.675840
O O14 0.277128 0.750000 0.503237
#
# Coordination Sequence:
#
# PCOD8073104 Si02
#       6
#     4   4   4   4   4   4
#     4   8  14  28  51  75  97 125 159 191 231 284
#     4  10  22  37  49  67  98 131 161 196 240 286
#     4  10  20  33  52  72  93 127 165 199 232 278
#     4   8  14  25  44  74 105 126 151 194 243 285
#     4   9  16  28  50  74  95 124 162 199 234 279
#     4   9  18  33  52  74 100 125 152 194 244 288
#
# _framework density 18.160034
#
# number of rings (size 3 to 8) (size 9 to 14) (size 15 to 20)
#    0.000    3.000    0.000    3.000    0.000    3.333 
#    0.000    0.000    0.000    5.000    0.000    0.000 
#    0.000    0.000    0.000    0.000    0.000    0.000 
#
# Total GULP energy -297453.853241 kJ/mol
# GULP energy per Si atom -12393.910552 kJ/mol
# Density = 1.811870 g / cm^3
# Si number density = 18.160034 Si / 1000 Ang^3
#
#
#
# Elastic Constant Matrix: (Units=GPa)
#
#
# Indices 1 2 3 4 5 6 
#
# 1 57.5265 12.8010 11.5199 0.0000 -14.4800 0.0000
# 2 12.8010 83.8659 21.2352 0.0000 -3.4224 0.0000
# 3 11.5199 21.2352 67.8396 0.0000 -15.1571 0.0000
# 4 0.0000 0.0000 0.0000 13.6516 0.0000 -2.5807
# 5 -14.4800 -3.4224 -15.1571 0.0000 13.7755 0.0000
# 6 0.0000 0.0000 0.0000 -2.5807 0.0000 20.7202
#
#
#
# Elastic Compliance Matrix: (Units=1/GPa)
#
#
# Indices 1 2 3 4 5 6 
#
# 1 0.024730 -0.003438 0.003307 0.000000 0.028779 0.000000
# 2 -0.003438 0.013456 -0.004891 0.000000 -0.005652 0.000000
# 3 0.003307 -0.004891 0.021501 0.000000 0.025918 0.000000
# 4 0.000000 0.000000 0.000000 0.075018 0.000000 0.009344
# 5 0.028779 -0.005652 0.025918 0.000000 0.129956 0.000000
# 6 0.000000 0.000000 0.000000 0.009344 0.000000 0.049426
#
#
# Mechanical properties :
#
#
# Convention : Reuss Voigt Hill
#
# Bulk Modulus (GPa) = 20.14391 33.37156 26.75773
# Shear Modulus (GPa) = 14.67659 20.54119 17.60889
#
# Velocity S-wave (km/s) = 2.84594 3.36686 3.11730
# Velocity P-wave (km/s) = 4.68142 5.79056 5.26528
#
# Compressibility (1/GPa) = 0.04964281
#
# Stress axis : x y z
#
# Youngs Moduli (GPa) = 40.43681 74.31453 46.50968
#
# Poissons Ratio (x) = 0.25546 -0.15379
# Poissons Ratio (y) = 0.13900 0.22749
# Poissons Ratio (z) = -0.13371 0.36349
#
# Static dielectric constant tensor:
#      x y z
#    x 3.121750 0.000000 -0.257150 
#    y 0.000000 3.765910 0.000000 
#    z -0.257150 0.000000 3.284810 
# 
# 
# High freq. dielectric constant tensor:
#      x y z
#    x 1.666990 0.000000 -0.013240 
#    y 0.000000 1.712970 0.000000 
#    z -0.013240 0.000000 1.688120 
# 
# From -- ./inp_files/17251.got.cif
#   From: 2010.06.25/outbox.cif.g09.slc.cpg/sg11_9_cif.got.tgz:17251.got - 2010.06.27 23:14:04.
