data_PCOD8073961
_publ_section_title
;
Structure prediction by ZEFSAII (Michael W. Deem and Ramdas Pophale) SiO2 
 PCOD8073961
Probable space group: P 21/M
;
_chemical_formula_sum "Si O2"
_cell_formula_units_Z 32
_cell_length_a 22.963959
_cell_length_b 8.603519
_cell_length_c 15.496785
_cell_angle_alpha 90.000000
_cell_angle_beta 147.690413
_cell_angle_gamma 90.000000
_cell_volume 1636.466594
_symmetry_space_group_name_H-M "P 21/M"
_symmetry_group_IT_number 11
_symmetry_cell_setting 'monoclinic'
loop_
_space_group_symop_operation_xyz
x,y,z
-x,1/2+y,-z
-x,-y,-z
x,1/2-y,z
loop_
_atom_site_type_symbol
_atom_site_label
_atom_site_fract_x
_atom_site_fract_y
_atom_site_fract_z
Si Si1 0.904597 0.929273 0.649824
Si Si2 0.901869 0.429311 0.321849
Si Si3 0.690734 0.073907 0.464192
Si Si4 0.875079 0.930955 0.103470
Si Si5 0.657106 0.429484 0.758592
Si Si6 0.196123 0.074432 0.652556
Si Si7 0.397196 0.927259 0.826712
Si Si8 0.581415 0.930374 0.490362
O O1 0.890679 0.750000 0.657653
O O2 0.899028 0.953437 0.538251
O O3 0.811246 0.022347 0.584135
O O4 0.026140 0.987410 0.826068
O O5 0.921072 0.250000 0.323713
O O6 0.873566 0.520978 0.200910
O O7 0.803735 0.455038 0.266934
O O8 0.000000 0.500000 0.500000
O O9 0.701325 0.250000 0.511564
O O10 0.601752 0.066869 0.275807
O O11 0.642893 0.964784 0.478428
O O12 0.896383 0.750000 0.122651
O O13 0.758302 0.970249 0.917513
O O14 0.688322 0.250000 0.808626
O O15 0.547906 0.470304 0.676854
O O16 0.636581 0.465746 0.632868
O O17 0.190521 0.250000 0.680942
O O18 0.305170 0.046828 0.737974
O O19 0.378040 0.750000 0.833986
O O20 0.500000 0.000000 0.000000
O O21 0.596314 0.750000 0.532909
#
# Coordination Sequence:
#
# PCOD8073961 Si02
#       8
#     4   4   4   4   4   4   4   4
#     4  10  20  36  58  83 116 154 195 240 289 348
#     4  12  23  36  55  81 114 153 196 240 288 342
#     4  10  21  37  60  87 116 154 197 240 292 353
#     4  12  24  38  59  87 122 158 199 246 296 354
#     4  10  22  41  64  90 121 155 192 242 299 354
#     4  10  20  35  55  78 108 149 194 239 289 344
#     4  10  21  36  54  79 114 153 195 242 290 344
#     4  10  21  40  66  92 118 151 195 242 297 358
#
# _framework density 19.554324999999999
#
# number of rings (size 3 to 8) (size 9 to 14) (size 15 to 20)
#    0.000    1.500    1.250    4.500    0.000    5.000 
#    0.000    3.125    0.000    0.000    0.000    0.000 
#    0.000    0.000    0.000    0.000    0.000    0.000 
#
# Total GULP energy -396716.695953 kJ/mol
# GULP energy per Si atom -12397.396749 kJ/mol
# Density = 1.950982 g / cm^3
# Si number density = 19.554325 Si / 1000 Ang^3
#
#
#
# Elastic Constant Matrix: (Units=GPa)
#
#
# Indices 1 2 3 4 5 6 
#
# 1 88.2997 21.3470 30.4688 0.0000 0.7445 0.0000
# 2 21.3470 83.8313 27.3209 0.0000 5.2462 0.0000
# 3 30.4688 27.3209 94.9671 0.0000 11.2651 0.0000
# 4 0.0000 0.0000 0.0000 32.9384 0.0000 0.4081
# 5 0.7445 5.2462 11.2651 0.0000 17.5498 0.0000
# 6 0.0000 0.0000 0.0000 0.4081 0.0000 33.9804
#
#
#
# Elastic Compliance Matrix: (Units=1/GPa)
#
#
# Indices 1 2 3 4 5 6 
#
# 1 0.013192 -0.002254 -0.003894 0.000000 0.002614 0.000000
# 2 -0.002254 0.013591 -0.002940 0.000000 -0.002080 0.000000
# 3 -0.003894 -0.002940 0.013532 0.000000 -0.007642 0.000000
# 4 0.000000 0.000000 0.000000 0.030364 0.000000 -0.000365
# 5 0.002614 -0.002080 -0.007642 0.000000 0.062397 0.000000
# 6 0.000000 0.000000 0.000000 -0.000365 0.000000 0.029433
#
#
# Mechanical properties :
#
#
# Convention : Reuss Voigt Hill
#
# Bulk Modulus (GPa) = 45.17018 47.26349 46.21683
# Shear Modulus (GPa) = 26.58681 29.42449 28.00565
#
# Velocity S-wave (km/s) = 3.69133 3.88333 3.78854
# Velocity P-wave (km/s) = 6.42790 6.65806 6.54399
#
# Compressibility (1/GPa) = 0.02213850
#
# Stress axis : x y z
#
# Youngs Moduli (GPa) = 75.80630 73.57829 73.90096
#
# Poissons Ratio (x) = 0.16582 0.28777
# Poissons Ratio (y) = 0.17084 0.21728
# Poissons Ratio (z) = 0.29519 0.21634
#
# Static dielectric constant tensor:
#      x y z
#    x 3.637830 0.000000 -0.011030 
#    y 0.000000 3.601330 0.000000 
#    z -0.011030 0.000000 3.518990 
# 
# 
# High freq. dielectric constant tensor:
#      x y z
#    x 1.761790 0.000000 0.012360 
#    y 0.000000 1.777180 0.000000 
#    z 0.012360 0.000000 1.749380 
# 
# From -- ./inp_files/55687.got.cif
#   From: 2010.06.25/outbox.cif.g09.slc.cpg/sg11_28_cif.got.tgz:55687.got - 2010.06.27 23:14:04.
