data_PCOD8073020
_publ_section_title
;
Structure prediction by ZEFSAII (Michael W. Deem and Ramdas Pophale) SiO2 
 PCOD8073020
Probable space group: P 21/M
;
_chemical_formula_sum "Si O2"
_cell_formula_units_Z 28
_cell_length_a 20.061499
_cell_length_b 9.115068
_cell_length_c 15.912691
_cell_angle_alpha 90.000000
_cell_angle_beta 31.993897
_cell_angle_gamma 90.000000
_cell_volume 1541.709649
_symmetry_space_group_name_H-M "P 21/M"
_symmetry_group_IT_number 11
_symmetry_cell_setting 'monoclinic'
loop_
_space_group_symop_operation_xyz
x,y,z
-x,1/2+y,-z
-x,-y,-z
x,1/2-y,z
loop_
_atom_site_type_symbol
_atom_site_label
_atom_site_fract_x
_atom_site_fract_y
_atom_site_fract_z
Si Si1 0.818632 0.918007 0.210610
Si Si2 0.539323 0.919687 0.543207
Si Si3 0.579934 0.415654 0.157251
Si Si4 0.130558 0.913107 0.156913
Si Si5 0.945016 0.079406 0.940847
Si Si6 0.881764 0.579636 0.667385
Si Si7 0.592541 0.925570 0.968829
O O1 0.842978 0.750000 0.163179
O O2 0.687282 0.942706 0.396344
O O3 0.827253 0.002441 0.112768
O O4 0.924314 0.979522 0.160933
O O5 0.500875 0.750000 0.574510
O O6 0.482791 0.983259 0.691038
O O7 0.500000 0.000000 0.500000
O O8 0.529023 0.250000 0.193719
O O9 0.725454 0.409831 0.023877
O O10 0.554280 0.515095 0.102238
O O11 0.091788 0.750000 0.232135
O O12 0.104690 0.041016 0.249919
O O13 0.049740 0.958561 0.162732
O O14 0.924934 0.250000 0.976019
O O15 0.900098 0.750000 0.632391
O O16 0.739457 0.532330 0.790212
O O17 0.000000 0.500000 0.500000
O O18 0.575252 0.750000 0.986034
O O19 0.500000 0.000000 0.000000
#
# Coordination Sequence:
#
# PCOD8073020 Si02
#       7
#     4   4   4   4   4   4   4
#     4   9  18  31  47  70 101 134 170 214 257 301
#     4  10  20  33  50  74 105 140 177 219 265 308
#     4   9  18  33  52  75 105 140 178 219 263 318
#     4   9  17  31  52  74  99 134 173 212 257 311
#     4   9  17  31  50  71  98 135 173 209 255 307
#     4  10  21  37  57  82 110 139 175 220 269 322
#     4  10  21  38  60  84 110 145 183 223 276 331
#
# _framework density 18.161655
#
# number of rings (size 3 to 8) (size 9 to 14) (size 15 to 20)
#    0.000    2.571    0.000    1.714    0.000    4.571 
#    2.571    2.857    0.000    0.000    0.000    0.000 
#    0.000    0.000    0.000    0.000    0.000    0.000 
#
# Total GULP energy -346985.070591 kJ/mol
# GULP energy per Si atom -12392.323950 kJ/mol
# Density = 1.812032 g / cm^3
# Si number density = 18.161655 Si / 1000 Ang^3
#
#
#
# Elastic Constant Matrix: (Units=GPa)
#
#
# Indices 1 2 3 4 5 6 
#
# 1 113.6761 51.1446 57.5674 0.0000 8.9523 0.0000
# 2 51.1446 62.8411 48.6422 0.0000 3.9007 0.0000
# 3 57.5674 48.6422 122.7616 0.0000 10.9114 0.0000
# 4 0.0000 0.0000 0.0000 30.3820 0.0000 4.2535
# 5 8.9523 3.9007 10.9114 0.0000 17.3932 0.0000
# 6 0.0000 0.0000 0.0000 4.2535 0.0000 29.3301
#
#
#
# Elastic Compliance Matrix: (Units=1/GPa)
#
#
# Indices 1 2 3 4 5 6 
#
# 1 0.014876 -0.009711 -0.002797 0.000000 -0.003724 0.000000
# 2 -0.009711 0.029298 -0.007324 0.000000 0.003022 0.000000
# 3 -0.002797 -0.007324 0.012799 0.000000 -0.004947 0.000000
# 4 0.000000 0.000000 0.000000 0.033596 0.000000 -0.004872
# 5 -0.003724 0.003022 -0.004947 0.000000 0.061836 0.000000
# 6 0.000000 0.000000 0.000000 -0.004872 0.000000 0.034801
#
#
# Mechanical properties :
#
#
# Convention : Reuss Voigt Hill
#
# Bulk Modulus (GPa) = 57.77093 68.22081 62.99587
# Shear Modulus (GPa) = 21.49254 24.88271 23.18762
#
# Velocity S-wave (km/s) = 3.44379 3.70546 3.57702
# Velocity P-wave (km/s) = 6.90589 7.48010 7.19872
#
# Compressibility (1/GPa) = 0.01730974
#
# Stress axis : x y z
#
# Youngs Moduli (GPa) = 67.22398 34.13243 78.13047
#
# Poissons Ratio (x) = 0.33145 0.21853
# Poissons Ratio (y) = 0.65279 0.57220
# Poissons Ratio (z) = 0.18803 0.24997
#
# Static dielectric constant tensor:
#      x y z
#    x 3.559620 0.000000 -0.060270 
#    y 0.000000 3.365940 0.000000 
#    z -0.060270 0.000000 3.485270 
# 
# 
# High freq. dielectric constant tensor:
#      x y z
#    x 1.702950 0.000000 0.000120 
#    y 0.000000 1.698310 0.000000 
#    z 0.000120 0.000000 1.701400 
# 
# From -- ./inp_files/54175.got.cif
#   From: 2010.06.25/outbox.cif.g09.slc.cpg/sg11_28_cif.got.tgz:54175.got - 2010.06.27 23:14:04.
