data_PCOD8073138
_publ_section_title
;
Structure prediction by ZEFSAII (Michael W. Deem and Ramdas Pophale) SiO2 
 PCOD8073138
Probable space group: P 21/M
;
_chemical_formula_sum "Si O2"
_cell_formula_units_Z 32
_cell_length_a 23.817361
_cell_length_b 9.240781
_cell_length_c 15.872463
_cell_angle_alpha 90.000000
_cell_angle_beta 27.570377
_cell_angle_gamma 90.000000
_cell_volume 1616.871296
_symmetry_space_group_name_H-M "P 21/M"
_symmetry_group_IT_number 11
_symmetry_cell_setting 'monoclinic'
loop_
_space_group_symop_operation_xyz
x,y,z
-x,1/2+y,-z
-x,-y,-z
x,1/2-y,z
loop_
_atom_site_type_symbol
_atom_site_label
_atom_site_fract_x
_atom_site_fract_y
_atom_site_fract_z
Si Si1 0.640590 0.086952 0.223545
Si Si2 0.288770 0.090240 0.548945
Si Si3 0.934016 0.924280 0.509390
Si Si4 0.910104 0.078226 0.860064
Si Si5 0.412803 0.911163 0.509618
Si Si6 0.981810 0.585221 0.110688
Si Si7 0.572067 0.584865 0.799196
Si Si8 0.310583 0.580666 0.209732
O O1 0.627780 0.250000 0.206738
O O2 0.621969 0.080163 0.347663
O O3 0.536124 0.993127 0.319594
O O4 0.773075 0.023938 0.023907
O O5 0.306645 0.250000 0.563558
O O6 0.392634 0.055826 0.343526
O O7 0.159147 0.077885 0.676837
O O8 0.299037 0.978979 0.612100
O O9 0.932021 0.750000 0.523348
O O10 0.003779 0.971075 0.330919
O O11 0.798483 0.987339 0.684285
O O12 0.000000 0.000000 0.500000
O O13 0.911904 0.250000 0.865830
O O14 0.951569 0.015410 0.896230
O O15 0.432135 0.750000 0.452455
O O16 0.025255 0.750000 0.037759
O O17 0.000000 0.500000 0.000000
O O18 0.601834 0.750000 0.787429
O O19 0.653117 0.476357 0.746509
O O20 0.428532 0.554867 0.994721
O O21 0.274336 0.750000 0.262565
#
# Coordination Sequence:
#
# PCOD8073138 Si02
#       8
#     4   4   4   4   4   4   4   4
#     4   9  18  35  56  75 100 138 181 219 262 320
#     4  10  20  34  53  77 107 143 180 213 255 320
#     4  11  23  40  60  81 110 148 190 234 278 329
#     4   9  19  37  60  80 104 146 190 222 262 326
#     4  10  20  33  52  78 107 136 171 222 272 312
#     4  10  20  35  56  83 113 145 181 220 266 320
#     4   9  19  36  58  81 106 141 180 219 266 326
#     4  10  20  36  58  83 109 137 176 225 278 329
#
# _framework density 19.791308000000001
#
# number of rings (size 3 to 8) (size 9 to 14) (size 15 to 20)
#    0.000    2.250    0.000    2.625    0.000    6.000 
#    0.000    9.375    0.000    0.000    0.000    0.000 
#    0.000    0.000    0.000    0.000    0.000    0.000 
#
# Total GULP energy -396728.873876 kJ/mol
# GULP energy per Si atom -12397.777309 kJ/mol
# Density = 1.974626 g / cm^3
# Si number density = 19.791308 Si / 1000 Ang^3
#
#
#
# Elastic Constant Matrix: (Units=GPa)
#
#
# Indices 1 2 3 4 5 6 
#
# 1 78.5519 39.0693 30.8434 0.0000 -4.2595 0.0000
# 2 39.0693 92.1061 35.2026 0.0000 -3.6233 0.0000
# 3 30.8434 35.2026 84.2074 0.0000 -7.6282 0.0000
# 4 0.0000 0.0000 0.0000 23.1532 0.0000 -2.1546
# 5 -4.2595 -3.6233 -7.6282 0.0000 29.6826 0.0000
# 6 0.0000 0.0000 0.0000 -2.1546 0.0000 36.1606
#
#
#
# Elastic Compliance Matrix: (Units=1/GPa)
#
#
# Indices 1 2 3 4 5 6 
#
# 1 0.017140 -0.005793 -0.003786 0.000000 0.000780 0.000000
# 2 -0.005793 0.014881 -0.004105 0.000000 -0.000070 0.000000
# 3 -0.003786 -0.004105 0.015238 0.000000 0.002872 0.000000
# 4 0.000000 0.000000 0.000000 0.043431 0.000000 0.002588
# 5 0.000780 -0.000070 0.002872 0.000000 0.034531 0.000000
# 6 0.000000 0.000000 0.000000 0.002588 0.000000 0.027809
#
#
# Mechanical properties :
#
#
# Convention : Reuss Voigt Hill
#
# Bulk Modulus (GPa) = 50.27312 51.67733 50.97523
# Shear Modulus (GPa) = 26.73380 27.78264 27.25822
#
# Velocity S-wave (km/s) = 3.67929 3.75077 3.71520
# Velocity P-wave (km/s) = 6.59593 6.70265 6.64950
#
# Compressibility (1/GPa) = 0.01989134
#
# Stress axis : x y z
#
# Youngs Moduli (GPa) = 58.34147 67.20177 65.62348
#
# Poissons Ratio (x) = 0.38930 0.24844
# Poissons Ratio (y) = 0.33797 0.26940
# Poissons Ratio (z) = 0.22087 0.27588
#
# Static dielectric constant tensor:
#      x y z
#    x 3.535020 0.000000 -0.181480 
#    y 0.000000 3.606360 0.000000 
#    z -0.181480 0.000000 3.751470 
# 
# 
# High freq. dielectric constant tensor:
#      x y z
#    x 1.769380 0.000000 -0.011870 
#    y 0.000000 1.757860 0.000000 
#    z -0.011870 0.000000 1.778720 
# 
# From -- ./inp_files/55595.got.cif
#   From: 2010.06.25/outbox.cif.g09.slc.cpg/sg11_28_cif.got.tgz:55595.got - 2010.06.27 23:14:04.
