data_PCOD8073666
_publ_section_title
;
Structure prediction by ZEFSAII (Michael W. Deem and Ramdas Pophale) SiO2 
 PCOD8073666
Probable space group: P 21/M
;
_chemical_formula_sum "Si O2"
_cell_formula_units_Z 24
_cell_length_a 7.582518
_cell_length_b 23.102832
_cell_length_c 8.515023
_cell_angle_alpha 90.000000
_cell_angle_beta 52.886674
_cell_angle_gamma 90.000000
_cell_volume 1189.500088
_symmetry_space_group_name_H-M "P 21/M"
_symmetry_group_IT_number 11
_symmetry_cell_setting 'monoclinic'
loop_
_space_group_symop_operation_xyz
x,y,z
-x,1/2+y,-z
-x,-y,-z
x,1/2-y,z
loop_
_atom_site_type_symbol
_atom_site_label
_atom_site_fract_x
_atom_site_fract_y
_atom_site_fract_z
Si Si1 0.837661 0.816049 0.469443
Si Si2 0.761755 0.684683 0.150584
Si Si3 0.337883 0.684725 0.186618
Si Si4 0.327710 0.985788 0.729285
Si Si5 0.118124 0.074321 0.069419
Si Si6 0.564039 0.600362 0.833606
O O1 0.769260 0.750000 0.540324
O O2 0.795278 0.832180 0.312080
O O3 0.690410 0.857434 0.650595
O O4 0.091660 0.827290 0.380012
O O5 0.844974 0.750000 0.072591
O O6 0.503171 0.677526 0.244922
O O7 0.905702 0.642209 0.962930
O O8 0.353637 0.750000 0.108210
O O9 0.389869 0.638592 0.023762
O O10 0.435210 0.947961 0.807727
O O11 0.121665 0.951649 0.764160
O O12 0.500000 0.000000 0.500000
O O13 0.238245 0.044281 0.856560
O O14 0.264456 0.067005 0.146447
#
# Coordination Sequence:
#
# PCOD8073666 Si02
#       6
#     4   4   4   4   4   4
#     4  10  20  34  55  85 118 151 188 231 282 338
#     4   9  18  36  61  85 113 147 183 229 283 336
#     4   9  19  36  57  83 117 151 186 235 287 335
#     4  11  24  41  60  82 113 151 192 236 282 333
#     4  10  23  41  60  85 114 147 189 234 282 336
#     4  11  22  36  59  85 112 150 194 235 281 336
#
# _framework density 20.176542999999999
#
# number of rings (size 3 to 8) (size 9 to 14) (size 15 to 20)
#    0.000    2.000    0.000    3.000    0.000    6.667 
#    0.000    0.833    0.000    9.000    0.000    0.000 
#    0.000    0.000    0.000    0.000    0.000    0.000 
#
# Total GULP energy -297658.218283 kJ/mol
# GULP energy per Si atom -12402.425762 kJ/mol
# Density = 2.013062 g / cm^3
# Si number density = 20.176543 Si / 1000 Ang^3
#
#
#
# Elastic Constant Matrix: (Units=GPa)
#
#
# Indices 1 2 3 4 5 6 
#
# 1 90.9016 33.6126 13.0243 0.0000 -1.3640 0.0000
# 2 33.6126 73.7721 22.2780 0.0000 -5.7311 0.0000
# 3 13.0243 22.2780 49.8702 0.0000 -14.2419 0.0000
# 4 0.0000 0.0000 0.0000 20.6479 0.0000 5.2946
# 5 -1.3640 -5.7311 -14.2419 0.0000 24.5537 0.0000
# 6 0.0000 0.0000 0.0000 5.2946 0.0000 34.0464
#
#
#
# Elastic Compliance Matrix: (Units=1/GPa)
#
#
# Indices 1 2 3 4 5 6 
#
# 1 0.013301 -0.005779 -0.001278 0.000000 -0.001351 0.000000
# 2 -0.005779 0.018185 -0.006584 0.000000 0.000104 0.000000
# 3 -0.001278 -0.006584 0.027408 0.000000 0.014290 0.000000
# 4 0.000000 0.000000 0.000000 0.050442 0.000000 -0.007844
# 5 -0.001351 0.000104 0.014290 0.000000 0.048965 0.000000
# 6 0.000000 0.000000 0.000000 -0.007844 0.000000 0.030592
#
#
# Mechanical properties :
#
#
# Convention : Reuss Voigt Hill
#
# Bulk Modulus (GPa) = 31.63495 39.15260 35.39377
# Shear Modulus (GPa) = 22.05436 25.55820 23.80628
#
# Velocity S-wave (km/s) = 3.30975 3.56297 3.43869
# Velocity P-wave (km/s) = 5.50627 6.03105 5.77462
#
# Compressibility (1/GPa) = 0.03161061
#
# Stress axis : x y z
#
# Youngs Moduli (GPa) = 75.18395 54.99052 36.48562
#
# Poissons Ratio (x) = 0.31780 0.04662
# Poissons Ratio (y) = 0.43451 0.24024
# Poissons Ratio (z) = 0.09607 0.36208
#
# Static dielectric constant tensor:
#      x y z
#    x 4.022440 0.000000 0.040660 
#    y 0.000000 4.168240 0.000000 
#    z 0.040660 0.000000 3.418320 
# 
# 
# High freq. dielectric constant tensor:
#      x y z
#    x 1.804390 0.000000 0.002500 
#    y 0.000000 1.801710 0.000000 
#    z 0.002500 0.000000 1.766560 
# 
# From -- ./inp_files/14203.got.cif
#   From: 2010.06.25/outbox.cif.g09.slc.cpg/sg11_8_cif.got.tgz:14203.got - 2010.06.27 23:14:04.
