data_PCOD8073929
_publ_section_title
;
Structure prediction by ZEFSAII (Michael W. Deem and Ramdas Pophale) SiO2 
 PCOD8073929
Probable space group: P 21/M
;
_chemical_formula_sum "Si O2"
_cell_formula_units_Z 28
_cell_length_a 15.921217
_cell_length_b 9.075953
_cell_length_c 12.586054
_cell_angle_alpha 90.000000
_cell_angle_beta 125.093292
_cell_angle_gamma 90.000000
_cell_volume 1488.081117
_symmetry_space_group_name_H-M "P 21/M"
_symmetry_group_IT_number 11
_symmetry_cell_setting 'monoclinic'
loop_
_space_group_symop_operation_xyz
x,y,z
-x,1/2+y,-z
-x,-y,-z
x,1/2-y,z
loop_
_atom_site_type_symbol
_atom_site_label
_atom_site_fract_x
_atom_site_fract_y
_atom_site_fract_z
Si Si1 0.490509 0.580845 0.184906
Si Si2 0.278327 0.921370 0.928536
Si Si3 0.459565 0.921042 0.573785
Si Si4 0.770527 0.077515 0.529290
Si Si5 0.896547 0.920443 0.796787
Si Si6 0.282921 0.078064 0.718847
Si Si7 0.867726 0.419713 0.987236
O O1 0.487218 0.750000 0.220183
O O2 0.478563 0.481087 0.280166
O O3 0.595792 0.544504 0.200805
O O4 0.397293 0.544469 0.038613
O O5 0.260177 0.750000 0.890401
O O6 0.242947 0.014575 0.801201
O O7 0.210395 0.972370 0.978953
O O8 0.482592 0.750000 0.580066
O O9 0.339418 0.955457 0.498448
O O10 0.500000 0.000000 0.500000
O O11 0.791051 0.250000 0.531015
O O12 0.856971 0.007631 0.666076
O O13 0.778033 0.002734 0.419484
O O14 0.866067 0.750000 0.764967
O O15 0.845583 0.984016 0.866782
O O16 0.018096 0.944817 0.886899
O O17 0.258078 0.250000 0.694432
O O18 0.848708 0.250000 0.942449
#
# Coordination Sequence:
#
# PCOD8073929 Si02
#       7
#     4   4   4   4   4   4   4
#     4   9  19  34  52  76 108 145 179 215 261 314
#     4  10  20  35  56  79 108 144 181 218 264 321
#     4  10  21  34  50  75 108 141 177 220 263 316
#     4  10  21  37  57  77 104 145 182 216 269 327
#     4  10  20  36  58  82 109 139 177 226 274 319
#     4  10  20  35  54  80 111 141 180 225 264 311
#     4   9  20  37  56  81 111 142 177 220 271 326
#
# _framework density 18.816178000000001
#
# number of rings (size 3 to 8) (size 9 to 14) (size 15 to 20)
#    0.000    2.286    0.000    2.143    2.000    4.000 
#    0.000    0.714    0.000    0.000    0.000    0.000 
#    0.000    0.000    0.000    0.000    0.000    0.000 
#
# Total GULP energy -347331.398060 kJ/mol
# GULP energy per Si atom -12404.692788 kJ/mol
# Density = 1.877335 g / cm^3
# Si number density = 18.816178 Si / 1000 Ang^3
#
#
#
# Elastic Constant Matrix: (Units=GPa)
#
#
# Indices 1 2 3 4 5 6 
#
# 1 61.5134 29.5881 34.5082 0.0000 -14.7030 0.0000
# 2 29.5881 91.4535 57.3981 0.0000 -11.1972 0.0000
# 3 34.5082 57.3981 114.4889 0.0000 -13.7435 0.0000
# 4 0.0000 0.0000 0.0000 41.1872 0.0000 -6.8424
# 5 -14.7030 -11.1972 -13.7435 0.0000 21.5253 0.0000
# 6 0.0000 0.0000 0.0000 -6.8424 0.0000 27.4095
#
#
#
# Elastic Compliance Matrix: (Units=1/GPa)
#
#
# Indices 1 2 3 4 5 6 
#
# 1 0.022789 -0.003691 -0.003661 0.000000 0.011309 0.000000
# 2 -0.003691 0.016794 -0.007106 0.000000 0.001678 0.000000
# 3 -0.003661 -0.007106 0.013707 0.000000 0.002555 0.000000
# 4 0.000000 0.000000 0.000000 0.025330 0.000000 0.006323
# 5 0.011309 0.001678 0.002555 0.000000 0.056686 0.000000
# 6 0.000000 0.000000 0.000000 0.006323 0.000000 0.038062
#
#
# Mechanical properties :
#
#
# Convention : Reuss Voigt Hill
#
# Bulk Modulus (GPa) = 41.02565 56.71610 48.87088
# Shear Modulus (GPa) = 23.76359 27.75514 25.75937
#
# Velocity S-wave (km/s) = 3.55763 3.84483 3.70402
# Velocity P-wave (km/s) = 6.22305 7.06526 6.65749
#
# Compressibility (1/GPa) = 0.02437499
#
# Stress axis : x y z
#
# Youngs Moduli (GPa) = 43.88167 59.54665 72.95590
#
# Poissons Ratio (x) = 0.21976 0.26709
# Poissons Ratio (y) = 0.16195 0.51839
# Poissons Ratio (z) = 0.16065 0.42311
#
# Static dielectric constant tensor:
#      x y z
#    x 3.375830 0.000000 -0.045860 
#    y 0.000000 3.568330 0.000000 
#    z -0.045860 0.000000 3.460210 
# 
# 
# High freq. dielectric constant tensor:
#      x y z
#    x 1.717220 0.000000 -0.008430 
#    y 0.000000 1.737950 0.000000 
#    z -0.008430 0.000000 1.734520 
# 
# From -- ./inp_files/38432.got.cif
#   From: 2010.06.25/outbox.cif.g09.slc.cpg/sg11_20_cif.got.tgz:38432.got - 2010.06.27 23:14:04.
