data_PCOD8073174
_publ_section_title
;
Structure prediction by ZEFSAII (Michael W. Deem and Ramdas Pophale) SiO2 
 PCOD8073174
Probable space group: P 21/M
;
_chemical_formula_sum "Si O2"
_cell_formula_units_Z 24
_cell_length_a 7.872312
_cell_length_b 26.527015
_cell_length_c 6.284060
_cell_angle_alpha 90.000000
_cell_angle_beta 114.882242
_cell_angle_gamma 90.000000
_cell_volume 1190.479225
_symmetry_space_group_name_H-M "P 21/M"
_symmetry_group_IT_number 11
_symmetry_cell_setting 'monoclinic'
loop_
_space_group_symop_operation_xyz
x,y,z
-x,1/2+y,-z
-x,-y,-z
x,1/2-y,z
loop_
_atom_site_type_symbol
_atom_site_label
_atom_site_fract_x
_atom_site_fract_y
_atom_site_fract_z
Si Si1 0.584406 0.147029 0.862214
Si Si2 0.482551 0.446844 0.101681
Si Si3 0.061284 0.651865 0.713831
Si Si4 0.902253 0.600325 0.013194
Si Si5 0.800494 0.806022 0.253237
Si Si6 0.742117 0.405225 0.560353
O O1 0.414348 0.185404 0.793260
O O2 0.612174 0.132461 0.629958
O O3 0.548713 0.095973 0.974642
O O4 0.774977 0.174380 0.047697
O O5 0.609045 0.447542 0.383540
O O6 0.500000 0.500000 0.000000
O O7 0.267469 0.438238 0.053687
O O8 0.162836 0.624257 0.577875
O O9 0.924502 0.692736 0.534883
O O10 0.934217 0.612758 0.782121
O O11 0.865588 0.653235 0.114899
O O12 0.089922 0.572861 0.203869
O O13 0.818289 0.750000 0.164043
#
# Coordination Sequence:
#
# PCOD8073174 Si02
#       6
#     4   4   4   4   4   4
#     4   9  19  36  53  74 106 137 169 215 261 305
#     4  10  20  33  53  79 104 137 177 213 257 310
#     4   9  18  35  55  72  99 137 170 205 253 307
#     4   9  19  36  54  73 103 136 169 213 257 303
#     4  10  20  33  53  78 100 129 169 211 258 308
#     4   9  18  35  54  73 102 137 169 208 257 302
#
# _framework density 20.159946000000001
#
# number of rings (size 3 to 8) (size 9 to 14) (size 15 to 20)
#    0.000    2.667    0.000    1.000    0.000    2.667 
#    0.000   14.167    0.000    0.000    0.000    0.000 
#    0.000    0.000    0.000    0.000    0.000    0.000 
#
# Total GULP energy -297428.126349 kJ/mol
# GULP energy per Si atom -12392.838598 kJ/mol
# Density = 2.011406 g / cm^3
# Si number density = 20.159946 Si / 1000 Ang^3
#
#
#
# Elastic Constant Matrix: (Units=GPa)
#
#
# Indices 1 2 3 4 5 6 
#
# 1 89.2858 7.6106 30.7356 0.0000 10.4029 0.0000
# 2 7.6106 55.8846 12.9046 0.0000 16.4257 0.0000
# 3 30.7356 12.9046 67.0971 0.0000 -2.1602 0.0000
# 4 0.0000 0.0000 0.0000 18.5224 0.0000 -2.0109
# 5 10.4029 16.4257 -2.1602 0.0000 44.5790 0.0000
# 6 0.0000 0.0000 0.0000 -2.0109 0.0000 9.4382
#
#
#
# Elastic Compliance Matrix: (Units=1/GPa)
#
#
# Indices 1 2 3 4 5 6 
#
# 1 0.013861 0.000770 -0.006621 0.000000 -0.003839 0.000000
# 2 0.000770 0.021306 -0.004716 0.000000 -0.008258 0.000000
# 3 -0.006621 -0.004716 0.018979 0.000000 0.004202 0.000000
# 4 0.000000 0.000000 0.000000 0.055267 0.000000 0.011775
# 5 -0.003839 -0.008258 0.004202 0.000000 0.026575 0.000000
# 6 0.000000 0.000000 0.000000 0.011775 0.000000 0.108462
#
#
# Mechanical properties :
#
#
# Convention : Reuss Voigt Hill
#
# Bulk Modulus (GPa) = 30.29330 34.97435 32.63382
# Shear Modulus (GPa) = 18.07749 25.24235 21.65992
#
# Velocity S-wave (km/s) = 2.99775 3.54235 3.28137
# Velocity P-wave (km/s) = 5.20011 5.84098 5.52984
#
# Compressibility (1/GPa) = 0.03301060
#
# Stress axis : x y z
#
# Youngs Moduli (GPa) = 72.14558 46.93608 52.68974
#
# Poissons Ratio (x) = -0.03612 0.34886
# Poissons Ratio (y) = -0.05552 0.24849
# Poissons Ratio (z) = 0.47767 0.22135
#
# Static dielectric constant tensor:
#      x y z
#    x 4.093070 0.000000 0.344400 
#    y 0.000000 3.104630 0.000000 
#    z 0.344400 0.000000 4.243020 
# 
# 
# High freq. dielectric constant tensor:
#      x y z
#    x 1.813340 0.000000 0.005530 
#    y 0.000000 1.731100 0.000000 
#    z 0.005530 0.000000 1.800670 
# 
# From -- ./inp_files/2927.got.cif
#   From: 2010.06.25/outbox.cif.g09.slc.cpg/sg11_2_cif.got.tgz:2927.got - 2010.06.27 23:14:04.
