data_PCOD8074408
_publ_section_title
;
Structure prediction by ZEFSAII (Michael W. Deem and Ramdas Pophale) SiO2 
 PCOD8074408
Probable space group: P 21/M
;
_chemical_formula_sum "Si O2"
_cell_formula_units_Z 32
_cell_length_a 12.177872
_cell_length_b 8.736860
_cell_length_c 15.112548
_cell_angle_alpha 90.000000
_cell_angle_beta 93.825232
_cell_angle_gamma 90.000000
_cell_volume 1604.337992
_symmetry_space_group_name_H-M "P 21/M"
_symmetry_group_IT_number 11
_symmetry_cell_setting 'monoclinic'
loop_
_space_group_symop_operation_xyz
x,y,z
-x,1/2+y,-z
-x,-y,-z
x,1/2-y,z
loop_
_atom_site_type_symbol
_atom_site_label
_atom_site_fract_x
_atom_site_fract_y
_atom_site_fract_z
Si Si1 0.915558 0.426333 0.743874
Si Si2 0.091706 0.068750 0.068153
Si Si3 0.264425 0.073508 0.555416
Si Si4 0.330244 0.430964 0.019885
Si Si5 0.951535 0.069866 0.408093
Si Si6 0.452061 0.570423 0.870670
Si Si7 0.700316 0.425664 0.626674
Si Si8 0.467818 0.072788 0.686648
O O1 0.947303 0.250000 0.760510
O O2 0.935558 0.518568 0.834227
O O3 0.788887 0.443931 0.708933
O O4 0.993146 0.495075 0.673458
O O5 0.087532 0.250000 0.061436
O O6 0.212476 0.005881 0.046692
O O7 0.000000 0.000000 0.000000
O O8 0.229598 0.250000 0.562950
O O9 0.383421 0.041536 0.602961
O O10 0.177561 0.968905 0.602972
O O11 0.265056 0.031563 0.452546
O O12 0.326955 0.250000 0.014122
O O13 0.426796 0.486783 0.091739
O O14 0.355921 0.495088 0.923942
O O15 0.971572 0.250000 0.408740
O O16 0.000000 0.000000 0.500000
O O17 0.441557 0.750000 0.881017
O O18 0.431232 0.523902 0.769010
O O19 0.692028 0.250000 0.593445
O O20 0.585536 0.485488 0.659195
O O21 0.472337 0.250000 0.714236
#
# Coordination Sequence:
#
# PCOD8074408 Si02
#       8
#     4   4   4   4   4   4   4   4
#     4  11  23  40  65  94 122 158 203 251 306 364
#     4  11  24  42  63  89 123 161 202 251 306 364
#     4  11  23  38  59  86 120 161 201 245 300 357
#     4   9  20  39  61  85 117 154 193 242 299 356
#     4  12  24  41  64  89 120 157 204 255 304 358
#     4  10  20  35  60  90 115 150 197 244 296 356
#     4  10  21  38  61  87 119 157 200 248 298 357
#     4  10  22  38  56  85 123 160 196 240 299 359
#
# _framework density 19.945921999999999
#
# number of rings (size 3 to 8) (size 9 to 14) (size 15 to 20)
#    0.000    1.500    1.250    3.750    0.000    4.500 
#    0.000    1.250    0.000    0.000    0.000    0.000 
#    0.000    0.000    0.000    0.000    0.000    0.000 
#
# Total GULP energy -396984.176921 kJ/mol
# GULP energy per Si atom -12405.755529 kJ/mol
# Density = 1.990052 g / cm^3
# Si number density = 19.945922 Si / 1000 Ang^3
#
#
#
# Elastic Constant Matrix: (Units=GPa)
#
#
# Indices 1 2 3 4 5 6 
#
# 1 102.0765 30.5903 53.4280 0.0000 -12.9160 0.0000
# 2 30.5903 49.7393 23.5081 0.0000 1.4936 0.0000
# 3 53.4280 23.5081 117.2455 0.0000 -7.5758 0.0000
# 4 0.0000 0.0000 0.0000 29.8758 0.0000 -0.3609
# 5 -12.9160 1.4936 -7.5758 0.0000 31.7442 0.0000
# 6 0.0000 0.0000 0.0000 -0.3609 0.0000 29.5423
#
#
#
# Elastic Compliance Matrix: (Units=1/GPa)
#
#
# Indices 1 2 3 4 5 6 
#
# 1 0.015337 -0.007128 -0.005215 0.000000 0.005331 0.000000
# 2 -0.007128 0.025666 -0.002197 0.000000 -0.004632 0.000000
# 3 -0.005215 -0.002197 0.011392 0.000000 0.000700 0.000000
# 4 0.000000 0.000000 0.000000 0.033477 0.000000 0.000409
# 5 0.005331 -0.004632 0.000700 0.000000 0.034056 0.000000
# 6 0.000000 0.000000 0.000000 0.000409 0.000000 0.033855
#
#
# Mechanical properties :
#
#
# Convention : Reuss Voigt Hill
#
# Bulk Modulus (GPa) = 42.89314 53.79045 48.34179
# Shear Modulus (GPa) = 26.22830 29.00146 27.61488
#
# Velocity S-wave (km/s) = 3.63019 3.81728 3.72491
# Velocity P-wave (km/s) = 6.25479 6.81583 6.54133
#
# Compressibility (1/GPa) = 0.02331375
#
# Stress axis : x y z
#
# Youngs Moduli (GPa) = 65.20240 38.96202 87.78452
#
# Poissons Ratio (x) = 0.27770 0.45783
# Poissons Ratio (y) = 0.46473 0.19290
# Poissons Ratio (z) = 0.34005 0.08562
#
# Static dielectric constant tensor:
#      x y z
#    x 3.909560 0.000000 -0.069870 
#    y 0.000000 3.681130 0.000000 
#    z -0.069870 0.000000 3.555310 
# 
# 
# High freq. dielectric constant tensor:
#      x y z
#    x 1.787550 0.000000 -0.005310 
#    y 0.000000 1.780610 0.000000 
#    z -0.005310 0.000000 1.779870 
# 
# From -- ./inp_files/49349.got.cif
#   From: 2010.06.25/outbox.cif.g09.slc.cpg/sg11_25_cif.got.tgz:49349.got - 2010.06.27 23:14:04.
