data_PCOD8074213
_publ_section_title
;
Structure prediction by ZEFSAII (Michael W. Deem and Ramdas Pophale) SiO2 
 PCOD8074213
Probable space group: P 21/M
;
_chemical_formula_sum "Si O2"
_cell_formula_units_Z 32
_cell_length_a 21.227575
_cell_length_b 14.090718
_cell_length_c 17.777392
_cell_angle_alpha 90.000000
_cell_angle_beta 161.738009
_cell_angle_gamma 90.000000
_cell_volume 1666.282587
_symmetry_space_group_name_H-M "P 21/M"
_symmetry_group_IT_number 11
_symmetry_cell_setting 'monoclinic'
loop_
_space_group_symop_operation_xyz
x,y,z
-x,1/2+y,-z
-x,-y,-z
x,1/2-y,z
loop_
_atom_site_type_symbol
_atom_site_label
_atom_site_fract_x
_atom_site_fract_y
_atom_site_fract_z
Si Si1 0.455844 0.858999 0.898491
Si Si2 0.387974 0.957074 0.228948
Si Si3 0.802229 0.358501 0.852384
Si Si4 0.789504 0.144441 0.523733
Si Si5 0.822581 0.981607 0.356249
Si Si6 0.778022 0.639010 0.602955
Si Si7 0.974214 0.541067 0.690415
Si Si8 0.599896 0.357480 0.468379
O O1 0.449043 0.750000 0.919020
O O2 0.400914 0.866092 0.748037
O O3 0.297764 0.920135 0.768109
O O4 0.678508 0.900675 0.159497
O O5 0.348215 0.920750 0.267988
O O6 0.587102 0.911499 0.421529
O O7 0.412704 0.070947 0.261771
O O8 0.203099 0.927789 0.965277
O O9 0.764260 0.250000 0.832662
O O10 0.756534 0.376573 0.713332
O O11 0.033448 0.385921 0.129718
O O12 0.882031 0.250000 0.622580
O O13 0.719754 0.121728 0.528382
O O14 0.961106 0.070617 0.695234
O O15 0.916989 0.940081 0.539691
O O16 0.000000 0.000000 0.500000
O O17 0.734764 0.750000 0.549125
O O18 0.819198 0.600613 0.565739
O O19 0.515325 0.250000 0.374838
#
# Coordination Sequence:
#
# PCOD8074213 Si02
#       8
#     4   4   4   4   4   4   4   4
#     4   9  20  39  61  84 115 151 188 231 283 341
#     4  11  21  35  59  83 114 150 189 227 285 333
#     4   9  20  38  55  81 115 146 188 236 278 329
#     4   9  18  37  60  81 111 150 183 224 282 336
#     4  10  22  37  60  87 117 148 187 234 287 338
#     4  10  21  39  59  77 108 154 191 232 281 326
#     4  10  22  38  56  84 115 145 185 232 276 338
#     4  10  20  35  57  84 113 145 188 235 277 330
#
# _framework density 19.204426000000002
#
# number of rings (size 3 to 8) (size 9 to 14) (size 15 to 20)
#    0.000    2.250    1.250    0.750    1.750    3.500 
#    2.250    0.000    0.000    0.000    0.000    0.000 
#    0.000    0.000    0.000    0.000    0.000    0.000 
#
# Total GULP energy -396853.623528 kJ/mol
# GULP energy per Si atom -12401.675735 kJ/mol
# Density = 1.916072 g / cm^3
# Si number density = 19.204426 Si / 1000 Ang^3
#
#
#
# Elastic Constant Matrix: (Units=GPa)
#
#
# Indices 1 2 3 4 5 6 
#
# 1 129.3732 44.7038 66.4838 0.0000 -2.4621 0.0000
# 2 44.7038 97.7090 41.1651 0.0000 7.0390 0.0000
# 3 66.4838 41.1651 100.7174 0.0000 9.4160 0.0000
# 4 0.0000 0.0000 0.0000 29.2375 0.0000 -2.2042
# 5 -2.4621 7.0390 9.4160 0.0000 31.7663 0.0000
# 6 0.0000 0.0000 0.0000 -2.2042 0.0000 27.2142
#
#
#
# Elastic Compliance Matrix: (Units=1/GPa)
#
#
# Indices 1 2 3 4 5 6 
#
# 1 0.012685 -0.002902 -0.007549 0.000000 0.003864 0.000000
# 2 -0.002902 0.013078 -0.003227 0.000000 -0.002166 0.000000
# 3 -0.007549 -0.003227 0.016681 0.000000 -0.004814 0.000000
# 4 0.000000 0.000000 0.000000 0.034413 0.000000 0.002787
# 5 0.003864 -0.002166 -0.004814 0.000000 0.033686 0.000000
# 6 0.000000 0.000000 0.000000 0.002787 0.000000 0.036971
#
#
# Mechanical properties :
#
#
# Convention : Reuss Voigt Hill
#
# Bulk Modulus (GPa) = 66.27591 70.27833 68.27712
# Shear Modulus (GPa) = 27.79349 29.34004 28.56677
#
# Velocity S-wave (km/s) = 3.80839 3.91292 3.86101
# Velocity P-wave (km/s) = 7.34331 7.55572 7.45027
#
# Compressibility (1/GPa) = 0.01508844
#
# Stress axis : x y z
#
# Youngs Moduli (GPa) = 78.83382 76.46578 59.94954
#
# Poissons Ratio (x) = 0.22188 0.45253
# Poissons Ratio (y) = 0.22875 0.19347
# Poissons Ratio (z) = 0.59508 0.24677
#
# Static dielectric constant tensor:
#      x y z
#    x 3.450390 0.000000 -0.204340 
#    y 0.000000 3.774810 0.000000 
#    z -0.204340 0.000000 3.458670 
# 
# 
# High freq. dielectric constant tensor:
#      x y z
#    x 1.743710 0.000000 -0.011580 
#    y 0.000000 1.758530 0.000000 
#    z -0.011580 0.000000 1.741390 
# 
# From -- ./inp_files/61615.got.cif
#   From: 2010.06.25/outbox.cif.g09.slc.cpg/sg11_31_cif.got.tgz:61615.got - 2010.06.27 23:14:04.
