data_PCOD8074912
_publ_section_title
;
Structure prediction by ZEFSAII (Michael W. Deem and Ramdas Pophale) SiO2 
 PCOD8074912
Probable space group: P 21/M
;
_chemical_formula_sum "Si O2"
_cell_formula_units_Z 32
_cell_length_a 24.058134
_cell_length_b 9.175957
_cell_length_c 24.109159
_cell_angle_alpha 90.000000
_cell_angle_beta 18.123713
_cell_angle_gamma 90.000000
_cell_volume 1655.591585
_symmetry_space_group_name_H-M "P 21/M"
_symmetry_group_IT_number 11
_symmetry_cell_setting 'monoclinic'
loop_
_space_group_symop_operation_xyz
x,y,z
-x,1/2+y,-z
-x,-y,-z
x,1/2-y,z
loop_
_atom_site_type_symbol
_atom_site_label
_atom_site_fract_x
_atom_site_fract_y
_atom_site_fract_z
Si Si1 0.514772 0.411267 0.929961
Si Si2 0.118815 0.918671 0.129704
Si Si3 0.940784 0.921228 0.926869
Si Si4 0.277135 0.419596 0.659045
Si Si5 0.626994 0.582231 0.307235
Si Si6 0.461952 0.581266 0.874435
Si Si7 0.133159 0.418449 0.530300
Si Si8 0.072473 0.588781 0.482779
O O1 0.431363 0.250000 0.017203
O O2 0.413492 0.492997 0.976161
O O3 0.717762 0.398303 0.720485
O O4 0.500000 0.500000 0.000000
O O5 0.110228 0.750000 0.119444
O O6 0.960525 0.954711 0.322847
O O7 0.089169 0.023494 0.106455
O O8 0.312824 0.956856 0.970545
O O9 0.978302 0.750000 0.890852
O O10 0.766010 0.960357 0.127951
O O11 0.107583 0.999933 0.795740
O O12 0.263513 0.250000 0.657589
O O13 0.454611 0.481804 0.461694
O O14 0.281566 0.449714 0.720410
O O15 0.566636 0.750000 0.360715
O O16 0.453473 0.750000 0.899192
O O17 0.656711 0.540312 0.664882
O O18 0.109025 0.250000 0.537537
O O19 0.028782 0.507408 0.581652
O O20 0.985003 0.750000 0.566348
O O21 0.000000 0.500000 0.500000
#
# Coordination Sequence:
#
# PCOD8074912 Si02
#       8
#     4   4   4   4   4   4   4   4
#     4  10  21  35  53  79 108 137 172 216 271 333
#     4  10  22  38  57  81 109 147 195 237 281 341
#     4  11  23  38  57  85 121 157 197 243 291 346
#     4  10  20  36  61  89 119 157 199 244 294 346
#     4   9  20  38  59  87 122 159 197 241 295 348
#     4   9  19  37  57  76 104 140 179 228 280 328
#     4   9  19  37  57  77 106 141 179 228 281 331
#     4  10  21  35  53  79 108 138 174 218 272 333
#
# _framework density 19.328440000000001
#
# number of rings (size 3 to 8) (size 9 to 14) (size 15 to 20)
#    0.000    2.250    0.000    1.875    1.750    5.000 
#    0.000    1.250    0.000    0.000    0.000    0.000 
#    0.000    0.000    0.000    0.000    0.000    0.000 
#
# Total GULP energy -396858.802962 kJ/mol
# GULP energy per Si atom -12401.837593 kJ/mol
# Density = 1.928445 g / cm^3
# Si number density = 19.328440 Si / 1000 Ang^3
#
#
#
# Elastic Constant Matrix: (Units=GPa)
#
#
# Indices 1 2 3 4 5 6 
#
# 1 246.8054 134.6760 135.4684 0.0000 -49.0388 0.0000
# 2 134.6760 154.0604 95.3148 0.0000 -21.8196 0.0000
# 3 135.4684 95.3148 142.7258 0.0000 -22.4830 0.0000
# 4 0.0000 0.0000 0.0000 32.1084 0.0000 0.1362
# 5 -49.0388 -21.8196 -22.4830 0.0000 52.0463 0.0000
# 6 0.0000 0.0000 0.0000 0.1362 0.0000 39.7770
#
#
#
# Elastic Compliance Matrix: (Units=1/GPa)
#
#
# Indices 1 2 3 4 5 6 
#
# 1 0.011872 -0.005351 -0.006745 0.000000 0.006029 0.000000
# 2 -0.005351 0.013591 -0.004178 0.000000 -0.001149 0.000000
# 3 -0.006745 -0.004178 0.016011 0.000000 -0.001190 0.000000
# 4 0.000000 0.000000 0.000000 0.031145 0.000000 -0.000107
# 5 0.006029 -0.001149 -0.001190 0.000000 0.023898 0.000000
# 6 0.000000 0.000000 0.000000 -0.000107 0.000000 0.025141
#
#
# Mechanical properties :
#
#
# Convention : Reuss Voigt Hill
#
# Bulk Modulus (GPa) = 112.03951 141.61222 126.82586
# Shear Modulus (GPa) = 31.81025 36.66183 34.23604
#
# Velocity S-wave (km/s) = 4.06122 4.35993 4.21322
# Velocity P-wave (km/s) = 8.94893 9.93834 9.45658
#
# Compressibility (1/GPa) = 0.00892542
#
# Stress axis : x y z
#
# Youngs Moduli (GPa) = 84.23215 73.57660 62.45663
#
# Poissons Ratio (x) = 0.39374 0.42126
# Poissons Ratio (y) = 0.45076 0.26096
# Poissons Ratio (z) = 0.56813 0.30742
#
# Static dielectric constant tensor:
#      x y z
#    x 3.274290 0.000000 -0.009520 
#    y 0.000000 3.793030 0.000000 
#    z -0.009520 0.000000 3.607260 
# 
# 
# High freq. dielectric constant tensor:
#      x y z
#    x 1.747650 0.000000 -0.001410 
#    y 0.000000 1.758880 0.000000 
#    z -0.001410 0.000000 1.758280 
# 
# From -- ./inp_files/69984.got.cif
#   From: 2010.06.25/outbox.cif.g09.slc.cpg/sg11_35_cif.got.tgz:69984.got - 2010.06.27 23:14:04.
