data_PCOD8074383
_publ_section_title
;
Structure prediction by ZEFSAII (Michael W. Deem and Ramdas Pophale) SiO2 
 PCOD8074383
Probable space group: P 21/M
;
_chemical_formula_sum "Si O2"
_cell_formula_units_Z 32
_cell_length_a 19.907241
_cell_length_b 14.373120
_cell_length_c 13.074500
_cell_angle_alpha 90.000000
_cell_angle_beta 153.758075
_cell_angle_gamma 90.000000
_cell_volume 1654.127229
_symmetry_space_group_name_H-M "P 21/M"
_symmetry_group_IT_number 11
_symmetry_cell_setting 'monoclinic'
loop_
_space_group_symop_operation_xyz
x,y,z
-x,1/2+y,-z
-x,-y,-z
x,1/2-y,z
loop_
_atom_site_type_symbol
_atom_site_label
_atom_site_fract_x
_atom_site_fract_y
_atom_site_fract_z
Si Si1 0.729703 0.484249 0.850597
Si Si2 0.564047 0.080559 0.021164
Si Si3 0.144902 0.853780 0.463695
Si Si4 0.010053 0.143561 0.537462
Si Si5 0.769670 0.011278 0.136756
Si Si6 0.448829 0.140175 0.501298
Si Si7 0.957392 0.987041 0.824196
Si Si8 0.325645 0.352413 0.553149
O O1 0.684915 0.579549 0.732006
O O2 0.608871 0.399604 0.676234
O O3 0.734329 0.514363 0.973590
O O4 0.893000 0.450241 0.031081
O O5 0.689998 0.133760 0.259198
O O6 0.619704 0.029087 0.995174
O O7 0.430259 0.147367 0.797943
O O8 0.500000 0.000000 0.000000
O O9 0.137060 0.750000 0.408452
O O10 0.022178 0.868360 0.385692
O O11 0.105906 0.919356 0.315188
O O12 0.042285 0.250000 0.550773
O O13 0.869712 0.105735 0.279061
O O14 0.151517 0.078252 0.702735
O O15 0.436299 0.250000 0.455694
O O16 0.429926 0.123083 0.596833
O O17 0.820219 0.915709 0.629314
O O18 0.000000 0.000000 0.000000
O O19 0.258462 0.250000 0.446579
#
# Coordination Sequence:
#
# PCOD8074383 Si02
#       8
#     4   4   4   4   4   4   4   4
#     4  11  22  40  65  89 125 161 206 257 310 363
#     4  11  21  39  65  86 123 163 207 257 310 367
#     4  10  21  38  63  90 118 163 211 250 302 372
#     4   9  19  35  58  89 119 151 197 248 303 365
#     4  10  20  35  59  89 117 156 200 250 304 360
#     4  10  23  42  65  90 119 165 214 253 304 373
#     4  12  24  40  63  95 131 165 203 260 316 368
#     4  11  23  41  65  92 124 167 212 257 313 375
#
# _framework density 19.345548999999998
#
# number of rings (size 3 to 8) (size 9 to 14) (size 15 to 20)
#    0.000    1.500    5.000    0.375    0.000    3.000 
#    0.000    2.500    0.000    0.000    0.000    0.000 
#    0.000    0.000    0.000    0.000    0.000    0.000 
#
# Total GULP energy -396650.944000 kJ/mol
# GULP energy per Si atom -12395.342000 kJ/mol
# Density = 1.930152 g / cm^3
# Si number density = 19.345549 Si / 1000 Ang^3
#
#
#
# Elastic Constant Matrix: (Units=GPa)
#
#
# Indices 1 2 3 4 5 6 
#
# 1 71.5101 35.6805 40.9631 0.0000 -0.3739 0.0000
# 2 35.6805 135.8189 43.5053 0.0000 2.6412 0.0000
# 3 40.9631 43.5053 101.0153 0.0000 -3.7238 0.0000
# 4 0.0000 0.0000 0.0000 15.1095 0.0000 -2.2776
# 5 -0.3739 2.6412 -3.7238 0.0000 41.0347 0.0000
# 6 0.0000 0.0000 0.0000 -2.2776 0.0000 28.7281
#
#
#
# Elastic Compliance Matrix: (Units=1/GPa)
#
#
# Indices 1 2 3 4 5 6 
#
# 1 0.019189 -0.002948 -0.006520 0.000000 -0.000227 0.000000
# 2 -0.002948 0.009026 -0.002723 0.000000 -0.000855 0.000000
# 3 -0.006520 -0.002723 0.013767 0.000000 0.001365 0.000000
# 4 0.000000 0.000000 0.000000 0.066984 0.000000 0.005311
# 5 -0.000227 -0.000855 0.001365 0.000000 0.024546 0.000000
# 6 0.000000 0.000000 0.000000 0.005311 0.000000 0.035230
#
#
# Mechanical properties :
#
#
# Convention : Reuss Voigt Hill
#
# Bulk Modulus (GPa) = 56.82277 60.96023 58.89150
# Shear Modulus (GPa) = 25.12674 29.52085 27.32379
#
# Velocity S-wave (km/s) = 3.60785 3.91061 3.76228
# Velocity P-wave (km/s) = 6.84045 7.20903 7.02716
#
# Compressibility (1/GPa) = 0.01759858
#
# Stress axis : x y z
#
# Youngs Moduli (GPa) = 52.11410 110.78837 72.63920
#
# Poissons Ratio (x) = 0.32662 0.47360
# Poissons Ratio (y) = 0.15364 0.19783
# Poissons Ratio (z) = 0.33978 0.30172
#
# Static dielectric constant tensor:
#      x y z
#    x 3.426510 0.000000 0.078520 
#    y 0.000000 3.433540 0.000000 
#    z 0.078520 0.000000 3.068770 
# 
# 
# High freq. dielectric constant tensor:
#      x y z
#    x 1.746360 0.000000 -0.001350 
#    y 0.000000 1.749500 0.000000 
#    z -0.001350 0.000000 1.762760 
# 
# From -- ./inp_files/41715.got.cif
#   From: 2010.06.25/outbox.cif.g09.slc.cpg/sg11_21_cif.got.tgz:41715.got - 2010.06.27 23:14:04.
