data_PCOD8074781
_publ_section_title
;
Structure prediction by ZEFSAII (Michael W. Deem and Ramdas Pophale) SiO2 
 PCOD8074781
Probable space group: P 21/M
;
_chemical_formula_sum "Si O2"
_cell_formula_units_Z 32
_cell_length_a 15.111623
_cell_length_b 8.916752
_cell_length_c 22.657654
_cell_angle_alpha 90.000000
_cell_angle_beta 148.125726
_cell_angle_gamma 90.000000
_cell_volume 1612.180326
_symmetry_space_group_name_H-M "P 21/M"
_symmetry_group_IT_number 11
_symmetry_cell_setting 'monoclinic'
loop_
_space_group_symop_operation_xyz
x,y,z
-x,1/2+y,-z
-x,-y,-z
x,1/2-y,z
loop_
_atom_site_type_symbol
_atom_site_label
_atom_site_fract_x
_atom_site_fract_y
_atom_site_fract_z
Si Si1 0.050808 0.071686 0.157920
Si Si2 0.164245 0.922270 0.569651
Si Si3 0.002762 0.072327 0.262325
Si Si4 0.654182 0.072101 0.121275
Si Si5 0.628647 0.927662 0.730500
Si Si6 0.405303 0.421451 0.790090
Si Si7 0.738988 0.421416 0.507334
Si Si8 0.267932 0.921080 0.091195
O O1 0.041015 0.250000 0.154403
O O2 0.020649 0.006988 0.206289
O O3 0.230083 0.016178 0.235262
O O4 0.907208 0.012416 0.032118
O O5 0.171534 0.750000 0.594665
O O6 0.164058 0.934546 0.499339
O O7 0.321788 0.011946 0.684182
O O8 0.000000 0.000000 0.500000
O O9 0.006718 0.250000 0.264649
O O10 0.827836 0.014921 0.190808
O O11 0.162237 0.017375 0.389099
O O12 0.638262 0.250000 0.108308
O O13 0.651107 0.020752 0.186927
O O14 0.500000 0.000000 0.000000
O O15 0.621439 0.750000 0.730766
O O16 0.449214 0.987605 0.606078
O O17 0.668901 0.983067 0.818516
O O18 0.347638 0.250000 0.767893
O O19 0.603990 0.430127 0.891508
O O20 0.732744 0.250000 0.525417
O O21 0.248761 0.750000 0.101788
#
# Coordination Sequence:
#
# PCOD8074781 Si02
#       8
#     4   4   4   4   4   4   4   4
#     4   9  19  37  60  84 113 151 192 238 294 349
#     4  11  22  37  56  81 114 150 192 239 291 349
#     4  10  22  40  60  83 114 154 198 239 285 347
#     4  11  23  39  60  86 118 156 198 243 292 348
#     4  10  20  37  60  85 116 152 189 237 297 350
#     4  11  22  36  57  85 117 152 192 238 290 347
#     4  10  22  38  56  82 118 152 188 241 293 342
#     4  10  20  36  59  87 118 150 190 241 293 352
#
# _framework density 19.848896
#
# number of rings (size 3 to 8) (size 9 to 14) (size 15 to 20)
#    0.000    1.750    1.250    3.000    0.000    7.500 
#    0.000    1.250    0.000    0.000    0.000    0.000 
#    0.000    0.000    0.000    0.000    0.000    0.000 
#
# Total GULP energy -396883.142343 kJ/mol
# GULP energy per Si atom -12402.598198 kJ/mol
# Density = 1.980372 g / cm^3
# Si number density = 19.848896 Si / 1000 Ang^3
#
#
#
# Elastic Constant Matrix: (Units=GPa)
#
#
# Indices 1 2 3 4 5 6 
#
# 1 120.4399 26.5035 57.8759 0.0000 8.7912 0.0000
# 2 26.5035 46.6946 29.4826 0.0000 5.2070 0.0000
# 3 57.8759 29.4826 152.7188 0.0000 8.2501 0.0000
# 4 0.0000 0.0000 0.0000 34.6256 0.0000 -4.8096
# 5 8.7912 5.2070 8.2501 0.0000 36.7889 0.0000
# 6 0.0000 0.0000 0.0000 -4.8096 0.0000 24.8030
#
#
#
# Elastic Compliance Matrix: (Units=1/GPa)
#
#
# Indices 1 2 3 4 5 6 
#
# 1 0.010839 -0.003938 -0.003277 0.000000 -0.001298 0.000000
# 2 -0.003938 0.026035 -0.003427 0.000000 -0.001975 0.000000
# 3 -0.003277 -0.003427 0.008486 0.000000 -0.000635 0.000000
# 4 0.000000 0.000000 0.000000 0.029680 0.000000 0.005755
# 5 -0.001298 -0.001975 -0.000635 0.000000 0.027914 0.000000
# 6 0.000000 0.000000 0.000000 0.005755 0.000000 0.041434
#
#
# Mechanical properties :
#
#
# Convention : Reuss Voigt Hill
#
# Bulk Modulus (GPa) = 41.53664 60.84189 51.18927
# Shear Modulus (GPa) = 28.78564 32.97625 30.88095
#
# Velocity S-wave (km/s) = 3.81233 4.08041 3.94864
# Velocity P-wave (km/s) = 6.35219 7.27452 6.82895
#
# Compressibility (1/GPa) = 0.02407513
#
# Stress axis : x y z
#
# Youngs Moduli (GPa) = 92.25836 38.40977 117.84317
#
# Poissons Ratio (x) = 0.15127 0.38621
# Poissons Ratio (y) = 0.36333 0.40384
# Poissons Ratio (z) = 0.30236 0.13163
#
# Static dielectric constant tensor:
#      x y z
#    x 3.781750 0.000000 0.139910 
#    y 0.000000 3.478530 0.000000 
#    z 0.139910 0.000000 3.825260 
# 
# 
# High freq. dielectric constant tensor:
#      x y z
#    x 1.781450 0.000000 0.006900 
#    y 0.000000 1.756800 0.000000 
#    z 0.006900 0.000000 1.787280 
# 
# From -- ./inp_files/69097.got.cif
#   From: 2010.06.25/outbox.cif.g09.slc.cpg/sg11_35_cif.got.tgz:69097.got - 2010.06.27 23:14:04.
