data_PCOD8074314
_publ_section_title
;
Structure prediction by ZEFSAII (Michael W. Deem and Ramdas Pophale) SiO2 
 PCOD8074314
Probable space group: P 21/M
;
_chemical_formula_sum "Si O2"
_cell_formula_units_Z 32
_cell_length_a 13.713918
_cell_length_b 13.609270
_cell_length_c 9.042694
_cell_angle_alpha 90.000000
_cell_angle_beta 89.567042
_cell_angle_gamma 90.000000
_cell_volume 1687.647786
_symmetry_space_group_name_H-M "P 21/M"
_symmetry_group_IT_number 11
_symmetry_cell_setting 'monoclinic'
loop_
_space_group_symop_operation_xyz
x,y,z
-x,1/2+y,-z
-x,-y,-z
x,1/2-y,z
loop_
_atom_site_type_symbol
_atom_site_label
_atom_site_fract_x
_atom_site_fract_y
_atom_site_fract_z
Si Si1 0.674457 0.136508 0.029622
Si Si2 0.803630 0.864672 0.109954
Si Si3 0.643661 0.521510 0.273903
Si Si4 0.453323 0.859630 0.247881
Si Si5 0.812401 0.001621 0.855890
Si Si6 0.078823 0.638330 0.533781
Si Si7 0.981335 0.533659 0.267396
Si Si8 0.279997 0.563690 0.431018
O O1 0.693932 0.250000 0.069437
O O2 0.583988 0.124486 0.918856
O O3 0.771185 0.093464 0.950973
O O4 0.649851 0.079120 0.180536
O O5 0.819651 0.750000 0.111818
O O6 0.707650 0.892124 0.202671
O O7 0.897191 0.917096 0.175213
O O8 0.789981 0.900510 0.941474
O O9 0.532915 0.558137 0.282021
O O10 0.680447 0.504182 0.438910
O O11 0.496737 0.750000 0.264292
O O12 0.365366 0.868576 0.365758
O O13 0.927368 0.017754 0.840415
O O14 0.761007 0.991955 0.696934
O O15 0.053516 0.750000 0.575631
O O16 0.008243 0.604562 0.402634
O O17 0.192005 0.632443 0.486695
O O18 0.058147 0.571356 0.676304
#
# Coordination Sequence:
#
# PCOD8074314 Si02
#       8
#     4   4   4   4   4   4   4   4
#     4   9  20  37  59  85 112 144 190 237 284 334
#     4  11  22  38  56  80 113 154 191 229 285 346
#     4  11  21  37  57  86 114 151 182 237 284 340
#     4  10  20  36  58  83 112 150 188 230 283 343
#     4   9  21  38  58  80 114 148 188 236 284 332
#     4  10  20  35  58  86 116 150 188 236 289 337
#     4  10  20  37  56  84 116 148 191 237 284 336
#     4  10  20  38  58  82 116 145 189 240 286 328
#
# _framework density 18.961300999999999
#
# number of rings (size 3 to 8) (size 9 to 14) (size 15 to 20)
#    0.000    2.000    1.250    2.250    0.000    5.000 
#    0.000    1.250    0.000    0.000    0.000    0.000 
#    0.000    0.000    0.000    0.000    0.000    0.000 
#
# Total GULP energy -396896.345994 kJ/mol
# GULP energy per Si atom -12403.010812 kJ/mol
# Density = 1.891814 g / cm^3
# Si number density = 18.961301 Si / 1000 Ang^3
#
#
#
# Elastic Constant Matrix: (Units=GPa)
#
#
# Indices 1 2 3 4 5 6 
#
# 1 101.0159 45.9236 38.2484 0.0000 -5.8180 0.0000
# 2 45.9236 136.4392 61.1845 0.0000 -3.1885 0.0000
# 3 38.2484 61.1845 68.9683 0.0000 10.1938 0.0000
# 4 0.0000 0.0000 0.0000 11.4349 0.0000 2.9659
# 5 -5.8180 -3.1885 10.1938 0.0000 21.7102 0.0000
# 6 0.0000 0.0000 0.0000 2.9659 0.0000 22.0786
#
#
#
# Elastic Compliance Matrix: (Units=1/GPa)
#
#
# Indices 1 2 3 4 5 6 
#
# 1 0.013708 -0.000925 -0.007849 0.000000 0.007223 0.000000
# 2 -0.000925 0.013440 -0.012535 0.000000 0.007611 0.000000
# 3 -0.007849 -0.012535 0.032834 0.000000 -0.019361 0.000000
# 4 0.000000 0.000000 0.000000 0.090609 0.000000 -0.012172
# 5 0.007223 0.007611 -0.019361 0.000000 0.058206 0.000000
# 6 0.000000 0.000000 0.000000 -0.012172 0.000000 0.046928
#
#
# Mechanical properties :
#
#
# Convention : Reuss Voigt Hill
#
# Bulk Modulus (GPa) = 57.59105 66.34851 61.96978
# Shear Modulus (GPa) = 16.44040 21.78252 19.11146
#
# Velocity S-wave (km/s) = 2.94777 3.39305 3.17822
# Velocity P-wave (km/s) = 6.48264 7.10056 6.79862
#
# Compressibility (1/GPa) = 0.01736381
#
# Stress axis : x y z
#
# Youngs Moduli (GPa) = 72.95012 74.40687 30.45646
#
# Poissons Ratio (x) = 0.06886 0.23905
# Poissons Ratio (y) = 0.06751 0.38176
# Poissons Ratio (z) = 0.57257 0.93266
#
# Static dielectric constant tensor:
#      x y z
#    x 3.523510 0.000000 -0.018440 
#    y 0.000000 3.312910 0.000000 
#    z -0.018440 0.000000 3.577340 
# 
# 
# High freq. dielectric constant tensor:
#      x y z
#    x 1.745060 0.000000 -0.000120 
#    y 0.000000 1.724880 0.000000 
#    z -0.000120 0.000000 1.741750 
# 
# From -- ./inp_files/21526.got.cif
#   From: 2010.06.25/outbox.cif.g09.slc.cpg/sg11_11_cif.got.tgz:21526.got - 2010.06.27 23:14:04.
