data_PCOD8074575
_publ_section_title
;
Structure prediction by ZEFSAII (Michael W. Deem and Ramdas Pophale) SiO2 
 PCOD8074575
Probable space group: P 21/M
;
_chemical_formula_sum "Si O2"
_cell_formula_units_Z 24
_cell_length_a 15.896289
_cell_length_b 8.453842
_cell_length_c 15.812906
_cell_angle_alpha 90.000000
_cell_angle_beta 143.772294
_cell_angle_gamma 90.000000
_cell_volume 1255.873712
_symmetry_space_group_name_H-M "P 21/M"
_symmetry_group_IT_number 11
_symmetry_cell_setting 'monoclinic'
loop_
_space_group_symop_operation_xyz
x,y,z
-x,1/2+y,-z
-x,-y,-z
x,1/2-y,z
loop_
_atom_site_type_symbol
_atom_site_label
_atom_site_fract_x
_atom_site_fract_y
_atom_site_fract_z
Si Si1 0.576200 0.065004 0.643741
Si Si2 0.756742 0.067228 0.019698
Si Si3 0.527593 0.065342 0.271623
Si Si4 0.865893 0.564452 0.940576
Si Si5 0.802859 0.434777 0.391768
Si Si6 0.891491 0.567960 0.292254
O O1 0.605508 0.250000 0.658545
O O2 0.500000 0.000000 0.500000
O O3 0.478454 0.031815 0.646136
O O4 0.725230 0.974710 0.773301
O O5 0.717568 0.250000 0.977395
O O6 0.835067 0.040213 0.171328
O O7 0.610608 0.967998 0.897846
O O8 0.861191 0.016419 0.028684
O O9 0.534948 0.250000 0.299492
O O10 0.667225 0.009088 0.335100
O O11 0.879640 0.750000 0.964829
O O12 0.000000 0.500000 0.000000
O O13 0.796324 0.250000 0.363951
O O14 0.802191 0.531914 0.304254
O O15 0.943302 0.474787 0.559634
O O16 0.871082 0.750000 0.250713
#
# Coordination Sequence:
#
# PCOD8074575 Si02
#       6
#     4   4   4   4   4   4
#     4  11  22  38  58  83 114 148 187 230 277 330
#     4  11  22  37  56  81 112 146 185 226 271 325
#     4  10  20  37  58  81 110 143 182 229 279 329
#     4  11  22  39  60  84 113 146 185 229 279 331
#     4   9  20  37  57  81 109 141 180 226 275 328
#     4  10  20  36  57  81 110 144 182 226 275 326
#
# _framework density 19.110202999999998
#
# number of rings (size 3 to 8) (size 9 to 14) (size 15 to 20)
#    0.000    1.667    0.000    7.500    0.000    4.000 
#    0.000    5.000    0.000    0.000    0.000    0.000 
#    0.000    0.000    0.000    0.000    0.000    0.000 
#
# Total GULP energy -297729.140966 kJ/mol
# GULP energy per Si atom -12405.380874 kJ/mol
# Density = 1.906671 g / cm^3
# Si number density = 19.110203 Si / 1000 Ang^3
#
#
#
# Elastic Constant Matrix: (Units=GPa)
#
#
# Indices 1 2 3 4 5 6 
#
# 1 142.4557 19.6055 67.5925 0.0000 17.6044 0.0000
# 2 19.6055 65.4261 13.8935 0.0000 -4.6803 0.0000
# 3 67.5925 13.8935 100.3207 0.0000 -15.7160 0.0000
# 4 0.0000 0.0000 0.0000 31.8767 0.0000 -3.6302
# 5 17.6044 -4.6803 -15.7160 0.0000 29.9245 0.0000
# 6 0.0000 0.0000 0.0000 -3.6302 0.0000 34.2218
#
#
#
# Elastic Compliance Matrix: (Units=1/GPa)
#
#
# Indices 1 2 3 4 5 6 
#
# 1 0.015296 -0.003098 -0.012381 0.000000 -0.015986 0.000000
# 2 -0.003098 0.016432 0.000545 0.000000 0.004679 0.000000
# 3 -0.012381 0.000545 0.021127 0.000000 0.018465 0.000000
# 4 0.000000 0.000000 0.000000 0.031755 0.000000 0.003368
# 5 -0.015986 0.004679 0.018465 0.000000 0.053251 0.000000
# 6 0.000000 0.000000 0.000000 0.003368 0.000000 0.029578
#
#
# Mechanical properties :
#
#
# Convention : Reuss Voigt Hill
#
# Bulk Modulus (GPa) = 43.50479 56.70951 50.10715
# Shear Modulus (GPa) = 24.39367 33.01200 28.70284
#
# Velocity S-wave (km/s) = 3.57665 4.16077 3.87972
# Velocity P-wave (km/s) = 6.31437 7.26788 6.80784
#
# Compressibility (1/GPa) = 0.02298597
#
# Stress axis : x y z
#
# Youngs Moduli (GPa) = 65.37519 60.85763 47.33186
#
# Poissons Ratio (x) = 0.18854 0.58603
# Poissons Ratio (y) = 0.20253 -0.02578
# Poissons Ratio (z) = 0.80943 -0.03314
#
# Static dielectric constant tensor:
#      x y z
#    x 3.495690 0.000000 0.017260 
#    y 0.000000 3.646310 0.000000 
#    z 0.017260 0.000000 3.441760 
# 
# 
# High freq. dielectric constant tensor:
#      x y z
#    x 1.747230 0.000000 -0.001300 
#    y 0.000000 1.757260 0.000000 
#    z -0.001300 0.000000 1.742040 
# 
# From -- ./inp_files/25931.got.cif
#   From: 2010.06.25/outbox.cif.g09.slc.cpg/sg11_13_cif.got.tgz:25931.got - 2010.06.27 23:14:04.
