data_PCOD8074995
_publ_section_title
;
Structure prediction by ZEFSAII (Michael W. Deem and Ramdas Pophale) SiO2 
 PCOD8074995
Probable space group: P 21/M
;
_chemical_formula_sum "Si O2"
_cell_formula_units_Z 32
_cell_length_a 22.834289
_cell_length_b 14.687104
_cell_length_c 8.719724
_cell_angle_alpha 90.000000
_cell_angle_beta 147.569881
_cell_angle_gamma 90.000000
_cell_volume 1568.232179
_symmetry_space_group_name_H-M "P 21/M"
_symmetry_group_IT_number 11
_symmetry_cell_setting 'monoclinic'
loop_
_space_group_symop_operation_xyz
x,y,z
-x,1/2+y,-z
-x,-y,-z
x,1/2-y,z
loop_
_atom_site_type_symbol
_atom_site_label
_atom_site_fract_x
_atom_site_fract_y
_atom_site_fract_z
Si Si1 0.856379 0.352064 0.542732
Si Si2 0.909783 0.856003 0.919894
Si Si3 0.348454 0.963959 0.955820
Si Si4 0.716003 0.491823 0.853134
Si Si5 0.315741 0.353590 0.717746
Si Si6 0.889757 0.349916 0.254301
Si Si7 0.130656 0.144527 0.832736
Si Si8 0.554720 0.560608 0.249469
O O1 0.826720 0.250000 0.535271
O O2 0.878296 0.350742 0.410962
O O3 0.757336 0.420364 0.361456
O O4 0.969697 0.390170 0.870820
O O5 0.927677 0.750000 0.992880
O O6 0.814184 0.873096 0.586117
O O7 0.875247 0.896545 0.007959
O O8 0.454216 0.905536 0.134041
O O9 0.345857 0.953947 0.133531
O O10 0.360500 0.070680 0.934476
O O11 0.633633 0.501380 0.531092
O O12 0.808479 0.421810 0.998187
O O13 0.773499 0.586086 0.034697
O O14 0.334886 0.250000 0.820277
O O15 0.376115 0.360975 0.684439
O O16 0.859908 0.250000 0.123710
O O17 0.015850 0.372539 0.491728
O O18 0.164913 0.250000 0.901080
O O19 0.500000 0.500000 0.000000
#
# Coordination Sequence:
#
# PCOD8074995 Si02
#       8
#     4   4   4   4   4   4   4   4
#     4   8  15  30  52  78 110 143 178 221 271 328
#     4   8  14  28  52  79 104 139 184 221 259 323
#     4  10  22  35  52  83 112 140 179 233 284 326
#     4  11  19  33  57  81 109 145 182 229 288 325
#     4  10  20  37  57  78 107 145 184 229 279 330
#     4   8  16  30  50  80 114 143 177 222 272 333
#     4   9  16  28  51  84 112 139 181 223 267 334
#     4  10  22  39  55  75 105 147 195 234 264 321
#
# _framework density 20.405141
#
# number of rings (size 3 to 8) (size 9 to 14) (size 15 to 20)
#    0.000    2.750    1.250    2.250    0.000    1.500 
#    0.000    2.500    0.000    5.250    0.000    0.000 
#    0.000    0.000    0.000    0.000    0.000    0.000 
#
# Total GULP energy -396501.145857 kJ/mol
# GULP energy per Si atom -12390.660808 kJ/mol
# Density = 2.035870 g / cm^3
# Si number density = 20.405141 Si / 1000 Ang^3
#
#
#
# Elastic Constant Matrix: (Units=GPa)
#
#
# Indices 1 2 3 4 5 6 
#
# 1 47.0773 16.2534 29.2973 0.0000 12.4890 0.0000
# 2 16.2534 75.0471 34.5611 0.0000 10.9009 0.0000
# 3 29.2973 34.5611 103.6079 0.0000 20.6849 0.0000
# 4 0.0000 0.0000 0.0000 19.8824 0.0000 1.0402
# 5 12.4890 10.9009 20.6849 0.0000 27.7638 0.0000
# 6 0.0000 0.0000 0.0000 1.0402 0.0000 19.8930
#
#
#
# Elastic Compliance Matrix: (Units=1/GPa)
#
#
# Indices 1 2 3 4 5 6 
#
# 1 0.027419 -0.002337 -0.005515 0.000000 -0.007308 0.000000
# 2 -0.002337 0.016112 -0.004300 0.000000 -0.002071 0.000000
# 3 -0.005515 -0.004300 0.013877 0.000000 -0.006170 0.000000
# 4 0.000000 0.000000 0.000000 0.050434 0.000000 -0.002637
# 5 -0.007308 -0.002071 -0.006170 0.000000 0.044715 0.000000
# 6 0.000000 0.000000 0.000000 -0.002637 0.000000 0.050407
#
#
# Mechanical properties :
#
#
# Convention : Reuss Voigt Hill
#
# Bulk Modulus (GPa) = 30.20739 42.88399 36.54569
# Shear Modulus (GPa) = 20.98159 23.21589 22.09874
#
# Velocity S-wave (km/s) = 3.21011 3.37671 3.29446
# Velocity P-wave (km/s) = 5.34563 6.02202 5.69388
#
# Compressibility (1/GPa) = 0.03310448
#
# Stress axis : x y z
#
# Youngs Moduli (GPa) = 36.47079 62.06406 72.05909
#
# Poissons Ratio (x) = 0.14505 0.39739
# Poissons Ratio (y) = 0.08524 0.30988
# Poissons Ratio (z) = 0.20113 0.26690
#
# Static dielectric constant tensor:
#      x y z
#    x 3.712120 0.000000 0.510850 
#    y 0.000000 3.601890 0.000000 
#    z 0.510850 0.000000 3.760620 
# 
# 
# High freq. dielectric constant tensor:
#      x y z
#    x 1.773360 0.000000 0.025880 
#    y 0.000000 1.778650 0.000000 
#    z 0.025880 0.000000 1.792800 
# 
# From -- ./inp_files/27807.got.cif
#   From: 2010.06.25/outbox.cif.g09.slc.cpg/sg11_14_cif.got.tgz:27807.got - 2010.06.27 23:14:04.
