data_PCOD8074203
_publ_section_title
;
Structure prediction by ZEFSAII (Michael W. Deem and Ramdas Pophale) SiO2 
 PCOD8074203
Probable space group: P 21/M
;
_chemical_formula_sum "Si O2"
_cell_formula_units_Z 24
_cell_length_a 14.993640
_cell_length_b 8.952963
_cell_length_c 9.225726
_cell_angle_alpha 90.000000
_cell_angle_beta 87.751054
_cell_angle_gamma 90.000000
_cell_volume 1237.484535
_symmetry_space_group_name_H-M "P 21/M"
_symmetry_group_IT_number 11
_symmetry_cell_setting 'monoclinic'
loop_
_space_group_symop_operation_xyz
x,y,z
-x,1/2+y,-z
-x,-y,-z
x,1/2-y,z
loop_
_atom_site_type_symbol
_atom_site_label
_atom_site_fract_x
_atom_site_fract_y
_atom_site_fract_z
Si Si1 0.410858 0.076600 0.328729
Si Si2 0.265067 0.925516 0.169984
Si Si3 0.611919 0.077200 0.374160
Si Si4 0.773253 0.075928 0.156852
Si Si5 0.107692 0.425091 0.351445
Si Si6 0.072521 0.075432 0.683721
O O1 0.388182 0.250000 0.313753
O O2 0.515981 0.043691 0.308848
O O3 0.363199 0.986261 0.203027
O O4 0.373007 0.022999 0.485721
O O5 0.261793 0.750000 0.195160
O O6 0.195370 0.002390 0.280852
O O7 0.244462 0.969045 0.006914
O O8 0.618846 0.250000 0.420192
O O9 0.685845 0.031779 0.252917
O O10 0.795674 0.250000 0.172982
O O11 0.857075 0.980923 0.203721
O O12 0.108293 0.250000 0.322163
O O13 0.107879 0.464055 0.521575
O O14 0.020907 0.493835 0.279892
O O15 0.056495 0.250000 0.705195
#
# Coordination Sequence:
#
# PCOD8074203 Si02
#       6
#     4   4   4   4   4   4
#     4  10  20  35  57  84 110 140 182 228 273 321
#     4  11  23  37  54  79 112 148 183 221 269 323
#     4   9  19  37  59  81 108 143 183 227 271 318
#     4  10  22  38  55  78 110 148 185 221 267 322
#     4  10  21  38  60  84 109 140 180 224 270 322
#     4  10  21  37  59  85 109 138 179 225 272 321
#
# _framework density 19.394182000000001
#
# number of rings (size 3 to 8) (size 9 to 14) (size 15 to 20)
#    0.000    2.000    0.000    3.000    0.000    8.667 
#    0.000    0.000    0.000    0.000    0.000    0.000 
#    0.000    0.000    0.000    0.000    0.000    0.000 
#
# Total GULP energy -297742.562025 kJ/mol
# GULP energy per Si atom -12405.940084 kJ/mol
# Density = 1.935004 g / cm^3
# Si number density = 19.394182 Si / 1000 Ang^3
#
#
#
# Elastic Constant Matrix: (Units=GPa)
#
#
# Indices 1 2 3 4 5 6 
#
# 1 85.0684 31.3543 29.9766 0.0000 26.8923 0.0000
# 2 31.3543 71.3170 32.8918 0.0000 18.8848 0.0000
# 3 29.9766 32.8918 63.4512 0.0000 28.0123 0.0000
# 4 0.0000 0.0000 0.0000 31.2206 0.0000 6.5401
# 5 26.8923 18.8848 28.0123 0.0000 28.6478 0.0000
# 6 0.0000 0.0000 0.0000 6.5401 0.0000 36.0645
#
#
#
# Elastic Compliance Matrix: (Units=1/GPa)
#
#
# Indices 1 2 3 4 5 6 
#
# 1 0.017647 -0.004040 -0.000185 0.000000 -0.013722 0.000000
# 2 -0.004040 0.019758 -0.007492 0.000000 -0.001907 0.000000
# 3 -0.000185 -0.007492 0.030747 0.000000 -0.024953 0.000000
# 4 0.000000 0.000000 0.000000 0.033295 0.000000 -0.006038
# 5 -0.013722 -0.001907 -0.024953 0.000000 0.073444 0.000000
# 6 0.000000 0.000000 0.000000 -0.006038 0.000000 0.028823
#
#
# Mechanical properties :
#
#
# Convention : Reuss Voigt Hill
#
# Bulk Modulus (GPa) = 22.36172 45.36467 33.86319
# Shear Modulus (GPa) = 20.65648 27.56084 24.10866
#
# Velocity S-wave (km/s) = 3.26711 3.77382 3.52957
# Velocity P-wave (km/s) = 5.07810 6.51388 5.84028
#
# Compressibility (1/GPa) = 0.04471928
#
# Stress axis : x y z
#
# Youngs Moduli (GPa) = 56.66609 50.61205 32.52301
#
# Poissons Ratio (x) = 0.20445 0.00603
# Poissons Ratio (y) = 0.22891 0.24366
# Poissons Ratio (z) = 0.01050 0.37918
#
# Static dielectric constant tensor:
#      x y z
#    x 3.682820 0.000000 0.077170 
#    y 0.000000 3.584990 0.000000 
#    z 0.077170 0.000000 3.447890 
# 
# 
# High freq. dielectric constant tensor:
#      x y z
#    x 1.768060 0.000000 0.007160 
#    y 0.000000 1.762460 0.000000 
#    z 0.007160 0.000000 1.745840 
# 
# From -- ./inp_files/20548.got.cif
#   From: 2010.06.25/outbox.cif.g09.slc.cpg/sg11_11_cif.got.tgz:20548.got - 2010.06.27 23:14:04.
