data_PCOD8074449
_publ_section_title
;
Structure prediction by ZEFSAII (Michael W. Deem and Ramdas Pophale) SiO2 
 PCOD8074449
Probable space group: P 21/M
;
_chemical_formula_sum "Si O2"
_cell_formula_units_Z 28
_cell_length_a 16.409667
_cell_length_b 12.982922
_cell_length_c 9.300401
_cell_angle_alpha 90.000000
_cell_angle_beta 135.442112
_cell_angle_gamma 90.000000
_cell_volume 1390.214292
_symmetry_space_group_name_H-M "P 21/M"
_symmetry_group_IT_number 11
_symmetry_cell_setting 'monoclinic'
loop_
_space_group_symop_operation_xyz
x,y,z
-x,1/2+y,-z
-x,-y,-z
x,1/2-y,z
loop_
_atom_site_type_symbol
_atom_site_label
_atom_site_fract_x
_atom_site_fract_y
_atom_site_fract_z
Si Si1 0.845851 0.005972 0.693996
Si Si2 0.460798 0.915802 0.065450
Si Si3 0.643512 0.868157 0.528274
Si Si4 0.535748 0.367580 0.470042
Si Si5 0.713112 0.132893 0.931250
Si Si6 0.345644 0.638456 0.654823
Si Si7 0.944812 0.371809 0.079822
O O1 0.769268 0.067582 0.479745
O O2 0.763395 0.928757 0.678883
O O3 0.905745 0.087979 0.874503
O O4 0.940559 0.935733 0.730378
O O5 0.571951 0.870416 0.287886
O O6 0.356799 0.943136 0.048158
O O7 0.400514 0.837033 0.878144
O O8 0.500000 0.000000 0.000000
O O9 0.672221 0.750000 0.597877
O O10 0.565749 0.919990 0.559876
O O11 0.494878 0.250000 0.398346
O O12 0.659067 0.374006 0.704556
O O13 0.561576 0.416964 0.343000
O O14 0.696388 0.250000 0.967907
O O15 0.848616 0.104994 0.082263
O O16 0.313049 0.750000 0.545830
O O17 0.970807 0.250000 0.102889
#
# Coordination Sequence:
#
# PCOD8074449 Si02
#       7
#     4   4   4   4   4   4   4
#     4  11  21  33  57  85 107 141 188 233 280 321
#     4  11  21  34  54  84 113 143 183 221 273 334
#     4  10  20  36  54  80 117 150 181 220 275 339
#     4   8  16  30  53  79 106 142 178 219 274 327
#     4   9  17  34  56  78 107 150 187 221 270 331
#     4  11  20  34  53  81 114 143 180 232 280 322
#     4  10  21  38  57  81 111 145 189 236 276 324
#
# _framework density 20.140779999999999
#
# number of rings (size 3 to 8) (size 9 to 14) (size 15 to 20)
#    0.000    2.000    2.857    3.000    0.000    1.714 
#    0.000    0.714    0.000    0.000    0.000    4.000 
#    0.000    0.000    0.000    0.000    0.000    0.000 
#
# Total GULP energy -346879.441116 kJ/mol
# GULP energy per Si atom -12388.551468 kJ/mol
# Density = 2.009494 g / cm^3
# Si number density = 20.140780 Si / 1000 Ang^3
#
#
#
# Elastic Constant Matrix: (Units=GPa)
#
#
# Indices 1 2 3 4 5 6 
#
# 1 103.4376 23.4143 19.6855 0.0000 11.6161 0.0000
# 2 23.4143 65.3041 5.0613 0.0000 15.3390 0.0000
# 3 19.6855 5.0613 48.2834 0.0000 -1.0931 0.0000
# 4 0.0000 0.0000 0.0000 13.5921 0.0000 1.7090
# 5 11.6161 15.3390 -1.0931 0.0000 38.0790 0.0000
# 6 0.0000 0.0000 0.0000 1.7090 0.0000 33.7968
#
#
#
# Elastic Compliance Matrix: (Units=1/GPa)
#
#
# Indices 1 2 3 4 5 6 
#
# 1 0.011499 -0.003234 -0.004402 0.000000 -0.002331 0.000000
# 2 -0.003234 0.018004 -0.000711 0.000000 -0.006286 0.000000
# 3 -0.004402 -0.000711 0.022632 0.000000 0.002279 0.000000
# 4 0.000000 0.000000 0.000000 0.074043 0.000000 -0.003744
# 5 -0.002331 -0.006286 0.002279 0.000000 0.029570 0.000000
# 6 0.000000 0.000000 0.000000 -0.003744 0.000000 0.029778
#
#
# Mechanical properties :
#
#
# Convention : Reuss Voigt Hill
#
# Bulk Modulus (GPa) = 28.21598 34.81636 31.51617
# Shear Modulus (GPa) = 23.36065 28.35115 25.85590
#
# Velocity S-wave (km/s) = 3.40938 3.75594 3.58684
# Velocity P-wave (km/s) = 5.43491 6.01111 5.73026
#
# Compressibility (1/GPa) = 0.03544091
#
# Stress axis : x y z
#
# Youngs Moduli (GPa) = 86.96124 55.54244 44.18528
#
# Poissons Ratio (x) = 0.17964 0.19451
# Poissons Ratio (y) = 0.28125 0.03142
# Poissons Ratio (z) = 0.38282 0.03949
#
# Static dielectric constant tensor:
#      x y z
#    x 3.857410 0.000000 -0.131010 
#    y 0.000000 3.828020 0.000000 
#    z -0.131010 0.000000 3.876580 
# 
# 
# High freq. dielectric constant tensor:
#      x y z
#    x 1.783040 0.000000 0.002200 
#    y 0.000000 1.801690 0.000000 
#    z 0.002200 0.000000 1.754040 
# 
# From -- ./inp_files/21806.got.cif
#   From: 2010.06.25/outbox.cif.g09.slc.cpg/sg11_11_cif.got.tgz:21806.got - 2010.06.27 23:14:04.
