data_PCOD8074032
_publ_section_title
;
Structure prediction by ZEFSAII (Michael W. Deem and Ramdas Pophale) SiO2 
 PCOD8074032
Probable space group: P 21/M
;
_chemical_formula_sum "Si O2"
_cell_formula_units_Z 24
_cell_length_a 10.889184
_cell_length_b 13.623560
_cell_length_c 8.664236
_cell_angle_alpha 90.000000
_cell_angle_beta 69.678753
_cell_angle_gamma 90.000000
_cell_volume 1205.335707
_symmetry_space_group_name_H-M "P 21/M"
_symmetry_group_IT_number 11
_symmetry_cell_setting 'monoclinic'
loop_
_space_group_symop_operation_xyz
x,y,z
-x,1/2+y,-z
-x,-y,-z
x,1/2-y,z
loop_
_atom_site_type_symbol
_atom_site_label
_atom_site_fract_x
_atom_site_fract_y
_atom_site_fract_z
Si Si1 0.590170 0.513663 0.275304
Si Si2 0.804522 0.493309 0.953413
Si Si3 0.021892 0.360133 0.964512
Si Si4 0.637666 0.368279 0.519158
Si Si5 0.781167 0.859877 0.386621
Si Si6 0.153830 0.515514 0.416964
O O1 0.594942 0.410793 0.369348
O O2 0.448403 0.566187 0.320831
O O3 0.670529 0.596361 0.328358
O O4 0.654853 0.495923 0.079454
O O5 0.802160 0.465335 0.776374
O O6 0.881903 0.413425 0.023281
O O7 0.880673 0.595458 0.949100
O O8 0.996406 0.250000 0.028374
O O9 0.081579 0.367497 0.765767
O O10 0.617061 0.250000 0.534989
O O11 0.788410 0.395162 0.501231
O O12 0.741799 0.750000 0.442943
O O13 0.784968 0.914423 0.548173
O O14 0.000000 0.500000 0.500000
#
# Coordination Sequence:
#
# PCOD8074032 Si02
#       6
#     4   4   4   4   4   4
#     4   9  20  39  61  85 111 148 196 245 283 329
#     4  10  20  35  55  82 121 147 187 239 283 337
#     4   9  18  32  53  80 110 152 193 230 276 331
#     4  10  22  40  62  84 112 152 196 237 287 346
#     4   9  17  33  56  79 111 153 192 230 279 337
#     4  11  22  36  54  85 123 153 184 231 292 343
#
# _framework density 19.911466999999998
#
# number of rings (size 3 to 8) (size 9 to 14) (size 15 to 20)
#    0.000    2.333    1.667    0.500    2.333    4.000 
#    0.000    0.000    0.000    0.000    0.000    0.000 
#    0.000    0.000    0.000    0.000    0.000    0.000 
#
# Total GULP energy -297404.343065 kJ/mol
# GULP energy per Si atom -12391.847628 kJ/mol
# Density = 1.986615 g / cm^3
# Si number density = 19.911467 Si / 1000 Ang^3
#
#
#
# Elastic Constant Matrix: (Units=GPa)
#
#
# Indices 1 2 3 4 5 6 
#
# 1 67.0490 23.7206 14.8705 0.0000 -10.2816 0.0000
# 2 23.7206 136.9576 18.0835 0.0000 -0.6561 0.0000
# 3 14.8705 18.0835 67.5799 0.0000 -2.4607 0.0000
# 4 0.0000 0.0000 0.0000 20.6451 0.0000 -3.7887
# 5 -10.2816 -0.6561 -2.4607 0.0000 28.8607 0.0000
# 6 0.0000 0.0000 0.0000 -3.7887 0.0000 15.7419
#
#
#
# Elastic Compliance Matrix: (Units=1/GPa)
#
#
# Indices 1 2 3 4 5 6 
#
# 1 0.017382 -0.002597 -0.002916 0.000000 0.005885 0.000000
# 2 -0.002597 0.007957 -0.001590 0.000000 -0.000880 0.000000
# 3 -0.002916 -0.001590 0.015874 0.000000 0.000279 0.000000
# 4 0.000000 0.000000 0.000000 0.050676 0.000000 0.012196
# 5 0.005885 -0.000880 0.000279 0.000000 0.036749 0.000000
# 6 0.000000 0.000000 0.000000 0.012196 0.000000 0.066460
#
#
# Mechanical properties :
#
#
# Convention : Reuss Voigt Hill
#
# Bulk Modulus (GPa) = 37.02538 42.77061 39.89799
# Shear Modulus (GPa) = 22.90351 27.37702 25.14026
#
# Velocity S-wave (km/s) = 3.39524 3.71204 3.55717
# Velocity P-wave (km/s) = 5.83143 6.31659 6.07885
#
# Compressibility (1/GPa) = 0.02700850
#
# Stress axis : x y z
#
# Youngs Moduli (GPa) = 57.52937 125.67432 62.99459
#
# Poissons Ratio (x) = 0.32643 0.18367
# Poissons Ratio (y) = 0.14943 0.10014
# Poissons Ratio (z) = 0.16773 0.19978
#
# Static dielectric constant tensor:
#      x y z
#    x 3.767970 0.000000 -0.215100 
#    y 0.000000 3.595340 0.000000 
#    z -0.215100 0.000000 3.691050 
# 
# 
# High freq. dielectric constant tensor:
#      x y z
#    x 1.771890 0.000000 -0.014750 
#    y 0.000000 1.771210 0.000000 
#    z -0.014750 0.000000 1.758450 
# 
# From -- ./inp_files/17363.got.cif
#   From: 2010.06.25/outbox.cif.g09.slc.cpg/sg11_9_cif.got.tgz:17363.got - 2010.06.27 23:14:04.
