data_PCOD8074660
_publ_section_title
;
Structure prediction by ZEFSAII (Michael W. Deem and Ramdas Pophale) SiO2 
 PCOD8074660
Probable space group: P 21/M
;
_chemical_formula_sum "Si O2"
_cell_formula_units_Z 32
_cell_length_a 9.719121
_cell_length_b 13.250963
_cell_length_c 26.714196
_cell_angle_alpha 90.000000
_cell_angle_beta 28.043264
_cell_angle_gamma 90.000000
_cell_volume 1617.491566
_symmetry_space_group_name_H-M "P 21/M"
_symmetry_group_IT_number 11
_symmetry_cell_setting 'monoclinic'
loop_
_space_group_symop_operation_xyz
x,y,z
-x,1/2+y,-z
-x,-y,-z
x,1/2-y,z
loop_
_atom_site_type_symbol
_atom_site_label
_atom_site_fract_x
_atom_site_fract_y
_atom_site_fract_z
Si Si1 0.779438 0.368270 0.098733
Si Si2 0.525946 0.024221 0.646652
Si Si3 0.767026 0.495775 0.009227
Si Si4 0.116261 0.135446 0.311936
Si Si5 0.957573 0.364691 0.862223
Si Si6 0.722624 0.506052 0.382262
Si Si7 0.772472 0.137110 0.809199
Si Si8 0.927985 0.634019 0.562745
O O1 0.835063 0.250000 0.082663
O O2 0.872052 0.411969 0.015236
O O3 0.446680 0.399531 0.214952
O O4 0.979905 0.419607 0.077039
O O5 0.271430 0.080647 0.758294
O O6 0.433672 0.988038 0.620586
O O7 0.796117 0.102292 0.559100
O O8 0.634319 0.926536 0.642417
O O9 0.472823 0.552472 0.122279
O O10 0.742312 0.432859 0.965654
O O11 0.106951 0.250000 0.297945
O O12 0.965046 0.116054 0.414274
O O13 0.960133 0.080686 0.316101
O O14 0.994705 0.250000 0.871000
O O15 0.807004 0.360222 0.857272
O O16 0.500000 0.500000 0.500000
O O17 0.917165 0.608797 0.317126
O O18 0.684847 0.250000 0.818279
O O19 0.847753 0.750000 0.579487
#
# Coordination Sequence:
#
# PCOD8074660 Si02
#       8
#     4   4   4   4   4   4   4   4
#     4  10  21  35  56  84 114 150 191 241 295 350
#     4  10  21  36  59  82 120 153 195 249 294 349
#     4  11  20  36  60  82 118 151 197 241 291 345
#     4  10  20  36  58  83 114 152 195 237 293 357
#     4  10  21  37  58  84 114 154 198 239 294 351
#     4  11  21  38  60  87 118 151 194 238 295 351
#     4  10  22  39  60  86 118 153 194 242 293 351
#     4  10  20  36  58  82 113 156 198 239 296 356
#
# _framework density 19.783719999999999
#
# number of rings (size 3 to 8) (size 9 to 14) (size 15 to 20)
#    0.000    1.750    2.500    2.250    0.000    1.500 
#    0.000    0.625    0.000    0.750    0.000    0.000 
#    0.000    0.000    0.000    0.000    0.000    0.000 
#
# Total GULP energy -396631.930294 kJ/mol
# GULP energy per Si atom -12394.747822 kJ/mol
# Density = 1.973869 g / cm^3
# Si number density = 19.783720 Si / 1000 Ang^3
#
#
#
# Elastic Constant Matrix: (Units=GPa)
#
#
# Indices 1 2 3 4 5 6 
#
# 1 64.2211 43.9240 7.4418 0.0000 -5.9714 0.0000
# 2 43.9240 116.5238 40.5181 0.0000 -3.6225 0.0000
# 3 7.4418 40.5181 65.1594 0.0000 3.9843 0.0000
# 4 0.0000 0.0000 0.0000 28.0958 0.0000 -2.2102
# 5 -5.9714 -3.6225 3.9843 0.0000 26.3235 0.0000
# 6 0.0000 0.0000 0.0000 -2.2102 0.0000 31.3748
#
#
#
# Elastic Compliance Matrix: (Units=1/GPa)
#
#
# Indices 1 2 3 4 5 6 
#
# 1 0.021787 -0.009159 0.003010 0.000000 0.003226 0.000000
# 2 -0.009159 0.014973 -0.008341 0.000000 0.001245 0.000000
# 3 0.003010 -0.008341 0.020407 0.000000 -0.003554 0.000000
# 4 0.000000 0.000000 0.000000 0.035791 0.000000 0.002521
# 5 0.003226 0.001245 -0.003554 0.000000 0.039430 0.000000
# 6 0.000000 0.000000 0.000000 0.002521 0.000000 0.032050
#
#
# Mechanical properties :
#
#
# Convention : Reuss Voigt Hill
#
# Bulk Modulus (GPa) = 35.47731 47.74135 41.60933
# Shear Modulus (GPa) = 24.65305 27.42685 26.03995
#
# Velocity S-wave (km/s) = 3.53388 3.72739 3.63193
# Velocity P-wave (km/s) = 5.88410 6.53518 6.21817
#
# Compressibility (1/GPa) = 0.02818703
#
# Stress axis : x y z
#
# Youngs Moduli (GPa) = 45.89984 66.78469 49.00199
#
# Poissons Ratio (x) = 0.61167 -0.14748
# Poissons Ratio (y) = 0.42039 0.40873
# Poissons Ratio (z) = -0.13815 0.55706
#
# Static dielectric constant tensor:
#      x y z
#    x 3.516820 0.000000 -0.091500 
#    y 0.000000 3.725120 0.000000 
#    z -0.091500 0.000000 3.609150 
# 
# 
# High freq. dielectric constant tensor:
#      x y z
#    x 1.760700 0.000000 -0.007230 
#    y 0.000000 1.776310 0.000000 
#    z -0.007230 0.000000 1.773410 
# 
# From -- ./inp_files/68123.got.cif
#   From: 2010.06.25/outbox.cif.g09.slc.cpg/sg11_35_cif.got.tgz:68123.got - 2010.06.27 23:14:04.
