data_PCOD8074017
_publ_section_title
;
Structure prediction by ZEFSAII (Michael W. Deem and Ramdas Pophale) SiO2 
 PCOD8074017
Probable space group: P 21/M
;
_chemical_formula_sum "Si O2"
_cell_formula_units_Z 32
_cell_length_a 9.741549
_cell_length_b 11.264790
_cell_length_c 20.286497
_cell_angle_alpha 90.000000
_cell_angle_beta 48.830757
_cell_angle_gamma 90.000000
_cell_volume 1675.789850
_symmetry_space_group_name_H-M "P 21/M"
_symmetry_group_IT_number 11
_symmetry_cell_setting 'monoclinic'
loop_
_space_group_symop_operation_xyz
x,y,z
-x,1/2+y,-z
-x,-y,-z
x,1/2-y,z
loop_
_atom_site_type_symbol
_atom_site_label
_atom_site_fract_x
_atom_site_fract_y
_atom_site_fract_z
Si Si1 0.862496 0.118988 0.477876
Si Si2 0.644815 0.120109 0.270639
Si Si3 0.045574 0.459453 0.883187
Si Si4 0.835610 0.385826 0.339881
Si Si5 0.392965 0.884187 0.199096
Si Si6 0.784036 0.617041 0.041828
Si Si7 0.741560 0.531844 0.637247
Si Si8 0.051528 0.882357 0.224977
O O1 0.817898 0.250000 0.517640
O O2 0.769849 0.097054 0.435787
O O3 0.081037 0.107885 0.400854
O O4 0.774727 0.031061 0.557238
O O5 0.714433 0.250000 0.227221
O O6 0.434277 0.112972 0.317294
O O7 0.665832 0.104527 0.343271
O O8 0.767118 0.025536 0.194165
O O9 0.089251 0.380117 0.933022
O O10 0.976116 0.380022 0.844828
O O11 0.882445 0.549217 0.951474
O O12 0.923003 0.250000 0.305505
O O13 0.964773 0.498492 0.283238
O O14 0.433048 0.750000 0.208446
O O15 0.587469 0.943824 0.119380
O O16 0.264579 0.891207 0.175519
O O17 0.292547 0.942002 0.292749
O O18 0.754174 0.750000 0.025760
O O19 0.979950 0.750000 0.272734
#
# Coordination Sequence:
#
# PCOD8074017 Si02
#       8
#     4   4   4   4   4   4   4   4
#     4  10  21  36  56  79 111 148 186 234 284 341
#     4  10  20  35  56  80 110 147 188 237 285 335
#     4  10  20  35  57  82 112 147 188 231 278 338
#     4   9  19  37  57  82 116 152 189 232 286 342
#     4  10  20  35  55  81 114 148 187 235 283 332
#     4  10  20  35  56  82 113 147 185 232 284 336
#     4  11  20  35  55  82 111 143 190 233 283 335
#     4  10  20  36  58  83 116 151 192 237 280 335
#
# _framework density 19.095473999999999
#
# number of rings (size 3 to 8) (size 9 to 14) (size 15 to 20)
#    0.000    2.000    2.500    1.500    0.000    1.500 
#    0.000    1.250    0.000    0.000    0.000    0.000 
#    0.000    0.000    0.000    0.000    0.000    0.000 
#
# Total GULP energy -396510.140176 kJ/mol
# GULP energy per Si atom -12390.941880 kJ/mol
# Density = 1.905201 g / cm^3
# Si number density = 19.095474 Si / 1000 Ang^3
#
#
#
# Elastic Constant Matrix: (Units=GPa)
#
#
# Indices 1 2 3 4 5 6 
#
# 1 71.5050 11.8117 12.1801 0.0000 0.1359 0.0000
# 2 11.8117 83.2330 13.9641 0.0000 3.1465 0.0000
# 3 12.1801 13.9641 61.5696 0.0000 -2.7425 0.0000
# 4 0.0000 0.0000 0.0000 -54.1361 0.0000 -11.7474
# 5 0.1359 3.1465 -2.7425 0.0000 22.9703 0.0000
# 6 0.0000 0.0000 0.0000 -11.7474 0.0000 22.5519
#
#
#
# Elastic Compliance Matrix: (Units=1/GPa)
#
#
# Indices 1 2 3 4 5 6 
#
# 1 0.014691 -0.001653 -0.002539 0.000000 -0.000164 0.000000
# 2 -0.001653 0.012773 -0.002662 0.000000 -0.002058 0.000000
# 3 -0.002539 -0.002662 0.017457 0.000000 0.002464 0.000000
# 4 0.000000 0.000000 0.000000 -0.016596 0.000000 -0.008645
# 5 -0.000164 -0.002058 0.002464 0.000000 0.044111 0.000000
# 6 0.000000 0.000000 0.000000 -0.008645 0.000000 0.039839
#
#
# Mechanical properties :
#
#
# Convention : Reuss Voigt Hill
#
# Bulk Modulus (GPa) = 32.03548 32.46881 32.25215
# Shear Modulus (GPa) = 36.66032 10.16735 23.41383
#
# Velocity S-wave (km/s) = 4.38636 2.30999 3.50544
# Velocity P-wave (km/s) = 6.51662 4.91478 5.77154
#
# Compressibility (1/GPa) = 0.03121539
#
# Stress axis : x y z
#
# Youngs Moduli (GPa) = 68.06990 78.28800 57.28216
#
# Poissons Ratio (x) = 0.12939 0.14542
# Poissons Ratio (y) = 0.11250 0.15247
# Poissons Ratio (z) = 0.17281 0.20838
#
# Static dielectric constant tensor:
#      x y z
#    x 3.641480 0.000000 0.065210 
#    y 0.000000 3.581290 0.000000 
#    z 0.065210 0.000000 3.299080 
# 
# 
# High freq. dielectric constant tensor:
#      x y z
#    x 1.752790 0.000000 0.009940 
#    y 0.000000 1.746670 0.000000 
#    z 0.009940 0.000000 1.719550 
# 
# From -- ./inp_files/26600.got.cif
#   From: 2010.06.25/outbox.cif.g09.slc.cpg/sg11_14_cif.got.tgz:26600.got - 2010.06.27 23:14:04.
