data_PCOD8074828
_publ_section_title
;
Structure prediction by ZEFSAII (Michael W. Deem and Ramdas Pophale) SiO2 
 PCOD8074828
Probable space group: P 21/M
;
_chemical_formula_sum "Si O2"
_cell_formula_units_Z 32
_cell_length_a 15.242598
_cell_length_b 9.116074
_cell_length_c 11.111256
_cell_angle_alpha 90.000000
_cell_angle_beta 93.571824
_cell_angle_gamma 90.000000
_cell_volume 1540.939358
_symmetry_space_group_name_H-M "P 21/M"
_symmetry_group_IT_number 11
_symmetry_cell_setting 'monoclinic'
loop_
_space_group_symop_operation_xyz
x,y,z
-x,1/2+y,-z
-x,-y,-z
x,1/2-y,z
loop_
_atom_site_type_symbol
_atom_site_label
_atom_site_fract_x
_atom_site_fract_y
_atom_site_fract_z
Si Si1 0.589422 0.588734 0.022044
Si Si2 0.231026 0.579860 0.370990
Si Si3 0.760573 0.578515 0.151655
Si Si4 0.365376 0.410428 0.239467
Si Si5 0.028776 0.922051 0.377569
Si Si6 0.490387 0.415059 0.621652
Si Si7 0.291493 0.086430 0.599546
Si Si8 0.048327 0.074925 0.890019
O O1 0.565144 0.750000 0.074318
O O2 0.637943 0.612168 0.901021
O O3 0.500000 0.500000 0.000000
O O4 0.667523 0.505168 0.102874
O O5 0.245972 0.750000 0.348612
O O6 0.275315 0.490419 0.267284
O O7 0.130047 0.537853 0.369481
O O8 0.279846 0.535338 0.497625
O O9 0.749338 0.750000 0.124984
O O10 0.773273 0.549661 0.295404
O O11 0.849288 0.523730 0.093149
O O12 0.371280 0.250000 0.304547
O O13 0.450985 0.506523 0.274082
O O14 0.011766 0.750000 0.394926
O O15 0.984731 0.974695 0.246976
O O16 0.000000 0.000000 0.500000
O O17 0.500000 0.500000 0.500000
O O18 0.524619 0.250000 0.606553
O O19 0.390581 0.418913 0.658762
O O20 0.270963 0.250000 0.547033
O O21 0.036968 0.250000 0.901113
O O22 0.000000 0.000000 0.000000
#
# Coordination Sequence:
#
# PCOD8074828 Si02
#       8
#     4   4   4   4   4   4   4   4
#     4  10  22  40  61  87 117 154 201 247 297 359
#     4  11  23  37  57  86 121 155 192 245 304 359
#     4   9  19  38  63  87 115 155 199 244 295 356
#     4  11  23  37  56  84 118 156 202 244 295 362
#     4  10  23  42  64  93 124 159 204 257 315 375
#     4  11  21  34  55  83 117 156 198 245 298 356
#     4  10  20  36  60  86 114 154 201 244 296 359
#     4  10  22  41  65  92 125 162 206 257 311 372
#
# _framework density 20.766552000000001
#
# number of rings (size 3 to 8) (size 9 to 14) (size 15 to 20)
#    0.000    1.750    1.250    2.625    1.750    5.000 
#    0.000    1.875    0.000    0.000    0.000    0.000 
#    0.000    0.000    0.000    0.000    0.000    0.000 
#
# Total GULP energy -396550.722993 kJ/mol
# GULP energy per Si atom -12392.210094 kJ/mol
# Density = 2.071929 g / cm^3
# Si number density = 20.766552 Si / 1000 Ang^3
#
#
#
# Elastic Constant Matrix: (Units=GPa)
#
#
# Indices 1 2 3 4 5 6 
#
# 1 131.2019 45.8142 37.7277 0.0000 -8.1884 0.0000
# 2 45.8142 90.1548 29.4470 0.0000 -6.0914 0.0000
# 3 37.7277 29.4470 101.5119 0.0000 -9.3016 0.0000
# 4 0.0000 0.0000 0.0000 25.3081 0.0000 -3.9843
# 5 -8.1884 -6.0914 -9.3016 0.0000 35.8615 0.0000
# 6 0.0000 0.0000 0.0000 -3.9843 0.0000 30.3687
#
#
#
# Elastic Compliance Matrix: (Units=1/GPa)
#
#
# Indices 1 2 3 4 5 6 
#
# 1 0.009807 -0.004152 -0.002356 0.000000 0.000923 0.000000
# 2 -0.004152 0.014060 -0.002462 0.000000 0.000802 0.000000
# 3 -0.002356 -0.002462 0.011630 0.000000 0.002060 0.000000
# 4 0.000000 0.000000 0.000000 0.040346 0.000000 0.005293
# 5 0.000923 0.000802 0.002060 0.000000 0.028766 0.000000
# 6 0.000000 0.000000 0.000000 0.005293 0.000000 0.033623
#
#
# Mechanical properties :
#
#
# Convention : Reuss Voigt Hill
#
# Bulk Modulus (GPa) = 56.95685 60.98296 58.96990
# Shear Modulus (GPa) = 30.85967 32.29963 31.57965
#
# Velocity S-wave (km/s) = 3.85908 3.94809 3.90384
# Velocity P-wave (km/s) = 6.88066 7.08611 6.98414
#
# Compressibility (1/GPa) = 0.01755715
#
# Stress axis : x y z
#
# Youngs Moduli (GPa) = 101.97264 71.12298 85.98712
#
# Poissons Ratio (x) = 0.29527 0.20257
# Poissons Ratio (y) = 0.42335 0.21172
# Poissons Ratio (z) = 0.24023 0.17512
#
# Static dielectric constant tensor:
#      x y z
#    x 1.390670 0.000000 -1.559970 
#    y 0.000000 3.285100 0.000000 
#    z -1.559970 0.000000 2.875420 
# 
# 
# High freq. dielectric constant tensor:
#      x y z
#    x 1.825990 0.000000 -0.006820 
#    y 0.000000 1.791950 0.000000 
#    z -0.006820 0.000000 1.819860 
# 
# From -- ./inp_files/38193.got.cif
#   From: 2010.06.25/outbox.cif.g09.slc.cpg/sg11_20_cif.got.tgz:38193.got - 2010.06.27 23:14:04.
