data_PCOD8074254
_publ_section_title
;
Structure prediction by ZEFSAII (Michael W. Deem and Ramdas Pophale) SiO2 
 PCOD8074254
Probable space group: P 21/M
;
_chemical_formula_sum "Si O2"
_cell_formula_units_Z 20
_cell_length_a 13.493098
_cell_length_b 9.191915
_cell_length_c 21.704613
_cell_angle_alpha 90.000000
_cell_angle_beta 158.772174
_cell_angle_gamma 90.000000
_cell_volume 974.700160
_symmetry_space_group_name_H-M "P 21/M"
_symmetry_group_IT_number 11
_symmetry_cell_setting 'monoclinic'
loop_
_space_group_symop_operation_xyz
x,y,z
-x,1/2+y,-z
-x,-y,-z
x,1/2-y,z
loop_
_atom_site_type_symbol
_atom_site_label
_atom_site_fract_x
_atom_site_fract_y
_atom_site_fract_z
Si Si1 0.268214 0.581028 0.178396
Si Si2 0.309608 0.580181 0.340925
Si Si3 0.153333 0.079941 0.533730
Si Si4 0.204917 0.084409 0.761840
Si Si5 0.268196 0.414436 0.942290
O O1 0.191923 0.750000 0.137342
O O2 0.363437 0.529535 0.301889
O O3 0.519392 0.551803 0.276778
O O4 0.000000 0.500000 0.000000
O O5 0.500000 0.500000 0.500000
O O6 0.366199 0.750000 0.383101
O O7 0.993772 0.540945 0.170112
O O8 0.087556 0.250000 0.499032
O O9 0.000000 0.000000 0.500000
O O10 0.040637 0.014385 0.404933
O O11 0.173121 0.250000 0.720438
O O12 0.190038 0.070708 0.825918
O O13 0.490627 0.024543 0.900242
O O14 0.364384 0.250000 0.012639
#
# Coordination Sequence:
#
# PCOD8074254 Si02
#       5
#     4   4   4   4   4
#     4  10  24  43  63  91 126 162 205 253 307 368
#     4  10  21  38  61  89 120 157 201 248 304 366
#     4  11  24  41  61  86 119 159 206 253 301 360
#     4  10  20  35  57  87 120 154 198 246 299 357
#     4   9  19  35  57  86 120 156 194 242 300 360
#
# _framework density 20.519131000000002
#
# number of rings (size 3 to 8) (size 9 to 14) (size 15 to 20)
#    0.000    2.000    0.000    2.400    2.800    4.000 
#    0.000    0.000    0.000    0.000    0.000    0.000 
#    0.000    0.000    0.000    0.000    0.000    0.000 
#
# Total GULP energy -248021.198444 kJ/mol
# GULP energy per Si atom -12401.059922 kJ/mol
# Density = 2.047243 g / cm^3
# Si number density = 20.519131 Si / 1000 Ang^3
#
#
#
# Elastic Constant Matrix: (Units=GPa)
#
#
# Indices 1 2 3 4 5 6 
#
# 1 98.8147 46.7779 45.4995 0.0000 18.3070 0.0000
# 2 46.7779 111.6451 68.2547 0.0000 7.8190 0.0000
# 3 45.4995 68.2547 114.9992 0.0000 0.9800 0.0000
# 4 0.0000 0.0000 0.0000 45.0478 0.0000 -2.0952
# 5 18.3070 7.8190 0.9800 0.0000 26.5863 0.0000
# 6 0.0000 0.0000 0.0000 -2.0952 0.0000 30.7737
#
#
#
# Elastic Compliance Matrix: (Units=1/GPa)
#
#
# Indices 1 2 3 4 5 6 
#
# 1 0.015262 -0.003286 -0.004008 0.000000 -0.009395 0.000000
# 2 -0.003286 0.015166 -0.007685 0.000000 -0.001914 0.000000
# 3 -0.004008 -0.007685 0.014804 0.000000 0.004474 0.000000
# 4 0.000000 0.000000 0.000000 0.022269 0.000000 0.001516
# 5 -0.009395 -0.001914 0.004474 0.000000 0.044480 0.000000
# 6 0.000000 0.000000 0.000000 0.001516 0.000000 0.032598
#
#
# Mechanical properties :
#
#
# Convention : Reuss Voigt Hill
#
# Bulk Modulus (GPa) = 65.46966 71.83592 68.65279
# Shear Modulus (GPa) = 27.83510 31.47669 29.65590
#
# Velocity S-wave (km/s) = 3.68712 3.92090 3.80581
# Velocity P-wave (km/s) = 7.07831 7.45541 7.26931
#
# Compressibility (1/GPa) = 0.01527425
#
# Stress axis : x y z
#
# Youngs Moduli (GPa) = 65.52433 65.93641 67.54757
#
# Poissons Ratio (x) = 0.21669 0.27071
# Poissons Ratio (y) = 0.21533 0.51910
# Poissons Ratio (z) = 0.26260 0.50671
#
# Static dielectric constant tensor:
#      x y z
#    x 3.834250 0.000000 0.073940 
#    y 0.000000 3.834160 0.000000 
#    z 0.073940 0.000000 3.710620 
# 
# 
# High freq. dielectric constant tensor:
#      x y z
#    x 1.809580 0.000000 0.006640 
#    y 0.000000 1.800650 0.000000 
#    z 0.006640 0.000000 1.804650 
# 
# From -- ./inp_files/36940.got.cif
#   From: 2010.06.25/outbox.cif.g09.slc.cpg/sg11_19_cif.got.tgz:36940.got - 2010.06.27 23:14:04.
