data_PCOD8074431
_publ_section_title
;
Structure prediction by ZEFSAII (Michael W. Deem and Ramdas Pophale) SiO2 
 PCOD8074431
Probable space group: P 21/M
;
_chemical_formula_sum "Si O2"
_cell_formula_units_Z 20
_cell_length_a 7.334345
_cell_length_b 17.450066
_cell_length_c 8.655856
_cell_angle_alpha 90.000000
_cell_angle_beta 127.811011
_cell_angle_gamma 90.000000
_cell_volume 875.217471
_symmetry_space_group_name_H-M "P 21/M"
_symmetry_group_IT_number 11
_symmetry_cell_setting 'monoclinic'
loop_
_space_group_symop_operation_xyz
x,y,z
-x,1/2+y,-z
-x,-y,-z
x,1/2-y,z
loop_
_atom_site_type_symbol
_atom_site_label
_atom_site_fract_x
_atom_site_fract_y
_atom_site_fract_z
Si Si1 0.792543 0.102909 0.299443
Si Si2 0.712142 0.026382 0.714794
Si Si3 0.837429 0.164950 0.979988
Si Si4 0.870971 0.936648 0.284142
Si Si5 0.302031 0.380628 0.099254
O O1 0.835751 0.136922 0.154617
O O2 0.569584 0.142875 0.268673
O O3 0.023916 0.114758 0.521753
O O4 0.731017 0.011321 0.270743
O O5 0.923754 0.028316 0.709519
O O6 0.500000 0.000000 0.500000
O O7 0.763886 0.964483 0.872701
O O8 0.689150 0.108869 0.790508
O O9 0.728523 0.250000 0.912332
O O10 0.107015 0.174349 0.067811
O O11 0.710519 0.882843 0.095599
#
# Coordination Sequence:
#
# PCOD8074431 Si02
#       5
#     4   4   4   4   4
#     4  11  21  36  65  97 124 164 211 265 323 377
#     4  11  20  40  69  98 127 171 225 273 318 390
#     4  11  25  43  61  92 137 172 212 274 337 390
#     4  10  20  35  63 100 127 153 214 277 306 368
#     4  11  21  40  65  93 124 168 220 265 313 384
#
# _framework density 22.851462999999999
#
# number of rings (size 3 to 8) (size 9 to 14) (size 15 to 20)
#    0.000    1.200    6.000    1.800    0.000    0.800 
#    0.000    5.000    0.000    0.000    0.000    0.000 
#    0.000    0.000    0.000    0.000    0.000    0.000 
#
# Total GULP energy -247827.862971 kJ/mol
# GULP energy per Si atom -12391.393149 kJ/mol
# Density = 2.279945 g / cm^3
# Si number density = 22.851463 Si / 1000 Ang^3
#
#
#
# Elastic Constant Matrix: (Units=GPa)
#
#
# Indices 1 2 3 4 5 6 
#
# 1 45.4005 0.0888 23.7221 0.0000 -9.5089 0.0000
# 2 0.0888 102.4893 51.6424 0.0000 -5.7898 0.0000
# 3 23.7221 51.6424 112.7946 0.0000 -10.6261 0.0000
# 4 0.0000 0.0000 0.0000 18.5900 0.0000 0.1702
# 5 -9.5089 -5.7898 -10.6261 0.0000 32.0459 0.0000
# 6 0.0000 0.0000 0.0000 0.1702 0.0000 12.2094
#
#
#
# Elastic Compliance Matrix: (Units=1/GPa)
#
#
# Indices 1 2 3 4 5 6 
#
# 1 0.026900 0.003750 -0.006770 0.000000 0.006415 0.000000
# 2 0.003750 0.013210 -0.006717 0.000000 0.001272 0.000000
# 3 -0.006770 -0.006717 0.013483 0.000000 0.001248 0.000000
# 4 0.000000 0.000000 0.000000 0.053799 0.000000 -0.000750
# 5 0.006415 0.001272 0.001248 0.000000 0.033752 0.000000
# 6 0.000000 0.000000 0.000000 -0.000750 0.000000 0.081914
#
#
# Mechanical properties :
#
#
# Convention : Reuss Voigt Hill
#
# Bulk Modulus (GPa) = 29.30930 45.73233 37.52082
# Shear Modulus (GPa) = 19.69235 24.91780 22.30508
#
# Velocity S-wave (km/s) = 2.93875 3.30574 3.12763
# Velocity P-wave (km/s) = 4.93648 5.88446 5.43119
#
# Compressibility (1/GPa) = 0.03411886
#
# Stress axis : x y z
#
# Youngs Moduli (GPa) = 37.17495 75.69787 74.16997
#
# Poissons Ratio (x) = -0.28390 0.50214
# Poissons Ratio (y) = -0.13942 0.49822
# Poissons Ratio (z) = 0.25168 0.50848
#
# Static dielectric constant tensor:
#      x y z
#    x 4.215170 0.000000 -0.069210 
#    y 0.000000 3.770810 0.000000 
#    z -0.069210 0.000000 4.698500 
# 
# 
# High freq. dielectric constant tensor:
#      x y z
#    x 1.914290 0.000000 -0.008360 
#    y 0.000000 1.846390 0.000000 
#    z -0.008360 0.000000 1.913140 
# 
# From -- ./inp_files/13623.got.cif
#   From: 2010.06.25/outbox.cif.g09.slc.cpg/sg11_7_cif.got.tgz:13623.got - 2010.06.27 23:14:04.
