data_PCOD8074598
_publ_section_title
;
Structure prediction by ZEFSAII (Michael W. Deem and Ramdas Pophale) SiO2 
 PCOD8074598
Probable space group: P 21/M
;
_chemical_formula_sum "Si O2"
_cell_formula_units_Z 32
_cell_length_a 14.771988
_cell_length_b 8.776879
_cell_length_c 25.304675
_cell_angle_alpha 90.000000
_cell_angle_beta 149.584443
_cell_angle_gamma 90.000000
_cell_volume 1660.964092
_symmetry_space_group_name_H-M "P 21/M"
_symmetry_group_IT_number 11
_symmetry_cell_setting 'monoclinic'
loop_
_space_group_symop_operation_xyz
x,y,z
-x,1/2+y,-z
-x,-y,-z
x,1/2-y,z
loop_
_atom_site_type_symbol
_atom_site_label
_atom_site_fract_x
_atom_site_fract_y
_atom_site_fract_z
Si Si1 0.083092 0.570183 0.489725
Si Si2 0.512988 0.570898 0.844880
Si Si3 0.181938 0.070088 0.734914
Si Si4 0.034526 0.928283 0.763165
Si Si5 0.675922 0.071278 0.611918
Si Si6 0.522033 0.070055 0.291470
Si Si7 0.149537 0.576124 0.938383
Si Si8 0.751036 0.573152 0.759238
O O1 0.069207 0.750000 0.488658
O O2 0.289212 0.516266 0.588353
O O3 0.000000 0.500000 0.500000
O O4 0.974279 0.514220 0.383587
O O5 0.471030 0.750000 0.826771
O O6 0.373512 0.478684 0.809750
O O7 0.499207 0.505771 0.778366
O O8 0.710655 0.539588 0.965913
O O9 0.176654 0.250000 0.740328
O O10 0.160154 0.989328 0.780129
O O11 0.001683 0.750000 0.740555
O O12 0.127963 0.965675 0.865928
O O13 0.843724 0.009861 0.663243
O O14 0.668709 0.250000 0.601278
O O15 0.500000 0.000000 0.500000
O O16 0.687892 0.028254 0.679003
O O17 0.515171 0.250000 0.284845
O O18 0.357564 0.012250 0.244566
O O19 0.215758 0.750000 0.978084
O O20 0.962410 0.552185 0.875051
O O21 0.707788 0.750000 0.724784
#
# Coordination Sequence:
#
# PCOD8074598 Si02
#       8
#     4   4   4   4   4   4   4   4
#     4  10  20  36  57  82 116 155 190 232 287 342
#     4  11  22  37  60  85 113 155 198 241 288 342
#     4  11  23  37  58  89 119 153 193 239 291 346
#     4  10  22  41  62  85 115 153 192 238 295 349
#     4  11  22  37  57  85 118 153 195 240 286 342
#     4   9  19  36  58  85 116 152 193 234 286 347
#     4   9  20  39  60  83 114 149 188 241 299 349
#     4   9  19  38  61  83 114 154 192 238 294 345
#
# _framework density 19.265919
#
# number of rings (size 3 to 8) (size 9 to 14) (size 15 to 20)
#    0.000    2.000    1.250    3.000    1.750    4.000 
#    0.000    1.875    0.000    0.000    0.000    0.000 
#    0.000    0.000    0.000    0.000    0.000    0.000 
#
# Total GULP energy -396883.924108 kJ/mol
# GULP energy per Si atom -12402.622628 kJ/mol
# Density = 1.922207 g / cm^3
# Si number density = 19.265919 Si / 1000 Ang^3
#
#
#
# Elastic Constant Matrix: (Units=GPa)
#
#
# Indices 1 2 3 4 5 6 
#
# 1 141.4255 20.0416 36.4077 0.0000 13.5588 0.0000
# 2 20.0416 65.5108 26.7466 0.0000 2.9116 0.0000
# 3 36.4077 26.7466 100.6948 0.0000 17.8589 0.0000
# 4 0.0000 0.0000 0.0000 30.3415 0.0000 2.0785
# 5 13.5588 2.9116 17.8589 0.0000 18.3588 0.0000
# 6 0.0000 0.0000 0.0000 2.0785 0.0000 27.8251
#
#
#
# Elastic Compliance Matrix: (Units=1/GPa)
#
#
# Indices 1 2 3 4 5 6 
#
# 1 0.008145 -0.001572 -0.001819 0.000000 -0.003997 0.000000
# 2 -0.001572 0.017490 -0.004582 0.000000 0.002844 0.000000
# 3 -0.001819 -0.004582 0.013823 0.000000 -0.011377 0.000000
# 4 0.000000 0.000000 0.000000 0.033128 0.000000 -0.002475
# 5 -0.003997 0.002844 -0.011377 0.000000 0.068038 0.000000
# 6 0.000000 0.000000 0.000000 -0.002475 0.000000 0.036124
#
#
# Mechanical properties :
#
#
# Convention : Reuss Voigt Hill
#
# Bulk Modulus (GPa) = 42.52770 52.66919 47.59845
# Shear Modulus (GPa) = 24.93402 30.26744 27.60073
#
# Velocity S-wave (km/s) = 3.60141 3.96793 3.78910
# Velocity P-wave (km/s) = 6.27818 6.95629 6.62591
#
# Compressibility (1/GPa) = 0.02351408
#
# Stress axis : x y z
#
# Youngs Moduli (GPa) = 122.77547 57.17656 72.34135
#
# Poissons Ratio (x) = 0.08986 0.13156
# Poissons Ratio (y) = 0.19296 0.33145
# Poissons Ratio (z) = 0.22327 0.26197
#
# Static dielectric constant tensor:
#      x y z
#    x 3.817030 0.000000 0.012910 
#    y 0.000000 3.377640 0.000000 
#    z 0.012910 0.000000 4.321280 
# 
# 
# High freq. dielectric constant tensor:
#      x y z
#    x 1.758040 0.000000 0.004870 
#    y 0.000000 1.740000 0.000000 
#    z 0.004870 0.000000 1.752110 
# 
# From -- ./inp_files/51757.got.cif
#   From: 2010.06.25/outbox.cif.g09.slc.cpg/sg11_26_cif.got.tgz:51757.got - 2010.06.27 23:14:04.
