data_PCOD8074336
_publ_section_title
;
Structure prediction by ZEFSAII (Michael W. Deem and Ramdas Pophale) SiO2 
 PCOD8074336
Probable space group: P 21/M
;
_chemical_formula_sum "Si O2"
_cell_formula_units_Z 32
_cell_length_a 22.061889
_cell_length_b 9.032858
_cell_length_c 15.035461
_cell_angle_alpha 90.000000
_cell_angle_beta 32.204480
_cell_angle_gamma 90.000000
_cell_volume 1596.852975
_symmetry_space_group_name_H-M "P 21/M"
_symmetry_group_IT_number 11
_symmetry_cell_setting 'monoclinic'
loop_
_space_group_symop_operation_xyz
x,y,z
-x,1/2+y,-z
-x,-y,-z
x,1/2-y,z
loop_
_atom_site_type_symbol
_atom_site_label
_atom_site_fract_x
_atom_site_fract_y
_atom_site_fract_z
Si Si1 0.780457 0.574223 0.904653
Si Si2 0.794682 0.410713 0.708179
Si Si3 0.458202 0.927107 0.778882
Si Si4 0.681487 0.076871 0.484255
Si Si5 0.834697 0.075531 0.457533
Si Si6 0.467903 0.594064 0.958501
Si Si7 0.064252 0.921146 0.148508
Si Si8 0.112227 0.580676 0.891286
O O1 0.765771 0.750000 0.922086
O O2 0.822948 0.523401 0.753480
O O3 0.879234 0.525036 0.848044
O O4 0.664063 0.501050 0.087277
O O5 0.857551 0.250000 0.642714
O O6 0.818217 0.477053 0.580612
O O7 0.663974 0.375324 0.877376
O O8 0.446181 0.750000 0.782144
O O9 0.566693 0.992564 0.592076
O O10 0.498008 0.979463 0.827758
O O11 0.657045 0.250000 0.503186
O O12 0.724289 0.042166 0.532602
O O13 0.777667 0.018976 0.296697
O O14 0.862780 0.250000 0.418751
O O15 0.937148 0.980042 0.290153
O O16 0.533355 0.750000 0.886149
O O17 0.500000 0.500000 0.000000
O O18 0.062981 0.750000 0.181445
O O19 0.132477 0.937540 0.971541
O O20 0.094668 0.750000 0.885719
O O21 0.000000 0.500000 0.000000
#
# Coordination Sequence:
#
# PCOD8074336 Si02
#       8
#     4   4   4   4   4   4   4   4
#     4  11  23  40  61  82 110 154 200 241 286 339
#     4   9  19  35  53  78 113 152 192 236 284 335
#     4  10  21  37  56  81 114 151 190 236 286 339
#     4  10  20  36  59  89 121 150 187 235 285 343
#     4  10  20  35  58  87 120 155 192 238 289 339
#     4   9  17  29  47  72 105 145 186 228 277 330
#     4  11  23  39  60  86 116 152 192 239 290 344
#     4  10  21  38  62  89 119 151 186 232 288 344
#
# _framework density 20.039415999999999
#
# number of rings (size 3 to 8) (size 9 to 14) (size 15 to 20)
#    0.000    2.000    1.250    3.375    0.000    6.000 
#    0.000    0.625    0.000    0.000    0.000    0.000 
#    0.000    0.000    0.000    0.000    0.000    0.000 
#
# Total GULP energy -396482.062603 kJ/mol
# GULP energy per Si atom -12390.064456 kJ/mol
# Density = 1.999381 g / cm^3
# Si number density = 20.039416 Si / 1000 Ang^3
#
#
#
# Elastic Constant Matrix: (Units=GPa)
#
#
# Indices 1 2 3 4 5 6 
#
# 1 51.7341 23.7716 0.5729 0.0000 6.4814 0.0000
# 2 23.7716 81.6063 17.9902 0.0000 -3.6131 0.0000
# 3 0.5729 17.9902 77.5198 0.0000 7.5374 0.0000
# 4 0.0000 0.0000 0.0000 32.3373 0.0000 -2.3498
# 5 6.4814 -3.6131 7.5374 0.0000 26.8135 0.0000
# 6 0.0000 0.0000 0.0000 -2.3498 0.0000 30.3763
#
#
#
# Elastic Compliance Matrix: (Units=1/GPa)
#
#
# Indices 1 2 3 4 5 6 
#
# 1 0.023818 -0.007789 0.002358 0.000000 -0.007470 0.000000
# 2 -0.007789 0.015648 -0.004073 0.000000 0.005136 0.000000
# 3 0.002358 -0.004073 0.014328 0.000000 -0.005147 0.000000
# 4 0.000000 0.000000 0.000000 0.031099 0.000000 0.002406
# 5 -0.007470 0.005136 -0.005147 0.000000 0.041239 0.000000
# 6 0.000000 0.000000 0.000000 0.002406 0.000000 0.033106
#
#
# Mechanical properties :
#
#
# Convention : Reuss Voigt Hill
#
# Bulk Modulus (GPa) = 28.74706 32.83662 30.79184
# Shear Modulus (GPa) = 26.33760 29.14047 27.73904
#
# Velocity S-wave (km/s) = 3.62925 3.81748 3.72455
# Velocity P-wave (km/s) = 5.65140 5.98769 5.82197
#
# Compressibility (1/GPa) = 0.03478617
#
# Stress axis : x y z
#
# Youngs Moduli (GPa) = 41.98470 63.90536 69.79231
#
# Poissons Ratio (x) = 0.49774 -0.16456
# Poissons Ratio (y) = 0.32700 0.28429
# Poissons Ratio (z) = -0.09899 0.26031
#
# Static dielectric constant tensor:
#      x y z
#    x 3.414320 0.000000 0.167040 
#    y 0.000000 3.822680 0.000000 
#    z 0.167040 0.000000 3.832580 
# 
# 
# High freq. dielectric constant tensor:
#      x y z
#    x 1.767210 0.000000 0.002780 
#    y 0.000000 1.779970 0.000000 
#    z 0.002780 0.000000 1.784930 
# 
# From -- ./inp_files/55601.got.cif
#   From: 2010.06.25/outbox.cif.g09.slc.cpg/sg11_28_cif.got.tgz:55601.got - 2010.06.27 23:14:04.
