data_PCOD8074400
_publ_section_title
;
Structure prediction by ZEFSAII (Michael W. Deem and Ramdas Pophale) SiO2 
 PCOD8074400
Probable space group: P 21/M
;
_chemical_formula_sum "Si O2"
_cell_formula_units_Z 28
_cell_length_a 14.701898
_cell_length_b 9.249367
_cell_length_c 21.462971
_cell_angle_alpha 90.000000
_cell_angle_beta 31.232606
_cell_angle_gamma 90.000000
_cell_volume 1513.336441
_symmetry_space_group_name_H-M "P 21/M"
_symmetry_group_IT_number 11
_symmetry_cell_setting 'monoclinic'
loop_
_space_group_symop_operation_xyz
x,y,z
-x,1/2+y,-z
-x,-y,-z
x,1/2-y,z
loop_
_atom_site_type_symbol
_atom_site_label
_atom_site_fract_x
_atom_site_fract_y
_atom_site_fract_z
Si Si1 0.770219 0.417720 0.774226
Si Si2 0.548199 0.416423 0.687759
Si Si3 0.161787 0.915589 0.125955
Si Si4 0.562547 0.919918 0.110170
Si Si5 0.542133 0.080726 0.379789
Si Si6 0.761260 0.918055 0.348674
Si Si7 0.956372 0.417794 0.462708
O O1 0.810571 0.250000 0.734868
O O2 0.744399 0.441710 0.862778
O O3 0.597042 0.472106 0.840140
O O4 0.933509 0.514269 0.657795
O O5 0.499726 0.250000 0.703794
O O6 0.476048 0.468005 0.796797
O O7 0.456470 0.513804 0.689639
O O8 0.755005 0.440061 0.563956
O O9 0.176607 0.750000 0.096870
O O10 0.959066 0.962278 0.249562
O O11 0.257426 0.008155 0.017244
O O12 0.585395 0.750000 0.091210
O O13 0.576245 0.250000 0.354211
O O14 0.358166 0.045001 0.521479
O O15 0.701770 0.011503 0.324538
O O16 0.743003 0.750000 0.341826
O O17 0.003575 0.250000 0.443607
O O18 0.000000 0.500000 0.500000
#
# Coordination Sequence:
#
# PCOD8074400 Si02
#       7
#     4   4   4   4   4   4   4
#     4  10  20  37  56  79 113 147 183 230 278 322
#     4  10  21  37  54  78 113 150 179 218 278 324
#     4  10  21  36  57  81 108 145 187 229 273 321
#     4  10  21  37  54  75 112 152 185 225 271 321
#     4  10  20  35  60  88 108 137 178 222 272 330
#     4   9  19  37  57  82 114 141 170 222 282 325
#     4  11  21  34  54  80 111 145 182 222 270 324
#
# _framework density 18.502165999999999
#
# number of rings (size 3 to 8) (size 9 to 14) (size 15 to 20)
#    0.000    2.000    1.429    2.143    0.000    5.143 
#    0.000    0.714    0.000    0.000    0.000    0.000 
#    0.000    0.000    0.000    0.000    0.000    0.000 
#
# Total GULP energy -347321.180071 kJ/mol
# GULP energy per Si atom -12404.327860 kJ/mol
# Density = 1.846005 g / cm^3
# Si number density = 18.502166 Si / 1000 Ang^3
#
#
#
# Elastic Constant Matrix: (Units=GPa)
#
#
# Indices 1 2 3 4 5 6 
#
# 1 124.4500 48.7576 42.9165 0.0000 9.9321 0.0000
# 2 48.7576 64.8531 36.5764 0.0000 7.6942 0.0000
# 3 42.9165 36.5764 96.7934 0.0000 7.8469 0.0000
# 4 0.0000 0.0000 0.0000 35.1969 0.0000 0.6275
# 5 9.9321 7.6942 7.8469 0.0000 19.2195 0.0000
# 6 0.0000 0.0000 0.0000 0.6275 0.0000 28.5221
#
#
#
# Elastic Compliance Matrix: (Units=1/GPa)
#
#
# Indices 1 2 3 4 5 6 
#
# 1 0.011902 -0.007380 -0.002305 0.000000 -0.002255 0.000000
# 2 -0.007380 0.024645 -0.005740 0.000000 -0.003709 0.000000
# 3 -0.002305 -0.005740 0.013693 0.000000 -0.002101 0.000000
# 4 0.000000 0.000000 0.000000 0.028423 0.000000 -0.000625
# 5 -0.002255 -0.003709 -0.002101 0.000000 0.055538 0.000000
# 6 0.000000 0.000000 0.000000 -0.000625 0.000000 0.035074
#
#
# Mechanical properties :
#
#
# Convention : Reuss Voigt Hill
#
# Bulk Modulus (GPa) = 51.57672 60.28862 55.93267
# Shear Modulus (GPa) = 24.20256 27.11076 25.65666
#
# Velocity S-wave (km/s) = 3.62068 3.83204 3.72786
# Velocity P-wave (km/s) = 6.73911 7.22736 6.98750
#
# Compressibility (1/GPa) = 0.01938859
#
# Stress axis : x y z
#
# Youngs Moduli (GPa) = 84.02115 40.57553 73.03071
#
# Poissons Ratio (x) = 0.29946 0.16836
# Poissons Ratio (y) = 0.62009 0.41920
# Poissons Ratio (z) = 0.19370 0.23291
#
# Static dielectric constant tensor:
#      x y z
#    x 3.447190 0.000000 -0.081230 
#    y 0.000000 3.427890 0.000000 
#    z -0.081230 0.000000 3.475480 
# 
# 
# High freq. dielectric constant tensor:
#      x y z
#    x 1.718810 0.000000 0.004510 
#    y 0.000000 1.717310 0.000000 
#    z 0.004510 0.000000 1.711610 
# 
# From -- ./inp_files/37397.got.cif
#   From: 2010.06.25/outbox.cif.g09.slc.cpg/sg11_19_cif.got.tgz:37397.got - 2010.06.27 23:14:04.
