data_PCOD8074269
_publ_section_title
;
Structure prediction by ZEFSAII (Michael W. Deem and Ramdas Pophale) SiO2 
 PCOD8074269
Probable space group: P 21/M
;
_chemical_formula_sum "Si O2"
_cell_formula_units_Z 32
_cell_length_a 21.707045
_cell_length_b 8.953929
_cell_length_c 27.913685
_cell_angle_alpha 90.000000
_cell_angle_beta 17.697172
_cell_angle_gamma 90.000000
_cell_volume 1649.244957
_symmetry_space_group_name_H-M "P 21/M"
_symmetry_group_IT_number 11
_symmetry_cell_setting 'monoclinic'
loop_
_space_group_symop_operation_xyz
x,y,z
-x,1/2+y,-z
-x,-y,-z
x,1/2-y,z
loop_
_atom_site_type_symbol
_atom_site_label
_atom_site_fract_x
_atom_site_fract_y
_atom_site_fract_z
Si Si1 0.580804 0.925403 0.710296
Si Si2 0.166766 0.421012 0.019855
Si Si3 0.265670 0.583157 0.213519
Si Si4 0.000276 0.577564 0.755805
Si Si5 0.149416 0.421408 0.925207
Si Si6 0.607769 0.074205 0.592043
Si Si7 0.638477 0.417709 0.968443
Si Si8 0.917271 0.074174 0.514086
O O1 0.615894 0.750000 0.685602
O O2 0.348297 0.963712 0.892233
O O3 0.666132 0.988280 0.597058
O O4 0.698452 0.005163 0.666022
O O5 0.248019 0.250000 0.961238
O O6 0.073621 0.451205 0.036063
O O7 0.007097 0.449583 0.181134
O O8 0.213070 0.750000 0.271130
O O9 0.326828 0.589860 0.113522
O O10 0.072079 0.474361 0.357618
O O11 0.438766 0.520175 0.121565
O O12 0.960008 0.750000 0.773170
O O13 0.828907 0.483730 0.855829
O O14 0.226121 0.530740 0.571286
O O15 0.137611 0.250000 0.920697
O O16 0.380994 0.477528 0.744981
O O17 0.000000 0.500000 0.000000
O O18 0.608241 0.250000 0.602880
O O19 0.597895 0.250000 0.018184
O O20 0.901987 0.250000 0.529653
O O21 0.000000 0.000000 0.500000
#
# Coordination Sequence:
#
# PCOD8074269 Si02
#       8
#     4   4   4   4   4   4   4   4
#     4  11  22  37  57  81 110 147 189 235 284 341
#     4   9  20  38  58  83 114 150 189 231 279 338
#     4  10  21  38  55  75 103 140 187 233 284 342
#     4  10  20  35  58  82 109 145 188 233 282 334
#     4   9  18  35  59  85 116 151 189 227 272 329
#     4   9  19  37  60  86 113 148 189 230 275 333
#     4  10  21  35  54  78 108 143 180 228 283 340
#     4  12  25  39  55  75 104 141 185 238 290 340
#
# _framework density 19.402818
#
# number of rings (size 3 to 8) (size 9 to 14) (size 15 to 20)
#    0.000    2.000    0.000    4.500    1.750    6.500 
#    0.000    0.625    0.000    0.000    0.000    0.000 
#    0.000    0.000    0.000    0.000    0.000    0.000 
#
# Total GULP energy -396704.932431 kJ/mol
# GULP energy per Si atom -12397.029138 kJ/mol
# Density = 1.935866 g / cm^3
# Si number density = 19.402818 Si / 1000 Ang^3
#
#
#
# Elastic Constant Matrix: (Units=GPa)
#
#
# Indices 1 2 3 4 5 6 
#
# 1 121.1450 52.9040 53.9774 0.0000 -10.9822 0.0000
# 2 52.9040 110.7095 28.7960 0.0000 -5.8441 0.0000
# 3 53.9774 28.7960 72.3452 0.0000 8.4779 0.0000
# 4 0.0000 0.0000 0.0000 28.7125 0.0000 -5.2169
# 5 -10.9822 -5.8441 8.4779 0.0000 32.3191 0.0000
# 6 0.0000 0.0000 0.0000 -5.2169 0.0000 31.7055
#
#
#
# Elastic Compliance Matrix: (Units=1/GPa)
#
#
# Indices 1 2 3 4 5 6 
#
# 1 0.015593 -0.004252 -0.010805 0.000000 0.007364 0.000000
# 2 -0.004252 0.011519 -0.001534 0.000000 0.001040 0.000000
# 3 -0.010805 -0.001534 0.023685 0.000000 -0.010162 0.000000
# 4 0.000000 0.000000 0.000000 0.035901 0.000000 0.005907
# 5 0.007364 0.001040 -0.010162 0.000000 0.036298 0.000000
# 6 0.000000 0.000000 0.000000 0.005907 0.000000 0.032512
#
#
# Mechanical properties :
#
#
# Convention : Reuss Voigt Hill
#
# Bulk Modulus (GPa) = 56.76866 63.95049 60.35957
# Shear Modulus (GPa) = 25.69870 29.78224 27.74047
#
# Velocity S-wave (km/s) = 3.64329 3.92209 3.78526
# Velocity P-wave (km/s) = 6.85708 7.31719 7.09087
#
# Compressibility (1/GPa) = 0.01761535
#
# Stress axis : x y z
#
# Youngs Moduli (GPa) = 64.13022 86.81593 42.21999
#
# Poissons Ratio (x) = 0.36918 0.45617
# Poissons Ratio (y) = 0.27271 0.06476
# Poissons Ratio (z) = 0.69290 0.13317
#
# Static dielectric constant tensor:
#      x y z
#    x 3.485750 0.000000 0.075110 
#    y 0.000000 3.777090 0.000000 
#    z 0.075110 0.000000 4.046310 
# 
# 
# High freq. dielectric constant tensor:
#      x y z
#    x 1.745880 0.000000 0.010920 
#    y 0.000000 1.758530 0.000000 
#    z 0.010920 0.000000 1.751200 
# 
# From -- ./inp_files/67112.got.cif
#   From: 2010.06.25/outbox.cif.g09.slc.cpg/sg11_34_cif.got.tgz:67112.got - 2010.06.27 23:14:04.
