data_PCOD8074554
_publ_section_title
;
Structure prediction by ZEFSAII (Michael W. Deem and Ramdas Pophale) SiO2 
 PCOD8074554
Probable space group: P 21/M
;
_chemical_formula_sum "Si O2"
_cell_formula_units_Z 32
_cell_length_a 28.153631
_cell_length_b 8.639653
_cell_length_c 22.312502
_cell_angle_alpha 90.000000
_cell_angle_beta 161.551859
_cell_angle_gamma 90.000000
_cell_volume 1717.429255
_symmetry_space_group_name_H-M "P 21/M"
_symmetry_group_IT_number 11
_symmetry_cell_setting 'monoclinic'
loop_
_space_group_symop_operation_xyz
x,y,z
-x,1/2+y,-z
-x,-y,-z
x,1/2-y,z
loop_
_atom_site_type_symbol
_atom_site_label
_atom_site_fract_x
_atom_site_fract_y
_atom_site_fract_z
Si Si1 0.536910 0.068388 0.711698
Si Si2 0.026348 0.068661 0.692706
Si Si3 0.321366 0.569124 0.997153
Si Si4 0.447090 0.071470 0.029785
Si Si5 0.933105 0.067261 0.007673
Si Si6 0.853984 0.433351 0.045129
Si Si7 0.716024 0.929688 0.287520
Si Si8 0.772449 0.933507 0.707840
O O1 0.516187 0.250000 0.682387
O O2 0.383868 0.992659 0.503078
O O3 0.562954 0.019201 0.811873
O O4 0.679947 0.016209 0.843387
O O5 0.996186 0.250000 0.653566
O O6 0.168671 0.026455 0.822168
O O7 0.047288 0.017237 0.786450
O O8 0.887036 0.979115 0.497668
O O9 0.282239 0.750000 0.955897
O O10 0.396682 0.534046 0.024346
O O11 0.441572 0.250000 0.042263
O O12 0.616455 0.027331 0.214910
O O13 0.335488 0.034380 0.841669
O O14 0.916746 0.250000 0.984594
O O15 0.912515 0.009315 0.050919
O O16 0.095414 0.010498 0.178678
O O17 0.802249 0.994985 0.810289
O O18 0.872275 0.250000 0.075958
O O19 0.695404 0.750000 0.278229
O O20 0.766380 0.750000 0.702741
#
# Coordination Sequence:
#
# PCOD8074554 Si02
#       8
#     4   4   4   4   4   4   4   4
#     4   8  16  31  50  71  95 129 170 208 248 302
#     4  11  22  36  55  80 109 138 176 225 269 312
#     4  10  20  36  57  79 107 143 180 217 266 325
#     4  10  21  37  57  83 111 138 176 224 266 308
#     4   9  18  31  48  71  98 129 164 204 252 308
#     4   9  18  34  52  70  98 133 169 208 255 314
#     4  10  21  38  58  79 108 145 179 214 264 322
#     4   9  17  31  49  69  96 128 164 206 250 299
#
# _framework density 18.632498999999999
#
# number of rings (size 3 to 8) (size 9 to 14) (size 15 to 20)
#    0.000    2.500    0.000    3.000    0.000    4.000 
#    0.000    5.625    0.000    0.000    0.000    0.000 
#    0.000    0.000    0.000    0.000    0.000    0.000 
#
# Total GULP energy -396838.499983 kJ/mol
# GULP energy per Si atom -12401.203124 kJ/mol
# Density = 1.859009 g / cm^3
# Si number density = 18.632499 Si / 1000 Ang^3
#
#
#
# Elastic Constant Matrix: (Units=GPa)
#
#
# Indices 1 2 3 4 5 6 
#
# 1 84.2647 18.1947 1.8285 0.0000 -3.8232 0.0000
# 2 18.1947 30.2325 16.5563 0.0000 -3.5925 0.0000
# 3 1.8285 16.5563 89.6603 0.0000 -1.7439 0.0000
# 4 0.0000 0.0000 0.0000 26.8803 0.0000 -2.1328
# 5 -3.8232 -3.5925 -1.7439 0.0000 12.0216 0.0000
# 6 0.0000 0.0000 0.0000 -2.1328 0.0000 28.6520
#
#
#
# Elastic Compliance Matrix: (Units=1/GPa)
#
#
# Indices 1 2 3 4 5 6 
#
# 1 0.013839 -0.008858 0.001392 0.000000 0.001956 0.000000
# 2 -0.008858 0.043717 -0.007714 0.000000 0.009128 0.000000
# 3 0.001392 -0.007714 0.012549 0.000000 -0.000042 0.000000
# 4 0.000000 0.000000 0.000000 0.037423 0.000000 0.002786
# 5 0.001956 0.009128 -0.000042 0.000000 0.086527 0.000000
# 6 0.000000 0.000000 0.000000 0.002786 0.000000 0.035109
#
#
# Mechanical properties :
#
#
# Convention : Reuss Voigt Hill
#
# Bulk Modulus (GPa) = 25.16203 30.81293 27.98748
# Shear Modulus (GPa) = 18.33028 24.68266 21.50647
#
# Velocity S-wave (km/s) = 3.13993 3.64360 3.40110
# Velocity P-wave (km/s) = 5.16519 5.85442 5.52057
#
# Compressibility (1/GPa) = 0.03974242
#
# Stress axis : x y z
#
# Youngs Moduli (GPa) = 72.26187 22.87427 79.69064
#
# Poissons Ratio (x) = 0.20262 -0.11089
# Poissons Ratio (y) = 0.64010 0.61477
# Poissons Ratio (z) = -0.10055 0.17646
#
# Static dielectric constant tensor:
#      x y z
#    x 3.434260 0.000000 0.005670 
#    y 0.000000 3.247720 0.000000 
#    z 0.005670 0.000000 3.608810 
# 
# 
# High freq. dielectric constant tensor:
#      x y z
#    x 1.723550 0.000000 -0.000970 
#    y 0.000000 1.711890 0.000000 
#    z -0.000970 0.000000 1.726990 
# 
# From -- ./inp_files/67089.got.cif
#   From: 2010.06.25/outbox.cif.g09.slc.cpg/sg11_34_cif.got.tgz:67089.got - 2010.06.27 23:14:04.
