data_PCOD8074825
_publ_section_title
;
Structure prediction by ZEFSAII (Michael W. Deem and Ramdas Pophale) SiO2 
 PCOD8074825
Probable space group: P 21/M
;
_chemical_formula_sum "Si O2"
_cell_formula_units_Z 24
_cell_length_a 9.960768
_cell_length_b 14.142056
_cell_length_c 17.477571
_cell_angle_alpha 90.000000
_cell_angle_beta 150.008669
_cell_angle_gamma 90.000000
_cell_volume 1230.672863
_symmetry_space_group_name_H-M "P 21/M"
_symmetry_group_IT_number 11
_symmetry_cell_setting 'monoclinic'
loop_
_space_group_symop_operation_xyz
x,y,z
-x,1/2+y,-z
-x,-y,-z
x,1/2-y,z
loop_
_atom_site_type_symbol
_atom_site_label
_atom_site_fract_x
_atom_site_fract_y
_atom_site_fract_z
Si Si1 0.956629 0.450215 0.818809
Si Si2 0.809472 0.750000 0.103156
Si Si3 0.961514 0.455999 0.298544
Si Si4 0.592403 0.944426 0.364163
Si Si5 0.175260 0.250000 0.558459
Si Si6 0.472057 0.543997 0.135372
Si Si7 0.365092 0.250000 0.810497
Si Si8 0.798272 0.250000 0.244079
O O1 0.024866 0.340539 0.841527
O O2 0.920183 0.501457 0.720082
O O3 0.680958 0.463144 0.726811
O O4 0.179684 0.501352 0.979866
O O5 0.780556 0.750000 0.180325
O O6 0.520611 0.750000 0.919845
O O7 0.158904 0.487466 0.465055
O O8 0.669982 0.500036 0.170118
O O9 0.928885 0.343070 0.270185
O O10 0.640969 0.834109 0.380317
O O11 0.576798 0.987485 0.270992
O O12 0.135692 0.250000 0.630896
O O13 0.878654 0.250000 0.374039
O O14 0.452074 0.656924 0.111204
#
# Coordination Sequence:
#
# PCOD8074825 Si02
#       8
#     4   2   4   4   2   4   2   2
#     4  12  23  37  58  90 118 153 188 238 294 338
#     4  12  21  36  58  86 119 146 192 242 281 334
#     4  11  21  39  62  87 112 156 195 234 286 336
#     4  10  22  38  59  85 123 149 190 237 287 346
#     4   8  19  38  58  82 113 160 188 224 299 334
#     4  11  21  39  62  87 112 156 195 234 286 336
#     4  10  20  36  60  86 114 146 196 244 270 342
#     4  10  20  36  60  86 114 146 196 244 270 342
#
# _framework density 19.501525000000001
#
# number of rings (size 3 to 8) (size 9 to 14) (size 15 to 20)
#    0.000    1.333    3.333    3.500    0.000    0.000 
#    0.000    0.000    0.000    4.000    0.000    0.000 
#    0.000    0.000    0.000    0.000    0.000    0.000 
#
# Total GULP energy -297590.521730 kJ/mol
# GULP energy per Si atom -12399.605072 kJ/mol
# Density = 1.945714 g / cm^3
# Si number density = 19.501525 Si / 1000 Ang^3
#
#
#
# Elastic Constant Matrix: (Units=GPa)
#
#
# Indices 1 2 3 4 5 6 
#
# 1 82.1015 18.3407 21.3639 0.0000 1.6765 0.0000
# 2 18.3407 110.6013 20.7742 0.0000 -4.0068 0.0000
# 3 21.3639 20.7742 83.0157 0.0000 -2.6969 0.0000
# 4 0.0000 0.0000 0.0000 19.1676 0.0000 1.1072
# 5 1.6765 -4.0068 -2.6969 0.0000 37.7828 0.0000
# 6 0.0000 0.0000 0.0000 1.1072 0.0000 19.5739
#
#
#
# Elastic Compliance Matrix: (Units=1/GPa)
#
#
# Indices 1 2 3 4 5 6 
#
# 1 0.013370 -0.001680 -0.003053 0.000000 -0.000989 0.000000
# 2 -0.001680 0.009725 -0.001970 0.000000 0.000965 0.000000
# 3 -0.003053 -0.001970 0.013353 0.000000 0.000880 0.000000
# 4 0.000000 0.000000 0.000000 0.052342 0.000000 -0.002961
# 5 -0.000989 0.000965 0.000880 0.000000 0.026676 0.000000
# 6 0.000000 0.000000 0.000000 -0.002961 0.000000 0.051256
#
#
# Mechanical properties :
#
#
# Convention : Reuss Voigt Hill
#
# Bulk Modulus (GPa) = 43.39604 44.07512 43.73558
# Shear Modulus (GPa) = 26.62299 29.65417 28.13858
#
# Velocity S-wave (km/s) = 3.69884 3.90373 3.80266
# Velocity P-wave (km/s) = 6.36732 6.55505 6.46187
#
# Compressibility (1/GPa) = 0.02304358
#
# Stress axis : x y z
#
# Youngs Moduli (GPa) = 74.79568 102.82780 74.88931
#
# Poissons Ratio (x) = 0.17270 0.22860
# Poissons Ratio (y) = 0.12562 0.14753
# Poissons Ratio (z) = 0.22832 0.20257
#
# Static dielectric constant tensor:
#      x y z
#    x 3.477640 0.000000 -0.352660 
#    y 0.000000 3.733980 0.000000 
#    z -0.352660 0.000000 3.677950 
# 
# 
# High freq. dielectric constant tensor:
#      x y z
#    x 1.752030 0.000000 -0.022160 
#    y 0.000000 1.766910 0.000000 
#    z -0.022160 0.000000 1.764590 
# 
# From -- ./inp_files/47738.got.cif
#   From: 2010.06.25/outbox.cif.g09.slc.cpg/sg11_24_cif.got.tgz:47738.got - 2010.06.27 23:14:04.
