data_PCOD8074974
_publ_section_title
;
Structure prediction by ZEFSAII (Michael W. Deem and Ramdas Pophale) SiO2 
 PCOD8074974
Probable space group: P 21/M
;
_chemical_formula_sum "Si O2"
_cell_formula_units_Z 32
_cell_length_a 23.612067
_cell_length_b 14.402475
_cell_length_c 8.706866
_cell_angle_alpha 90.000000
_cell_angle_beta 148.876211
_cell_angle_gamma 90.000000
_cell_volume 1530.488682
_symmetry_space_group_name_H-M "P 21/M"
_symmetry_group_IT_number 11
_symmetry_cell_setting 'monoclinic'
loop_
_space_group_symop_operation_xyz
x,y,z
-x,1/2+y,-z
-x,-y,-z
x,1/2-y,z
loop_
_atom_site_type_symbol
_atom_site_label
_atom_site_fract_x
_atom_site_fract_y
_atom_site_fract_z
Si Si1 0.164566 0.475789 0.910706
Si Si2 0.259448 0.853462 0.310221
Si Si3 0.446524 0.646361 0.164648
Si Si4 0.680015 0.966557 0.177705
Si Si5 0.021748 0.966400 0.302933
Si Si6 0.127539 0.572519 0.261735
Si Si7 0.493252 0.145209 0.038863
Si Si8 0.336337 0.143851 0.163986
O O1 0.075471 0.425624 0.815735
O O2 0.115213 0.490621 0.627384
O O3 0.198887 0.575468 0.057658
O O4 0.268371 0.409360 0.137807
O O5 0.246695 0.750000 0.212373
O O6 0.205088 0.853312 0.355251
O O7 0.386250 0.880888 0.619628
O O8 0.393995 0.750000 0.057039
O O9 0.534881 0.631352 0.504820
O O10 0.354457 0.567805 0.969204
O O11 0.510294 0.637931 0.152241
O O12 0.797182 0.980293 0.532373
O O13 0.591986 0.929407 0.095258
O O14 0.690682 0.893763 0.066425
O O15 0.077948 0.893396 0.312446
O O16 0.973180 0.048358 0.083907
O O17 0.462204 0.250000 0.019302
O O18 0.299743 0.250000 0.085935
#
# Coordination Sequence:
#
# PCOD8074974 Si02
#       8
#     4   4   4   4   4   4   4   4
#     4  10  20  40  65  84 119 160 197 246 312 359
#     4  10  21  38  62  91 122 156 196 244 299 361
#     4  10  22  37  57  88 124 157 201 247 289 356
#     4  12  21  36  63  89 120 168 196 236 307 358
#     4   9  20  39  61  88 115 153 198 257 304 356
#     4  10  20  36  64  88 115 154 200 250 303 350
#     4  10  21  36  56  90 124 155 200 245 285 357
#     4  11  24  40  59  89 123 159 201 247 297 360
#
# _framework density 20.908353999999999
#
# number of rings (size 3 to 8) (size 9 to 14) (size 15 to 20)
#    0.000    1.750    2.500    1.875    3.500    0.000 
#    0.000    8.750    0.000    1.500    0.000    0.000 
#    0.000    0.000    0.000    0.000    0.000    0.000 
#
# Total GULP energy -396660.263788 kJ/mol
# GULP energy per Si atom -12395.633243 kJ/mol
# Density = 2.086077 g / cm^3
# Si number density = 20.908354 Si / 1000 Ang^3
#
#
#
# Elastic Constant Matrix: (Units=GPa)
#
#
# Indices 1 2 3 4 5 6 
#
# 1 78.8552 19.4337 18.2592 0.0000 -4.9320 0.0000
# 2 19.4337 94.6303 33.8566 0.0000 -1.0412 0.0000
# 3 18.2592 33.8566 97.3763 0.0000 -9.3515 0.0000
# 4 0.0000 0.0000 0.0000 10.3570 0.0000 -9.2352
# 5 -4.9320 -1.0412 -9.3515 0.0000 29.1278 0.0000
# 6 0.0000 0.0000 0.0000 -9.2352 0.0000 24.7017
#
#
#
# Elastic Compliance Matrix: (Units=1/GPa)
#
#
# Indices 1 2 3 4 5 6 
#
# 1 0.013713 -0.002211 -0.001638 0.000000 0.001717 0.000000
# 2 -0.002211 0.012451 -0.004032 0.000000 -0.001224 0.000000
# 3 -0.001638 -0.004032 0.012318 0.000000 0.003533 0.000000
# 4 0.000000 0.000000 0.000000 0.144840 0.000000 0.054151
# 5 0.001717 -0.001224 0.003533 0.000000 0.035713 0.000000
# 6 0.000000 0.000000 0.000000 0.054151 0.000000 0.060729
#
#
# Mechanical properties :
#
#
# Convention : Reuss Voigt Hill
#
# Bulk Modulus (GPa) = 44.01456 45.99563 45.00509
# Shear Modulus (GPa) = 16.49636 26.12478 21.31057
#
# Velocity S-wave (km/s) = 2.81193 3.53865 3.19601
# Velocity P-wave (km/s) = 5.62490 6.22435 5.93220
#
# Compressibility (1/GPa) = 0.02271976
#
# Stress axis : x y z
#
# Youngs Moduli (GPa) = 72.92329 80.31747 81.18461
#
# Poissons Ratio (x) = 0.17761 0.13295
# Poissons Ratio (y) = 0.16126 0.32732
# Poissons Ratio (z) = 0.11942 0.32382
#
# Static dielectric constant tensor:
#      x y z
#    x 3.995120 0.000000 0.057700 
#    y 0.000000 3.582920 0.000000 
#    z 0.057700 0.000000 3.849180 
# 
# 
# High freq. dielectric constant tensor:
#      x y z
#    x 1.826590 0.000000 -0.001430 
#    y 0.000000 1.785920 0.000000 
#    z -0.001430 0.000000 1.828720 
# 
# From -- ./inp_files/27800.got.cif
#   From: 2010.06.25/outbox.cif.g09.slc.cpg/sg11_14_cif.got.tgz:27800.got - 2010.06.27 23:14:04.
