data_PCOD8074827
_publ_section_title
;
Structure prediction by ZEFSAII (Michael W. Deem and Ramdas Pophale) SiO2 
 PCOD8074827
Probable space group: P 21/M
;
_chemical_formula_sum "Si O2"
_cell_formula_units_Z 32
_cell_length_a 12.104808
_cell_length_b 9.058652
_cell_length_c 15.034375
_cell_angle_alpha 90.000000
_cell_angle_beta 92.532808
_cell_angle_gamma 90.000000
_cell_volume 1646.957461
_symmetry_space_group_name_H-M "P 21/M"
_symmetry_group_IT_number 11
_symmetry_cell_setting 'monoclinic'
loop_
_space_group_symop_operation_xyz
x,y,z
-x,1/2+y,-z
-x,-y,-z
x,1/2-y,z
loop_
_atom_site_type_symbol
_atom_site_label
_atom_site_fract_x
_atom_site_fract_y
_atom_site_fract_z
Si Si1 0.531827 0.077808 0.634448
Si Si2 0.053075 0.576131 0.086805
Si Si3 0.267785 0.079902 0.057222
Si Si4 0.467773 0.420953 0.188911
Si Si5 0.908789 0.919640 0.249549
Si Si6 0.314668 0.418657 0.858222
Si Si7 0.912364 0.075608 0.432978
Si Si8 0.337069 0.578251 0.535707
O O1 0.515108 0.250000 0.648336
O O2 0.622275 0.041929 0.562452
O O3 0.576881 0.006683 0.726430
O O4 0.411584 0.011741 0.607603
O O5 0.046479 0.750000 0.072142
O O6 0.178739 0.522963 0.102749
O O7 0.988231 0.528784 0.172899
O O8 0.000000 0.500000 0.000000
O O9 0.232983 0.250000 0.068597
O O10 0.386352 0.046690 0.104321
O O11 0.271030 0.037624 0.953862
O O12 0.473038 0.250000 0.213374
O O13 0.588344 0.473178 0.165434
O O14 0.932189 0.750000 0.276364
O O15 0.782461 0.940972 0.215856
O O16 0.934436 0.022736 0.333843
O O17 0.357659 0.250000 0.859985
O O18 0.927979 0.250000 0.438789
O O19 0.789604 0.027953 0.459760
O O20 0.000000 0.000000 0.500000
O O21 0.351843 0.750000 0.558683
#
# Coordination Sequence:
#
# PCOD8074827 Si02
#       8
#     4   4   4   4   4   4   4   4
#     4  10  20  36  60  86 114 150 190 236 292 353
#     4  11  22  39  63  88 118 155 199 248 296 350
#     4  10  22  40  58  83 119 156 196 245 295 344
#     4  11  23  36  54  84 122 155 192 241 290 348
#     4  10  22  40  62  88 118 155 196 245 297 348
#     4  10  20  38  61  83 116 155 196 242 291 349
#     4  11  24  41  61  87 120 155 194 244 295 353
#     4   9  20  39  61  85 113 146 191 242 290 344
#
# _framework density 19.429767999999999
#
# number of rings (size 3 to 8) (size 9 to 14) (size 15 to 20)
#    0.000    1.750    1.250    2.625    0.000    7.500 
#    0.000    3.750    0.000    0.000    0.000    0.000 
#    0.000    0.000    0.000    0.000    0.000    0.000 
#
# Total GULP energy -396977.287650 kJ/mol
# GULP energy per Si atom -12405.540239 kJ/mol
# Density = 1.938555 g / cm^3
# Si number density = 19.429768 Si / 1000 Ang^3
#
#
#
# Elastic Constant Matrix: (Units=GPa)
#
#
# Indices 1 2 3 4 5 6 
#
# 1 93.4402 42.0269 57.4755 0.0000 -11.8584 0.0000
# 2 42.0269 74.9726 54.5248 0.0000 -2.1154 0.0000
# 3 57.4755 54.5248 118.5044 0.0000 3.9589 0.0000
# 4 0.0000 0.0000 0.0000 36.8748 0.0000 0.2632
# 5 -11.8584 -2.1154 3.9589 0.0000 27.8583 0.0000
# 6 0.0000 0.0000 0.0000 0.2632 0.0000 35.1217
#
#
#
# Elastic Compliance Matrix: (Units=1/GPa)
#
#
# Indices 1 2 3 4 5 6 
#
# 1 0.018197 -0.005027 -0.006791 0.000000 0.008329 0.000000
# 2 -0.005027 0.021662 -0.007548 0.000000 0.000578 0.000000
# 3 -0.006791 -0.007548 0.015394 0.000000 -0.005652 0.000000
# 4 0.000000 0.000000 0.000000 0.027120 0.000000 -0.000203
# 5 0.008329 0.000578 -0.005652 0.000000 0.040289 0.000000
# 6 0.000000 0.000000 0.000000 -0.000203 0.000000 0.028474
#
#
# Mechanical properties :
#
#
# Convention : Reuss Voigt Hill
#
# Bulk Modulus (GPa) = 60.52885 66.10796 63.31841
# Shear Modulus (GPa) = 25.59184 28.83030 27.21107
#
# Velocity S-wave (km/s) = 3.63319 3.85622 3.74636
# Velocity P-wave (km/s) = 6.98716 7.34338 7.16748
#
# Compressibility (1/GPa) = 0.01652105
#
# Stress axis : x y z
#
# Youngs Moduli (GPa) = 54.95315 46.16443 64.96023
#
# Poissons Ratio (x) = 0.23205 0.44116
# Poissons Ratio (y) = 0.27623 0.49032
# Poissons Ratio (z) = 0.37320 0.34845
#
# Static dielectric constant tensor:
#      x y z
#    x 3.599720 0.000000 -0.089810 
#    y 0.000000 3.594080 0.000000 
#    z -0.089810 0.000000 3.684340 
# 
# 
# High freq. dielectric constant tensor:
#      x y z
#    x 1.758960 0.000000 -0.003890 
#    y 0.000000 1.758920 0.000000 
#    z -0.003890 0.000000 1.765320 
# 
# From -- ./inp_files/38289.got.cif
#   From: 2010.06.25/outbox.cif.g09.slc.cpg/sg11_20_cif.got.tgz:38289.got - 2010.06.27 23:14:04.
