data_PCOD8074464
_publ_section_title
;
Structure prediction by ZEFSAII (Michael W. Deem and Ramdas Pophale) SiO2 
 PCOD8074464
Probable space group: P 21/M
;
_chemical_formula_sum "Si O2"
_cell_formula_units_Z 24
_cell_length_a 11.566869
_cell_length_b 9.224402
_cell_length_c 22.185349
_cell_angle_alpha 90.000000
_cell_angle_beta 148.764825
_cell_angle_gamma 90.000000
_cell_volume 1227.474977
_symmetry_space_group_name_H-M "P 21/M"
_symmetry_group_IT_number 11
_symmetry_cell_setting 'monoclinic'
loop_
_space_group_symop_operation_xyz
x,y,z
-x,1/2+y,-z
-x,-y,-z
x,1/2-y,z
loop_
_atom_site_type_symbol
_atom_site_label
_atom_site_fract_x
_atom_site_fract_y
_atom_site_fract_z
Si Si1 0.267503 0.420715 0.893848
Si Si2 0.918702 0.084454 0.299193
Si Si3 0.467046 0.579350 0.781923
Si Si4 0.881852 0.920135 0.042728
Si Si5 0.568227 0.916086 0.470531
Si Si6 0.377349 0.578061 0.259447
O O1 0.306487 0.250000 0.904941
O O2 0.121105 0.477093 0.773655
O O3 0.137350 0.463422 0.896163
O O4 0.500000 0.500000 0.000000
O O5 0.866146 0.250000 0.256009
O O6 0.759377 0.040984 0.283658
O O7 0.173466 0.064939 0.432104
O O8 0.489694 0.750000 0.781167
O O9 0.456050 0.499875 0.712684
O O10 0.679117 0.513351 0.913373
O O11 0.861684 0.750000 0.027054
O O12 0.125721 0.972580 0.129992
O O13 0.508781 0.750000 0.457060
O O14 0.431137 0.973074 0.351530
O O15 0.500000 0.000000 0.500000
O O16 0.409085 0.750000 0.268344
#
# Coordination Sequence:
#
# PCOD8074464 Si02
#       6
#     4   4   4   4   4   4
#     4  11  20  34  57  85 115 148 185 230 282 335
#     4  10  21  38  57  81 115 151 187 231 283 336
#     4  10  20  36  55  78 111 150 187 229 281 333
#     4   9  18  34  55  78 112 149 181 225 280 332
#     4  10  22  40  61  83 112 147 186 235 284 335
#     4  10  21  37  56  81 110 145 189 232 276 330
#
# _framework density 19.552334999999999
#
# number of rings (size 3 to 8) (size 9 to 14) (size 15 to 20)
#    0.000    2.000    1.667    2.000    0.000    4.000 
#    0.000    1.667    0.000    0.000    0.000    0.000 
#    0.000    0.000    0.000    0.000    0.000    0.000 
#
# Total GULP energy -297601.466064 kJ/mol
# GULP energy per Si atom -12400.061086 kJ/mol
# Density = 1.950783 g / cm^3
# Si number density = 19.552335 Si / 1000 Ang^3
#
#
#
# Elastic Constant Matrix: (Units=GPa)
#
#
# Indices 1 2 3 4 5 6 
#
# 1 146.1828 46.6112 47.9891 0.0000 -4.2258 0.0000
# 2 46.6112 52.8368 24.8722 0.0000 -6.8261 0.0000
# 3 47.9891 24.8722 91.3810 0.0000 -0.9316 0.0000
# 4 0.0000 0.0000 0.0000 24.0981 0.0000 -5.0627
# 5 -4.2258 -6.8261 -0.9316 0.0000 31.3674 0.0000
# 6 0.0000 0.0000 0.0000 -5.0627 0.0000 35.8480
#
#
#
# Elastic Compliance Matrix: (Units=1/GPa)
#
#
# Indices 1 2 3 4 5 6 
#
# 1 0.010361 -0.007597 -0.003377 0.000000 -0.000358 0.000000
# 2 -0.007597 0.027947 -0.003566 0.000000 0.004952 0.000000
# 3 -0.003377 -0.003566 0.013679 0.000000 -0.000825 0.000000
# 4 0.000000 0.000000 0.000000 0.042766 0.000000 0.006040
# 5 -0.000358 0.004952 -0.000825 0.000000 0.032885 0.000000
# 6 0.000000 0.000000 0.000000 0.006040 0.000000 0.028748
#
#
# Mechanical properties :
#
#
# Convention : Reuss Voigt Hill
#
# Bulk Modulus (GPa) = 43.65705 58.81620 51.23662
# Shear Modulus (GPa) = 25.89282 29.65791 27.77537
#
# Velocity S-wave (km/s) = 3.64302 3.89890 3.77313
# Velocity P-wave (km/s) = 6.33026 7.10037 6.72635
#
# Compressibility (1/GPa) = 0.02290581
#
# Stress axis : x y z
#
# Youngs Moduli (GPa) = 96.51160 35.78231 73.10429
#
# Poissons Ratio (x) = 0.27184 0.24689
# Poissons Ratio (y) = 0.73320 0.26073
# Poissons Ratio (z) = 0.32594 0.12762
#
# Static dielectric constant tensor:
#      x y z
#    x 3.495090 0.000000 0.038680 
#    y 0.000000 6.415180 0.000000 
#    z 0.038680 0.000000 3.796660 
# 
# 
# High freq. dielectric constant tensor:
#      x y z
#    x 1.771920 0.000000 0.004830 
#    y 0.000000 1.738180 0.000000 
#    z 0.004830 0.000000 1.766550 
# 
# From -- ./inp_files/33922.got.cif
#   From: 2010.06.25/outbox.cif.g09.slc.cpg/sg11_17_cif.got.tgz:33922.got - 2010.06.27 23:14:04.
