data_PCOD8074447
_publ_section_title
;
Structure prediction by ZEFSAII (Michael W. Deem and Ramdas Pophale) SiO2 
 PCOD8074447
Probable space group: P 21/M
;
_chemical_formula_sum "Si O2"
_cell_formula_units_Z 32
_cell_length_a 12.224188
_cell_length_b 8.448729
_cell_length_c 30.973052
_cell_angle_alpha 90.000000
_cell_angle_beta 29.312407
_cell_angle_gamma 90.000000
_cell_volume 1566.070596
_symmetry_space_group_name_H-M "P 21/M"
_symmetry_group_IT_number 11
_symmetry_cell_setting 'monoclinic'
loop_
_space_group_symop_operation_xyz
x,y,z
-x,1/2+y,-z
-x,-y,-z
x,1/2-y,z
loop_
_atom_site_type_symbol
_atom_site_label
_atom_site_fract_x
_atom_site_fract_y
_atom_site_fract_z
Si Si1 0.847187 0.561809 0.766385
Si Si2 0.861249 0.431716 0.974950
Si Si3 0.701022 0.066817 0.621387
Si Si4 0.745959 0.936293 0.425605
Si Si5 0.444478 0.936759 0.846948
Si Si6 0.908979 0.064966 0.460816
Si Si7 0.539148 0.437307 0.939196
Si Si8 0.318097 0.933515 0.798434
O O1 0.841400 0.750000 0.773250
O O2 0.666966 0.496116 0.793270
O O3 0.782409 0.482446 0.835023
O O4 0.090712 0.508914 0.666846
O O5 0.937536 0.250000 0.945142
O O6 0.053355 0.541235 0.889138
O O7 0.788478 0.479766 0.048610
O O8 0.636627 0.459447 0.026331
O O9 0.757928 0.250000 0.606129
O O10 0.757471 0.009292 0.553525
O O11 0.439363 0.028799 0.718300
O O12 0.837823 0.975417 0.611950
O O13 0.744491 0.750000 0.420664
O O14 0.500000 0.000000 0.500000
O O15 0.828516 0.977144 0.445486
O O16 0.469375 0.750000 0.836369
O O17 0.419496 0.006171 0.807739
O O18 0.890367 0.250000 0.457329
O O19 0.498581 0.250000 0.950275
O O20 0.500000 0.500000 0.000000
O O21 0.369202 0.750000 0.774900
#
# Coordination Sequence:
#
# PCOD8074447 Si02
#       8
#     4   4   4   4   4   4   4   4
#     4  10  20  39  64  91 120 154 198 244 295 356
#     4  10  20  36  54  78 114 153 194 241 293 348
#     4  10  21  37  59  87 118 157 201 245 299 363
#     4  12  25  42  64  92 124 159 202 255 314 369
#     4   8  17  32  54  81 113 151 188 232 283 340
#     4  10  21  40  63  86 117 155 199 250 303 362
#     4  11  22  40  63  88 116 153 199 246 296 353
#     4  11  20  32  52  83 119 154 193 237 292 353
#
# _framework density 20.433306999999999
#
# number of rings (size 3 to 8) (size 9 to 14) (size 15 to 20)
#    0.000    1.750    0.000    6.000    0.000    2.500 
#    2.250    6.250    0.000    0.000    0.000    0.000 
#    0.000    0.000    0.000    0.000    0.000    0.000 
#
# Total GULP energy -396689.684047 kJ/mol
# GULP energy per Si atom -12396.552626 kJ/mol
# Density = 2.038680 g / cm^3
# Si number density = 20.433307 Si / 1000 Ang^3
#
#
#
# Elastic Constant Matrix: (Units=GPa)
#
#
# Indices 1 2 3 4 5 6 
#
# 1 57.1217 16.8843 40.0668 0.0000 13.6437 0.0000
# 2 16.8843 72.1177 31.0409 0.0000 6.5716 0.0000
# 3 40.0668 31.0409 159.0971 0.0000 6.4426 0.0000
# 4 0.0000 0.0000 0.0000 36.8604 0.0000 -0.4604
# 5 13.6437 6.5716 6.4426 0.0000 29.0615 0.0000
# 6 0.0000 0.0000 0.0000 -0.4604 0.0000 28.4171
#
#
#
# Elastic Compliance Matrix: (Units=1/GPa)
#
#
# Indices 1 2 3 4 5 6 
#
# 1 0.024217 -0.002548 -0.005211 0.000000 -0.009638 0.000000
# 2 -0.002548 0.015634 -0.002335 0.000000 -0.001821 0.000000
# 3 -0.005211 -0.002335 0.008005 0.000000 0.001200 0.000000
# 4 0.000000 0.000000 0.000000 0.027135 0.000000 0.000440
# 5 -0.009638 -0.001821 0.001200 0.000000 0.039080 0.000000
# 6 0.000000 0.000000 0.000000 0.000440 0.000000 0.035197
#
#
# Mechanical properties :
#
#
# Convention : Reuss Voigt Hill
#
# Bulk Modulus (GPa) = 36.14450 51.59116 43.86783
# Shear Modulus (GPa) = 27.98310 32.22409 30.10360
#
# Velocity S-wave (km/s) = 3.70467 3.97550 3.84247
# Velocity P-wave (km/s) = 6.00224 6.81001 6.41884
#
# Compressibility (1/GPa) = 0.02766673
#
# Stress axis : x y z
#
# Youngs Moduli (GPa) = 41.29309 63.96424 124.92511
#
# Poissons Ratio (x) = 0.16301 0.65102
# Poissons Ratio (y) = 0.10523 0.29166
# Poissons Ratio (z) = 0.21519 0.14934
#
# Static dielectric constant tensor:
#      x y z
#    x 3.597390 0.000000 0.145880 
#    y 0.000000 4.198140 0.000000 
#    z 0.145880 0.000000 4.204000 
# 
# 
# High freq. dielectric constant tensor:
#      x y z
#    x 1.775600 0.000000 0.011650 
#    y 0.000000 1.797910 0.000000 
#    z 0.011650 0.000000 1.817190 
# 
# From -- ./inp_files/73046.got.cif
#   From: 2010.06.25/outbox.cif.g09.slc.cpg/sg11_37_cif.got.tgz:73046.got - 2010.06.27 23:14:04.
