data_PCOD8075332
_publ_section_title
;
Structure prediction by ZEFSAII (Michael W. Deem and Ramdas Pophale) SiO2 
 PCOD8075332
Probable space group: P 21/M
;
_chemical_formula_sum "Si O2"
_cell_formula_units_Z 24
_cell_length_a 19.157194
_cell_length_b 13.244723
_cell_length_c 13.987501
_cell_angle_alpha 90.000000
_cell_angle_beta 160.639980
_cell_angle_gamma 90.000000
_cell_volume 1176.527878
_symmetry_space_group_name_H-M "P 21/M"
_symmetry_group_IT_number 11
_symmetry_cell_setting 'monoclinic'
loop_
_space_group_symop_operation_xyz
x,y,z
-x,1/2+y,-z
-x,-y,-z
x,1/2-y,z
loop_
_atom_site_type_symbol
_atom_site_label
_atom_site_fract_x
_atom_site_fract_y
_atom_site_fract_z
Si Si1 0.606011 0.535307 0.234237
Si Si2 0.279005 0.556713 0.430835
Si Si3 0.209129 0.864222 0.766296
Si Si4 0.979755 0.491797 0.320669
Si Si5 0.825964 0.636538 0.817975
Si Si6 0.655583 0.864567 0.799820
O O1 0.605379 0.448011 0.316054
O O2 0.849300 0.562850 0.527501
O O3 0.500000 0.500000 0.000000
O O4 0.463517 0.628470 0.086734
O O5 0.232797 0.441050 0.341238
O O6 0.422962 0.612156 0.538564
O O7 0.063145 0.618281 0.162342
O O8 0.135634 0.750000 0.657475
O O9 0.095977 0.932730 0.542267
O O10 0.142945 0.902362 0.785327
O O11 0.818408 0.556074 0.051639
O O12 0.810505 0.750000 0.756565
O O13 0.661381 0.623519 0.692716
O O14 0.717860 0.750000 0.909059
#
# Coordination Sequence:
#
# PCOD8075332 Si02
#       6
#     4   4   4   4   4   4
#     4  10  21  38  61  86 123 159 196 246 298 354
#     4  11  21  40  63  87 122 157 198 253 303 355
#     4  10  21  37  58  85 121 163 203 242 298 360
#     4  10  20  38  59  86 121 158 199 251 299 348
#     4  10  23  40  62  87 117 158 203 250 302 358
#     4  11  21  37  62  90 116 152 204 251 300 357
#
# _framework density 20.399007000000001
#
# number of rings (size 3 to 8) (size 9 to 14) (size 15 to 20)
#    0.000    1.667    3.333    1.500    0.000    1.333 
#    0.000    0.833    0.000    0.000    0.000    0.000 
#    0.000    0.000    0.000    0.000    0.000    0.000 
#
# Total GULP energy -297519.573222 kJ/mol
# GULP energy per Si atom -12396.648884 kJ/mol
# Density = 2.035258 g / cm^3
# Si number density = 20.399007 Si / 1000 Ang^3
#
#
#
# Elastic Constant Matrix: (Units=GPa)
#
#
# Indices 1 2 3 4 5 6 
#
# 1 109.5921 37.6762 29.2491 0.0000 26.2051 0.0000
# 2 37.6762 91.9976 13.9141 0.0000 15.0475 0.0000
# 3 29.2491 13.9141 59.4697 0.0000 12.3808 0.0000
# 4 0.0000 0.0000 0.0000 12.7001 0.0000 2.7228
# 5 26.2051 15.0475 12.3808 0.0000 37.1500 0.0000
# 6 0.0000 0.0000 0.0000 2.7228 0.0000 23.4618
#
#
#
# Elastic Compliance Matrix: (Units=1/GPa)
#
#
# Indices 1 2 3 4 5 6 
#
# 1 0.013018 -0.003662 -0.004237 0.000000 -0.006287 0.000000
# 2 -0.003662 0.012868 -0.000712 0.000000 -0.002392 0.000000
# 3 -0.004237 -0.000712 0.019754 0.000000 -0.003306 0.000000
# 4 0.000000 0.000000 0.000000 0.080749 0.000000 -0.009371
# 5 -0.006287 -0.002392 -0.003306 0.000000 0.033424 0.000000
# 6 0.000000 0.000000 0.000000 -0.009371 0.000000 0.043710
#
#
# Mechanical properties :
#
#
# Convention : Reuss Voigt Hill
#
# Bulk Modulus (GPa) = 35.18773 46.97091 41.07932
# Shear Modulus (GPa) = 21.71862 26.67705 24.19783
#
# Velocity S-wave (km/s) = 3.26650 3.62022 3.44790
# Velocity P-wave (km/s) = 5.61372 6.36795 6.00269
#
# Compressibility (1/GPa) = 0.02841900
#
# Stress axis : x y z
#
# Youngs Moduli (GPa) = 76.81737 77.70928 50.62275
#
# Poissons Ratio (x) = 0.28458 0.21448
# Poissons Ratio (y) = 0.28131 0.03603
# Poissons Ratio (z) = 0.32546 0.05531
#
# Static dielectric constant tensor:
#      x y z
#    x 4.112050 0.000000 0.383480 
#    y 0.000000 3.501710 0.000000 
#    z 0.383480 0.000000 3.785180 
# 
# 
# High freq. dielectric constant tensor:
#      x y z
#    x 1.815060 0.000000 0.015760 
#    y 0.000000 1.775250 0.000000 
#    z 0.015760 0.000000 1.793950 
# 
# From -- ./inp_files/31149.got.cif
#   From: 2010.06.25/outbox.cif.g09.slc.cpg/sg11_16_cif.got.tgz:31149.got - 2010.06.27 23:14:04.
