data_PCOD8075294
_publ_section_title
;
Structure prediction by ZEFSAII (Michael W. Deem and Ramdas Pophale) SiO2 
 PCOD8075294
Probable space group: P 21/M
;
_chemical_formula_sum "Si O2"
_cell_formula_units_Z 32
_cell_length_a 11.157712
_cell_length_b 17.060831
_cell_length_c 17.183136
_cell_angle_alpha 90.000000
_cell_angle_beta 150.727543
_cell_angle_gamma 90.000000
_cell_volume 1599.388285
_symmetry_space_group_name_H-M "P 21/M"
_symmetry_group_IT_number 11
_symmetry_cell_setting 'monoclinic'
loop_
_space_group_symop_operation_xyz
x,y,z
-x,1/2+y,-z
-x,-y,-z
x,1/2-y,z
loop_
_atom_site_type_symbol
_atom_site_label
_atom_site_fract_x
_atom_site_fract_y
_atom_site_fract_z
Si Si1 0.420226 0.840971 0.655943
Si Si2 0.019543 0.408369 0.499195
Si Si3 0.809285 0.657934 0.559831
Si Si4 0.101943 0.658959 0.880425
Si Si5 0.942554 0.910725 0.949953
Si Si6 0.739724 0.158367 0.737576
Si Si7 0.340426 0.342208 0.808264
Si Si8 0.080711 0.658574 0.322201
O O1 0.491546 0.750000 0.706301
O O2 0.313153 0.857145 0.509446
O O3 0.657421 0.894249 0.802953
O O4 0.221385 0.863798 0.607659
O O5 0.044475 0.389566 0.422559
O O6 0.261430 0.378726 0.681136
O O7 0.000000 0.500000 0.500000
O O8 0.820139 0.750000 0.546431
O O9 0.533015 0.624462 0.405917
O O10 0.933263 0.638766 0.712049
O O11 0.081261 0.750000 0.892236
O O12 0.011234 0.607280 0.900439
O O13 0.379828 0.636332 0.015488
O O14 0.100848 0.856583 0.096251
O O15 0.000000 0.000000 0.000000
O O16 0.712585 0.250000 0.707475
O O17 0.865766 0.119942 0.731878
O O18 0.297969 0.250000 0.776792
O O19 0.166851 0.376818 0.778969
O O20 0.035833 0.750000 0.285506
#
# Coordination Sequence:
#
# PCOD8075294 Si02
#       8
#     4   4   4   4   4   4   4   4
#     4  10  21  40  63  85 120 168 209 247 298 373
#     4  11  23  37  60  92 127 160 199 251 312 366
#     4  10  21  39  65  93 118 157 209 252 295 366
#     4  10  21  40  65  89 118 161 206 253 303 364
#     4  12  26  39  56  88 126 159 203 256 312 363
#     4  10  20  37  64  88 117 156 200 249 297 361
#     4   9  18  36  64  89 120 159 200 246 298 365
#     4   8  16  34  60  92 115 147 200 246 291 356
#
# _framework density 20.007648
#
# number of rings (size 3 to 8) (size 9 to 14) (size 15 to 20)
#    0.000    2.000    0.000    4.500    3.500    5.000 
#    4.500    4.375    0.000    0.000    0.000    0.000 
#    0.000    0.000    0.000    0.000    0.000    0.000 
#
# Total GULP energy -396871.770069 kJ/mol
# GULP energy per Si atom -12402.242815 kJ/mol
# Density = 1.996211 g / cm^3
# Si number density = 20.007648 Si / 1000 Ang^3
#
#
#
# Elastic Constant Matrix: (Units=GPa)
#
#
# Indices 1 2 3 4 5 6 
#
# 1 141.3464 31.8116 52.1872 0.0000 -14.4177 0.0000
# 2 31.8116 44.8684 13.0272 0.0000 -3.5870 0.0000
# 3 52.1872 13.0272 105.1889 0.0000 2.4689 0.0000
# 4 0.0000 0.0000 0.0000 18.7639 0.0000 1.8286
# 5 -14.4177 -3.5870 2.4689 0.0000 30.8043 0.0000
# 6 0.0000 0.0000 0.0000 1.8286 0.0000 21.2507
#
#
#
# Elastic Compliance Matrix: (Units=1/GPa)
#
#
# Indices 1 2 3 4 5 6 
#
# 1 0.010557 -0.005769 -0.004632 0.000000 0.004640 0.000000
# 2 -0.005769 0.026538 -0.000434 0.000000 0.000425 0.000000
# 3 -0.004632 -0.000434 0.011933 0.000000 -0.003175 0.000000
# 4 0.000000 0.000000 0.000000 0.053744 0.000000 -0.004625
# 5 0.004640 0.000425 -0.003175 0.000000 0.034939 0.000000
# 6 0.000000 0.000000 0.000000 -0.004625 0.000000 0.047455
#
#
# Mechanical properties :
#
#
# Convention : Reuss Voigt Hill
#
# Bulk Modulus (GPa) = 36.55387 53.93952 45.24670
# Shear Modulus (GPa) = 23.15292 27.12229 25.13761
#
# Velocity S-wave (km/s) = 3.40546 3.68584 3.54842
# Velocity P-wave (km/s) = 5.81141 6.71802 6.28110
#
# Compressibility (1/GPa) = 0.02735689
#
# Stress axis : x y z
#
# Youngs Moduli (GPa) = 94.72676 37.68234 83.80080
#
# Poissons Ratio (x) = 0.21738 0.38816
# Poissons Ratio (y) = 0.54646 0.03641
# Poissons Ratio (z) = 0.43877 0.01637
#
# Static dielectric constant tensor:
#      x y z
#    x 3.966450 0.000000 0.061180 
#    y 0.000000 3.345330 0.000000 
#    z 0.061180 0.000000 3.768930 
# 
# 
# High freq. dielectric constant tensor:
#      x y z
#    x 1.795570 0.000000 0.004820 
#    y 0.000000 1.753040 0.000000 
#    z 0.004820 0.000000 1.785440 
# 
# From -- ./inp_files/59524.got.cif
#   From: 2010.06.25/outbox.cif.g09.slc.cpg/sg11_30_cif.got.tgz:59524.got - 2010.06.27 23:14:04.
