data_PCOD8075397
_publ_section_title
;
Structure prediction by ZEFSAII (Michael W. Deem and Ramdas Pophale) SiO2 
 PCOD8075397
Probable space group: P 21/M
;
_chemical_formula_sum "Si O2"
_cell_formula_units_Z 24
_cell_length_a 8.432688
_cell_length_b 17.818720
_cell_length_c 14.711024
_cell_angle_alpha 90.000000
_cell_angle_beta 33.561618
_cell_angle_gamma 90.000000
_cell_volume 1222.024065
_symmetry_space_group_name_H-M "P 21/M"
_symmetry_group_IT_number 11
_symmetry_cell_setting 'monoclinic'
loop_
_space_group_symop_operation_xyz
x,y,z
-x,1/2+y,-z
-x,-y,-z
x,1/2-y,z
loop_
_atom_site_type_symbol
_atom_site_label
_atom_site_fract_x
_atom_site_fract_y
_atom_site_fract_z
Si Si1 0.949558 0.418282 0.558475
Si Si2 0.913444 0.162517 0.915423
Si Si3 0.779685 0.455804 0.839190
Si Si4 0.715127 0.062544 0.334348
Si Si5 0.506652 0.087246 0.621412
Si Si6 0.554958 0.336739 0.263734
O O1 0.790781 0.428980 0.730289
O O2 0.738192 0.382576 0.583401
O O3 0.000000 0.500000 0.500000
O O4 0.233909 0.368270 0.428357
O O5 0.963656 0.250000 0.872230
O O6 0.786592 0.123041 0.887675
O O7 0.212319 0.123068 0.797907
O O8 0.678627 0.148570 0.105248
O O9 0.026447 0.513600 0.750458
O O10 0.500000 0.500000 0.000000
O O11 0.573858 0.110561 0.484656
O O12 0.779495 0.124484 0.226906
O O13 0.500419 0.004249 0.384727
O O14 0.544816 0.250000 0.292722
#
# Coordination Sequence:
#
# PCOD8075397 Si02
#       6
#     4   4   4   4   4   4
#     4  12  21  39  65  94 125 154 204 257 304 361
#     4  10  24  43  60  87 126 163 204 249 305 367
#     4  11  24  38  65  96 121 161 204 255 309 359
#     4  10  20  38  61  90 119 154 205 243 300 362
#     4  10  21  37  65  90 117 158 198 253 295 362
#     4  11  24  41  62  89 125 165 201 251 308 361
#
# _framework density 19.639545999999999
#
# number of rings (size 3 to 8) (size 9 to 14) (size 15 to 20)
#    0.000    1.333    3.333    3.000    2.333    4.667 
#    0.000    0.833    0.000    0.000    0.000    0.000 
#    0.000    0.000    0.000    0.000    0.000    0.000 
#
# Total GULP energy -297387.447247 kJ/mol
# GULP energy per Si atom -12391.143635 kJ/mol
# Density = 1.959485 g / cm^3
# Si number density = 19.639546 Si / 1000 Ang^3
#
#
#
# Elastic Constant Matrix: (Units=GPa)
#
#
# Indices 1 2 3 4 5 6 
#
# 1 111.9431 51.0217 41.9639 0.0000 16.6211 0.0000
# 2 51.0217 91.4116 51.6841 0.0000 16.2304 0.0000
# 3 41.9639 51.6841 114.0873 0.0000 14.9017 0.0000
# 4 0.0000 0.0000 0.0000 32.6101 0.0000 3.8933
# 5 16.6211 16.2304 14.9017 0.0000 33.0896 0.0000
# 6 0.0000 0.0000 0.0000 3.8933 0.0000 25.7446
#
#
#
# Elastic Compliance Matrix: (Units=1/GPa)
#
#
# Indices 1 2 3 4 5 6 
#
# 1 0.012509 -0.005498 -0.001744 0.000000 -0.002801 0.000000
# 2 -0.005498 0.017775 -0.005580 0.000000 -0.003444 0.000000
# 3 -0.001744 -0.005580 0.012179 0.000000 -0.001872 0.000000
# 4 0.000000 0.000000 0.000000 0.031229 0.000000 -0.004723
# 5 -0.002801 -0.003444 -0.001872 0.000000 0.034160 0.000000
# 6 0.000000 0.000000 0.000000 -0.004723 0.000000 0.039557
#
#
# Mechanical properties :
#
#
# Convention : Reuss Voigt Hill
#
# Bulk Modulus (GPa) = 59.46271 67.42015 63.44143
# Shear Modulus (GPa) = 27.98596 29.80703 28.89649
#
# Velocity S-wave (km/s) = 3.77899 3.90000 3.83997
# Velocity P-wave (km/s) = 7.02736 7.39481 7.21343
#
# Compressibility (1/GPa) = 0.01681726
#
# Stress axis : x y z
#
# Youngs Moduli (GPa) = 79.94297 56.25888 82.10683
#
# Poissons Ratio (x) = 0.30933 0.14322
# Poissons Ratio (y) = 0.43955 0.45817
# Poissons Ratio (z) = 0.13945 0.31394
#
# Static dielectric constant tensor:
#      x y z
#    x 4.587410 0.000000 -0.292320 
#    y 0.000000 3.517960 0.000000 
#    z -0.292320 0.000000 3.830640 
# 
# 
# High freq. dielectric constant tensor:
#      x y z
#    x 1.774460 0.000000 0.009630 
#    y 0.000000 1.753350 0.000000 
#    z 0.009630 0.000000 1.773100 
# 
# From -- ./inp_files/13289.got.cif
#   From: 2010.06.25/outbox.cif.g09.slc.cpg/sg11_7_cif.got.tgz:13289.got - 2010.06.27 23:14:04.
