data_PCOD8075613
_publ_section_title
;
Structure prediction by ZEFSAII (Michael W. Deem and Ramdas Pophale) SiO2 
 PCOD8075613
Probable space group: P 21/M
;
_chemical_formula_sum "Si O2"
_cell_formula_units_Z 32
_cell_length_a 13.620661
_cell_length_b 16.880197
_cell_length_c 11.473048
_cell_angle_alpha 90.000000
_cell_angle_beta 145.708224
_cell_angle_gamma 90.000000
_cell_volume 1486.199480
_symmetry_space_group_name_H-M "P 21/M"
_symmetry_group_IT_number 11
_symmetry_cell_setting 'monoclinic'
loop_
_space_group_symop_operation_xyz
x,y,z
-x,1/2+y,-z
-x,-y,-z
x,1/2-y,z
loop_
_atom_site_type_symbol
_atom_site_label
_atom_site_fract_x
_atom_site_fract_y
_atom_site_fract_z
Si Si1 0.332329 0.596188 0.554873
Si Si2 0.793634 0.657608 0.261678
Si Si3 0.180990 0.659938 0.630517
Si Si4 0.336854 0.079604 0.636208
Si Si5 0.701471 0.657499 0.909914
Si Si6 0.315448 0.656728 0.001318
Si Si7 0.989042 0.085435 0.928904
Si Si8 0.971426 0.659796 0.795856
O O1 0.270296 0.657284 0.592565
O O2 0.348887 0.514240 0.640032
O O3 0.515061 0.626399 0.680065
O O4 0.195276 0.592882 0.315925
O O5 0.788497 0.750000 0.293850
O O6 0.698923 0.606277 0.266888
O O7 0.988363 0.621945 0.439545
O O8 0.696427 0.645997 0.044051
O O9 0.148597 0.750000 0.632936
O O10 0.299109 0.625540 0.851367
O O11 0.190852 0.107636 0.403028
O O12 0.521909 0.114607 0.777675
O O13 0.731467 0.750000 0.906657
O O14 0.852549 0.602430 0.004291
O O15 0.346149 0.750000 0.041651
O O16 0.142264 0.628843 0.897617
O O17 0.999078 0.152245 0.037666
O O18 0.000000 0.000000 0.000000
O O19 0.931860 0.750000 0.723658
#
# Coordination Sequence:
#
# PCOD8075613 Si02
#       8
#     4   4   4   4   4   4   4   4
#     4  12  27  43  69 101 138 180 220 283 344 406
#     4  10  20  40  70 100 136 178 223 275 333 403
#     4  10  20  40  68  99 133 173 223 274 334 407
#     4  12  24  40  65 101 143 177 212 276 344 412
#     4  11  26  47  74 103 134 179 233 280 335 411
#     4  10  22  40  67  99 135 174 219 276 333 407
#     4  12  27  49  70  96 134 180 228 294 344 388
#     4  11  24  44  69  96 128 179 232 274 332 407
#
# _framework density 21.531428999999999
#
# number of rings (size 3 to 8) (size 9 to 14) (size 15 to 20)
#    0.000    1.000    3.750    2.625    1.750    7.500 
#    0.000    1.250    0.000    0.000    0.000    0.000 
#    0.000    0.000    0.000    0.000    0.000    0.000 
#
# Total GULP energy -396884.400395 kJ/mol
# GULP energy per Si atom -12402.637512 kJ/mol
# Density = 2.148242 g / cm^3
# Si number density = 21.531429 Si / 1000 Ang^3
#
#
#
# Elastic Constant Matrix: (Units=GPa)
#
#
# Indices 1 2 3 4 5 6 
#
# 1 59.4395 30.8901 45.6982 0.0000 -8.6320 0.0000
# 2 30.8901 77.9607 34.1241 0.0000 4.9606 0.0000
# 3 45.6982 34.1241 149.8595 0.0000 12.6143 0.0000
# 4 0.0000 0.0000 0.0000 31.0074 0.0000 -5.7321
# 5 -8.6320 4.9606 12.6143 0.0000 40.3776 0.0000
# 6 0.0000 0.0000 0.0000 -5.7321 0.0000 26.9523
#
#
#
# Elastic Compliance Matrix: (Units=1/GPa)
#
#
# Indices 1 2 3 4 5 6 
#
# 1 0.028440 -0.008582 -0.007516 0.000000 0.009482 0.000000
# 2 -0.008582 0.016859 -0.000917 0.000000 -0.003619 0.000000
# 3 -0.007516 -0.000917 0.009551 0.000000 -0.004478 0.000000
# 4 0.000000 0.000000 0.000000 0.033570 0.000000 0.007140
# 5 0.009482 -0.003619 -0.004478 0.000000 0.028637 0.000000
# 6 0.000000 0.000000 0.000000 0.007140 0.000000 0.038621
#
#
# Mechanical properties :
#
#
# Convention : Reuss Voigt Hill
#
# Bulk Modulus (GPa) = 48.03469 56.52050 52.27759
# Shear Modulus (GPa) = 25.42610 31.43728 28.43169
#
# Velocity S-wave (km/s) = 3.44013 3.82522 3.63777
# Velocity P-wave (km/s) = 6.17550 6.76883 6.47896
#
# Compressibility (1/GPa) = 0.02081829
#
# Stress axis : x y z
#
# Youngs Moduli (GPa) = 35.16226 59.31491 104.70353
#
# Poissons Ratio (x) = 0.50903 0.78699
# Poissons Ratio (y) = 0.30176 0.09605
# Poissons Ratio (z) = 0.26429 0.05441
#
# Static dielectric constant tensor:
#      x y z
#    x 3.799330 0.000000 0.061840 
#    y 0.000000 3.694280 0.000000 
#    z 0.061840 0.000000 4.110160 
# 
# 
# High freq. dielectric constant tensor:
#      x y z
#    x 1.842530 0.000000 0.006200 
#    y 0.000000 1.835850 0.000000 
#    z 0.006200 0.000000 1.861520 
# 
# From -- ./inp_files/40028.got.cif
#   From: 2010.06.25/outbox.cif.g09.slc.cpg/sg11_21_cif.got.tgz:40028.got - 2010.06.27 23:14:04.
