data_PCOD8075777
_publ_section_title
;
Structure prediction by ZEFSAII (Michael W. Deem and Ramdas Pophale) SiO2 
 PCOD8075777
Probable space group: P 21/M
;
_chemical_formula_sum "Si O2"
_cell_formula_units_Z 28
_cell_length_a 16.927149
_cell_length_b 9.206667
_cell_length_c 19.594983
_cell_angle_alpha 90.000000
_cell_angle_beta 30.580886
_cell_angle_gamma 90.000000
_cell_volume 1553.599908
_symmetry_space_group_name_H-M "P 21/M"
_symmetry_group_IT_number 11
_symmetry_cell_setting 'monoclinic'
loop_
_space_group_symop_operation_xyz
x,y,z
-x,1/2+y,-z
-x,-y,-z
x,1/2-y,z
loop_
_atom_site_type_symbol
_atom_site_label
_atom_site_fract_x
_atom_site_fract_y
_atom_site_fract_z
Si Si1 0.309457 0.419643 0.860716
Si Si2 0.572717 0.415607 0.759883
Si Si3 0.971823 0.081039 0.858703
Si Si4 0.137824 0.082208 0.862444
Si Si5 0.070132 0.917939 0.261531
Si Si6 0.613125 0.916728 0.965639
Si Si7 0.112075 0.419374 0.468698
O O1 0.285212 0.250000 0.893331
O O2 0.481771 0.463311 0.758263
O O3 0.293779 0.456404 0.790314
O O4 0.178488 0.499151 0.001901
O O5 0.634641 0.250000 0.709556
O O6 0.446997 0.432556 0.912956
O O7 0.714584 0.521826 0.668271
O O8 0.931664 0.250000 0.894000
O O9 0.004974 0.038357 0.755626
O O10 0.127556 0.043934 0.788840
O O11 0.102514 0.250000 0.898745
O O12 0.000000 0.000000 0.000000
O O13 0.122813 0.750000 0.223785
O O14 0.941111 0.949079 0.414433
O O15 0.217597 0.015776 0.167561
O O16 0.621848 0.750000 0.936121
O O17 0.500000 0.000000 0.000000
O O18 0.110522 0.250000 0.451680
O O19 0.000000 0.500000 0.500000
#
# Coordination Sequence:
#
# PCOD8075777 Si02
#       7
#     4   4   4   4   4   4   4
#     4   9  16  29  48  74 106 134 165 205 248 296
#     4  10  21  36  53  75 104 135 169 210 252 302
#     4   9  16  28  48  75 104 133 166 204 249 300
#     4   8  14  24  43  71 102 134 163 197 244 295
#     4  10  21  36  53  75 104 133 168 212 256 305
#     4  11  22  35  53  77 102 130 165 209 261 308
#     4  11  24  40  56  74  98 134 175 215 258 307
#
# _framework density 18.022656999999999
#
# number of rings (size 3 to 8) (size 9 to 14) (size 15 to 20)
#    0.000    2.286    1.429    1.714    0.000    6.286 
#    0.000    0.000    0.000    0.857    0.000    0.000 
#    0.000    0.000    0.000    0.000    0.000    0.143 
#
# Total GULP energy -346938.276570 kJ/mol
# GULP energy per Si atom -12390.652735 kJ/mol
# Density = 1.798164 g / cm^3
# Si number density = 18.022657 Si / 1000 Ang^3
#
#
#
# Elastic Constant Matrix: (Units=GPa)
#
#
# Indices 1 2 3 4 5 6 
#
# 1 135.2449 32.0585 8.4349 0.0000 -3.6726 0.0000
# 2 32.0585 59.9994 18.7090 0.0000 -2.2255 0.0000
# 3 8.4349 18.7090 37.6497 0.0000 -2.2596 0.0000
# 4 0.0000 0.0000 0.0000 24.2525 0.0000 -2.7962
# 5 -3.6726 -2.2255 -2.2596 0.0000 23.5506 0.0000
# 6 0.0000 0.0000 0.0000 -2.7962 0.0000 23.7548
#
#
#
# Elastic Compliance Matrix: (Units=1/GPa)
#
#
# Indices 1 2 3 4 5 6 
#
# 1 0.008492 -0.004647 0.000463 0.000000 0.000930 0.000000
# 2 -0.004647 0.022286 -0.010008 0.000000 0.000421 0.000000
# 3 0.000463 -0.010008 0.031560 0.000000 0.002154 0.000000
# 4 0.000000 0.000000 0.000000 0.041800 0.000000 0.004920
# 5 0.000930 0.000421 0.002154 0.000000 0.042853 0.000000
# 6 0.000000 0.000000 0.000000 0.004920 0.000000 0.042676
#
#
# Mechanical properties :
#
#
# Convention : Reuss Voigt Hill
#
# Bulk Modulus (GPa) = 29.45311 39.03322 34.24316
# Shear Modulus (GPa) = 21.79886 25.89103 23.84494
#
# Velocity S-wave (km/s) = 3.48160 3.79434 3.64133
# Velocity P-wave (km/s) = 5.70436 6.39538 6.05973
#
# Compressibility (1/GPa) = 0.03395228
#
# Stress axis : x y z
#
# Youngs Moduli (GPa) = 117.75870 44.87081 31.68612
#
# Poissons Ratio (x) = 0.20852 -0.01466
# Poissons Ratio (y) = 0.54724 0.31712
# Poissons Ratio (z) = -0.05447 0.44907
#
# Static dielectric constant tensor:
#      x y z
#    x 4.351910 0.000000 0.045100 
#    y 0.000000 3.437480 0.000000 
#    z 0.045100 0.000000 2.942470 
# 
# 
# High freq. dielectric constant tensor:
#      x y z
#    x 1.730410 0.000000 0.001800 
#    y 0.000000 1.702550 0.000000 
#    z 0.001800 0.000000 1.647850 
# 
# From -- ./inp_files/57521.got.cif
#   From: 2010.06.25/outbox.cif.g09.slc.cpg/sg11_29_cif.got.tgz:57521.got - 2010.06.27 23:14:04.
