data_PCOD8075209
_publ_section_title
;
Structure prediction by ZEFSAII (Michael W. Deem and Ramdas Pophale) SiO2 
 PCOD8075209
Probable space group: P 21/M
;
_chemical_formula_sum "Si O2"
_cell_formula_units_Z 28
_cell_length_a 9.705039
_cell_length_b 8.779757
_cell_length_c 29.312526
_cell_angle_alpha 90.000000
_cell_angle_beta 33.403401
_cell_angle_gamma 90.000000
_cell_volume 1375.036569
_symmetry_space_group_name_H-M "P 21/M"
_symmetry_group_IT_number 11
_symmetry_cell_setting 'monoclinic'
loop_
_space_group_symop_operation_xyz
x,y,z
-x,1/2+y,-z
-x,-y,-z
x,1/2-y,z
loop_
_atom_site_type_symbol
_atom_site_label
_atom_site_fract_x
_atom_site_fract_y
_atom_site_fract_z
Si Si1 0.509960 0.576250 0.685336
Si Si2 0.974600 0.923011 0.619212
Si Si3 0.125937 0.069603 0.009759
Si Si4 0.025861 0.428472 0.856478
Si Si5 0.313282 0.569590 0.131295
Si Si6 0.393019 0.569485 0.433247
Si Si7 0.939637 0.570767 0.310278
O O1 0.421703 0.750000 0.702600
O O2 0.273741 0.468697 0.759746
O O3 0.655899 0.516086 0.600640
O O4 0.698832 0.564610 0.675082
O O5 0.041099 0.750000 0.614163
O O6 0.181191 0.985495 0.526873
O O7 0.971613 0.025610 0.664457
O O8 0.120855 0.250000 0.006532
O O9 0.408134 0.004824 0.937513
O O10 0.000000 0.000000 0.000000
O O11 0.972665 0.021158 0.096888
O O12 0.024882 0.250000 0.867707
O O13 0.787710 0.475812 0.891047
O O14 0.317756 0.750000 0.134552
O O15 0.129022 0.499233 0.220584
O O16 0.381291 0.750000 0.428452
O O17 0.659368 0.512429 0.378902
O O18 0.946557 0.750000 0.303836
#
# Coordination Sequence:
#
# PCOD8075209 Si02
#       7
#     4   4   4   4   4   4   4
#     4  11  23  38  58  89 124 156 200 249 296 351
#     4  10  23  38  55  86 124 159 196 248 303 351
#     4  11  24  42  64  95 128 155 192 241 296 355
#     4  11  22  42  67  89 118 159 202 243 296 351
#     4   9  20  40  64  89 119 155 199 245 291 352
#     4  10  20  39  62  84 117 158 202 247 297 356
#     4  10  20  37  61  88 116 156 203 244 291 353
#
# _framework density 20.363097
#
# number of rings (size 3 to 8) (size 9 to 14) (size 15 to 20)
#    0.000    1.714    1.429    2.571    2.000    2.286 
#    0.000    2.857    0.000    0.000    0.000    0.000 
#    0.000    0.000    0.000    0.000    0.000    0.000 
#
# Total GULP energy -347310.129505 kJ/mol
# GULP energy per Si atom -12403.933197 kJ/mol
# Density = 2.031675 g / cm^3
# Si number density = 20.363097 Si / 1000 Ang^3
#
#
#
# Elastic Constant Matrix: (Units=GPa)
#
#
# Indices 1 2 3 4 5 6 
#
# 1 110.0616 30.3573 33.8860 0.0000 10.7558 0.0000
# 2 30.3573 45.5861 20.0041 0.0000 0.7937 0.0000
# 3 33.8860 20.0041 91.5901 0.0000 6.9659 0.0000
# 4 0.0000 0.0000 0.0000 25.8300 0.0000 4.2487
# 5 10.7558 0.7937 6.9659 0.0000 36.6809 0.0000
# 6 0.0000 0.0000 0.0000 4.2487 0.0000 31.8911
#
#
#
# Elastic Compliance Matrix: (Units=1/GPa)
#
#
# Indices 1 2 3 4 5 6 
#
# 1 0.012092 -0.006785 -0.002773 0.000000 -0.002872 0.000000
# 2 -0.006785 0.028078 -0.003782 0.000000 0.002100 0.000000
# 3 -0.002773 -0.003782 0.012888 0.000000 -0.001553 0.000000
# 4 0.000000 0.000000 0.000000 0.039582 0.000000 -0.005273
# 5 -0.002872 0.002100 -0.001553 0.000000 0.028354 0.000000
# 6 0.000000 0.000000 0.000000 -0.005273 0.000000 0.032059
#
#
# Mechanical properties :
#
#
# Convention : Reuss Voigt Hill
#
# Bulk Modulus (GPa) = 37.91134 46.19251 42.05193
# Shear Modulus (GPa) = 26.52143 29.74644 28.13394
#
# Velocity S-wave (km/s) = 3.61283 3.82619 3.72104
# Velocity P-wave (km/s) = 6.00512 6.50025 6.25759
#
# Compressibility (1/GPa) = 0.02637733
#
# Stress axis : x y z
#
# Youngs Moduli (GPa) = 82.69999 35.61496 77.58980
#
# Poissons Ratio (x) = 0.24166 0.21518
# Poissons Ratio (y) = 0.56115 0.29343
# Poissons Ratio (z) = 0.22935 0.13469
#
# Static dielectric constant tensor:
#      x y z
#    x 3.728320 0.000000 -0.103710 
#    y 0.000000 3.450550 0.000000 
#    z -0.103710 0.000000 3.824740 
# 
# 
# High freq. dielectric constant tensor:
#      x y z
#    x 1.806040 0.000000 0.000280 
#    y 0.000000 1.776950 0.000000 
#    z 0.000280 0.000000 1.806130 
# 
# From -- ./inp_files/28546.got.cif
#   From: 2010.06.25/outbox.cif.g09.slc.cpg/sg11_15_cif.got.tgz:28546.got - 2010.06.27 23:14:04.
