data_PCOD8075558
_publ_section_title
;
Structure prediction by ZEFSAII (Michael W. Deem and Ramdas Pophale) SiO2 
 PCOD8075558
Probable space group: P 21/M
;
_chemical_formula_sum "Si O2"
_cell_formula_units_Z 32
_cell_length_a 24.250502
_cell_length_b 8.759186
_cell_length_c 15.647449
_cell_angle_alpha 90.000000
_cell_angle_beta 27.922564
_cell_angle_gamma 90.000000
_cell_volume 1556.437241
_symmetry_space_group_name_H-M "P 21/M"
_symmetry_group_IT_number 11
_symmetry_cell_setting 'monoclinic'
loop_
_space_group_symop_operation_xyz
x,y,z
-x,1/2+y,-z
-x,-y,-z
x,1/2-y,z
loop_
_atom_site_type_symbol
_atom_site_label
_atom_site_fract_x
_atom_site_fract_y
_atom_site_fract_z
Si Si1 0.913893 0.429163 0.689504
Si Si2 0.707876 0.921833 0.883684
Si Si3 0.985448 0.428459 0.112189
Si Si4 0.854654 0.932082 0.948641
Si Si5 0.405345 0.571752 0.692886
Si Si6 0.374498 0.073095 0.180179
Si Si7 0.491419 0.920301 0.291837
Si Si8 0.274429 0.573860 0.480481
O O1 0.938515 0.250000 0.663239
O O2 0.781380 0.460216 0.839767
O O3 0.000000 0.500000 0.500000
O O4 0.923927 0.501723 0.770748
O O5 0.759578 0.750000 0.824902
O O6 0.711284 0.975000 0.780600
O O7 0.571447 0.925540 0.097768
O O8 0.000260 0.250000 0.080833
O O9 0.856102 0.475208 0.318270
O O10 0.000000 0.500000 0.000000
O O11 0.077400 0.486481 0.058455
O O12 0.853212 0.750000 0.941684
O O13 0.721317 0.991157 0.139478
O O14 0.500000 0.500000 0.500000
O O15 0.388414 0.750000 0.697280
O O16 0.460782 0.547766 0.709951
O O17 0.398118 0.250000 0.142895
O O18 0.309515 0.031933 0.355004
O O19 0.500000 0.000000 0.000000
O O20 0.497599 0.750000 0.324933
O O21 0.358039 0.958840 0.447422
O O22 0.284351 0.750000 0.439073
#
# Coordination Sequence:
#
# PCOD8075558 Si02
#       8
#     4   4   4   4   4   4   4   4
#     4  12  26  43  66  95 128 174 220 269 326 388
#     4  10  21  39  61  89 128 168 209 262 322 380
#     4  10  25  46  70  96 128 171 219 273 326 382
#     4  11  24  46  69  99 137 172 217 272 326 390
#     4  12  26  43  67  98 128 166 212 265 329 390
#     4  11  22  37  59  91 127 168 209 256 311 376
#     4  10  20  39  65  92 130 167 204 263 325 383
#     4  10  22  42  64  93 128 169 214 262 322 383
#
# _framework density 20.559775999999999
#
# number of rings (size 3 to 8) (size 9 to 14) (size 15 to 20)
#    0.000    1.250    2.500    3.000    3.500    3.000 
#    0.000    0.000    0.000    0.000    0.000    0.000 
#    0.000    0.000    0.000    0.000    0.000    0.000 
#
# Total GULP energy -396782.839179 kJ/mol
# GULP energy per Si atom -12399.463724 kJ/mol
# Density = 2.051298 g / cm^3
# Si number density = 20.559776 Si / 1000 Ang^3
#
#
#
# Elastic Constant Matrix: (Units=GPa)
#
#
# Indices 1 2 3 4 5 6 
#
# 1 152.8627 52.7129 66.7346 0.0000 6.0259 0.0000
# 2 52.7129 86.9086 35.6553 0.0000 5.5115 0.0000
# 3 66.7346 35.6553 108.9847 0.0000 5.0503 0.0000
# 4 0.0000 0.0000 0.0000 32.2616 0.0000 6.1699
# 5 6.0259 5.5115 5.0503 0.0000 35.0989 0.0000
# 6 0.0000 0.0000 0.0000 6.1699 0.0000 33.9774
#
#
#
# Elastic Compliance Matrix: (Units=1/GPa)
#
#
# Indices 1 2 3 4 5 6 
#
# 1 0.010073 -0.004114 -0.004804 0.000000 -0.000392 0.000000
# 2 -0.004114 0.015046 -0.002342 0.000000 -0.001319 0.000000
# 3 -0.004804 -0.002342 0.012914 0.000000 -0.000666 0.000000
# 4 0.000000 0.000000 0.000000 0.032112 0.000000 -0.005831
# 5 -0.000392 -0.001319 -0.000666 0.000000 0.028861 0.000000
# 6 0.000000 0.000000 0.000000 -0.005831 0.000000 0.030490
#
#
# Mechanical properties :
#
#
# Convention : Reuss Voigt Hill
#
# Bulk Modulus (GPa) = 64.46084 73.21796 68.83940
# Shear Modulus (GPa) = 31.80894 33.17780 32.49337
#
# Velocity S-wave (km/s) = 3.93764 4.02148 3.97978
# Velocity P-wave (km/s) = 7.21764 7.56654 7.39415
#
# Compressibility (1/GPa) = 0.01551330
#
# Stress axis : x y z
#
# Youngs Moduli (GPa) = 99.27336 66.46198 77.43293
#
# Poissons Ratio (x) = 0.27342 0.37199
# Poissons Ratio (y) = 0.40840 0.18137
# Poissons Ratio (z) = 0.47691 0.15567
#
# Static dielectric constant tensor:
#      x y z
#    x 3.929350 0.000000 0.016980 
#    y 0.000000 3.801330 0.000000 
#    z 0.016980 0.000000 3.390690 
# 
# 
# High freq. dielectric constant tensor:
#      x y z
#    x 1.816100 0.000000 0.000700 
#    y 0.000000 1.799930 0.000000 
#    z 0.000700 0.000000 1.810760 
# 
# From -- ./inp_files/55636.got.cif
#   From: 2010.06.25/outbox.cif.g09.slc.cpg/sg11_28_cif.got.tgz:55636.got - 2010.06.27 23:14:04.
