data_PCOD8075547
_publ_section_title
;
Structure prediction by ZEFSAII (Michael W. Deem and Ramdas Pophale) SiO2 
 PCOD8075547
Probable space group: P 21/M
;
_chemical_formula_sum "Si O2"
_cell_formula_units_Z 20
_cell_length_a 11.456256
_cell_length_b 13.869489
_cell_length_c 16.867556
_cell_angle_alpha 90.000000
_cell_angle_beta 158.264048
_cell_angle_gamma 90.000000
_cell_volume 992.530522
_symmetry_space_group_name_H-M "P 21/M"
_symmetry_group_IT_number 11
_symmetry_cell_setting 'monoclinic'
loop_
_space_group_symop_operation_xyz
x,y,z
-x,1/2+y,-z
-x,-y,-z
x,1/2-y,z
loop_
_atom_site_type_symbol
_atom_site_label
_atom_site_fract_x
_atom_site_fract_y
_atom_site_fract_z
Si Si1 0.013506 0.139234 0.646560
Si Si2 0.391918 0.551677 0.058008
Si Si3 0.695884 0.142150 0.279692
Si Si4 0.740225 0.517545 0.581638
Si Si5 0.628577 0.860928 0.365426
O O1 0.055714 0.250000 0.697047
O O2 0.357893 0.096346 0.845338
O O3 0.788532 0.126566 0.429148
O O4 0.849124 0.084549 0.614906
O O5 0.435663 0.435720 0.090918
O O6 0.418798 0.598701 0.161506
O O7 0.045116 0.574532 0.806770
O O8 0.561302 0.250000 0.180988
O O9 0.004135 0.124168 0.421476
O O10 0.500000 0.500000 0.500000
O O11 0.558747 0.581704 0.401888
O O12 0.538812 0.750000 0.320767
#
# Coordination Sequence:
#
# PCOD8075547 Si02
#       5
#     4   4   4   4   4
#     4  10  20  39  64  93 121 155 206 260 304 357
#     4  11  20  40  67  90 116 157 208 255 308 353
#     4   9  17  34  66  94 116 150 203 262 309 350
#     4  12  26  40  60  89 131 169 199 244 303 370
#     4  10  21  40  63  90 122 156 203 258 304 356
#
# _framework density 20.150514000000001
#
# number of rings (size 3 to 8) (size 9 to 14) (size 15 to 20)
#    0.000    1.600    4.000    3.600    0.000    4.000 
#    0.000    0.000    0.000    0.000    0.000    0.000 
#    0.000    0.000    0.000    0.000    0.000    0.000 
#
# Total GULP energy -248077.635979 kJ/mol
# GULP energy per Si atom -12403.881799 kJ/mol
# Density = 2.010465 g / cm^3
# Si number density = 20.150514 Si / 1000 Ang^3
#
#
#
# Elastic Constant Matrix: (Units=GPa)
#
#
# Indices 1 2 3 4 5 6 
#
# 1 155.8728 64.5570 34.7917 0.0000 5.7505 0.0000
# 2 64.5570 141.0427 28.9839 0.0000 -0.2300 0.0000
# 3 34.7917 28.9839 45.6276 0.0000 0.8118 0.0000
# 4 0.0000 0.0000 0.0000 10.8465 0.0000 -4.8669
# 5 5.7505 -0.2300 0.8118 0.0000 15.8241 0.0000
# 6 0.0000 0.0000 0.0000 -4.8669 0.0000 17.1490
#
#
#
# Elastic Compliance Matrix: (Units=1/GPa)
#
#
# Indices 1 2 3 4 5 6 
#
# 1 0.008865 -0.003087 -0.004744 0.000000 -0.003023 0.000000
# 2 -0.003087 0.009232 -0.003536 0.000000 0.001438 0.000000
# 3 -0.004744 -0.003536 0.027776 0.000000 0.000248 0.000000
# 4 0.000000 0.000000 0.000000 0.105649 0.000000 0.029983
# 5 -0.003023 0.001438 0.000248 0.000000 0.064301 0.000000
# 6 0.000000 0.000000 0.000000 0.029983 0.000000 0.066822
#
#
# Mechanical properties :
#
#
# Convention : Reuss Voigt Hill
#
# Bulk Modulus (GPa) = 43.22029 66.57870 54.89949
# Shear Modulus (GPa) = 15.96971 23.04463 19.50717
#
# Velocity S-wave (km/s) = 2.81823 3.38542 3.11476
# Velocity P-wave (km/s) = 5.66438 6.95657 6.34346
#
# Compressibility (1/GPa) = 0.02313728
#
# Stress axis : x y z
#
# Youngs Moduli (GPa) = 112.80678 108.31692 36.00229
#
# Poissons Ratio (x) = 0.33442 0.17081
# Poissons Ratio (y) = 0.34828 0.12730
# Poissons Ratio (z) = 0.53521 0.38300
#
# Static dielectric constant tensor:
#      x y z
#    x 3.524920 0.000000 -0.267540 
#    y 0.000000 3.859560 0.000000 
#    z -0.267540 0.000000 3.396710 
# 
# 
# High freq. dielectric constant tensor:
#      x y z
#    x 1.777370 0.000000 -0.030980 
#    y 0.000000 1.799910 0.000000 
#    z -0.030980 0.000000 1.761950 
# 
# From -- ./inp_files/12250.got.cif
#   From: 2010.06.25/outbox.cif.g09.slc.cpg/sg11_7_cif.got.tgz:12250.got - 2010.06.27 23:14:04.
