data_PCOD8075436
_publ_section_title
;
Structure prediction by ZEFSAII (Michael W. Deem and Ramdas Pophale) SiO2 
 PCOD8075436
Probable space group: P 21/M
;
_chemical_formula_sum "Si O2"
_cell_formula_units_Z 32
_cell_length_a 28.516341
_cell_length_b 8.788644
_cell_length_c 11.992029
_cell_angle_alpha 90.000000
_cell_angle_beta 32.800962
_cell_angle_gamma 90.000000
_cell_volume 1628.114990
_symmetry_space_group_name_H-M "P 21/M"
_symmetry_group_IT_number 11
_symmetry_cell_setting 'monoclinic'
loop_
_space_group_symop_operation_xyz
x,y,z
-x,1/2+y,-z
-x,-y,-z
x,1/2-y,z
loop_
_atom_site_type_symbol
_atom_site_label
_atom_site_fract_x
_atom_site_fract_y
_atom_site_fract_z
Si Si1 0.747989 0.571124 0.132723
Si Si2 0.598338 0.422363 0.564918
Si Si3 0.153760 0.070876 0.697186
Si Si4 0.662966 0.425309 0.678458
Si Si5 0.595861 0.572597 0.027857
Si Si6 0.906492 0.570639 0.420730
Si Si7 0.099614 0.928570 0.031467
Si Si8 0.250341 0.430833 0.120686
O O1 0.758915 0.750000 0.108695
O O2 0.659821 0.532541 0.372509
O O3 0.831371 0.505606 0.027008
O O4 0.744246 0.503327 0.015181
O O5 0.624712 0.250000 0.482092
O O6 0.607214 0.450469 0.678851
O O7 0.499028 0.455712 0.730575
O O8 0.141021 0.250000 0.740067
O O9 0.111023 0.008918 0.668690
O O10 0.254851 0.034532 0.492285
O O11 0.107687 0.982993 0.888910
O O12 0.692054 0.250000 0.632544
O O13 0.604296 0.473972 0.899503
O O14 0.609544 0.750000 0.970923
O O15 0.665688 0.515005 0.978524
O O16 0.893586 0.750000 0.442108
O O17 0.836265 0.502195 0.647385
O O18 0.003274 0.527481 0.266557
O O19 0.115907 0.750000 0.001785
O O20 0.247304 0.250000 0.122922
#
# Coordination Sequence:
#
# PCOD8075436 Si02
#       8
#     4   4   4   4   4   4   4   4
#     4  11  23  38  59  82 110 152 197 240 281 334
#     4  10  22  38  58  85 118 152 186 232 288 338
#     4  11  20  35  61  87 113 152 191 225 278 347
#     4  11  21  34  55  87 123 152 181 230 284 335
#     4  10  20  38  63  85 112 153 192 231 282 342
#     4   9  19  36  60  86 114 149 186 232 288 338
#     4  11  22  37  58  85 118 150 184 236 290 336
#     4   9  19  38  60  83 110 146 197 242 280 331
#
# _framework density 19.654630999999998
#
# number of rings (size 3 to 8) (size 9 to 14) (size 15 to 20)
#    0.000    1.750    2.500    2.250    0.000    2.000 
#    0.000    3.125    0.000    0.000    0.000    0.000 
#    0.000    0.000    0.000    0.000    0.000    0.000 
#
# Total GULP energy -396862.833427 kJ/mol
# GULP energy per Si atom -12401.963545 kJ/mol
# Density = 1.960990 g / cm^3
# Si number density = 19.654631 Si / 1000 Ang^3
#
#
#
# Elastic Constant Matrix: (Units=GPa)
#
#
# Indices 1 2 3 4 5 6 
#
# 1 89.3907 42.9107 96.9315 0.0000 22.7445 0.0000
# 2 42.9107 45.2466 38.1313 0.0000 -1.3490 0.0000
# 3 96.9315 38.1313 130.3768 0.0000 -9.4125 0.0000
# 4 0.0000 0.0000 0.0000 8.6968 0.0000 -7.5828
# 5 22.7445 -1.3490 -9.4125 0.0000 32.0728 0.0000
# 6 0.0000 0.0000 0.0000 -7.5828 0.0000 5.1266
#
#
#
# Elastic Compliance Matrix: (Units=1/GPa)
#
#
# Indices 1 2 3 4 5 6 
#
# 1 -0.062509 0.024303 0.043563 0.000000 0.058135 0.000000
# 2 0.024303 0.019936 -0.025626 0.000000 -0.023916 0.000000
# 3 0.043563 -0.025626 -0.019954 0.000000 -0.037827 0.000000
# 4 0.000000 0.000000 0.000000 -0.396986 0.000000 -0.587189
# 5 0.058135 -0.023916 -0.037827 0.000000 -0.022155 0.000000
# 6 0.000000 0.000000 0.000000 -0.587189 0.000000 -0.673459
#
#
# Mechanical properties :
#
#
# Convention : Reuss Voigt Hill
#
# Bulk Modulus (GPa) = 45.55197 68.99567 57.27382
# Shear Modulus (GPa) = -4.05749 14.98195 5.46223
#
# Velocity S-wave (km/s) = -1.43836 2.76390 1.66887
# Velocity P-wave (km/s) = 4.52416 6.73541 5.73732
#
# Compressibility (1/GPa) = 0.02195295
#
# Stress axis : x y z
#
# Youngs Moduli (GPa) = -15.99765 50.16129 -50.11561
#
# Poissons Ratio (x) = -1.21907 2.18319
# Poissons Ratio (y) = 0.38879 -1.28425
# Poissons Ratio (z) = 0.69691 1.28542
#
# Static dielectric constant tensor:
#      x y z
#    x 3.751840 0.000000 0.030530 
#    y 0.000000 3.383860 0.000000 
#    z 0.030530 0.000000 3.744940 
# 
# 
# High freq. dielectric constant tensor:
#      x y z
#    x 1.770190 0.000000 -0.007320 
#    y 0.000000 1.744510 0.000000 
#    z -0.007320 0.000000 1.774430 
# 
# From -- ./inp_files/42891.got.cif
#   From: 2010.06.25/outbox.cif.g09.slc.cpg/sg11_22_cif.got.tgz:42891.got - 2010.06.27 23:14:04.
