data_PCOD8075340
_publ_section_title
;
Structure prediction by ZEFSAII (Michael W. Deem and Ramdas Pophale) SiO2 
 PCOD8075340
Probable space group: P 21/M
;
_chemical_formula_sum "Si O2"
_cell_formula_units_Z 24
_cell_length_a 13.644231
_cell_length_b 8.383918
_cell_length_c 15.464483
_cell_angle_alpha 90.000000
_cell_angle_beta 139.184979
_cell_angle_gamma 90.000000
_cell_volume 1156.261821
_symmetry_space_group_name_H-M "P 21/M"
_symmetry_group_IT_number 11
_symmetry_cell_setting 'monoclinic'
loop_
_space_group_symop_operation_xyz
x,y,z
-x,1/2+y,-z
-x,-y,-z
x,1/2-y,z
loop_
_atom_site_type_symbol
_atom_site_label
_atom_site_fract_x
_atom_site_fract_y
_atom_site_fract_z
Si Si1 0.332937 0.561840 0.383995
Si Si2 0.833599 0.439010 0.900439
Si Si3 0.644205 0.563394 0.928073
Si Si4 0.319940 0.064236 0.697491
Si Si5 0.188020 0.439574 0.789819
Si Si6 0.146594 0.937098 0.420161
O O1 0.500000 0.500000 0.500000
O O2 0.335395 0.750000 0.393774
O O3 0.260430 0.507053 0.245840
O O4 0.236340 0.488083 0.398774
O O5 0.828653 0.250000 0.911201
O O6 0.767882 0.529999 0.938621
O O7 0.000000 0.500000 0.000000
O O8 0.605778 0.750000 0.905602
O O9 0.496391 0.464588 0.806876
O O10 0.709182 0.500743 0.062624
O O11 0.285394 0.250000 0.663225
O O12 0.261250 0.997689 0.750032
O O13 0.233865 0.969619 0.566326
O O14 0.181232 0.250000 0.785403
O O15 0.020503 0.511681 0.687290
O O16 0.131935 0.750000 0.396623
#
# Coordination Sequence:
#
# PCOD8075340 Si02
#       6
#     4   4   4   4   4   4
#     4  10  22  38  58  82 113 150 190 232 281 337
#     4  11  23  40  61  88 118 151 190 236 285 339
#     4  11  22  39  61  85 114 153 193 234 283 339
#     4  11  22  37  57  86 118 149 187 237 288 341
#     4   9  20  38  60  83 113 150 192 238 287 339
#     4  10  20  38  60  82 109 149 192 233 284 343
#
# _framework density 20.756546
#
# number of rings (size 3 to 8) (size 9 to 14) (size 15 to 20)
#    0.000    1.667    0.000    4.500    0.000    7.333 
#    0.000    6.667    0.000    0.000    0.000    0.000 
#    0.000    0.000    0.000    0.000    0.000    0.000 
#
# Total GULP energy -297710.809886 kJ/mol
# GULP energy per Si atom -12404.617079 kJ/mol
# Density = 2.070930 g / cm^3
# Si number density = 20.756546 Si / 1000 Ang^3
#
#
#
# Elastic Constant Matrix: (Units=GPa)
#
#
# Indices 1 2 3 4 5 6 
#
# 1 112.5094 11.2651 17.1976 0.0000 -0.6007 0.0000
# 2 11.2651 19.5007 8.6523 0.0000 -3.6136 0.0000
# 3 17.1976 8.6523 111.2614 0.0000 0.2328 0.0000
# 4 0.0000 0.0000 0.0000 16.1393 0.0000 1.0701
# 5 -0.6007 -3.6136 0.2328 0.0000 49.5647 0.0000
# 6 0.0000 0.0000 0.0000 1.0701 0.0000 28.3501
#
#
#
# Elastic Compliance Matrix: (Units=1/GPa)
#
#
# Indices 1 2 3 4 5 6 
#
# 1 0.009562 -0.005090 -0.001082 0.000000 -0.000250 0.000000
# 2 -0.005090 0.056584 -0.003622 0.000000 0.004081 0.000000
# 3 -0.001082 -0.003622 0.009437 0.000000 -0.000322 0.000000
# 4 0.000000 0.000000 0.000000 0.062116 0.000000 -0.002345
# 5 -0.000250 0.004081 -0.000322 0.000000 0.020472 0.000000
# 6 0.000000 0.000000 0.000000 -0.002345 0.000000 0.035362
#
#
# Mechanical properties :
#
#
# Convention : Reuss Voigt Hill
#
# Bulk Modulus (GPa) = 17.85853 35.27794 26.56824
# Shear Modulus (GPa) = 21.57170 32.55459 27.06314
#
# Velocity S-wave (km/s) = 3.22727 3.96460 3.61479
# Velocity P-wave (km/s) = 4.74442 6.16363 5.50000
#
# Compressibility (1/GPa) = 0.05599566
#
# Stress axis : x y z
#
# Youngs Moduli (GPa) = 104.58295 17.67283 105.96169
#
# Poissons Ratio (x) = 0.08996 0.11461
# Poissons Ratio (y) = 0.53234 0.38380
# Poissons Ratio (z) = 0.11312 0.06401
#
# Static dielectric constant tensor:
#      x y z
#    x 3.958490 0.000000 -0.039050 
#    y 0.000000 3.464420 0.000000 
#    z -0.039050 0.000000 4.060380 
# 
# 
# High freq. dielectric constant tensor:
#      x y z
#    x 1.833740 0.000000 -0.000250 
#    y 0.000000 1.789070 0.000000 
#    z -0.000250 0.000000 1.829010 
# 
# From -- ./inp_files/51826.got.cif
#   From: 2010.06.25/outbox.cif.g09.slc.cpg/sg11_26_cif.got.tgz:51826.got - 2010.06.27 23:14:04.
