data_PCOD8075653
_publ_section_title
;
Structure prediction by ZEFSAII (Michael W. Deem and Ramdas Pophale) SiO2 
 PCOD8075653
Probable space group: P 21/M
;
_chemical_formula_sum "Si O2"
_cell_formula_units_Z 28
_cell_length_a 20.528589
_cell_length_b 9.314747
_cell_length_c 17.230580
_cell_angle_alpha 90.000000
_cell_angle_beta 151.883574
_cell_angle_gamma 90.000000
_cell_volume 1552.726705
_symmetry_space_group_name_H-M "P 21/M"
_symmetry_group_IT_number 11
_symmetry_cell_setting 'monoclinic'
loop_
_space_group_symop_operation_xyz
x,y,z
-x,1/2+y,-z
-x,-y,-z
x,1/2-y,z
loop_
_atom_site_type_symbol
_atom_site_label
_atom_site_fract_x
_atom_site_fract_y
_atom_site_fract_z
Si Si1 0.788751 0.090345 0.474348
Si Si2 0.387892 0.589521 0.559090
Si Si3 0.081056 0.414276 0.019547
Si Si4 0.640904 0.920353 0.922727
Si Si5 0.932350 0.577531 0.169887
Si Si6 0.371129 0.413866 0.396333
Si Si7 0.469050 0.922065 0.888027
O O1 0.815880 0.250000 0.471861
O O2 0.721998 0.096136 0.488430
O O3 0.680803 0.019235 0.300247
O O4 0.939186 0.015457 0.643442
O O5 0.408241 0.750000 0.545495
O O6 0.533991 0.527911 0.744181
O O7 0.326125 0.482994 0.430521
O O8 0.031353 0.250000 0.973543
O O9 0.245133 0.426363 0.204330
O O10 0.053135 0.476360 0.903848
O O11 0.000000 0.500000 0.000000
O O12 0.641726 0.750000 0.922046
O O13 0.587809 0.969855 0.951785
O O14 0.792540 0.982875 0.062893
O O15 0.932088 0.750000 0.169063
O O16 0.500000 0.500000 0.500000
O O17 0.414218 0.250000 0.455032
O O18 0.467037 0.750000 0.895635
O O19 0.500000 0.000000 0.000000
#
# Coordination Sequence:
#
# PCOD8075653 Si02
#       7
#     4   4   4   4   4   4   4
#     4   8  15  27  47  70  90 117 154 189 228 279
#     4   9  16  30  49  67  89 121 160 201 240 283
#     4  10  21  34  50  72  98 129 166 206 251 294
#     4   8  15  28  48  70  93 122 158 195 233 278
#     4   9  15  27  47  69  90 118 159 201 231 270
#     4  11  22  33  46  69  98 129 166 208 250 293
#     4   9  17  31  50  73  96 120 149 184 227 279
#
# _framework density 18.032793999999999
#
# number of rings (size 3 to 8) (size 9 to 14) (size 15 to 20)
#    0.000    2.857    0.000    3.857    0.000    4.571 
#    0.000    3.571    0.000    1.714    0.000    0.000 
#    0.000    0.000    0.000    0.000    0.000    0.000 
#
# Total GULP energy -346969.643091 kJ/mol
# GULP energy per Si atom -12391.772968 kJ/mol
# Density = 1.799175 g / cm^3
# Si number density = 18.032794 Si / 1000 Ang^3
#
#
#
# Elastic Constant Matrix: (Units=GPa)
#
#
# Indices 1 2 3 4 5 6 
#
# 1 82.4007 21.3874 57.1000 0.0000 -4.8461 0.0000
# 2 21.3874 46.3486 24.0105 0.0000 -5.1295 0.0000
# 3 57.1000 24.0105 132.2614 0.0000 1.2887 0.0000
# 4 0.0000 0.0000 0.0000 20.3669 0.0000 -4.8319
# 5 -4.8461 -5.1295 1.2887 0.0000 34.9636 0.0000
# 6 0.0000 0.0000 0.0000 -4.8319 0.0000 25.3237
#
#
#
# Elastic Compliance Matrix: (Units=1/GPa)
#
#
# Indices 1 2 3 4 5 6 
#
# 1 0.018385 -0.004552 -0.007132 0.000000 0.002143 0.000000
# 2 -0.004552 0.025419 -0.002680 0.000000 0.003197 0.000000
# 3 -0.007132 -0.002680 0.011144 0.000000 -0.001792 0.000000
# 4 0.000000 0.000000 0.000000 0.051427 0.000000 0.009813
# 5 0.002143 0.003197 -0.001792 0.000000 0.029433 0.000000
# 6 0.000000 0.000000 0.000000 0.009813 0.000000 0.041361
#
#
# Mechanical properties :
#
#
# Convention : Reuss Voigt Hill
#
# Bulk Modulus (GPa) = 38.14005 51.77849 44.95927
# Shear Modulus (GPa) = 23.29508 26.69838 24.99673
#
# Velocity S-wave (km/s) = 3.59809 3.85196 3.72719
# Velocity P-wave (km/s) = 6.20145 6.96845 6.59611
#
# Compressibility (1/GPa) = 0.02621916
#
# Stress axis : x y z
#
# Youngs Moduli (GPa) = 54.39086 39.34140 89.73584
#
# Poissons Ratio (x) = 0.17908 0.63999
# Poissons Ratio (y) = 0.24759 0.24052
# Poissons Ratio (z) = 0.38791 0.10545
#
# Static dielectric constant tensor:
#      x y z
#    x 3.313050 0.000000 0.105760 
#    y 0.000000 2.956310 0.000000 
#    z 0.105760 0.000000 3.794640 
# 
# 
# High freq. dielectric constant tensor:
#      x y z
#    x 1.688930 0.000000 0.006480 
#    y 0.000000 1.644630 0.000000 
#    z 0.006480 0.000000 1.713640 
# 
# From -- ./inp_files/61300.got.cif
#   From: 2010.06.25/outbox.cif.g09.slc.cpg/sg11_31_cif.got.tgz:61300.got - 2010.06.27 23:14:04.
