data_PCOD8075149
_publ_section_title
;
Structure prediction by ZEFSAII (Michael W. Deem and Ramdas Pophale) SiO2 
 PCOD8075149
Probable space group: P 21/M
;
_chemical_formula_sum "Si O2"
_cell_formula_units_Z 28
_cell_length_a 9.748642
_cell_length_b 8.689264
_cell_length_c 27.367392
_cell_angle_alpha 90.000000
_cell_angle_beta 38.634327
_cell_angle_gamma 90.000000
_cell_volume 1447.394938
_symmetry_space_group_name_H-M "P 21/M"
_symmetry_group_IT_number 11
_symmetry_cell_setting 'monoclinic'
loop_
_space_group_symop_operation_xyz
x,y,z
-x,1/2+y,-z
-x,-y,-z
x,1/2-y,z
loop_
_atom_site_type_symbol
_atom_site_label
_atom_site_fract_x
_atom_site_fract_y
_atom_site_fract_z
Si Si1 0.506131 0.931439 0.221321
Si Si2 0.237033 0.925521 0.936507
Si Si3 0.145133 0.932488 0.803911
Si Si4 0.708641 0.074473 0.966622
Si Si5 0.222628 0.569962 0.674851
Si Si6 0.969925 0.567711 0.649358
Si Si7 0.361976 0.430439 0.494915
O O1 0.523371 0.750000 0.219935
O O2 0.594679 0.984139 0.144260
O O3 0.646140 0.002649 0.226017
O O4 0.258434 0.985336 0.296239
O O5 0.219501 0.750000 0.923175
O O6 0.331259 0.934934 0.964627
O O7 0.000000 0.000000 0.000000
O O8 0.160752 0.750000 0.799228
O O9 0.147203 0.999259 0.747885
O O10 0.924904 0.981976 0.892227
O O11 0.735668 0.250000 0.941797
O O12 0.500000 0.000000 0.000000
O O13 0.179208 0.750000 0.686583
O O14 0.485292 0.537623 0.595184
O O15 0.075421 0.504347 0.670991
O O16 0.937522 0.750000 0.658444
O O17 0.128223 0.518465 0.559893
O O18 0.500000 0.500000 0.500000
O O19 0.321406 0.250000 0.513852
#
# Coordination Sequence:
#
# PCOD8075149 Si02
#       7
#     4   4   4   4   4   4   4
#     4  12  25  40  58  86 119 154 196 242 291 350
#     4  11  23  41  64  86 114 154 197 238 286 344
#     4  11  22  40  62  85 116 156 194 239 295 347
#     4  11  25  42  61  88 119 152 193 241 290 344
#     4   8  18  35  59  87 116 149 189 236 288 343
#     4  10  20  37  60  88 117 150 194 243 290 344
#     4   9  16  32  56  85 118 152 190 236 287 344
#
# _framework density 19.345099999999999
#
# number of rings (size 3 to 8) (size 9 to 14) (size 15 to 20)
#    0.000    1.714    1.429    4.286    2.000    1.714 
#    0.000    8.571    0.000    0.000    0.000    0.000 
#    0.000    0.000    0.000    0.000    0.000    0.000 
#
# Total GULP energy -347150.333940 kJ/mol
# GULP energy per Si atom -12398.226212 kJ/mol
# Density = 1.930107 g / cm^3
# Si number density = 19.345100 Si / 1000 Ang^3
#
#
#
# Elastic Constant Matrix: (Units=GPa)
#
#
# Indices 1 2 3 4 5 6 
#
# 1 96.1954 31.9984 32.4274 0.0000 -14.2492 0.0000
# 2 31.9984 95.5255 20.9249 0.0000 -2.4490 0.0000
# 3 32.4274 20.9249 80.0697 0.0000 -17.8504 0.0000
# 4 0.0000 0.0000 0.0000 35.0181 0.0000 -5.3677
# 5 -14.2492 -2.4490 -17.8504 0.0000 34.3478 0.0000
# 6 0.0000 0.0000 0.0000 -5.3677 0.0000 27.1849
#
#
#
# Elastic Compliance Matrix: (Units=1/GPa)
#
#
# Indices 1 2 3 4 5 6 
#
# 1 0.013331 -0.003564 -0.003722 0.000000 0.003342 0.000000
# 2 -0.003564 0.012077 -0.002093 0.000000 -0.001705 0.000000
# 3 -0.003722 -0.002093 0.016022 0.000000 0.006633 0.000000
# 4 0.000000 0.000000 0.000000 0.029448 0.000000 0.005814
# 5 0.003342 -0.001705 0.006633 0.000000 0.033826 0.000000
# 6 0.000000 0.000000 0.000000 0.005814 0.000000 0.037933
#
#
# Mechanical properties :
#
#
# Convention : Reuss Voigt Hill
#
# Bulk Modulus (GPa) = 44.10873 49.16578 46.63725
# Shear Modulus (GPa) = 29.59388 31.73949 30.66668
#
# Velocity S-wave (km/s) = 3.91549 4.05495 3.98583
# Velocity P-wave (km/s) = 6.57966 6.88431 6.73371
#
# Compressibility (1/GPa) = 0.02267125
#
# Stress axis : x y z
#
# Youngs Moduli (GPa) = 75.01302 82.80136 62.41284
#
# Poissons Ratio (x) = 0.29514 0.23233
# Poissons Ratio (y) = 0.26738 0.13061
# Poissons Ratio (z) = 0.27923 0.17328
#
# Static dielectric constant tensor:
#      x y z
#    x 3.572590 0.000000 0.200190 
#    y 0.000000 3.546820 0.000000 
#    z 0.200190 0.000000 4.033690 
# 
# 
# High freq. dielectric constant tensor:
#      x y z
#    x 1.739490 0.000000 -0.004570 
#    y 0.000000 1.756560 0.000000 
#    z -0.004570 0.000000 1.768110 
# 
# From -- ./inp_files/70778.got.cif
#   From: 2010.06.25/outbox.cif.g09.slc.cpg/sg11_36_cif.got.tgz:70778.got - 2010.06.27 23:14:04.
