data_PCOD8075082
_publ_section_title
;
Structure prediction by ZEFSAII (Michael W. Deem and Ramdas Pophale) SiO2 
 PCOD8075082
Probable space group: P 21/M
;
_chemical_formula_sum "Si O2"
_cell_formula_units_Z 28
_cell_length_a 9.210309
_cell_length_b 8.960078
_cell_length_c 26.904879
_cell_angle_alpha 90.000000
_cell_angle_beta 140.859002
_cell_angle_gamma 90.000000
_cell_volume 1401.539417
_symmetry_space_group_name_H-M "P 21/M"
_symmetry_group_IT_number 11
_symmetry_cell_setting 'monoclinic'
loop_
_space_group_symop_operation_xyz
x,y,z
-x,1/2+y,-z
-x,-y,-z
x,1/2-y,z
loop_
_atom_site_type_symbol
_atom_site_label
_atom_site_fract_x
_atom_site_fract_y
_atom_site_fract_z
Si Si1 0.778989 0.418427 0.960463
Si Si2 0.686122 0.075990 0.514296
Si Si3 0.441611 0.927315 0.629627
Si Si4 0.264934 0.916111 0.937954
Si Si5 0.210641 0.073698 0.662638
Si Si6 0.041875 0.425925 0.230175
Si Si7 0.347175 0.573352 0.797997
O O1 0.757718 0.250000 0.933826
O O2 0.551077 0.509025 0.885956
O O3 0.830975 0.414872 0.032476
O O4 0.000000 0.500000 0.000000
O O5 0.637375 0.250000 0.505415
O O6 0.662225 0.024767 0.450874
O O7 0.942807 0.033609 0.599560
O O8 0.500000 0.000000 0.500000
O O9 0.429612 0.750000 0.635052
O O10 0.702041 0.991678 0.698967
O O11 0.295810 0.007792 0.633299
O O12 0.314158 0.750000 0.930962
O O13 0.081314 0.992194 0.851890
O O14 0.500000 0.000000 0.000000
O O15 0.251592 0.250000 0.673431
O O16 0.353951 0.999769 0.745421
O O17 0.065195 0.250000 0.232066
O O18 0.893433 0.469204 0.239331
O O19 0.380416 0.750000 0.801648
#
# Coordination Sequence:
#
# PCOD8075082 Si02
#       7
#     4   4   4   4   4   4   4
#     4  11  24  39  59  88 123 159 201 251 303 360
#     4  10  22  40  64  92 124 159 200 247 297 357
#     4  10  21  39  63  90 119 158 203 245 293 358
#     4  10  20  37  59  85 116 154 197 247 295 349
#     4  11  24  40  58  89 128 159 195 248 301 354
#     4   9  19  36  60  87 114 148 200 250 292 350
#     4  11  22  40  64  86 115 159 204 249 302 360
#
# _framework density 19.978033
#
# number of rings (size 3 to 8) (size 9 to 14) (size 15 to 20)
#    0.000    1.714    1.429    2.571    2.000    3.429 
#    0.000    2.143    0.000    0.000    0.000    0.000 
#    0.000    0.000    0.000    0.000    0.000    0.000 
#
# Total GULP energy -347212.419383 kJ/mol
# GULP energy per Si atom -12400.443549 kJ/mol
# Density = 1.993256 g / cm^3
# Si number density = 19.978033 Si / 1000 Ang^3
#
#
#
# Elastic Constant Matrix: (Units=GPa)
#
#
# Indices 1 2 3 4 5 6 
#
# 1 112.8576 48.6142 25.2308 0.0000 -3.9048 0.0000
# 2 48.6142 81.1805 32.1509 0.0000 -0.5822 0.0000
# 3 25.2308 32.1509 92.6377 0.0000 -11.3168 0.0000
# 4 0.0000 0.0000 0.0000 28.2640 0.0000 1.7479
# 5 -3.9048 -0.5822 -11.3168 0.0000 40.0073 0.0000
# 6 0.0000 0.0000 0.0000 1.7479 0.0000 34.0614
#
#
#
# Elastic Compliance Matrix: (Units=1/GPa)
#
#
# Indices 1 2 3 4 5 6 
#
# 1 0.012033 -0.006890 -0.000782 0.000000 0.000853 0.000000
# 2 -0.006890 0.018286 -0.004681 0.000000 -0.001731 0.000000
# 3 -0.000782 -0.004681 0.013066 0.000000 0.003552 0.000000
# 4 0.000000 0.000000 0.000000 0.035493 0.000000 -0.001821
# 5 0.000853 -0.001731 0.003552 0.000000 0.026058 0.000000
# 6 0.000000 0.000000 0.000000 -0.001821 0.000000 0.029452
#
#
# Mechanical properties :
#
#
# Convention : Reuss Voigt Hill
#
# Bulk Modulus (GPa) = 53.53624 55.40751 54.47188
# Shear Modulus (GPa) = 30.24419 32.51186 31.37803
#
# Velocity S-wave (km/s) = 3.89507 4.03846 3.96741
# Velocity P-wave (km/s) = 6.86182 7.03846 6.95070
#
# Compressibility (1/GPa) = 0.01867894
#
# Stress axis : x y z
#
# Youngs Moduli (GPa) = 83.10497 54.68726 76.53348
#
# Poissons Ratio (x) = 0.37680 0.05983
# Poissons Ratio (y) = 0.57260 0.35826
# Poissons Ratio (z) = 0.06497 0.25600
#
# Static dielectric constant tensor:
#      x y z
#    x 3.869840 0.000000 -0.247320 
#    y 0.000000 3.528370 0.000000 
#    z -0.247320 0.000000 3.837160 
# 
# 
# High freq. dielectric constant tensor:
#      x y z
#    x 1.788260 0.000000 -0.003630 
#    y 0.000000 1.765050 0.000000 
#    z -0.003630 0.000000 1.795650 
# 
# From -- ./inp_files/28565.got.cif
#   From: 2010.06.25/outbox.cif.g09.slc.cpg/sg11_15_cif.got.tgz:28565.got - 2010.06.27 23:14:04.
