data_PCOD8075262
_publ_section_title
;
Structure prediction by ZEFSAII (Michael W. Deem and Ramdas Pophale) SiO2 
 PCOD8075262
Probable space group: P 21/M
;
_chemical_formula_sum "Si O2"
_cell_formula_units_Z 32
_cell_length_a 12.108978
_cell_length_b 8.671423
_cell_length_c 27.951471
_cell_angle_alpha 90.000000
_cell_angle_beta 147.270248
_cell_angle_gamma 90.000000
_cell_volume 1586.867268
_symmetry_space_group_name_H-M "P 21/M"
_symmetry_group_IT_number 11
_symmetry_cell_setting 'monoclinic'
loop_
_space_group_symop_operation_xyz
x,y,z
-x,1/2+y,-z
-x,-y,-z
x,1/2-y,z
loop_
_atom_site_type_symbol
_atom_site_label
_atom_site_fract_x
_atom_site_fract_y
_atom_site_fract_z
Si Si1 0.456200 0.431640 0.432383
Si Si2 0.347538 0.570951 0.057412
Si Si3 0.636218 0.069431 0.091519
Si Si4 0.800318 0.927371 0.376788
Si Si5 0.375034 0.572970 0.176917
Si Si6 0.084101 0.071856 0.144759
Si Si7 0.079454 0.930976 0.242684
Si Si8 0.221974 0.070804 0.522453
O O1 0.500000 0.500000 0.500000
O O2 0.448731 0.250000 0.433989
O O3 0.236374 0.491667 0.336066
O O4 0.629631 0.476222 0.457608
O O5 0.403182 0.750000 0.070688
O O6 0.529093 0.466789 0.102849
O O7 0.322362 0.529866 0.103583
O O8 0.140819 0.526520 0.954831
O O9 0.660210 0.250000 0.091684
O O10 0.856593 0.993816 0.172600
O O11 0.500000 0.000000 0.000000
O O12 0.871863 0.750000 0.402821
O O13 0.613711 0.956632 0.273037
O O14 0.732386 0.974626 0.405770
O O15 0.986592 0.030238 0.425413
O O16 0.317705 0.750000 0.167712
O O17 0.243842 0.459066 0.161217
O O18 0.094136 0.250000 0.163271
O O19 0.143544 0.968886 0.211770
O O20 0.085748 0.750000 0.253036
O O21 0.261484 0.250000 0.527102
#
# Coordination Sequence:
#
# PCOD8075262 Si02
#       8
#     4   4   4   4   4   4   4   4
#     4  12  26  45  67  94 129 166 208 259 315 378
#     4  10  22  39  59  86 123 165 208 258 314 375
#     4  12  24  41  65  92 123 163 212 265 317 374
#     4   9  19  36  59  87 119 160 207 256 309 370
#     4  10  21  37  58  86 123 164 207 255 312 374
#     4  11  22  37  60  89 124 163 209 259 310 373
#     4  12  25  43  68  95 125 166 212 260 315 376
#     4  10  20  37  62  90 122 161 206 255 310 370
#
# _framework density 20.165517999999999
#
# number of rings (size 3 to 8) (size 9 to 14) (size 15 to 20)
#    0.000    1.250    1.250    5.250    0.000    4.000 
#    0.000    3.750    0.000    0.000    0.000    0.000 
#    0.000    0.000    0.000    0.000    0.000    0.000 
#
# Total GULP energy -397008.801020 kJ/mol
# GULP energy per Si atom -12406.525032 kJ/mol
# Density = 2.011962 g / cm^3
# Si number density = 20.165518 Si / 1000 Ang^3
#
#
#
# Elastic Constant Matrix: (Units=GPa)
#
#
# Indices 1 2 3 4 5 6 
#
# 1 79.0257 40.4345 65.2210 0.0000 4.6881 0.0000
# 2 40.4345 120.4732 60.3978 0.0000 1.8164 0.0000
# 3 65.2210 60.3978 121.4208 0.0000 -5.1900 0.0000
# 4 0.0000 0.0000 0.0000 31.6010 0.0000 5.4896
# 5 4.6881 1.8164 -5.1900 0.0000 32.3489 0.0000
# 6 0.0000 0.0000 0.0000 5.4896 0.0000 35.7629
#
#
#
# Elastic Compliance Matrix: (Units=1/GPa)
#
#
# Indices 1 2 3 4 5 6 
#
# 1 0.023974 -0.001860 -0.012180 0.000000 -0.005324 0.000000
# 2 -0.001860 0.011277 -0.004658 0.000000 -0.001111 0.000000
# 3 -0.012180 -0.004658 0.017300 0.000000 0.004802 0.000000
# 4 0.000000 0.000000 0.000000 0.032512 0.000000 -0.004991
# 5 -0.005324 -0.001111 0.004802 0.000000 0.032517 0.000000
# 6 0.000000 0.000000 0.000000 -0.004991 0.000000 0.028728
#
#
# Mechanical properties :
#
#
# Convention : Reuss Voigt Hill
#
# Bulk Modulus (GPa) = 65.98122 72.55847 69.26985
# Shear Modulus (GPa) = 26.48937 30.26698 28.37817
#
# Velocity S-wave (km/s) = 3.62829 3.87838 3.75542
# Velocity P-wave (km/s) = 7.09532 7.49102 7.29585
#
# Compressibility (1/GPa) = 0.01515583
#
# Stress axis : x y z
#
# Youngs Moduli (GPa) = 41.71217 88.67842 57.80198
#
# Poissons Ratio (x) = 0.16492 0.70403
# Poissons Ratio (y) = 0.07758 0.26923
# Poissons Ratio (z) = 0.50805 0.41305
#
# Static dielectric constant tensor:
#      x y z
#    x 3.697980 0.000000 0.010540 
#    y 0.000000 3.821550 0.000000 
#    z 0.010540 0.000000 3.827180 
# 
# 
# High freq. dielectric constant tensor:
#      x y z
#    x 1.792180 0.000000 0.003160 
#    y 0.000000 1.792320 0.000000 
#    z 0.003160 0.000000 1.796480 
# 
# From -- ./inp_files/73175.got.cif
#   From: 2010.06.25/outbox.cif.g09.slc.cpg/sg11_37_cif.got.tgz:73175.got - 2010.06.27 23:14:04.
