data_PCOD8075263
_publ_section_title
;
Structure prediction by ZEFSAII (Michael W. Deem and Ramdas Pophale) SiO2 
 PCOD8075263
Probable space group: P 21/M
;
_chemical_formula_sum "Si O2"
_cell_formula_units_Z 28
_cell_length_a 11.740203
_cell_length_b 8.565122
_cell_length_c 15.451013
_cell_angle_alpha 90.000000
_cell_angle_beta 63.623502
_cell_angle_gamma 90.000000
_cell_volume 1391.947255
_symmetry_space_group_name_H-M "P 21/M"
_symmetry_group_IT_number 11
_symmetry_cell_setting 'monoclinic'
loop_
_space_group_symop_operation_xyz
x,y,z
-x,1/2+y,-z
-x,-y,-z
x,1/2-y,z
loop_
_atom_site_type_symbol
_atom_site_label
_atom_site_fract_x
_atom_site_fract_y
_atom_site_fract_z
Si Si1 0.057966 0.069806 0.303826
Si Si2 0.814004 0.570815 0.067180
Si Si3 0.180039 0.431628 0.536088
Si Si4 0.027765 0.929715 0.129230
Si Si5 0.567127 0.570052 0.249479
Si Si6 0.279306 0.931120 0.326768
Si Si7 0.620743 0.067938 0.410997
O O1 0.030022 0.250000 0.330277
O O2 0.034680 0.034585 0.211643
O O3 0.201960 0.029023 0.281740
O O4 0.967252 0.970891 0.398112
O O5 0.840807 0.750000 0.033054
O O6 0.666116 0.541615 0.138115
O O7 0.898462 0.526324 0.122502
O O8 0.851652 0.464327 0.973130
O O9 0.195530 0.250000 0.509948
O O10 0.237199 0.528691 0.437914
O O11 0.254492 0.478205 0.598072
O O12 0.030352 0.750000 0.156958
O O13 0.571700 0.750000 0.279639
O O14 0.427131 0.525640 0.263565
O O15 0.606886 0.458224 0.314010
O O16 0.254816 0.750000 0.317796
O O17 0.634160 0.250000 0.426948
O O18 0.500000 0.000000 0.500000
#
# Coordination Sequence:
#
# PCOD8075263 Si02
#       7
#     4   4   4   4   4   4   4
#     4  12  25  41  61  85 116 155 201 248 297 352
#     4   9  19  37  62  91 120 151 187 237 297 354
#     4  12  24  40  61  86 118 156 200 247 298 353
#     4  10  20  37  62  91 121 151 190 241 295 353
#     4  10  21  38  61  87 120 159 199 243 295 354
#     4  11  23  40  60  84 118 158 202 246 294 352
#     4  12  23  36  57  86 121 157 196 241 292 347
#
# _framework density 20.115704000000001
#
# number of rings (size 3 to 8) (size 9 to 14) (size 15 to 20)
#    0.000    1.143    1.429    6.000    0.000    2.857 
#    0.000    0.714    0.000    0.000    0.000    0.000 
#    0.000    0.000    0.000    0.000    0.000    0.000 
#
# Total GULP energy -347396.468052 kJ/mol
# GULP energy per Si atom -12407.016716 kJ/mol
# Density = 2.006992 g / cm^3
# Si number density = 20.115704 Si / 1000 Ang^3
#
#
#
# Elastic Constant Matrix: (Units=GPa)
#
#
# Indices 1 2 3 4 5 6 
#
# 1 102.4416 25.1016 39.4048 0.0000 -16.3294 0.0000
# 2 25.1016 64.0440 15.4667 0.0000 2.3867 0.0000
# 3 39.4048 15.4667 80.4907 0.0000 -18.7759 0.0000
# 4 0.0000 0.0000 0.0000 32.2916 0.0000 2.2101
# 5 -16.3294 2.3867 -18.7759 0.0000 28.4749 0.0000
# 6 0.0000 0.0000 0.0000 2.2101 0.0000 31.0561
#
#
#
# Elastic Compliance Matrix: (Units=1/GPa)
#
#
# Indices 1 2 3 4 5 6 
#
# 1 0.013372 -0.004333 -0.004538 0.000000 0.005039 0.000000
# 2 -0.004333 0.018188 -0.002729 0.000000 -0.005808 0.000000
# 3 -0.004538 -0.002729 0.017273 0.000000 0.009016 0.000000
# 4 0.000000 0.000000 0.000000 0.031119 0.000000 -0.002215
# 5 0.005039 -0.005808 0.009016 0.000000 0.044440 0.000000
# 6 0.000000 0.000000 0.000000 -0.002215 0.000000 0.032357
#
#
# Mechanical properties :
#
#
# Convention : Reuss Voigt Hill
#
# Bulk Modulus (GPa) = 39.01175 45.21360 42.11267
# Shear Modulus (GPa) = 26.52596 29.49808 28.01202
#
# Velocity S-wave (km/s) = 3.63529 3.83354 3.73573
# Velocity P-wave (km/s) = 6.08738 6.49001 6.29192
#
# Compressibility (1/GPa) = 0.02563330
#
# Stress axis : x y z
#
# Youngs Moduli (GPa) = 74.78102 54.98149 57.89384
#
# Poissons Ratio (x) = 0.23823 0.26275
# Poissons Ratio (y) = 0.32402 0.15797
# Poissons Ratio (z) = 0.33939 0.15002
#
# Static dielectric constant tensor:
#      x y z
#    x 3.780370 0.000000 -0.125580 
#    y 0.000000 3.714230 0.000000 
#    z -0.125580 0.000000 3.530500 
# 
# 
# High freq. dielectric constant tensor:
#      x y z
#    x 1.786350 0.000000 -0.010330 
#    y 0.000000 1.791260 0.000000 
#    z -0.010330 0.000000 1.776760 
# 
# From -- ./inp_files/48933.got.cif
#   From: 2010.06.25/outbox.cif.g09.slc.cpg/sg11_25_cif.got.tgz:48933.got - 2010.06.27 23:14:04.
