data_PCOD8075791
_publ_section_title
;
Structure prediction by ZEFSAII (Michael W. Deem and Ramdas Pophale) SiO2 
 PCOD8075791
Probable space group: P 21/M
;
_chemical_formula_sum "Si O2"
_cell_formula_units_Z 32
_cell_length_a 14.606578
_cell_length_b 9.230462
_cell_length_c 25.819636
_cell_angle_alpha 90.000000
_cell_angle_beta 31.943148
_cell_angle_gamma 90.000000
_cell_volume 1841.795250
_symmetry_space_group_name_H-M "P 21/M"
_symmetry_group_IT_number 11
_symmetry_cell_setting 'monoclinic'
loop_
_space_group_symop_operation_xyz
x,y,z
-x,1/2+y,-z
-x,-y,-z
x,1/2-y,z
loop_
_atom_site_type_symbol
_atom_site_label
_atom_site_fract_x
_atom_site_fract_y
_atom_site_fract_z
Si Si1 0.131141 0.584941 0.145192
Si Si2 0.044254 0.419629 0.400405
Si Si3 0.392607 0.083905 0.764439
Si Si4 0.185923 0.583905 0.235561
Si Si5 0.554957 0.583675 0.023982
Si Si6 0.745469 0.580371 0.599595
Si Si7 0.873097 0.583676 0.023982
Si Si8 0.066716 0.084940 0.854808
O O1 0.198645 0.750000 0.114435
O O2 0.116780 0.532699 0.211783
O O3 0.266807 0.492737 0.045100
O O4 0.948956 0.573323 0.200696
O O5 0.005531 0.250000 0.414731
O O6 0.868716 0.500000 0.500000
O O7 0.102270 0.478086 0.317130
O O8 0.192718 0.452226 0.371521
O O9 0.449113 0.250000 0.726917
O O10 0.317403 0.069948 0.859184
O O11 0.252129 0.032699 0.788217
O O12 0.553661 0.978086 0.682869
O O13 0.129863 0.750000 0.273084
O O14 0.394953 0.569948 0.140817
O O15 0.594648 0.750000 0.992722
O O16 0.500000 0.500000 0.000000
O O17 0.749724 0.750000 0.585268
O O18 0.927186 0.750000 0.992722
O O19 0.000000 0.500000 0.000000
O O20 0.902107 0.507263 0.954900
O O21 0.041951 0.250000 0.885565
#
# Coordination Sequence:
#
# PCOD8075791 Si02
#       8
#     4   4   4   4   4   4   4   4
#     4   9  18  32  49  71 102 138 171 203 241 285
#     4  10  21  36  54  75  97 122 154 196 247 299
#     4   9  18  32  50  72  99 131 164 200 243 289
#     4   9  18  32  50  72  99 131 164 200 243 289
#     4   9  17  29  45  67  96 130 167 204 241 280
#     4  10  21  36  54  75  97 122 154 196 247 299
#     4   9  17  29  45  67  96 130 167 204 241 280
#     4   9  18  32  49  71 102 138 171 203 241 285
#
# _framework density 17.374354
#
# number of rings (size 3 to 8) (size 9 to 14) (size 15 to 20)
#    0.000    2.750    0.000    3.000    0.000    8.000 
#    0.000    5.000    0.000    0.750    0.000    0.000 
#    0.000    0.000    0.000    0.000    0.000    0.000 
#
# Total GULP energy -396441.498551 kJ/mol
# GULP energy per Si atom -12388.796830 kJ/mol
# Density = 1.733481 g / cm^3
# Si number density = 17.374354 Si / 1000 Ang^3
#
#
#
# Elastic Constant Matrix: (Units=GPa)
#
#
# Indices 1 2 3 4 5 6 
#
# 1 98.7294 42.8728 56.4367 0.0000 0.0644 0.0000
# 2 42.8728 102.0124 62.8303 0.0000 0.6407 0.0000
# 3 56.4367 62.8303 98.9054 0.0000 -0.0592 0.0000
# 4 0.0000 0.0000 0.0000 35.1153 0.0000 0.4528
# 5 0.0644 0.6407 -0.0592 0.0000 22.1504 0.0000
# 6 0.0000 0.0000 0.0000 0.4528 0.0000 21.0067
#
#
#
# Elastic Compliance Matrix: (Units=1/GPa)
#
#
# Indices 1 2 3 4 5 6 
#
# 1 0.015213 -0.001720 -0.007588 0.000000 -0.000015 0.000000
# 2 -0.001720 0.016303 -0.009376 0.000000 -0.000492 0.000000
# 3 -0.007588 -0.009376 0.020397 0.000000 0.000348 0.000000
# 4 0.000000 0.000000 0.000000 0.028486 0.000000 -0.000614
# 5 -0.000015 -0.000492 0.000348 0.000000 0.045161 0.000000
# 6 0.000000 0.000000 0.000000 -0.000614 0.000000 0.047617
#
#
# Mechanical properties :
#
#
# Convention : Reuss Voigt Hill
#
# Bulk Modulus (GPa) = 68.74933 69.32521 69.03727
# Shear Modulus (GPa) = 23.21338 24.82165 24.01751
#
# Velocity S-wave (km/s) = 3.65920 3.78383 3.72204
# Velocity P-wave (km/s) = 7.58342 7.68618 7.63497
#
# Compressibility (1/GPa) = 0.01454560
#
# Stress axis : x y z
#
# Youngs Moduli (GPa) = 65.73209 61.33790 49.02731
#
# Poissons Ratio (x) = 0.10549 0.37204
# Poissons Ratio (y) = 0.11305 0.45966
# Poissons Ratio (z) = 0.49880 0.57508
#
# Static dielectric constant tensor:
#      x y z
#    x 3.280570 0.000000 -0.004430 
#    y 0.000000 3.596760 0.000000 
#    z -0.004430 0.000000 3.142640 
# 
# 
# High freq. dielectric constant tensor:
#      x y z
#    x 1.666700 0.000000 -0.000770 
#    y 0.000000 1.681220 0.000000 
#    z -0.000770 0.000000 1.642630 
# 
# From -- ./inp_files/71603.got.cif
#   From: 2010.06.25/outbox.cif.g09.slc.cpg/sg11_36_cif.got.tgz:71603.got - 2010.06.27 23:14:04.
