data_PCOD8075383
_publ_section_title
;
Structure prediction by ZEFSAII (Michael W. Deem and Ramdas Pophale) SiO2 
 PCOD8075383
Probable space group: P 21/M
;
_chemical_formula_sum "Si O2"
_cell_formula_units_Z 28
_cell_length_a 12.328240
_cell_length_b 14.792178
_cell_length_c 8.799938
_cell_angle_alpha 90.000000
_cell_angle_beta 53.024339
_cell_angle_gamma 90.000000
_cell_volume 1282.036508
_symmetry_space_group_name_H-M "P 21/M"
_symmetry_group_IT_number 11
_symmetry_cell_setting 'monoclinic'
loop_
_space_group_symop_operation_xyz
x,y,z
-x,1/2+y,-z
-x,-y,-z
x,1/2-y,z
loop_
_atom_site_type_symbol
_atom_site_label
_atom_site_fract_x
_atom_site_fract_y
_atom_site_fract_z
Si Si1 0.808612 0.033923 0.747141
Si Si2 0.678296 0.648998 0.803291
Si Si3 0.325633 0.346693 0.853093
Si Si4 0.601463 0.351639 0.105126
Si Si5 0.060790 0.453070 0.093077
Si Si6 0.572157 0.094521 0.464229
Si Si7 0.172787 0.856016 0.562827
O O1 0.857673 0.102673 0.577278
O O2 0.783848 0.933693 0.695406
O O3 0.925525 0.023325 0.777184
O O4 0.675266 0.074476 0.939796
O O5 0.745201 0.750000 0.724141
O O6 0.558941 0.635866 0.783102
O O7 0.616415 0.641545 0.025172
O O8 0.252637 0.250000 0.896993
O O9 0.452567 0.344974 0.633380
O O10 0.211011 0.421062 0.917487
O O11 0.648108 0.250000 0.020694
O O12 0.630841 0.366265 0.258046
O O13 0.962442 0.370888 0.223397
O O14 0.000000 0.500000 0.000000
O O15 0.698720 0.091374 0.473428
O O16 0.500000 0.000000 0.500000
O O17 0.204532 0.750000 0.524799
#
# Coordination Sequence:
#
# PCOD8075383 Si02
#       7
#     4   4   4   4   4   4   4
#     4  11  22  40  63  89 123 169 216 263 318 391
#     4   9  19  35  59  88 122 160 203 256 319 382
#     4  10  20  38  61  87 118 158 202 251 313 381
#     4  11  21  35  57  92 130 162 202 260 320 379
#     4  11  24  43  64  89 124 168 215 269 325 381
#     4  12  23  38  63  94 127 163 208 262 318 379
#     4  12  25  43  66  95 131 174 218 265 323 393
#
# _framework density 21.840252
#
# number of rings (size 3 to 8) (size 9 to 14) (size 15 to 20)
#    0.000    1.143    0.000    8.143    0.000    1.714 
#    0.000    2.143    0.000    0.857    0.000    0.000 
#    0.000    0.000    0.000    0.000    0.000    0.000 
#
# Total GULP energy -347123.804893 kJ/mol
# GULP energy per Si atom -12397.278746 kJ/mol
# Density = 2.179054 g / cm^3
# Si number density = 21.840252 Si / 1000 Ang^3
#
#
#
# Elastic Constant Matrix: (Units=GPa)
#
#
# Indices 1 2 3 4 5 6 
#
# 1 117.1121 35.5252 18.9556 0.0000 16.0929 0.0000
# 2 35.5252 114.7378 14.8065 0.0000 11.1897 0.0000
# 3 18.9556 14.8065 77.4296 0.0000 -0.1818 0.0000
# 4 0.0000 0.0000 0.0000 25.9642 0.0000 -2.9893
# 5 16.0929 11.1897 -0.1818 0.0000 34.1349 0.0000
# 6 0.0000 0.0000 0.0000 -2.9893 0.0000 26.1332
#
#
#
# Elastic Compliance Matrix: (Units=1/GPa)
#
#
# Indices 1 2 3 4 5 6 
#
# 1 0.010172 -0.002500 -0.002022 0.000000 -0.003987 0.000000
# 2 -0.002500 0.009855 -0.001277 0.000000 -0.002059 0.000000
# 3 -0.002022 -0.001277 0.013658 0.000000 0.001445 0.000000
# 4 0.000000 0.000000 0.000000 0.039029 0.000000 0.004464
# 5 -0.003987 -0.002059 0.001445 0.000000 0.031858 0.000000
# 6 0.000000 0.000000 0.000000 0.004464 0.000000 0.038776
#
#
# Mechanical properties :
#
#
# Convention : Reuss Voigt Hill
#
# Bulk Modulus (GPa) = 45.27499 49.76157 47.51828
# Shear Modulus (GPa) = 30.80572 33.24594 32.02583
#
# Velocity S-wave (km/s) = 3.75974 3.90581 3.83347
# Velocity P-wave (km/s) = 6.29465 6.57071 6.43416
#
# Compressibility (1/GPa) = 0.02208725
#
# Stress axis : x y z
#
# Youngs Moduli (GPa) = 98.30691 101.46981 73.21968
#
# Poissons Ratio (x) = 0.25366 0.14802
# Poissons Ratio (y) = 0.24575 0.09353
# Poissons Ratio (z) = 0.19874 0.12962
#
# Static dielectric constant tensor:
#      x y z
#    x 3.973360 0.000000 0.173910 
#    y 0.000000 4.163130 0.000000 
#    z 0.173910 0.000000 3.972420 
# 
# 
# High freq. dielectric constant tensor:
#      x y z
#    x 1.856380 0.000000 0.012470 
#    y 0.000000 1.869840 0.000000 
#    z 0.012470 0.000000 1.845680 
# 
# From -- ./inp_files/17940.got.cif
#   From: 2010.06.25/outbox.cif.g09.slc.cpg/sg11_9_cif.got.tgz:17940.got - 2010.06.27 23:14:04.
