data_PCOD8075521
_publ_section_title
;
Structure prediction by ZEFSAII (Michael W. Deem and Ramdas Pophale) SiO2 
 PCOD8075521
Probable space group: P 21/M
;
_chemical_formula_sum "Si O2"
_cell_formula_units_Z 28
_cell_length_a 25.333050
_cell_length_b 8.917867
_cell_length_c 9.562029
_cell_angle_alpha 90.000000
_cell_angle_beta 139.625707
_cell_angle_gamma 90.000000
_cell_volume 1399.345083
_symmetry_space_group_name_H-M "P 21/M"
_symmetry_group_IT_number 11
_symmetry_cell_setting 'monoclinic'
loop_
_space_group_symop_operation_xyz
x,y,z
-x,1/2+y,-z
-x,-y,-z
x,1/2-y,z
loop_
_atom_site_type_symbol
_atom_site_label
_atom_site_fract_x
_atom_site_fract_y
_atom_site_fract_z
Si Si1 0.006773 0.071053 0.360679
Si Si2 0.138451 0.573631 0.128184
Si Si3 0.416799 0.920766 0.373920
Si Si4 0.318187 0.927530 0.437872
Si Si5 0.672565 0.080228 0.083945
Si Si6 0.145692 0.572820 0.461710
Si Si7 0.416128 0.074881 0.868566
O O1 0.005144 0.250000 0.371746
O O2 0.088685 0.018253 0.451302
O O3 0.000000 0.000000 0.500000
O O4 0.932882 0.009751 0.114252
O O5 0.130389 0.750000 0.123224
O O6 0.223570 0.529820 0.225255
O O7 0.132964 0.512763 0.276948
O O8 0.441050 0.750000 0.450281
O O9 0.375645 0.989966 0.429873
O O10 0.500000 0.000000 0.500000
O O11 0.344982 0.933464 0.115545
O O12 0.328504 0.750000 0.476642
O O13 0.343591 0.009405 0.629855
O O14 0.656705 0.250000 0.105037
O O15 0.764005 0.032423 0.303919
O O16 0.607578 0.967383 0.021699
O O17 0.128440 0.750000 0.439652
O O18 0.425220 0.250000 0.867278
O O19 0.500000 0.000000 0.000000
#
# Coordination Sequence:
#
# PCOD8075521 Si02
#       7
#     4   4   4   4   4   4   4
#     4  11  24  40  62  93 126 160 199 245 295 356
#     4   9  19  38  65  90 117 156 201 245 298 361
#     4  10  22  37  59  86 116 156 199 247 299 357
#     4  10  20  39  63  87 115 155 203 248 298 356
#     4  10  21  39  63  89 118 157 204 247 297 357
#     4  10  20  39  66  91 119 157 198 247 302 359
#     4  12  24  38  59  88 121 158 200 249 298 352
#
# _framework density 20.009360999999998
#
# number of rings (size 3 to 8) (size 9 to 14) (size 15 to 20)
#    0.000    1.714    1.429    3.000    2.000    4.000 
#    0.000    2.143    0.000    0.000    0.000    0.000 
#    0.000    0.000    0.000    0.000    0.000    0.000 
#
# Total GULP energy -347195.808690 kJ/mol
# GULP energy per Si atom -12399.850310 kJ/mol
# Density = 1.996382 g / cm^3
# Si number density = 20.009361 Si / 1000 Ang^3
#
#
#
# Elastic Constant Matrix: (Units=GPa)
#
#
# Indices 1 2 3 4 5 6 
#
# 1 138.3971 39.3651 35.8626 0.0000 0.8384 0.0000
# 2 39.3651 62.2520 26.5656 0.0000 7.7578 0.0000
# 3 35.8626 26.5656 102.5619 0.0000 4.9964 0.0000
# 4 0.0000 0.0000 0.0000 23.7021 0.0000 0.2159
# 5 0.8384 7.7578 4.9964 0.0000 34.6322 0.0000
# 6 0.0000 0.0000 0.0000 0.2159 0.0000 35.0816
#
#
#
# Elastic Compliance Matrix: (Units=1/GPa)
#
#
# Indices 1 2 3 4 5 6 
#
# 1 0.009179 -0.005127 -0.001941 0.000000 0.001206 0.000000
# 2 -0.005127 0.021328 -0.003530 0.000000 -0.004144 0.000000
# 3 -0.001941 -0.003530 0.011382 0.000000 -0.000804 0.000000
# 4 0.000000 0.000000 0.000000 0.042193 0.000000 -0.000260
# 5 0.001206 -0.004144 -0.000804 0.000000 0.029890 0.000000
# 6 0.000000 0.000000 0.000000 -0.000260 0.000000 0.028507
#
#
# Mechanical properties :
#
#
# Convention : Reuss Voigt Hill
#
# Bulk Modulus (GPa) = 48.31949 56.31085 52.31517
# Shear Modulus (GPa) = 29.31304 32.11103 30.71203
#
# Velocity S-wave (km/s) = 3.83164 4.01034 3.92201
# Velocity P-wave (km/s) = 6.61635 7.04607 6.83459
#
# Compressibility (1/GPa) = 0.02069558
#
# Stress axis : x y z
#
# Youngs Moduli (GPa) = 108.93996 46.88562 87.85587
#
# Poissons Ratio (x) = 0.24037 0.17049
# Poissons Ratio (y) = 0.55851 0.31013
# Poissons Ratio (z) = 0.21140 0.16550
#
# Static dielectric constant tensor:
#      x y z
#    x 3.723140 0.000000 -0.042260 
#    y 0.000000 3.411330 0.000000 
#    z -0.042260 0.000000 3.892080 
# 
# 
# High freq. dielectric constant tensor:
#      x y z
#    x 1.793310 0.000000 0.000680 
#    y 0.000000 1.755250 0.000000 
#    z 0.000680 0.000000 1.794730 
# 
# From -- ./inp_files/28528.got.cif
#   From: 2010.06.25/outbox.cif.g09.slc.cpg/sg11_15_cif.got.tgz:28528.got - 2010.06.27 23:14:04.
