data_PCOD8076544
_publ_section_title
;
Structure prediction by ZEFSAII (Michael W. Deem and Ramdas Pophale) SiO2 
 PCOD8076544
Probable space group: P 21/M
;
_chemical_formula_sum "Si O2"
_cell_formula_units_Z 32
_cell_length_a 18.665425
_cell_length_b 8.988071
_cell_length_c 12.461256
_cell_angle_alpha 90.000000
_cell_angle_beta 130.375956
_cell_angle_gamma 90.000000
_cell_volume 1592.623029
_symmetry_space_group_name_H-M "P 21/M"
_symmetry_group_IT_number 11
_symmetry_cell_setting 'monoclinic'
loop_
_space_group_symop_operation_xyz
x,y,z
-x,1/2+y,-z
-x,-y,-z
x,1/2-y,z
loop_
_atom_site_type_symbol
_atom_site_label
_atom_site_fract_x
_atom_site_fract_y
_atom_site_fract_z
Si Si1 0.018312 0.575738 0.132103
Si Si2 0.229871 0.575759 0.408181
Si Si3 0.528086 0.584858 0.631774
Si Si4 0.492894 0.920177 0.177852
Si Si5 0.152215 0.574421 0.952276
Si Si6 0.292532 0.574422 0.898074
Si Si7 0.302274 0.077737 0.691165
Si Si8 0.731986 0.918312 0.761692
O O1 0.999164 0.750000 0.101748
O O2 0.121621 0.542220 0.276689
O O3 0.948628 0.506045 0.154898
O O4 0.000000 0.500000 0.000000
O O5 0.253172 0.750000 0.429642
O O6 0.255975 0.509851 0.548445
O O7 0.291216 0.492212 0.376327
O O8 0.500000 0.500000 0.500000
O O9 0.486540 0.750000 0.585251
O O10 0.484033 0.509669 0.692688
O O11 0.640625 0.584731 0.748102
O O12 0.477123 0.750000 0.196163
O O13 0.584340 0.941623 0.192486
O O14 0.398210 0.979491 0.029703
O O15 0.138703 0.750000 0.943798
O O16 0.219849 0.527105 0.920363
O O17 0.192606 0.520720 0.105575
O O18 0.290074 0.750000 0.874628
O O19 0.260335 0.489863 0.759715
O O20 0.274321 0.250000 0.654208
O O21 0.770083 0.750000 0.782430
#
# Coordination Sequence:
#
# PCOD8076544 Si02
#       8
#     4   4   4   4   4   4   4   4
#     4  11  23  39  63  93 124 158 199 249 303 366
#     4  11  24  41  62  88 122 162 201 245 305 367
#     4  11  23  35  52  82 119 161 202 245 299 358
#     4  10  21  39  60  86 120 158 202 251 300 354
#     4  11  22  38  63  92 120 156 198 244 302 359
#     4  10  22  41  64  88 121 162 204 250 300 361
#     4  11  24  40  62  90 121 159 205 255 303 354
#     4  11  22  36  57  86 121 157 197 247 300 356
#
# _framework density 20.092638000000001
#
# number of rings (size 3 to 8) (size 9 to 14) (size 15 to 20)
#    0.000    1.250    2.500    3.375    0.000    8.500 
#    0.000    0.625    0.000    0.000    0.000    0.000 
#    0.000    0.000    0.000    0.000    0.000    0.000 
#
# Total GULP energy -396897.014277 kJ/mol
# GULP energy per Si atom -12403.031696 kJ/mol
# Density = 2.004691 g / cm^3
# Si number density = 20.092638 Si / 1000 Ang^3
#
#
#
# Elastic Constant Matrix: (Units=GPa)
#
#
# Indices 1 2 3 4 5 6 
#
# 1 93.0006 46.6557 38.3183 0.0000 -9.2741 0.0000
# 2 46.6557 107.8705 41.5683 0.0000 -11.5775 0.0000
# 3 38.3183 41.5683 84.4463 0.0000 -18.9299 0.0000
# 4 0.0000 0.0000 0.0000 34.7469 0.0000 -4.0544
# 5 -9.2741 -11.5775 -18.9299 0.0000 33.8558 0.0000
# 6 0.0000 0.0000 0.0000 -4.0544 0.0000 34.4278
#
#
#
# Elastic Compliance Matrix: (Units=1/GPa)
#
#
# Indices 1 2 3 4 5 6 
#
# 1 0.014976 -0.004762 -0.004455 0.000000 -0.000017 0.000000
# 2 -0.004762 0.012978 -0.004030 0.000000 0.000880 0.000000
# 3 -0.004455 -0.004030 0.017452 0.000000 0.007160 0.000000
# 4 0.000000 0.000000 0.000000 0.029181 0.000000 0.003436
# 5 -0.000017 0.000880 0.007160 0.000000 0.033836 0.000000
# 6 0.000000 0.000000 0.000000 0.003436 0.000000 0.029451
#
#
# Mechanical properties :
#
#
# Convention : Reuss Voigt Hill
#
# Bulk Modulus (GPa) = 52.88000 59.82245 56.35122
# Shear Modulus (GPa) = 29.29617 31.19111 30.24364
#
# Velocity S-wave (km/s) = 3.82259 3.94428 3.88391
# Velocity P-wave (km/s) = 6.77187 7.11204 6.94404
#
# Compressibility (1/GPa) = 0.01891074
#
# Stress axis : x y z
#
# Youngs Moduli (GPa) = 66.77569 77.05623 57.30026
#
# Poissons Ratio (x) = 0.36696 0.25527
# Poissons Ratio (y) = 0.31800 0.23092
# Poissons Ratio (z) = 0.29748 0.31053
#
# Static dielectric constant tensor:
#      x y z
#    x 3.881440 0.000000 0.147210 
#    y 0.000000 3.719400 0.000000 
#    z 0.147210 0.000000 3.451970 
# 
# 
# High freq. dielectric constant tensor:
#      x y z
#    x 1.789160 0.000000 0.002210 
#    y 0.000000 1.794570 0.000000 
#    z 0.002210 0.000000 1.772320 
# 
# From -- ./inp_files/42915.got.cif
#   From: 2010.06.25/outbox.cif.g09.slc.cpg/sg11_22_cif.got.tgz:42915.got - 2010.06.27 23:14:04.
