data_PCOD8076848
_publ_section_title
;
Structure prediction by ZEFSAII (Michael W. Deem and Ramdas Pophale) SiO2 
 PCOD8076848
Probable space group: P 21/M
;
_chemical_formula_sum "Si O2"
_cell_formula_units_Z 28
_cell_length_a 19.945504
_cell_length_b 8.653656
_cell_length_c 13.522958
_cell_angle_alpha 90.000000
_cell_angle_beta 144.558513
_cell_angle_gamma 90.000000
_cell_volume 1353.467751
_symmetry_space_group_name_H-M "P 21/M"
_symmetry_group_IT_number 11
_symmetry_cell_setting 'monoclinic'
loop_
_space_group_symop_operation_xyz
x,y,z
-x,1/2+y,-z
-x,-y,-z
x,1/2-y,z
loop_
_atom_site_type_symbol
_atom_site_label
_atom_site_fract_x
_atom_site_fract_y
_atom_site_fract_z
Si Si1 0.820981 0.431218 0.001899
Si Si2 0.712165 0.430759 0.079578
Si Si3 0.297290 0.930861 0.498824
Si Si4 0.514139 0.431622 0.125446
Si Si5 0.939548 0.429967 0.694459
Si Si6 0.105374 0.068737 0.567113
Si Si7 0.378093 0.566512 0.385734
O O1 0.844757 0.250000 0.018121
O O2 0.719018 0.488689 0.808305
O O3 0.787169 0.473122 0.073582
O O4 0.937008 0.523123 0.111532
O O5 0.686834 0.250000 0.055548
O O6 0.778277 0.485293 0.257288
O O7 0.591108 0.519685 0.929908
O O8 0.319946 0.750000 0.520247
O O9 0.370154 0.994706 0.680553
O O10 0.161126 0.966552 0.347219
O O11 0.342624 0.002530 0.450212
O O12 0.517969 0.250000 0.117488
O O13 0.500000 0.500000 0.000000
O O14 0.939039 0.250000 0.663465
O O15 0.913422 0.537008 0.569900
O O16 0.114537 0.250000 0.597940
O O17 0.000000 0.000000 0.500000
O O18 0.500000 0.500000 0.500000
O O19 0.386359 0.750000 0.396097
#
# Coordination Sequence:
#
# PCOD8076848 Si02
#       7
#     4   4   4   4   4   4   4
#     4  10  22  38  59  87 120 156 196 249 305 356
#     4  11  22  37  57  85 122 158 198 249 302 358
#     4   9  21  40  61  86 120 159 198 249 307 357
#     4  11  22  38  60  86 118 157 201 250 306 365
#     4  11  22  38  61  88 121 162 204 247 299 363
#     4  12  23  37  58  87 121 161 202 246 299 356
#     4  10  21  41  65  89 118 154 199 251 305 361
#
# _framework density 20.6876
#
# number of rings (size 3 to 8) (size 9 to 14) (size 15 to 20)
#    0.000    1.429    1.429    4.286    0.000    2.857 
#    0.000    4.286    0.000    0.000    0.000    0.000 
#    0.000    0.000    0.000    0.000    0.000    0.000 
#
# Total GULP energy -347282.482202 kJ/mol
# GULP energy per Si atom -12402.945793 kJ/mol
# Density = 2.064051 g / cm^3
# Si number density = 20.687600 Si / 1000 Ang^3
#
#
#
# Elastic Constant Matrix: (Units=GPa)
#
#
# Indices 1 2 3 4 5 6 
#
# 1 123.1135 26.8795 64.1510 0.0000 7.3059 0.0000
# 2 26.8795 50.4193 31.9952 0.0000 1.7309 0.0000
# 3 64.1510 31.9952 163.8119 0.0000 9.9497 0.0000
# 4 0.0000 0.0000 0.0000 32.1850 0.0000 7.1031
# 5 7.3059 1.7309 9.9497 0.0000 40.5737 0.0000
# 6 0.0000 0.0000 0.0000 7.1031 0.0000 28.6560
#
#
#
# Elastic Compliance Matrix: (Units=1/GPa)
#
#
# Indices 1 2 3 4 5 6 
#
# 1 0.010750 -0.003497 -0.003470 0.000000 -0.000936 0.000000
# 2 -0.003497 0.023778 -0.003301 0.000000 0.000425 0.000000
# 3 -0.003470 -0.003301 0.008183 0.000000 -0.001241 0.000000
# 4 0.000000 0.000000 0.000000 0.032868 0.000000 -0.008147
# 5 -0.000936 0.000425 -0.001241 0.000000 0.025101 0.000000
# 6 0.000000 0.000000 0.000000 -0.008147 0.000000 0.036916
#
#
# Mechanical properties :
#
#
# Convention : Reuss Voigt Hill
#
# Bulk Modulus (GPa) = 45.09309 64.82177 54.95743
# Shear Modulus (GPa) = 30.20719 34.57087 32.38903
#
# Velocity S-wave (km/s) = 3.82535 4.09233 3.96109
# Velocity P-wave (km/s) = 6.43083 7.33016 6.89517
#
# Compressibility (1/GPa) = 0.02217635
#
# Stress axis : x y z
#
# Youngs Moduli (GPa) = 93.02649 42.05602 122.19749
#
# Poissons Ratio (x) = 0.14706 0.42401
# Poissons Ratio (y) = 0.32529 0.40333
# Poissons Ratio (z) = 0.32279 0.13881
#
# Static dielectric constant tensor:
#      x y z
#    x 4.116740 0.000000 -0.064840 
#    y 0.000000 3.831610 0.000000 
#    z -0.064840 0.000000 4.063580 
# 
# 
# High freq. dielectric constant tensor:
#      x y z
#    x 1.813160 0.000000 0.008470 
#    y 0.000000 1.794920 0.000000 
#    z 0.008470 0.000000 1.822840 
# 
# From -- ./inp_files/38469.got.cif
#   From: 2010.06.25/outbox.cif.g09.slc.cpg/sg11_20_cif.got.tgz:38469.got - 2010.06.27 23:14:04.
