data_PCOD8076801
_publ_section_title
;
Structure prediction by ZEFSAII (Michael W. Deem and Ramdas Pophale) SiO2 
 PCOD8076801
Probable space group: P 21/M
;
_chemical_formula_sum "Si O2"
_cell_formula_units_Z 28
_cell_length_a 11.781258
_cell_length_b 13.621447
_cell_length_c 8.943499
_cell_angle_alpha 90.000000
_cell_angle_beta 115.054987
_cell_angle_gamma 90.000000
_cell_volume 1300.180020
_symmetry_space_group_name_H-M "P 21/M"
_symmetry_group_IT_number 11
_symmetry_cell_setting 'monoclinic'
loop_
_space_group_symop_operation_xyz
x,y,z
-x,1/2+y,-z
-x,-y,-z
x,1/2-y,z
loop_
_atom_site_type_symbol
_atom_site_label
_atom_site_fract_x
_atom_site_fract_y
_atom_site_fract_z
Si Si1 0.816251 0.141741 0.317964
Si Si2 0.940075 0.471349 0.810649
Si Si3 0.587683 0.140255 0.394425
Si Si4 0.184894 0.437227 0.795914
Si Si5 0.589484 0.977702 0.912602
Si Si6 0.307052 0.636777 0.237120
Si Si7 0.098496 0.361654 0.448330
O O1 0.791630 0.250000 0.232784
O O2 0.728869 0.123181 0.412299
O O3 0.961222 0.132331 0.448116
O O4 0.791864 0.055740 0.185731
O O5 0.826160 0.399554 0.776971
O O6 0.893305 0.567321 0.691130
O O7 0.048551 0.411292 0.784114
O O8 0.000000 0.500000 0.000000
O O9 0.544409 0.250000 0.332536
O O10 0.485544 0.070851 0.263900
O O11 0.591382 0.122593 0.573753
O O12 0.195457 0.395088 0.632848
O O13 0.299956 0.403291 0.966721
O O14 0.646798 0.078217 0.881282
O O15 0.500000 0.000000 0.000000
O O16 0.294211 0.750000 0.183771
O O17 0.130309 0.250000 0.415817
#
# Coordination Sequence:
#
# PCOD8076801 Si02
#       7
#     4   4   4   4   4   4   4
#     4   9  17  34  63  93 123 167 221 266 312 382
#     4  11  22  41  68 101 136 166 217 283 336 383
#     4  10  21  40  65  93 127 174 225 272 325 386
#     4  11  21  39  63  97 135 173 214 268 328 394
#     4  12  25  41  66  95 133 175 219 277 326 386
#     4  11  25  46  72  96 125 173 228 275 329 402
#     4  10  22  39  64  96 134 179 219 265 330 396
#
# _framework density 21.535478000000001
#
# number of rings (size 3 to 8) (size 9 to 14) (size 15 to 20)
#    0.000    1.429    2.857    3.857    0.000    4.000 
#    0.000    0.714    0.000    0.000    0.000    0.000 
#    0.000    0.000    0.000    0.000    0.000    0.000 
#
# Total GULP energy -347039.340757 kJ/mol
# GULP energy per Si atom -12394.262170 kJ/mol
# Density = 2.148646 g / cm^3
# Si number density = 21.535478 Si / 1000 Ang^3
#
#
#
# Elastic Constant Matrix: (Units=GPa)
#
#
# Indices 1 2 3 4 5 6 
#
# 1 97.5821 45.7277 36.6700 0.0000 -5.2533 0.0000
# 2 45.7277 90.9055 50.8702 0.0000 4.8705 0.0000
# 3 36.6700 50.8702 137.2851 0.0000 2.9970 0.0000
# 4 0.0000 0.0000 0.0000 22.5422 0.0000 -4.4244
# 5 -5.2533 4.8705 2.9970 0.0000 29.1919 0.0000
# 6 0.0000 0.0000 0.0000 -4.4244 0.0000 28.1370
#
#
#
# Elastic Compliance Matrix: (Units=1/GPa)
#
#
# Indices 1 2 3 4 5 6 
#
# 1 0.014008 -0.006444 -0.001436 0.000000 0.003743 0.000000
# 2 -0.006444 0.016936 -0.004478 0.000000 -0.003526 0.000000
# 3 -0.001436 -0.004478 0.009337 0.000000 -0.000470 0.000000
# 4 0.000000 0.000000 0.000000 0.045774 0.000000 0.007198
# 5 0.003743 -0.003526 -0.000470 0.000000 0.035566 0.000000
# 6 0.000000 0.000000 0.000000 0.007198 0.000000 0.036672
#
#
# Mechanical properties :
#
#
# Convention : Reuss Voigt Hill
#
# Bulk Modulus (GPa) = 64.23566 65.81205 65.02386
# Shear Modulus (GPa) = 26.56786 28.80786 27.68786
#
# Velocity S-wave (km/s) = 3.51619 3.66142 3.58954
# Velocity P-wave (km/s) = 6.81009 6.96425 6.88760
#
# Compressibility (1/GPa) = 0.01556768
#
# Stress axis : x y z
#
# Youngs Moduli (GPa) = 71.38564 59.04498 107.10068
#
# Poissons Ratio (x) = 0.38047 0.15378
# Poissons Ratio (y) = 0.45999 0.47954
# Poissons Ratio (z) = 0.10250 0.26437
#
# Static dielectric constant tensor:
#      x y z
#    x 3.880790 0.000000 0.123040 
#    y 0.000000 4.135930 0.000000 
#    z 0.123040 0.000000 3.944950 
# 
# 
# High freq. dielectric constant tensor:
#      x y z
#    x 1.831250 0.000000 0.004720 
#    y 0.000000 1.832510 0.000000 
#    z 0.004720 0.000000 1.859440 
# 
# From -- ./inp_files/18164.got.cif
#   From: 2010.06.25/outbox.cif.g09.slc.cpg/sg11_10_cif.got.tgz:18164.got - 2010.06.27 23:14:04.
