data_PCOD8076924
_publ_section_title
;
Structure prediction by ZEFSAII (Michael W. Deem and Ramdas Pophale) SiO2 
 PCOD8076924
Probable space group: P 21/M
;
_chemical_formula_sum "Si O2"
_cell_formula_units_Z 32
_cell_length_a 12.333319
_cell_length_b 8.736101
_cell_length_c 14.792969
_cell_angle_alpha 90.000000
_cell_angle_beta 91.972416
_cell_angle_gamma 90.000000
_cell_volume 1592.925879
_symmetry_space_group_name_H-M "P 21/M"
_symmetry_group_IT_number 11
_symmetry_cell_setting 'monoclinic'
loop_
_space_group_symop_operation_xyz
x,y,z
-x,1/2+y,-z
-x,-y,-z
x,1/2-y,z
loop_
_atom_site_type_symbol
_atom_site_label
_atom_site_fract_x
_atom_site_fract_y
_atom_site_fract_z
Si Si1 0.121309 0.928184 0.491556
Si Si2 0.915996 0.585687 0.055411
Si Si3 0.026214 0.415453 0.746985
Si Si4 0.320893 0.432598 0.973910
Si Si5 0.345605 0.931388 0.174113
Si Si6 0.226147 0.575266 0.684217
Si Si7 0.432637 0.929513 0.805263
Si Si8 0.818913 0.928372 0.687004
O O1 0.102829 0.750000 0.472557
O O2 0.201917 0.954935 0.578189
O O3 0.193192 0.003149 0.413715
O O4 0.000000 0.000000 0.500000
O O5 0.893274 0.750000 0.009158
O O6 0.983284 0.604942 0.147792
O O7 0.798513 0.507046 0.059229
O O8 0.000000 0.500000 0.000000
O O9 0.000462 0.250000 0.699542
O O10 0.149514 0.461701 0.735616
O O11 0.946215 0.547192 0.711091
O O12 0.336714 0.250000 0.967533
O O13 0.400314 0.512075 0.904376
O O14 0.339845 0.487389 0.076605
O O15 0.337175 0.750000 0.161606
O O16 0.459386 0.980745 0.222082
O O17 0.251203 0.984547 0.239683
O O18 0.199123 0.750000 0.708904
O O19 0.347118 0.535163 0.722152
O O20 0.456799 0.750000 0.813211
O O21 0.789624 0.750000 0.687392
#
# Coordination Sequence:
#
# PCOD8076924 Si02
#       8
#     4   4   4   4   4   4   4   4
#     4  11  22  39  64  97 129 164 204 253 308 373
#     4  10  22  35  52  82 120 161 202 247 302 364
#     4  11  21  36  59  88 123 162 203 250 307 368
#     4  11  22  40  62  90 124 165 211 259 307 367
#     4  12  26  44  64  90 122 164 212 264 315 370
#     4  10  22  39  63  93 125 159 203 251 305 365
#     4  11  23  42  66  93 124 166 211 260 309 366
#     4  12  25  42  63  92 127 166 208 257 313 377
#
# _framework density 20.088819000000001
#
# number of rings (size 3 to 8) (size 9 to 14) (size 15 to 20)
#    0.000    1.000    2.500    4.875    0.000    5.000 
#    0.000    0.625    0.000    0.000    0.000    0.000 
#    0.000    0.000    0.000    0.000    0.000    0.000 
#
# Total GULP energy -396601.509120 kJ/mol
# GULP energy per Si atom -12393.797160 kJ/mol
# Density = 2.004310 g / cm^3
# Si number density = 20.088819 Si / 1000 Ang^3
#
#
#
# Elastic Constant Matrix: (Units=GPa)
#
#
# Indices 1 2 3 4 5 6 
#
# 1 68.6663 23.4506 27.2617 0.0000 5.9978 0.0000
# 2 23.4506 100.5487 33.3062 0.0000 0.0346 0.0000
# 3 27.2617 33.3062 101.9342 0.0000 14.1146 0.0000
# 4 0.0000 0.0000 0.0000 27.1736 0.0000 -2.8088
# 5 5.9978 0.0346 14.1146 0.0000 27.4898 0.0000
# 6 0.0000 0.0000 0.0000 -2.8088 0.0000 35.7414
#
#
#
# Elastic Compliance Matrix: (Units=1/GPa)
#
#
# Indices 1 2 3 4 5 6 
#
# 1 0.017045 -0.002866 -0.003345 0.000000 -0.001998 0.000000
# 2 -0.002866 0.011738 -0.003394 0.000000 0.002353 0.000000
# 3 -0.003345 -0.003394 0.012609 0.000000 -0.005740 0.000000
# 4 0.000000 0.000000 0.000000 0.037102 0.000000 0.002916
# 5 -0.001998 0.002353 -0.005740 0.000000 0.039757 0.000000
# 6 0.000000 0.000000 0.000000 0.002916 0.000000 0.028208
#
#
# Mechanical properties :
#
#
# Convention : Reuss Voigt Hill
#
# Bulk Modulus (GPa) = 45.08830 48.79847 46.94338
# Shear Modulus (GPa) = 28.89115 30.55632 29.72373
#
# Velocity S-wave (km/s) = 3.79644 3.90431 3.85075
# Velocity P-wave (km/s) = 6.45836 6.68348 6.57189
#
# Compressibility (1/GPa) = 0.02217870
#
# Stress axis : x y z
#
# Youngs Moduli (GPa) = 58.66907 85.19670 79.30959
#
# Poissons Ratio (x) = 0.24421 0.26532
# Poissons Ratio (y) = 0.16817 0.26921
# Poissons Ratio (z) = 0.19627 0.28919
#
# Static dielectric constant tensor:
#      x y z
#    x 3.587350 0.000000 0.016410 
#    y 0.000000 3.665660 0.000000 
#    z 0.016410 0.000000 3.676780 
# 
# 
# High freq. dielectric constant tensor:
#      x y z
#    x 1.781140 0.000000 0.008310 
#    y 0.000000 1.795430 0.000000 
#    z 0.008310 0.000000 1.788720 
# 
# From -- ./inp_files/49338.got.cif
#   From: 2010.06.25/outbox.cif.g09.slc.cpg/sg11_25_cif.got.tgz:49338.got - 2010.06.27 23:14:04.
