data_PCOD8076378
_publ_section_title
;
Structure prediction by ZEFSAII (Michael W. Deem and Ramdas Pophale) SiO2 
 PCOD8076378
Probable space group: P 21/M
;
_chemical_formula_sum "Si O2"
_cell_formula_units_Z 28
_cell_length_a 9.113549
_cell_length_b 9.304338
_cell_length_c 26.780010
_cell_angle_alpha 90.000000
_cell_angle_beta 39.157713
_cell_angle_gamma 90.000000
_cell_volume 1433.929025
_symmetry_space_group_name_H-M "P 21/M"
_symmetry_group_IT_number 11
_symmetry_cell_setting 'monoclinic'
loop_
_space_group_symop_operation_xyz
x,y,z
-x,1/2+y,-z
-x,-y,-z
x,1/2-y,z
loop_
_atom_site_type_symbol
_atom_site_label
_atom_site_fract_x
_atom_site_fract_y
_atom_site_fract_z
Si Si1 0.791463 0.417844 0.656196
Si Si2 0.679105 0.916734 0.487578
Si Si3 0.470572 0.418908 0.361930
Si Si4 0.363134 0.585981 0.193889
Si Si5 0.945414 0.915865 0.232324
Si Si6 0.784189 0.089371 0.039550
Si Si7 0.727828 0.408594 0.940460
O O1 0.775370 0.250000 0.646212
O O2 0.683534 0.509516 0.640243
O O3 0.649733 0.451640 0.744171
O O4 0.058450 0.462537 0.594919
O O5 0.636386 0.750000 0.488001
O O6 0.645074 0.953779 0.554577
O O7 0.500000 0.000000 0.500000
O O8 0.484687 0.250000 0.347592
O O9 0.726879 0.482683 0.295905
O O10 0.445889 0.750000 0.164490
O O11 0.543277 0.483427 0.118536
O O12 0.109399 0.563628 0.237057
O O13 0.865101 0.750000 0.248058
O O14 0.077511 0.971359 0.147820
O O15 0.786921 0.250000 0.061584
O O16 0.824731 0.096941 0.970121
O O17 0.000000 0.000000 0.000000
O O18 0.662189 0.250000 0.937818
O O19 0.500000 0.500000 0.000000
#
# Coordination Sequence:
#
# PCOD8076378 Si02
#       7
#     4   4   4   4   4   4   4
#     4  10  22  40  62  87 119 159 199 238 288 354
#     4  10  22  41  65  92 121 156 198 240 288 348
#     4  11  24  39  59  92 125 154 194 244 293 342
#     4  10  21  39  62  86 113 152 201 245 292 352
#     4  10  21  39  62  86 116 157 199 240 294 357
#     4  11  24  39  58  86 119 155 197 245 298 353
#     4  10  21  38  61  86 113 152 199 245 295 351
#
# _framework density 19.526769999999999
#
# number of rings (size 3 to 8) (size 9 to 14) (size 15 to 20)
#    0.000    1.714    1.429    2.143    2.000    5.143 
#    0.000    0.000    0.000    0.000    0.000    0.000 
#    0.000    0.000    0.000    0.000    0.000    0.000 
#
# Total GULP energy -347258.919293 kJ/mol
# GULP energy per Si atom -12402.104260 kJ/mol
# Density = 1.948233 g / cm^3
# Si number density = 19.526770 Si / 1000 Ang^3
#
#
#
# Elastic Constant Matrix: (Units=GPa)
#
#
# Indices 1 2 3 4 5 6 
#
# 1 107.7967 53.4607 25.7475 0.0000 4.4446 0.0000
# 2 53.4607 93.9035 41.0104 0.0000 -0.1458 0.0000
# 3 25.7475 41.0104 84.0779 0.0000 5.1519 0.0000
# 4 0.0000 0.0000 0.0000 33.0537 0.0000 -3.9068
# 5 4.4446 -0.1458 5.1519 0.0000 33.4757 0.0000
# 6 0.0000 0.0000 0.0000 -3.9068 0.0000 38.6557
#
#
#
# Elastic Compliance Matrix: (Units=1/GPa)
#
#
# Indices 1 2 3 4 5 6 
#
# 1 0.013037 -0.007277 -0.000338 0.000000 -0.001711 0.000000
# 2 -0.007277 0.017633 -0.006497 0.000000 0.002043 0.000000
# 3 -0.000338 -0.006497 0.015310 0.000000 -0.002340 0.000000
# 4 0.000000 0.000000 0.000000 0.030620 0.000000 0.003095
# 5 -0.001711 0.002043 -0.002340 0.000000 0.030468 0.000000
# 6 0.000000 0.000000 0.000000 0.003095 0.000000 0.026182
#
#
# Mechanical properties :
#
#
# Convention : Reuss Voigt Hill
#
# Bulk Modulus (GPa) = 56.32344 58.46837 57.39591
# Shear Modulus (GPa) = 29.86969 32.07433 30.97201
#
# Velocity S-wave (km/s) = 3.91535 4.05728 3.98695
# Velocity P-wave (km/s) = 7.02473 7.20807 7.11699
#
# Compressibility (1/GPa) = 0.01775460
#
# Stress axis : x y z
#
# Youngs Moduli (GPa) = 76.70453 56.71162 65.31742
#
# Poissons Ratio (x) = 0.41270 0.02208
# Poissons Ratio (y) = 0.55820 0.42440
# Poissons Ratio (z) = 0.02592 0.36848
#
# Static dielectric constant tensor:
#      x y z
#    x 8.139080 0.000000 4.941080 
#    y 0.000000 3.582660 0.000000 
#    z 4.941080 0.000000 8.721800 
# 
# 
# High freq. dielectric constant tensor:
#      x y z
#    x 1.768780 0.000000 0.006360 
#    y 0.000000 1.758620 0.000000 
#    z 0.006360 0.000000 1.773970 
# 
# From -- ./inp_files/63361.got.cif
#   From: 2010.06.25/outbox.cif.g09.slc.cpg/sg11_32_cif.got.tgz:63361.got - 2010.06.27 23:14:04.
