data_PCOD8076936
_publ_section_title
;
Structure prediction by ZEFSAII (Michael W. Deem and Ramdas Pophale) SiO2 
 PCOD8076936
Probable space group: P 21/M
;
_chemical_formula_sum "Si O2"
_cell_formula_units_Z 32
_cell_length_a 15.540214
_cell_length_b 9.061108
_cell_length_c 24.320574
_cell_angle_alpha 90.000000
_cell_angle_beta 26.432801
_cell_angle_gamma 90.000000
_cell_volume 1524.461427
_symmetry_space_group_name_H-M "P 21/M"
_symmetry_group_IT_number 11
_symmetry_cell_setting 'monoclinic'
loop_
_space_group_symop_operation_xyz
x,y,z
-x,1/2+y,-z
-x,-y,-z
x,1/2-y,z
loop_
_atom_site_type_symbol
_atom_site_label
_atom_site_fract_x
_atom_site_fract_y
_atom_site_fract_z
Si Si1 0.506419 0.090620 0.198323
Si Si2 0.759552 0.093283 0.825405
Si Si3 0.129227 0.576256 0.586966
Si Si4 0.061863 0.579866 0.019146
Si Si5 0.010540 0.915499 0.830434
Si Si6 0.605000 0.503252 0.026013
Si Si7 0.689938 0.927243 0.417137
Si Si8 0.835981 0.421836 0.559233
O O1 0.417990 0.250000 0.265717
O O2 0.708821 0.066330 0.111995
O O3 0.537498 0.097493 0.115123
O O4 0.369197 0.959797 0.296609
O O5 0.870168 0.250000 0.754701
O O6 0.581485 0.096946 0.884775
O O7 0.672661 0.094601 0.936207
O O8 0.907600 0.960251 0.730039
O O9 0.161985 0.750000 0.577817
O O10 0.282260 0.484602 0.536215
O O11 0.162283 0.528147 0.505195
O O12 0.992975 0.750000 0.060028
O O13 0.963811 0.494638 0.125859
O O14 0.000000 0.500000 0.000000
O O15 0.099142 0.750000 0.782192
O O16 0.121763 0.016504 0.722975
O O17 0.785992 0.897913 0.942093
O O18 0.675348 0.750000 0.423723
O O19 0.500000 0.000000 0.500000
O O20 0.873862 0.250000 0.542045
O O21 0.000000 0.500000 0.500000
#
# Coordination Sequence:
#
# PCOD8076936 Si02
#       8
#     4   4   4   4   4   4   4   4
#     4  10  22  40  62  88 123 164 208 260 313 374
#     4  11  22  36  60  93 128 166 208 253 310 378
#     4  11  25  44  64  92 130 171 219 273 327 383
#     4  10  22  40  63  93 127 165 211 264 323 381
#     4  11  22  40  65  93 129 167 208 260 318 381
#     4  10  22  36  60  94 131 164 208 250 313 372
#     4  12  26  45  69  95 125 165 214 269 328 391
#     4  11  25  43  65  92 127 172 219 271 322 382
#
# _framework density 20.991019999999999
#
# number of rings (size 3 to 8) (size 9 to 14) (size 15 to 20)
#    0.000    1.250    1.250    4.125    0.000   11.500 
#    0.000    2.500    0.000    0.000    0.000    0.000 
#    0.000    0.000    0.000    0.000    0.000    0.000 
#
# Total GULP energy -396775.929987 kJ/mol
# GULP energy per Si atom -12399.247812 kJ/mol
# Density = 2.094324 g / cm^3
# Si number density = 20.991020 Si / 1000 Ang^3
#
#
#
# Elastic Constant Matrix: (Units=GPa)
#
#
# Indices 1 2 3 4 5 6 
#
# 1 171.2262 68.6254 50.6514 0.0000 9.1883 0.0000
# 2 68.6254 145.7545 35.3792 0.0000 2.6356 0.0000
# 3 50.6514 35.3792 86.3257 0.0000 5.7393 0.0000
# 4 0.0000 0.0000 0.0000 19.0855 0.0000 0.9229
# 5 9.1883 2.6356 5.7393 0.0000 23.7781 0.0000
# 6 0.0000 0.0000 0.0000 0.9229 0.0000 26.3469
#
#
#
# Elastic Compliance Matrix: (Units=1/GPa)
#
#
# Indices 1 2 3 4 5 6 
#
# 1 0.008153 -0.002969 -0.003435 0.000000 -0.001992 0.000000
# 2 -0.002969 0.008700 -0.001866 0.000000 0.000633 0.000000
# 3 -0.003435 -0.001866 0.014494 0.000000 -0.001965 0.000000
# 4 0.000000 0.000000 0.000000 0.052485 0.000000 -0.001838
# 5 -0.001992 0.000633 -0.001965 0.000000 0.043229 0.000000
# 6 0.000000 0.000000 0.000000 -0.001838 0.000000 0.038020
#
#
# Mechanical properties :
#
#
# Convention : Reuss Voigt Hill
#
# Bulk Modulus (GPa) = 67.52522 79.17984 73.35253
# Shear Modulus (GPa) = 26.80161 30.41881 28.61021
#
# Velocity S-wave (km/s) = 3.57713 3.81088 3.69585
# Velocity P-wave (km/s) = 7.02137 7.56085 7.29610
#
# Compressibility (1/GPa) = 0.01480928
#
# Stress axis : x y z
#
# Youngs Moduli (GPa) = 122.65320 114.94058 68.99190
#
# Poissons Ratio (x) = 0.34126 0.23695
# Poissons Ratio (y) = 0.36416 0.12872
# Poissons Ratio (z) = 0.42126 0.21444
#
# Static dielectric constant tensor:
#      x y z
#    x 4.122280 0.000000 0.046270 
#    y 0.000000 3.724970 0.000000 
#    z 0.046270 0.000000 3.642730 
# 
# 
# High freq. dielectric constant tensor:
#      x y z
#    x 1.837650 0.000000 0.002310 
#    y 0.000000 1.829800 0.000000 
#    z 0.002310 0.000000 1.812410 
# 
# From -- ./inp_files/69045.got.cif
#   From: 2010.06.25/outbox.cif.g09.slc.cpg/sg11_35_cif.got.tgz:69045.got - 2010.06.27 23:14:04.
