data_PCOD8076273
_publ_section_title
;
Structure prediction by ZEFSAII (Michael W. Deem and Ramdas Pophale) SiO2 
 PCOD8076273
Probable space group: P 21/M
;
_chemical_formula_sum "Si O2"
_cell_formula_units_Z 24
_cell_length_a 10.688821
_cell_length_b 17.421398
_cell_length_c 6.761478
_cell_angle_alpha 90.000000
_cell_angle_beta 63.216585
_cell_angle_gamma 90.000000
_cell_volume 1124.004131
_symmetry_space_group_name_H-M "P 21/M"
_symmetry_group_IT_number 11
_symmetry_cell_setting 'monoclinic'
loop_
_space_group_symop_operation_xyz
x,y,z
-x,1/2+y,-z
-x,-y,-z
x,1/2-y,z
loop_
_atom_site_type_symbol
_atom_site_label
_atom_site_fract_x
_atom_site_fract_y
_atom_site_fract_z
Si Si1 0.277707 0.580892 0.735654
Si Si2 0.845496 0.029463 0.573234
Si Si3 0.167827 0.335489 0.831435
Si Si4 0.473638 0.336295 0.662027
Si Si5 0.301109 0.056592 0.002850
Si Si6 0.892898 0.338051 0.822684
O O1 0.187291 0.537335 0.633309
O O2 0.406442 0.625944 0.551066
O O3 0.334477 0.517319 0.844833
O O4 0.180915 0.642106 0.916990
O O5 0.830530 0.112436 0.688389
O O6 0.000000 0.000000 0.500000
O O7 0.733425 0.970091 0.750609
O O8 0.129367 0.250000 0.939566
O O9 0.329004 0.335780 0.634879
O O10 0.163836 0.397224 0.014865
O O11 0.058905 0.356825 0.734997
O O12 0.516224 0.250000 0.695674
O O13 0.438182 0.387262 0.886367
O O14 0.866058 0.250000 0.786495
#
# Coordination Sequence:
#
# PCOD8076273 Si02
#       6
#     4   4   4   4   4   4
#     4  11  21  35  61  85 114 149 188 235 287 336
#     4  11  23  36  57  90 118 149 191 236 282 342
#     4   8  16  33  57  77 107 149 188 230 279 334
#     4   9  19  36  59  83 109 151 193 233 286 340
#     4   9  19  37  57  81 113 148 187 231 287 334
#     4  10  21  38  58  83 114 150 189 235 284 336
#
# _framework density 21.352233999999999
#
# number of rings (size 3 to 8) (size 9 to 14) (size 15 to 20)
#    1.000    1.333    0.000    3.000    0.000    4.667 
#    0.000    1.667    0.000    8.000    0.000    0.000 
#    0.000    0.000    0.000    0.000    0.000    0.000 
#
# Total GULP energy -297355.205482 kJ/mol
# GULP energy per Si atom -12389.800228 kJ/mol
# Density = 2.130364 g / cm^3
# Si number density = 21.352234 Si / 1000 Ang^3
#
#
#
# Elastic Constant Matrix: (Units=GPa)
#
#
# Indices 1 2 3 4 5 6 
#
# 1 48.3670 7.3221 9.7129 0.0000 -20.3983 0.0000
# 2 7.3221 97.2434 11.8472 0.0000 -14.6903 0.0000
# 3 9.7129 11.8472 67.2642 0.0000 -13.2319 0.0000
# 4 0.0000 0.0000 0.0000 14.7275 0.0000 -5.2780
# 5 -20.3983 -14.6903 -13.2319 0.0000 28.2813 0.0000
# 6 0.0000 0.0000 0.0000 -5.2780 0.0000 31.0138
#
#
#
# Elastic Compliance Matrix: (Units=1/GPa)
#
#
# Indices 1 2 3 4 5 6 
#
# 1 0.029822 0.001099 -0.000172 0.000000 0.021999 0.000000
# 2 0.001099 0.011250 -0.000919 0.000000 0.006206 0.000000
# 3 -0.000172 -0.000919 0.016449 0.000000 0.007094 0.000000
# 4 0.000000 0.000000 0.000000 0.072310 0.000000 0.012306
# 5 0.021999 0.006206 0.007094 0.000000 0.057769 0.000000
# 6 0.000000 0.000000 0.000000 0.012306 0.000000 0.034338
#
#
# Mechanical properties :
#
#
# Convention : Reuss Voigt Hill
#
# Bulk Modulus (GPa) = 17.38049 30.07101 23.72575
# Shear Modulus (GPa) = 20.73806 27.07065 23.90436
#
# Velocity S-wave (km/s) = 3.11985 3.56450 3.34956
# Velocity P-wave (km/s) = 4.59734 5.57268 5.10834
#
# Compressibility (1/GPa) = 0.05753579
#
# Stress axis : x y z
#
# Youngs Moduli (GPa) = 33.53283 88.88660 60.79360
#
# Poissons Ratio (x) = -0.09768 0.01046
# Poissons Ratio (y) = -0.03685 0.05589
# Poissons Ratio (z) = 0.00577 0.08172
#
# Static dielectric constant tensor:
#      x y z
#    x 3.647830 0.000000 -0.170950 
#    y 0.000000 4.126390 0.000000 
#    z -0.170950 0.000000 3.608780 
# 
# 
# High freq. dielectric constant tensor:
#      x y z
#    x 1.825070 0.000000 -0.018930 
#    y 0.000000 1.860580 0.000000 
#    z -0.018930 0.000000 1.800660 
# 
# From -- ./inp_files/4757.got.cif
#   From: 2010.06.25/outbox.cif.g09.slc.cpg/sg11_3_cif.got.tgz:4757.got - 2010.06.27 23:14:04.
