data_PCOD8076784
_publ_section_title
;
Structure prediction by ZEFSAII (Michael W. Deem and Ramdas Pophale) SiO2 
 PCOD8076784
Probable space group: P 21/M
;
_chemical_formula_sum "Si O2"
_cell_formula_units_Z 28
_cell_length_a 15.449989
_cell_length_b 8.838112
_cell_length_c 11.746367
_cell_angle_alpha 90.000000
_cell_angle_beta 120.459787
_cell_angle_gamma 90.000000
_cell_volume 1382.582425
_symmetry_space_group_name_H-M "P 21/M"
_symmetry_group_IT_number 11
_symmetry_cell_setting 'monoclinic'
loop_
_space_group_symop_operation_xyz
x,y,z
-x,1/2+y,-z
-x,-y,-z
x,1/2-y,z
loop_
_atom_site_type_symbol
_atom_site_label
_atom_site_fract_x
_atom_site_fract_y
_atom_site_fract_z
Si Si1 0.703375 0.925707 0.860016
Si Si2 0.480284 0.426129 0.108792
Si Si3 0.390577 0.929142 0.422082
Si Si4 0.069338 0.073419 0.952506
Si Si5 0.977584 0.077908 0.306448
Si Si6 0.146560 0.078866 0.595033
Si Si7 0.644415 0.573891 0.373234
O O1 0.700952 0.750000 0.822188
O O2 0.634618 0.950773 0.926635
O O3 0.665746 0.024710 0.729906
O O4 0.815373 0.982175 0.963733
O O5 0.506821 0.250000 0.117133
O O6 0.547641 0.501672 0.250566
O O7 0.500000 0.500000 0.000000
O O8 0.398702 0.750000 0.434038
O O9 0.500000 0.000000 0.500000
O O10 0.330380 0.991656 0.491182
O O11 0.064215 0.250000 0.967491
O O12 0.023407 0.031832 0.800813
O O13 0.000000 0.000000 0.000000
O O14 0.963843 0.250000 0.256834
O O15 0.084067 0.051828 0.438213
O O16 0.886870 0.037529 0.330803
O O17 0.128383 0.250000 0.626812
O O18 0.262716 0.049438 0.649024
O O19 0.623695 0.750000 0.382782
#
# Coordination Sequence:
#
# PCOD8076784 Si02
#       7
#     4   4   4   4   4   4   4
#     4  10  24  45  66  88 124 170 211 258 317 372
#     4  11  24  42  64  93 128 167 210 258 311 373
#     4  12  24  40  64  93 125 160 205 254 308 366
#     4  11  25  44  65  91 125 167 212 261 317 376
#     4  10  21  40  64  92 123 160 207 258 310 369
#     4   9  21  40  63  90 124 164 201 250 313 370
#     4  11  23  40  64  93 126 164 206 253 312 371
#
# _framework density 20.251956
#
# number of rings (size 3 to 8) (size 9 to 14) (size 15 to 20)
#    0.000    1.429    1.429    3.000    4.000    3.429 
#    0.000    0.000    0.000    0.000    0.000    0.000 
#    0.000    0.000    0.000    0.000    0.000    0.000 
#
# Total GULP energy -347326.948111 kJ/mol
# GULP energy per Si atom -12404.533861 kJ/mol
# Density = 2.020586 g / cm^3
# Si number density = 20.251956 Si / 1000 Ang^3
#
#
#
# Elastic Constant Matrix: (Units=GPa)
#
#
# Indices 1 2 3 4 5 6 
#
# 1 117.1997 49.6720 42.8805 0.0000 4.3881 0.0000
# 2 49.6720 109.8327 42.1777 0.0000 -2.4720 0.0000
# 3 42.8805 42.1777 83.3126 0.0000 -12.5791 0.0000
# 4 0.0000 0.0000 0.0000 39.7252 0.0000 -6.5877
# 5 4.3881 -2.4720 -12.5791 0.0000 29.7560 0.0000
# 6 0.0000 0.0000 0.0000 -6.5877 0.0000 34.0648
#
#
#
# Elastic Compliance Matrix: (Units=1/GPa)
#
#
# Indices 1 2 3 4 5 6 
#
# 1 0.012057 -0.003626 -0.005003 0.000000 -0.004194 0.000000
# 2 -0.003626 0.012462 -0.004493 0.000000 -0.000329 0.000000
# 3 -0.005003 -0.004493 0.018060 0.000000 0.007999 0.000000
# 4 0.000000 0.000000 0.000000 0.026007 0.000000 0.005029
# 5 -0.004194 -0.000329 0.007999 0.000000 0.037580 0.000000
# 6 0.000000 0.000000 0.000000 0.005029 0.000000 0.030328
#
#
# Mechanical properties :
#
#
# Convention : Reuss Voigt Hill
#
# Bulk Modulus (GPa) = 61.21422 64.42280 62.81851
# Shear Modulus (GPa) = 29.72947 32.41686 31.07316
#
# Velocity S-wave (km/s) = 3.83558 4.00519 3.92130
# Velocity P-wave (km/s) = 7.06452 7.29852 7.18248
#
# Compressibility (1/GPa) = 0.01633607
#
# Stress axis : x y z
#
# Youngs Moduli (GPa) = 82.94123 80.24142 55.36962
#
# Poissons Ratio (x) = 0.29093 0.27703
# Poissons Ratio (y) = 0.30072 0.24876
# Poissons Ratio (z) = 0.41498 0.36051
#
# Static dielectric constant tensor:
#      x y z
#    x 3.864980 0.000000 -0.023020 
#    y 0.000000 3.789080 0.000000 
#    z -0.023020 0.000000 4.706580 
# 
# 
# High freq. dielectric constant tensor:
#      x y z
#    x 1.801100 0.000000 -0.003880 
#    y 0.000000 1.799250 0.000000 
#    z -0.003880 0.000000 1.792770 
# 
# From -- ./inp_files/38475.got.cif
#   From: 2010.06.25/outbox.cif.g09.slc.cpg/sg11_20_cif.got.tgz:38475.got - 2010.06.27 23:14:04.
