data_PCOD8076617
_publ_section_title
;
Structure prediction by ZEFSAII (Michael W. Deem and Ramdas Pophale) SiO2 
 PCOD8076617
Probable space group: P 21/M
;
_chemical_formula_sum "Si O2"
_cell_formula_units_Z 28
_cell_length_a 24.854419
_cell_length_b 8.939099
_cell_length_c 9.496495
_cell_angle_alpha 90.000000
_cell_angle_beta 139.065487
_cell_angle_gamma 90.000000
_cell_volume 1382.394319
_symmetry_space_group_name_H-M "P 21/M"
_symmetry_group_IT_number 11
_symmetry_cell_setting 'monoclinic'
loop_
_space_group_symop_operation_xyz
x,y,z
-x,1/2+y,-z
-x,-y,-z
x,1/2-y,z
loop_
_atom_site_type_symbol
_atom_site_label
_atom_site_fract_x
_atom_site_fract_y
_atom_site_fract_z
Si Si1 0.821639 0.578436 0.372794
Si Si2 0.917250 0.920459 0.289147
Si Si3 0.082156 0.925799 0.214355
Si Si4 0.360077 0.422914 0.582760
Si Si5 0.176484 0.076919 0.168389
Si Si6 0.657242 0.074288 0.152111
Si Si7 0.501192 0.075122 0.654465
O O1 0.819913 0.750000 0.421505
O O2 0.841401 0.566039 0.247235
O O3 0.897456 0.489749 0.592267
O O4 0.736006 0.503991 0.241207
O O5 0.942876 0.750000 0.318384
O O6 0.879276 0.985170 0.069652
O O7 0.000000 0.000000 0.500000
O O8 0.071218 0.750000 0.198406
O O9 0.157614 0.973800 0.264854
O O10 0.000000 0.000000 0.000000
O O11 0.377461 0.250000 0.654538
O O12 0.273052 0.441826 0.331291
O O13 0.364870 0.513832 0.737325
O O14 0.427091 0.485834 0.605657
O O15 0.154976 0.250000 0.157571
O O16 0.674274 0.250000 0.198065
O O17 0.584586 0.036907 0.900739
O O18 0.490242 0.250000 0.607597
O O19 0.500000 0.000000 0.500000
#
# Coordination Sequence:
#
# PCOD8076617 Si02
#       7
#     4   4   4   4   4   4   4
#     4  11  23  40  63  91 122 163 209 250 307 372
#     4  10  23  40  60  87 119 159 204 254 306 366
#     4  12  24  39  61  90 124 161 204 256 306 360
#     4  10  21  40  66  91 122 164 207 252 306 368
#     4  10  21  39  62  89 120 157 207 257 305 363
#     4  11  23  40  62  94 129 160 204 256 307 364
#     4  10  24  42  64  96 129 164 205 252 306 367
#
# _framework density 20.254715000000001
#
# number of rings (size 3 to 8) (size 9 to 14) (size 15 to 20)
#    0.000    1.429    1.429    3.429    2.000    5.714 
#    0.000    0.000    0.000    0.000    0.000    0.000 
#    0.000    0.000    0.000    0.000    0.000    0.000 
#
# Total GULP energy -347246.579456 kJ/mol
# GULP energy per Si atom -12401.663552 kJ/mol
# Density = 2.020861 g / cm^3
# Si number density = 20.254715 Si / 1000 Ang^3
#
#
#
# Elastic Constant Matrix: (Units=GPa)
#
#
# Indices 1 2 3 4 5 6 
#
# 1 100.5190 37.6676 30.8236 0.0000 4.1307 0.0000
# 2 37.6676 105.2710 47.7533 0.0000 2.1763 0.0000
# 3 30.8236 47.7533 110.9400 0.0000 -2.9979 0.0000
# 4 0.0000 0.0000 0.0000 32.9998 0.0000 -0.0545
# 5 4.1307 2.1763 -2.9979 0.0000 35.1412 0.0000
# 6 0.0000 0.0000 0.0000 -0.0545 0.0000 31.0706
#
#
#
# Elastic Compliance Matrix: (Units=1/GPa)
#
#
# Indices 1 2 3 4 5 6 
#
# 1 0.011838 -0.003354 -0.001881 0.000000 -0.001344 0.000000
# 2 -0.003354 0.012803 -0.004600 0.000000 -0.000791 0.000000
# 3 -0.001881 -0.004600 0.011557 0.000000 0.001492 0.000000
# 4 0.000000 0.000000 0.000000 0.030303 0.000000 0.000053
# 5 -0.001344 -0.000791 0.001492 0.000000 0.028791 0.000000
# 6 0.000000 0.000000 0.000000 0.000053 0.000000 0.032185
#
#
# Mechanical properties :
#
#
# Convention : Reuss Voigt Hill
#
# Bulk Modulus (GPa) = 60.51348 61.02431 60.76889
# Shear Modulus (GPa) = 32.75325 33.20804 32.98065
#
# Velocity S-wave (km/s) = 4.02564 4.05349 4.03959
# Velocity P-wave (km/s) = 7.17975 7.21814 7.19897
#
# Compressibility (1/GPa) = 0.01652524
#
# Stress axis : x y z
#
# Youngs Moduli (GPa) = 84.47709 78.10877 86.52742
#
# Poissons Ratio (x) = 0.26201 0.16279
# Poissons Ratio (y) = 0.28337 0.39804
# Poissons Ratio (z) = 0.15893 0.35931
#
# Static dielectric constant tensor:
#      x y z
#    x 3.859350 0.000000 -0.017080 
#    y 0.000000 3.797920 0.000000 
#    z -0.017080 0.000000 3.821780 
# 
# 
# High freq. dielectric constant tensor:
#      x y z
#    x 1.802910 0.000000 0.003220 
#    y 0.000000 1.786300 0.000000 
#    z 0.003220 0.000000 1.804240 
# 
# From -- ./inp_files/28429.got.cif
#   From: 2010.06.25/outbox.cif.g09.slc.cpg/sg11_15_cif.got.tgz:28429.got - 2010.06.27 23:14:04.
