data_PCOD8076336
_publ_section_title
;
Structure prediction by ZEFSAII (Michael W. Deem and Ramdas Pophale) SiO2 
 PCOD8076336
Probable space group: P 21/M
;
_chemical_formula_sum "Si O2"
_cell_formula_units_Z 28
_cell_length_a 8.929291
_cell_length_b 8.838083
_cell_length_c 28.567647
_cell_angle_alpha 90.000000
_cell_angle_beta 141.103932
_cell_angle_gamma 90.000000
_cell_volume 1415.619966
_symmetry_space_group_name_H-M "P 21/M"
_symmetry_group_IT_number 11
_symmetry_cell_setting 'monoclinic'
loop_
_space_group_symop_operation_xyz
x,y,z
-x,1/2+y,-z
-x,-y,-z
x,1/2-y,z
loop_
_atom_site_type_symbol
_atom_site_label
_atom_site_fract_x
_atom_site_fract_y
_atom_site_fract_z
Si Si1 0.124117 0.076798 0.218714
Si Si2 0.983390 0.426921 0.356547
Si Si3 0.573108 0.073413 0.066212
Si Si4 0.560700 0.574573 0.794053
Si Si5 0.701240 0.427583 0.646317
Si Si6 0.164963 0.070581 0.500878
Si Si7 0.742902 0.071427 0.930922
O O1 0.166502 0.250000 0.244229
O O2 0.270986 0.036419 0.208347
O O3 0.850353 0.044451 0.141659
O O4 0.212048 0.969541 0.281144
O O5 0.028253 0.250000 0.363049
O O6 0.706475 0.467965 0.285243
O O7 0.123693 0.504017 0.349049
O O8 0.077295 0.487897 0.429055
O O9 0.509434 0.250000 0.050102
O O10 0.433755 0.993062 0.073582
O O11 0.500000 0.000000 0.000000
O O12 0.582766 0.750000 0.814577
O O13 0.640000 0.468082 0.855346
O O14 0.707808 0.250000 0.641862
O O15 0.433757 0.488563 0.573452
O O16 0.145689 0.250000 0.500018
O O17 0.000000 0.000000 0.500000
O O18 0.762980 0.250000 0.941812
O O19 0.000000 0.000000 0.000000
#
# Coordination Sequence:
#
# PCOD8076336 Si02
#       7
#     4   4   4   4   4   4   4
#     4  10  22  40  62  86 117 157 195 234 289 352
#     4  10  21  38  60  84 116 157 197 236 287 349
#     4  11  23  40  63  91 121 156 199 244 292 351
#     4  10  21  39  62  88 116 151 198 245 289 348
#     4  11  23  37  57  87 120 151 193 244 289 339
#     4  10  22  39  59  86 116 151 194 241 291 345
#     4  12  25  41  62  88 120 157 196 244 298 352
#
# _framework density 19.779319999999998
#
# number of rings (size 3 to 8) (size 9 to 14) (size 15 to 20)
#    0.000    1.429    0.000    5.143    0.000    9.714 
#    0.000    0.000    0.000    0.000    0.000    0.000 
#    0.000    0.000    0.000    0.000    0.000    0.000 
#
# Total GULP energy -347370.460188 kJ/mol
# GULP energy per Si atom -12406.087864 kJ/mol
# Density = 1.973430 g / cm^3
# Si number density = 19.779320 Si / 1000 Ang^3
#
#
#
# Elastic Constant Matrix: (Units=GPa)
#
#
# Indices 1 2 3 4 5 6 
#
# 1 180.2585 59.0689 76.5963 0.0000 11.6623 0.0000
# 2 59.0689 79.7881 63.3389 0.0000 11.0618 0.0000
# 3 76.5963 63.3389 142.9415 0.0000 -4.9350 0.0000
# 4 0.0000 0.0000 0.0000 33.3781 0.0000 -3.0872
# 5 11.6623 11.0618 -4.9350 0.0000 31.2317 0.0000
# 6 0.0000 0.0000 0.0000 -3.0872 0.0000 34.3500
#
#
#
# Elastic Compliance Matrix: (Units=1/GPa)
#
#
# Indices 1 2 3 4 5 6 
#
# 1 0.008015 -0.003310 -0.002907 0.000000 -0.002280 0.000000
# 2 -0.003310 0.023073 -0.008737 0.000000 -0.008317 0.000000
# 3 -0.002907 -0.008737 0.012638 0.000000 0.006177 0.000000
# 4 0.000000 0.000000 0.000000 0.030211 0.000000 0.002715
# 5 -0.002280 -0.008317 0.006177 0.000000 0.036792 0.000000
# 6 0.000000 0.000000 0.000000 0.002715 0.000000 0.029356
#
#
# Mechanical properties :
#
#
# Convention : Reuss Voigt Hill
#
# Bulk Modulus (GPa) = 72.37036 88.99961 80.68499
# Shear Modulus (GPa) = 28.63711 33.39088 31.01399
#
# Velocity S-wave (km/s) = 3.80917 4.11319 3.96410
# Velocity P-wave (km/s) = 7.48429 8.22507 7.86341
#
# Compressibility (1/GPa) = 0.01381781
#
# Stress axis : x y z
#
# Youngs Moduli (GPa) = 124.76693 43.34154 79.12428
#
# Poissons Ratio (x) = 0.14346 0.23001
# Poissons Ratio (y) = 0.41297 0.69132
# Poissons Ratio (z) = 0.36269 0.37868
#
# Static dielectric constant tensor:
#      x y z
#    x 3.498280 0.000000 0.478710 
#    y 0.000000 3.596190 0.000000 
#    z 0.478710 0.000000 3.410280 
# 
# 
# High freq. dielectric constant tensor:
#      x y z
#    x 1.793390 0.000000 0.002470 
#    y 0.000000 1.768350 0.000000 
#    z 0.002470 0.000000 1.791080 
# 
# From -- ./inp_files/70732.got.cif
#   From: 2010.06.25/outbox.cif.g09.slc.cpg/sg11_36_cif.got.tgz:70732.got - 2010.06.27 23:14:04.
