data_PCOD8076976
_publ_section_title
;
Structure prediction by ZEFSAII (Michael W. Deem and Ramdas Pophale) SiO2 
 PCOD8076976
Probable space group: P 21/M
;
_chemical_formula_sum "Si O2"
_cell_formula_units_Z 24
_cell_length_a 9.202087
_cell_length_b 8.908216
_cell_length_c 21.033384
_cell_angle_alpha 90.000000
_cell_angle_beta 132.474575
_cell_angle_gamma 90.000000
_cell_volume 1271.726215
_symmetry_space_group_name_H-M "P 21/M"
_symmetry_group_IT_number 11
_symmetry_cell_setting 'monoclinic'
loop_
_space_group_symop_operation_xyz
x,y,z
-x,1/2+y,-z
-x,-y,-z
x,1/2-y,z
loop_
_atom_site_type_symbol
_atom_site_label
_atom_site_fract_x
_atom_site_fract_y
_atom_site_fract_z
Si Si1 0.204574 0.425479 0.076715
Si Si2 0.198991 0.083740 0.409992
Si Si3 0.049511 0.427929 0.764669
Si Si4 0.432457 0.915551 0.574049
Si Si5 0.456602 0.571499 0.919599
Si Si6 0.737685 0.927334 0.762721
O O1 0.170388 0.250000 0.063034
O O2 0.367642 0.478148 0.074937
O O3 0.275680 0.473048 0.167870
O O4 0.000000 0.500000 0.000000
O O5 0.107582 0.250000 0.390939
O O6 0.393547 0.091368 0.425531
O O7 0.257342 0.022239 0.497271
O O8 0.041400 0.975088 0.330087
O O9 0.070881 0.250000 0.774297
O O10 0.259717 0.505210 0.831896
O O11 0.916610 0.482803 0.783998
O O12 0.341837 0.750000 0.556777
O O13 0.529104 0.974176 0.668596
O O14 0.438782 0.750000 0.920698
O O15 0.500000 0.500000 0.000000
O O16 0.775794 0.750000 0.763115
#
# Coordination Sequence:
#
# PCOD8076976 Si02
#       6
#     4   4   4   4   4   4
#     4  10  22  38  57  79 104 135 171 212 259 311
#     4   9  16  27  45  71 104 139 173 213 258 302
#     4  11  21  33  52  79 108 140 177 216 258 305
#     4   8  14  25  44  71 102 134 169 211 259 307
#     4  11  23  39  57  79 106 137 173 213 259 310
#     4   9  18  34  54  77 106 139 174 216 264 310
#
# _framework density 18.871987000000001
#
# number of rings (size 3 to 8) (size 9 to 14) (size 15 to 20)
#    0.000    2.333    0.000    4.500    0.000    8.667 
#    0.000    0.000    0.000    1.000    0.000    0.000 
#    0.000    0.000    0.000    0.000    0.000    0.000 
#
# Total GULP energy -297560.097282 kJ/mol
# GULP energy per Si atom -12398.337387 kJ/mol
# Density = 1.882903 g / cm^3
# Si number density = 18.871987 Si / 1000 Ang^3
#
#
#
# Elastic Constant Matrix: (Units=GPa)
#
#
# Indices 1 2 3 4 5 6 
#
# 1 94.0074 48.4134 76.4986 0.0000 -3.9596 0.0000
# 2 48.4134 94.2403 56.9552 0.0000 0.7218 0.0000
# 3 76.4986 56.9552 169.7212 0.0000 -13.2845 0.0000
# 4 0.0000 0.0000 0.0000 38.1717 0.0000 2.9909
# 5 -3.9596 0.7218 -13.2845 0.0000 25.2855 0.0000
# 6 0.0000 0.0000 0.0000 2.9909 0.0000 20.2916
#
#
#
# Elastic Compliance Matrix: (Units=1/GPa)
#
#
# Indices 1 2 3 4 5 6 
#
# 1 0.018999 -0.005726 -0.006671 0.000000 -0.000366 0.000000
# 2 -0.005726 0.015235 -0.002749 0.000000 -0.002776 0.000000
# 3 -0.006671 -0.002749 0.010164 0.000000 0.004374 0.000000
# 4 0.000000 0.000000 0.000000 0.026503 0.000000 -0.003907
# 5 -0.000366 -0.002776 0.004374 0.000000 0.041868 0.000000
# 6 0.000000 0.000000 0.000000 -0.003907 0.000000 0.049857
#
#
# Mechanical properties :
#
#
# Convention : Reuss Voigt Hill
#
# Bulk Modulus (GPa) = 70.88846 80.18926 75.53886
# Shear Modulus (GPa) = 25.30098 28.48988 26.89543
#
# Velocity S-wave (km/s) = 3.66548 3.88962 3.77921
# Velocity P-wave (km/s) = 7.45377 7.92184 7.69137
#
# Compressibility (1/GPa) = 0.01410667
#
# Stress axis : x y z
#
# Youngs Moduli (GPa) = 52.63396 65.63621 98.39102
#
# Poissons Ratio (x) = 0.37584 0.65633
# Poissons Ratio (y) = 0.30139 0.27049
# Poissons Ratio (z) = 0.35110 0.18044
#
# Static dielectric constant tensor:
#      x y z
#    x 3.226210 0.000000 -0.099820 
#    y 0.000000 3.580120 0.000000 
#    z -0.099820 0.000000 3.855280 
# 
# 
# High freq. dielectric constant tensor:
#      x y z
#    x 1.689010 0.000000 -0.003550 
#    y 0.000000 1.735750 0.000000 
#    z -0.003550 0.000000 1.756570 
# 
# From -- ./inp_files/63291.got.cif
#   From: 2010.06.25/outbox.cif.g09.slc.cpg/sg11_32_cif.got.tgz:63291.got - 2010.06.27 23:14:04.
