data_PCOD8076922
_publ_section_title
;
Structure prediction by ZEFSAII (Michael W. Deem and Ramdas Pophale) SiO2 
 PCOD8076922
Probable space group: P 21/M
;
_chemical_formula_sum "Si O2"
_cell_formula_units_Z 24
_cell_length_a 14.471589
_cell_length_b 16.967014
_cell_length_c 7.674431
_cell_angle_alpha 90.000000
_cell_angle_beta 142.990138
_cell_angle_gamma 90.000000
_cell_volume 1134.305482
_symmetry_space_group_name_H-M "P 21/M"
_symmetry_group_IT_number 11
_symmetry_cell_setting 'monoclinic'
loop_
_space_group_symop_operation_xyz
x,y,z
-x,1/2+y,-z
-x,-y,-z
x,1/2-y,z
loop_
_atom_site_type_symbol
_atom_site_label
_atom_site_fract_x
_atom_site_fract_y
_atom_site_fract_z
Si Si1 0.086896 0.659909 0.169430
Si Si2 0.679111 0.936282 0.827075
Si Si3 0.738882 0.045277 0.367175
Si Si4 0.960241 0.445195 0.227669
Si Si5 0.063014 0.161802 0.682004
Si Si6 0.516394 0.954747 0.256182
O O1 0.121397 0.750000 0.165661
O O2 0.241252 0.614046 0.459434
O O3 0.980981 0.656365 0.180966
O O4 0.012209 0.611794 0.897106
O O5 0.605791 0.902775 0.535819
O O6 0.537496 0.964853 0.730209
O O7 0.760566 0.866618 0.057422
O O8 0.801856 0.006784 0.972207
O O9 0.637882 0.973524 0.288154
O O10 0.639258 0.084021 0.058205
O O11 0.900801 0.008112 0.549092
O O12 0.957550 0.392455 0.399086
O O13 0.050555 0.250000 0.591332
#
# Coordination Sequence:
#
# PCOD8076922 Si02
#       6
#     4   4   4   4   4   4
#     4  11  23  38  60  94 125 152 196 257 302 344
#     4  11  20  39  61  91 115 157 206 245 291 358
#     4  11  20  39  61  91 115 157 206 245 291 358
#     4  12  21  40  69  90 112 162 212 242 287 362
#     4  11  23  38  60  94 125 152 196 257 302 344
#     4  10  22  34  62  88 122 150 200 252 296 342
#
# _framework density 21.158321000000001
#
# number of rings (size 3 to 8) (size 9 to 14) (size 15 to 20)
#    0.000    1.000    5.000    3.500    0.000    0.000 
#    0.000    1.667    0.000    0.000    0.000    0.000 
#    0.000    0.000    0.000    0.000    0.000    0.000 
#
# Total GULP energy -297350.996422 kJ/mol
# GULP energy per Si atom -12389.624851 kJ/mol
# Density = 2.111016 g / cm^3
# Si number density = 21.158321 Si / 1000 Ang^3
#
#
#
# Elastic Constant Matrix: (Units=GPa)
#
#
# Indices 1 2 3 4 5 6 
#
# 1 56.8074 14.2341 13.8462 0.0000 -5.4122 0.0000
# 2 14.2341 103.3770 40.4297 0.0000 -7.8152 0.0000
# 3 13.8462 40.4297 148.0691 0.0000 -19.8916 0.0000
# 4 0.0000 0.0000 0.0000 17.1164 0.0000 -6.3516
# 5 -5.4122 -7.8152 -19.8916 0.0000 37.7169 0.0000
# 6 0.0000 0.0000 0.0000 -6.3516 0.0000 20.2318
#
#
#
# Elastic Compliance Matrix: (Units=1/GPa)
#
#
# Indices 1 2 3 4 5 6 
#
# 1 0.018511 -0.002051 -0.000938 0.000000 0.001737 0.000000
# 2 -0.002051 0.011076 -0.002759 0.000000 0.000546 0.000000
# 3 -0.000938 -0.002759 0.008072 0.000000 0.003551 0.000000
# 4 0.000000 0.000000 0.000000 0.066127 0.000000 0.020760
# 5 0.001737 0.000546 0.003551 0.000000 0.028748 0.000000
# 6 0.000000 0.000000 0.000000 0.020760 0.000000 0.055945
#
#
# Mechanical properties :
#
#
# Convention : Reuss Voigt Hill
#
# Bulk Modulus (GPa) = 38.22121 49.47482 43.84801
# Shear Modulus (GPa) = 23.95835 30.99592 27.47713
#
# Velocity S-wave (km/s) = 3.36867 3.83162 3.60758
# Velocity P-wave (km/s) = 5.76491 6.55813 6.17427
#
# Compressibility (1/GPa) = 0.02616349
#
# Stress axis : x y z
#
# Youngs Moduli (GPa) = 54.02129 90.28490 123.88995
#
# Poissons Ratio (x) = 0.18516 0.11618
# Poissons Ratio (y) = 0.11079 0.34184
# Poissons Ratio (z) = 0.05066 0.24911
#
# Static dielectric constant tensor:
#      x y z
#    x 3.806570 0.000000 -0.209330 
#    y 0.000000 3.747140 0.000000 
#    z -0.209330 0.000000 4.310620 
# 
# 
# High freq. dielectric constant tensor:
#      x y z
#    x 1.832300 0.000000 -0.015610 
#    y 0.000000 1.781890 0.000000 
#    z -0.015610 0.000000 1.852140 
# 
# From -- ./inp_files/25149.got.cif
#   From: 2010.06.25/outbox.cif.g09.slc.cpg/sg11_13_cif.got.tgz:25149.got - 2010.06.27 23:14:04.
