data_PCOD8076869
_publ_section_title
;
Structure prediction by ZEFSAII (Michael W. Deem and Ramdas Pophale) SiO2 
 PCOD8076869
Probable space group: P 21/M
;
_chemical_formula_sum "Si O2"
_cell_formula_units_Z 24
_cell_length_a 5.295823
_cell_length_b 21.793906
_cell_length_c 10.824758
_cell_angle_alpha 90.000000
_cell_angle_beta 51.967091
_cell_angle_gamma 90.000000
_cell_volume 984.065194
_symmetry_space_group_name_H-M "P 21/M"
_symmetry_group_IT_number 11
_symmetry_cell_setting 'monoclinic'
loop_
_space_group_symop_operation_xyz
x,y,z
-x,1/2+y,-z
-x,-y,-z
x,1/2-y,z
loop_
_atom_site_type_symbol
_atom_site_label
_atom_site_fract_x
_atom_site_fract_y
_atom_site_fract_z
Si Si1 0.249057 0.885607 0.721031
Si Si2 0.099977 0.376329 0.590523
Si Si3 0.427130 0.319169 0.727465
Si Si4 0.061586 0.501038 0.255322
Si Si5 0.322208 0.319031 0.036910
Si Si6 0.699304 0.429587 0.033194
O O1 0.612321 0.863708 0.593889
O O2 0.143513 0.906803 0.889053
O O3 0.995059 0.829940 0.781554
O O4 0.183694 0.944220 0.652231
O O5 0.224191 0.357087 0.688702
O O6 0.796028 0.340150 0.630847
O O7 0.014061 0.448688 0.617073
O O8 0.435752 0.250000 0.675903
O O9 0.248506 0.324482 0.912538
O O10 0.418316 0.475375 0.160617
O O11 0.039415 0.533641 0.126693
O O12 0.450574 0.250000 0.027269
O O13 0.584609 0.370437 0.989045
#
# Coordination Sequence:
#
# PCOD8076869 Si02
#       6
#     4   4   4   4   4   4
#     4  11  25  40  65 102 137 178 224 287 352 401
#     4  12  26  44  71 102 140 181 228 283 351 410
#     4  11  26  48  71  97 134 184 236 282 338 411
#     4  10  22  40  66  98 137 180 227 279 335 416
#     4  10  23  43  67  95 129 179 236 283 335 409
#     4  10  21  41  66  99 134 178 230 280 342 400
#
# _framework density 24.388627
#
# number of rings (size 3 to 8) (size 9 to 14) (size 15 to 20)
#    0.000    1.333    1.667    2.500    7.000    2.667 
#    0.000    0.000    0.000    0.000    0.000    0.000 
#    0.000    0.000    0.000    0.000    0.000    0.000 
#
# Total GULP energy -297507.649466 kJ/mol
# GULP energy per Si atom -12396.152061 kJ/mol
# Density = 2.433312 g / cm^3
# Si number density = 24.388627 Si / 1000 Ang^3
#
#
#
# Elastic Constant Matrix: (Units=GPa)
#
#
# Indices 1 2 3 4 5 6 
#
# 1 59.7169 19.2269 -6.1499 0.0000 -11.3855 0.0000
# 2 19.2269 126.4433 26.7490 0.0000 -11.1343 0.0000
# 3 -6.1499 26.7490 65.9144 0.0000 -25.7690 0.0000
# 4 0.0000 0.0000 0.0000 22.3330 0.0000 -0.2387
# 5 -11.3855 -11.1343 -25.7690 0.0000 35.3491 0.0000
# 6 0.0000 0.0000 0.0000 -0.2387 0.0000 21.4356
#
#
#
# Elastic Compliance Matrix: (Units=1/GPa)
#
#
# Indices 1 2 3 4 5 6 
#
# 1 0.020976 -0.003876 0.007963 0.000000 0.011340 0.000000
# 2 -0.003876 0.009369 -0.004892 0.000000 -0.001864 0.000000
# 3 0.007963 -0.004892 0.025594 0.000000 0.019682 0.000000
# 4 0.000000 0.000000 0.000000 0.044782 0.000000 0.000499
# 5 0.011340 -0.001864 0.019682 0.000000 0.045702 0.000000
# 6 0.000000 0.000000 0.000000 0.000499 0.000000 0.046657
#
#
# Mechanical properties :
#
#
# Convention : Reuss Voigt Hill
#
# Bulk Modulus (GPa) = 18.40618 36.85853 27.63235
# Shear Modulus (GPa) = 23.49639 29.97345 26.73492
#
# Velocity S-wave (km/s) = 3.10726 3.50950 3.31449
# Velocity P-wave (km/s) = 4.52071 5.61854 5.09925
#
# Compressibility (1/GPa) = 0.05432959
#
# Stress axis : x y z
#
# Youngs Moduli (GPa) = 47.67417 106.73683 39.07179
#
# Poissons Ratio (x) = 0.41367 -0.31114
# Poissons Ratio (y) = 0.18477 0.19115
# Poissons Ratio (z) = -0.37964 0.52217
#
# Static dielectric constant tensor:
#      x y z
#    x 4.066660 0.000000 0.008340 
#    y 0.000000 4.652650 0.000000 
#    z 0.008340 0.000000 4.251960 
# 
# 
# High freq. dielectric constant tensor:
#      x y z
#    x 1.952470 0.000000 -0.009980 
#    y 0.000000 1.981420 0.000000 
#    z -0.009980 0.000000 1.964380 
# 
# From -- ./inp_files/5322.got.cif
#   From: 2010.06.25/outbox.cif.g09.slc.cpg/sg11_3_cif.got.tgz:5322.got - 2010.06.27 23:14:04.
