data_PCOD8076555
_publ_section_title
;
Structure prediction by ZEFSAII (Michael W. Deem and Ramdas Pophale) SiO2 
 PCOD8076555
Probable space group: P 21/M
;
_chemical_formula_sum "Si O2"
_cell_formula_units_Z 28
_cell_length_a 8.907229
_cell_length_b 8.821744
_cell_length_c 22.370357
_cell_angle_alpha 90.000000
_cell_angle_beta 126.505929
_cell_angle_gamma 90.000000
_cell_volume 1412.913088
_symmetry_space_group_name_H-M "P 21/M"
_symmetry_group_IT_number 11
_symmetry_cell_setting 'monoclinic'
loop_
_space_group_symop_operation_xyz
x,y,z
-x,1/2+y,-z
-x,-y,-z
x,1/2-y,z
loop_
_atom_site_type_symbol
_atom_site_label
_atom_site_fract_x
_atom_site_fract_y
_atom_site_fract_z
Si Si1 0.395775 0.572295 0.711885
Si Si2 0.161131 0.572842 0.999472
Si Si3 0.449308 0.427099 0.850981
Si Si4 0.121198 0.424051 0.864123
Si Si5 0.685097 0.428349 0.569857
Si Si6 0.028827 0.429599 0.571233
Si Si7 0.280918 0.573755 0.285162
O O1 0.357662 0.750000 0.697040
O O2 0.424539 0.528486 0.787074
O O3 0.223435 0.481389 0.644364
O O4 0.580048 0.529920 0.719114
O O5 0.136684 0.750000 0.999139
O O6 0.145742 0.527733 0.927234
O O7 0.360620 0.521548 0.072121
O O8 0.000000 0.500000 0.000000
O O9 0.451348 0.250000 0.833536
O O10 0.281057 0.465550 0.855218
O O11 0.135256 0.250000 0.887858
O O12 0.925604 0.459191 0.786849
O O13 0.500000 0.500000 0.500000
O O14 0.667258 0.250000 0.559675
O O15 0.710513 0.477900 0.644205
O O16 0.863145 0.487357 0.574964
O O17 0.029451 0.250000 0.565652
O O18 0.000000 0.500000 0.500000
O O19 0.335043 0.750000 0.290191
#
# Coordination Sequence:
#
# PCOD8076555 Si02
#       7
#     4   4   4   4   4   4   4
#     4  12  25  39  59  89 120 154 196 242 290 344
#     4  11  23  38  59  87 120 156 195 240 294 351
#     4  10  22  41  62  85 116 156 196 239 293 352
#     4  10  21  39  63  87 114 151 197 244 296 352
#     4  10  22  39  61  87 116 152 194 238 286 341
#     4  11  23  41  63  89 121 156 196 241 290 347
#     4  10  21  39  61  84 113 153 194 238 293 349
#
# _framework density 19.817214
#
# number of rings (size 3 to 8) (size 9 to 14) (size 15 to 20)
#    0.000    1.429    0.000    5.143    0.000   12.000 
#    0.000    1.429    0.000    0.000    0.000    0.000 
#    0.000    0.000    0.000    0.000    0.000    0.000 
#
# Total GULP energy -347372.011698 kJ/mol
# GULP energy per Si atom -12406.143275 kJ/mol
# Density = 1.977211 g / cm^3
# Si number density = 19.817214 Si / 1000 Ang^3
#
#
#
# Elastic Constant Matrix: (Units=GPa)
#
#
# Indices 1 2 3 4 5 6 
#
# 1 159.5269 42.0854 68.2775 0.0000 6.8370 0.0000
# 2 42.0854 57.3598 42.1085 0.0000 -0.7486 0.0000
# 3 68.2775 42.1085 156.5429 0.0000 -0.2891 0.0000
# 4 0.0000 0.0000 0.0000 37.7724 0.0000 -1.5306
# 5 6.8370 -0.7486 -0.2891 0.0000 39.4939 0.0000
# 6 0.0000 0.0000 0.0000 -1.5306 0.0000 30.2007
#
#
#
# Elastic Compliance Matrix: (Units=1/GPa)
#
#
# Indices 1 2 3 4 5 6 
#
# 1 0.008608 -0.004459 -0.002558 0.000000 -0.001593 0.000000
# 2 -0.004459 0.024038 -0.004519 0.000000 0.001194 0.000000
# 3 -0.002558 -0.004519 0.008720 0.000000 0.000421 0.000000
# 4 0.000000 0.000000 0.000000 0.026529 0.000000 0.001344
# 5 -0.001593 0.001194 0.000421 0.000000 0.025622 0.000000
# 6 0.000000 0.000000 0.000000 0.001344 0.000000 0.033180
#
#
# Mechanical properties :
#
#
# Convention : Reuss Voigt Hill
#
# Bulk Modulus (GPa) = 54.66076 75.37469 65.01772
# Shear Modulus (GPa) = 32.07864 36.22395 34.15130
#
# Velocity S-wave (km/s) = 4.02770 4.28004 4.15579
# Velocity P-wave (km/s) = 7.01942 7.90838 7.47712
#
# Compressibility (1/GPa) = 0.01829466
#
# Stress axis : x y z
#
# Youngs Moduli (GPa) = 116.17232 41.60029 114.67720
#
# Poissons Ratio (x) = 0.18548 0.29335
# Poissons Ratio (y) = 0.51797 0.51825
# Poissons Ratio (z) = 0.29717 0.18800
#
# Static dielectric constant tensor:
#      x y z
#    x 3.910440 0.000000 0.084290 
#    y 0.000000 3.558480 0.000000 
#    z 0.084290 0.000000 3.643470 
# 
# 
# High freq. dielectric constant tensor:
#      x y z
#    x 1.794520 0.000000 0.001350 
#    y 0.000000 1.767790 0.000000 
#    z 0.001350 0.000000 1.792740 
# 
# From -- ./inp_files/28563.got.cif
#   From: 2010.06.25/outbox.cif.g09.slc.cpg/sg11_15_cif.got.tgz:28563.got - 2010.06.27 23:14:04.
