data_PCOD8076651
_publ_section_title
;
Structure prediction by ZEFSAII (Michael W. Deem and Ramdas Pophale) SiO2 
 PCOD8076651
Probable space group: P 21/M
;
_chemical_formula_sum "Si O2"
_cell_formula_units_Z 32
_cell_length_a 13.950761
_cell_length_b 18.329097
_cell_length_c 11.596548
_cell_angle_alpha 90.000000
_cell_angle_beta 147.293975
_cell_angle_gamma 90.000000
_cell_volume 1602.233547
_symmetry_space_group_name_H-M "P 21/M"
_symmetry_group_IT_number 11
_symmetry_cell_setting 'monoclinic'
loop_
_space_group_symop_operation_xyz
x,y,z
-x,1/2+y,-z
-x,-y,-z
x,1/2-y,z
loop_
_atom_site_type_symbol
_atom_site_label
_atom_site_fract_x
_atom_site_fract_y
_atom_site_fract_z
Si Si1 0.498464 0.334892 0.095768
Si Si2 0.842362 0.075501 0.439390
Si Si3 0.186614 0.087092 0.649482
Si Si4 0.490402 0.834821 0.413286
Si Si5 0.874462 0.410208 0.961850
Si Si6 0.994344 0.563915 0.154625
Si Si7 0.172334 0.334005 0.397654
Si Si8 0.335475 0.334603 0.174979
O O1 0.492571 0.250000 0.058730
O O2 0.692633 0.364760 0.264370
O O3 0.457538 0.349428 0.188137
O O4 0.360699 0.375250 0.874374
O O5 0.021215 0.106569 0.563529
O O6 0.868616 0.063680 0.601758
O O7 0.783288 0.999689 0.321293
O O8 0.144468 0.115877 0.479855
O O9 0.439972 0.750000 0.372019
O O10 0.318186 0.879682 0.201843
O O11 0.635650 0.849327 0.462353
O O12 0.562572 0.863985 0.609040
O O13 0.889237 0.421058 0.840220
O O14 0.894859 0.486585 0.048217
O O15 0.024168 0.353413 0.153264
O O16 0.850588 0.626047 0.029227
O O17 0.151726 0.250000 0.412158
O O18 0.289679 0.250000 0.144100
#
# Coordination Sequence:
#
# PCOD8076651 Si02
#       8
#     4   4   4   4   4   4   4   4
#     4  11  24  41  65  95 123 161 210 261 315 371
#     4  11  24  43  67  93 124 168 212 260 317 370
#     4  11  24  44  65  90 126 169 211 262 309 369
#     4  10  22  40  62  91 124 163 203 247 312 374
#     4  11  23  39  64  95 127 161 205 254 310 376
#     4  11  22  41  64  95 124 162 208 254 315 373
#     4  11  23  41  63  91 127 166 207 254 309 369
#     4  10  21  39  63  91 124 160 201 255 314 368
#
# _framework density 19.972117999999998
#
# number of rings (size 3 to 8) (size 9 to 14) (size 15 to 20)
#    0.000    1.250    3.750    1.875    0.000    4.500 
#    0.000    0.000    0.000    0.000    0.000    0.000 
#    0.000    0.000    0.000    0.000    0.000    0.000 
#
# Total GULP energy -397034.715814 kJ/mol
# GULP energy per Si atom -12407.334869 kJ/mol
# Density = 1.992666 g / cm^3
# Si number density = 19.972118 Si / 1000 Ang^3
#
#
#
# Elastic Constant Matrix: (Units=GPa)
#
#
# Indices 1 2 3 4 5 6 
#
# 1 70.4654 25.7112 42.0619 0.0000 -3.8226 0.0000
# 2 25.7112 60.2217 44.0585 0.0000 8.6747 0.0000
# 3 42.0619 44.0585 112.8782 0.0000 6.8371 0.0000
# 4 0.0000 0.0000 0.0000 35.7446 0.0000 2.3702
# 5 -3.8226 8.6747 6.8371 0.0000 33.3633 0.0000
# 6 0.0000 0.0000 0.0000 2.3702 0.0000 29.1222
#
#
#
# Elastic Compliance Matrix: (Units=1/GPa)
#
#
# Indices 1 2 3 4 5 6 
#
# 1 0.019626 -0.004893 -0.005687 0.000000 0.004686 0.000000
# 2 -0.004893 0.025069 -0.007628 0.000000 -0.005516 0.000000
# 3 -0.005687 -0.007628 0.014049 0.000000 -0.001547 0.000000
# 4 0.000000 0.000000 0.000000 0.028128 0.000000 -0.002289
# 5 0.004686 -0.005516 -0.001547 0.000000 0.032261 0.000000
# 6 0.000000 0.000000 0.000000 -0.002289 0.000000 0.034524
#
#
# Mechanical properties :
#
#
# Convention : Reuss Voigt Hill
#
# Bulk Modulus (GPa) = 44.78617 51.91430 48.35023
# Shear Modulus (GPa) = 25.31431 28.42828 26.87129
#
# Velocity S-wave (km/s) = 3.56403 3.77689 3.67200
# Velocity P-wave (km/s) = 6.27770 6.71339 6.49920
#
# Compressibility (1/GPa) = 0.02232832
#
# Stress axis : x y z
#
# Youngs Moduli (GPa) = 50.95343 39.88928 71.17866
#
# Poissons Ratio (x) = 0.19520 0.40479
# Poissons Ratio (y) = 0.24934 0.54292
# Poissons Ratio (z) = 0.28977 0.30426
#
# Static dielectric constant tensor:
#      x y z
#    x 3.666900 0.000000 -0.122940 
#    y 0.000000 3.668190 0.000000 
#    z -0.122940 0.000000 3.570540 
# 
# 
# High freq. dielectric constant tensor:
#      x y z
#    x 1.785170 0.000000 -0.004590 
#    y 0.000000 1.785140 0.000000 
#    z -0.004590 0.000000 1.783070 
# 
# From -- ./inp_files/40010.got.cif
#   From: 2010.06.25/outbox.cif.g09.slc.cpg/sg11_21_cif.got.tgz:40010.got - 2010.06.27 23:14:04.
