data_PCOD8076009
_publ_section_title
;
Structure prediction by ZEFSAII (Michael W. Deem and Ramdas Pophale) SiO2 
 PCOD8076009
Probable space group: P 21/M
;
_chemical_formula_sum "Si O2"
_cell_formula_units_Z 32
_cell_length_a 11.670056
_cell_length_b 8.878282
_cell_length_c 23.578192
_cell_angle_alpha 90.000000
_cell_angle_beta 135.165265
_cell_angle_gamma 90.000000
_cell_volume 1722.427974
_symmetry_space_group_name_H-M "P 21/M"
_symmetry_group_IT_number 11
_symmetry_cell_setting 'monoclinic'
loop_
_space_group_symop_operation_xyz
x,y,z
-x,1/2+y,-z
-x,-y,-z
x,1/2-y,z
loop_
_atom_site_type_symbol
_atom_site_label
_atom_site_fract_x
_atom_site_fract_y
_atom_site_fract_z
Si Si1 0.735951 0.073400 0.461351
Si Si2 0.956238 0.423610 0.848589
Si Si3 0.149177 0.423481 0.022146
Si Si4 0.703317 0.924897 0.336560
Si Si5 0.654668 0.426575 0.821935
Si Si6 0.985309 0.923620 0.352164
Si Si7 0.107655 0.073349 0.286240
Si Si8 0.450686 0.928163 0.423776
O O1 0.700350 0.250000 0.450817
O O2 0.877564 0.028653 0.554492
O O3 0.784545 0.022301 0.415240
O O4 0.573397 0.981687 0.418591
O O5 0.938043 0.250000 0.823316
O O6 0.792996 0.473558 0.825169
O O7 0.983596 0.529332 0.803810
O O8 0.118904 0.444820 0.944117
O O9 0.151057 0.250000 0.039377
O O10 0.312513 0.498558 0.104643
O O11 0.000000 0.500000 0.000000
O O12 0.707812 0.750000 0.355840
O O13 0.520344 0.982026 0.261194
O O14 0.808833 0.951604 0.317161
O O15 0.654948 0.250000 0.832211
O O16 0.009233 0.750000 0.342873
O O17 0.997616 0.027456 0.301153
O O18 0.143529 0.250000 0.301046
O O19 0.272777 0.979634 0.344294
O O20 0.454843 0.750000 0.431053
O O21 0.500000 0.000000 0.500000
#
# Coordination Sequence:
#
# PCOD8076009 Si02
#       8
#     4   4   4   4   4   4   4   4
#     4  11  22  36  56  81 107 141 183 228 275 320
#     4   9  18  33  53  80 113 145 173 211 266 325
#     4   9  17  30  52  80 110 142 171 208 265 321
#     4  10  21  37  57  80 107 145 185 224 271 319
#     4   9  18  33  54  81 111 141 174 214 266 321
#     4  10  22  39  56  74 105 147 187 227 272 320
#     4  12  24  36  55  81 108 143 183 225 273 321
#     4  12  23  37  56  78 107 141 177 220 270 324
#
# _framework density 18.578424999999999
#
# number of rings (size 3 to 8) (size 9 to 14) (size 15 to 20)
#    0.000    1.750    1.250    4.875    0.000    5.000 
#    0.000    0.000    0.000    0.750    0.000    0.000 
#    0.000    0.000    0.000    0.000    0.000    0.000 
#
# Total GULP energy -396825.903842 kJ/mol
# GULP energy per Si atom -12400.809495 kJ/mol
# Density = 1.853614 g / cm^3
# Si number density = 18.578425 Si / 1000 Ang^3
#
#
#
# Elastic Constant Matrix: (Units=GPa)
#
#
# Indices 1 2 3 4 5 6 
#
# 1 74.4399 32.8507 38.9537 0.0000 -8.1405 0.0000
# 2 32.8507 96.8216 49.9239 0.0000 -11.7888 0.0000
# 3 38.9537 49.9239 112.3616 0.0000 -17.7470 0.0000
# 4 0.0000 0.0000 0.0000 34.5775 0.0000 -5.8045
# 5 -8.1405 -11.7888 -17.7470 0.0000 17.7278 0.0000
# 6 0.0000 0.0000 0.0000 -5.8045 0.0000 25.7083
#
#
#
# Elastic Compliance Matrix: (Units=1/GPa)
#
#
# Indices 1 2 3 4 5 6 
#
# 1 0.017360 -0.003543 -0.004225 0.000000 0.001386 0.000000
# 2 -0.003543 0.014306 -0.004612 0.000000 0.003270 0.000000
# 3 -0.004225 -0.004612 0.013806 0.000000 0.008814 0.000000
# 4 0.000000 0.000000 0.000000 0.030060 0.000000 0.006787
# 5 0.001386 0.003270 0.008814 0.000000 0.068043 0.000000
# 6 0.000000 0.000000 0.000000 0.006787 0.000000 0.040430
#
#
# Mechanical properties :
#
#
# Convention : Reuss Voigt Hill
#
# Bulk Modulus (GPa) = 48.28057 58.56443 53.42250
# Shear Modulus (GPa) = 23.18369 26.39569 24.78969
#
# Velocity S-wave (km/s) = 3.53637 3.77340 3.65681
# Velocity P-wave (km/s) = 6.53593 7.11168 6.82988
#
# Compressibility (1/GPa) = 0.02071226
#
# Stress axis : x y z
#
# Youngs Moduli (GPa) = 57.60485 69.89876 72.43253
#
# Poissons Ratio (x) = 0.24762 0.30606
# Poissons Ratio (y) = 0.20407 0.33405
# Poissons Ratio (z) = 0.24340 0.32237
#
# Static dielectric constant tensor:
#      x y z
#    x 3.315290 0.000000 -0.029070 
#    y 0.000000 3.471750 0.000000 
#    z -0.029070 0.000000 3.900820 
# 
# 
# High freq. dielectric constant tensor:
#      x y z
#    x 1.694620 0.000000 -0.008400 
#    y 0.000000 1.724120 0.000000 
#    z -0.008400 0.000000 1.726560 
# 
# From -- ./inp_files/64466.got.cif
#   From: 2010.06.25/outbox.cif.g09.slc.cpg/sg11_33_cif.got.tgz:64466.got - 2010.06.27 23:14:04.
