data_PCOD8076474
_publ_section_title
;
Structure prediction by ZEFSAII (Michael W. Deem and Ramdas Pophale) SiO2 
 PCOD8076474
Probable space group: P 21/M
;
_chemical_formula_sum "Si O2"
_cell_formula_units_Z 24
_cell_length_a 16.345409
_cell_length_b 17.673930
_cell_length_c 11.035177
_cell_angle_alpha 90.000000
_cell_angle_beta 22.453171
_cell_angle_gamma 90.000000
_cell_volume 1217.558821
_symmetry_space_group_name_H-M "P 21/M"
_symmetry_group_IT_number 11
_symmetry_cell_setting 'monoclinic'
loop_
_space_group_symop_operation_xyz
x,y,z
-x,1/2+y,-z
-x,-y,-z
x,1/2-y,z
loop_
_atom_site_type_symbol
_atom_site_label
_atom_site_fract_x
_atom_site_fract_y
_atom_site_fract_z
Si Si1 0.982569 0.965988 0.392904
Si Si2 0.863663 0.423702 0.200741
Si Si3 0.654497 0.437262 0.729628
Si Si4 0.379332 0.573725 0.705062
Si Si5 0.676287 0.839369 0.717366
Si Si6 0.728707 0.662127 0.368097
O O1 0.837605 0.889783 0.578935
O O2 0.894107 0.037467 0.436916
O O3 0.000000 0.000000 0.500000
O O4 0.221400 0.945669 0.029855
O O5 0.668897 0.432178 0.563644
O O6 0.756319 0.395385 0.222897
O O7 0.000000 0.500000 0.000000
O O8 0.036070 0.360170 0.002674
O O9 0.500000 0.500000 0.000000
O O10 0.566806 0.357544 0.903362
O O11 0.500000 0.500000 0.500000
O O12 0.548795 0.633163 0.522857
O O13 0.724673 0.750000 0.667193
O O14 0.698664 0.867174 0.547522
O O15 0.702401 0.750000 0.403485
#
# Coordination Sequence:
#
# PCOD8076474 Si02
#       6
#     4   4   4   4   4   4
#     4  11  22  37  63  94 127 162 214 265 311 372
#     4  12  21  42  66  95 127 167 212 271 313 377
#     4  10  21  38  63  89 122 163 210 259 314 371
#     4  12  24  37  67  99 124 164 217 263 318 374
#     4  10  22  42  64  89 129 171 210 260 322 382
#     4  11  24  43  65  95 130 167 213 263 320 385
#
# _framework density 19.711573999999999
#
# number of rings (size 3 to 8) (size 9 to 14) (size 15 to 20)
#    0.000    1.000    5.000    2.000    4.667    2.000 
#    0.000    0.833    0.000    0.000    0.000    0.000 
#    0.000    0.000    0.000    0.000    0.000    0.000 
#
# Total GULP energy -297443.479467 kJ/mol
# GULP energy per Si atom -12393.478311 kJ/mol
# Density = 1.966671 g / cm^3
# Si number density = 19.711574 Si / 1000 Ang^3
#
#
#
# Elastic Constant Matrix: (Units=GPa)
#
#
# Indices 1 2 3 4 5 6 
#
# 1 134.3738 45.6355 46.5410 0.0000 0.0461 0.0000
# 2 45.6355 80.5298 34.5954 0.0000 -1.2580 0.0000
# 3 46.5410 34.5954 118.4533 0.0000 10.0739 0.0000
# 4 0.0000 0.0000 0.0000 27.5759 0.0000 -3.5489
# 5 0.0461 -1.2580 10.0739 0.0000 43.9457 0.0000
# 6 0.0000 0.0000 0.0000 -3.5489 0.0000 34.5424
#
#
#
# Elastic Compliance Matrix: (Units=1/GPa)
#
#
# Indices 1 2 3 4 5 6 
#
# 1 0.009860 -0.004459 -0.002611 0.000000 0.000461 0.000000
# 2 -0.004459 0.016299 -0.003109 0.000000 0.001184 0.000000
# 3 -0.002611 -0.003109 0.010590 0.000000 -0.002514 0.000000
# 4 0.000000 0.000000 0.000000 0.036750 0.000000 0.003776
# 5 0.000461 0.001184 -0.002514 0.000000 0.023365 0.000000
# 6 0.000000 0.000000 0.000000 0.003776 0.000000 0.029338
#
#
# Mechanical properties :
#
#
# Convention : Reuss Voigt Hill
#
# Bulk Modulus (GPa) = 61.00894 65.21119 63.11007
# Shear Modulus (GPa) = 32.88977 34.98514 33.93745
#
# Velocity S-wave (km/s) = 4.08922 4.21747 4.15384
# Velocity P-wave (km/s) = 7.30162 7.54126 7.42241
#
# Compressibility (1/GPa) = 0.01639104
#
# Stress axis : x y z
#
# Youngs Moduli (GPa) = 101.41510 61.35471 94.43000
#
# Poissons Ratio (x) = 0.27357 0.24657
# Poissons Ratio (y) = 0.45220 0.29358
# Poissons Ratio (z) = 0.26481 0.19075
#
# Static dielectric constant tensor:
#      x y z
#    x 3.859810 0.000000 0.143830 
#    y 0.000000 3.634850 0.000000 
#    z 0.143830 0.000000 3.923460 
# 
# 
# High freq. dielectric constant tensor:
#      x y z
#    x 1.770470 0.000000 0.003380 
#    y 0.000000 1.752320 0.000000 
#    z 0.003380 0.000000 1.781730 
# 
# From -- ./inp_files/41901.got.cif
#   From: 2010.06.25/outbox.cif.g09.slc.cpg/sg11_21_cif.got.tgz:41901.got - 2010.06.27 23:14:04.
