data_PCOD8076766
_publ_section_title
;
Structure prediction by ZEFSAII (Michael W. Deem and Ramdas Pophale) SiO2 
 PCOD8076766
Probable space group: P 21/M
;
_chemical_formula_sum "Si O2"
_cell_formula_units_Z 20
_cell_length_a 5.187722
_cell_length_b 7.514147
_cell_length_c 25.092459
_cell_angle_alpha 90.000000
_cell_angle_beta 101.953513
_cell_angle_gamma 90.000000
_cell_volume 956.926865
_symmetry_space_group_name_H-M "P 21/M"
_symmetry_group_IT_number 11
_symmetry_cell_setting 'monoclinic'
loop_
_space_group_symop_operation_xyz
x,y,z
-x,1/2+y,-z
-x,-y,-z
x,1/2-y,z
loop_
_atom_site_type_symbol
_atom_site_label
_atom_site_fract_x
_atom_site_fract_y
_atom_site_fract_z
Si Si1 0.784705 0.455629 0.534814
Si Si2 0.904771 0.551307 0.155704
Si Si3 0.215669 0.953606 0.965732
Si Si4 0.521748 0.250000 0.305457
Si Si5 0.092546 0.250000 0.376094
Si Si6 0.463966 0.535829 0.215080
O O1 0.500000 0.500000 0.500000
O O2 0.802586 0.250000 0.552350
O O3 0.835380 0.572117 0.589046
O O4 0.000000 0.500000 0.500000
O O5 0.928559 0.750000 0.177793
O O6 0.840771 0.559084 0.090473
O O7 0.670995 0.464257 0.179842
O O8 0.185544 0.462897 0.180458
O O9 0.199219 0.750000 0.949249
O O10 0.500000 0.000000 0.000000
O O11 0.000000 0.000000 0.000000
O O12 0.256912 0.250000 0.328801
O O13 0.524987 0.432735 0.272012
O O14 0.780624 0.250000 0.352849
O O15 0.473346 0.750000 0.224462
#
# Coordination Sequence:
#
# PCOD8076766 Si02
#       6
#     4   4   4   2   2   4
#     4  12  23  43  71 100 139 180 228 272 324 397
#     4  10  21  40  64  89 117 161 213 263 322 390
#     4  12  25  40  62  92 130 165 206 265 332 399
#     4  12  26  42  66  94 138 168 226 276 326 386
#     4  12  26  42  66 104 134 180 218 280 332 372
#     4  10  23  41  65  90 124 166 217 273 322 386
#
# _framework density 20.900237000000001
#
# number of rings (size 3 to 8) (size 9 to 14) (size 15 to 20)
#    0.000    0.800    2.000    5.400    2.800    3.200 
#    0.000    0.000    0.000    0.000    0.000    0.000 
#    0.000    0.000    0.000    0.000    0.000    0.000 
#
# Total GULP energy -248027.452965 kJ/mol
# GULP energy per Si atom -12401.372648 kJ/mol
# Density = 2.085267 g / cm^3
# Si number density = 20.900237 Si / 1000 Ang^3
#
#
#
# Elastic Constant Matrix: (Units=GPa)
#
#
# Indices 1 2 3 4 5 6 
#
# 1 174.7652 26.9910 51.2713 0.0000 -0.2260 0.0000
# 2 26.9910 117.8001 36.2010 0.0000 -0.2595 0.0000
# 3 51.2713 36.2010 116.2678 0.0000 0.5661 0.0000
# 4 0.0000 0.0000 0.0000 43.1512 0.0000 -0.3391
# 5 -0.2260 -0.2595 0.5661 0.0000 55.8066 0.0000
# 6 0.0000 0.0000 0.0000 -0.3391 0.0000 20.4349
#
#
#
# Elastic Compliance Matrix: (Units=1/GPa)
#
#
# Indices 1 2 3 4 5 6 
#
# 1 0.006622 -0.000685 -0.002707 0.000000 0.000051 0.000000
# 2 -0.000685 0.009458 -0.002643 0.000000 0.000068 0.000000
# 3 -0.002707 -0.002643 0.010618 0.000000 -0.000131 0.000000
# 4 0.000000 0.000000 0.000000 0.023177 0.000000 0.000385
# 5 0.000051 0.000068 -0.000131 0.000000 0.017921 0.000000
# 6 0.000000 0.000000 0.000000 0.000385 0.000000 0.048942
#
#
# Mechanical properties :
#
#
# Convention : Reuss Voigt Hill
#
# Bulk Modulus (GPa) = 68.36316 70.86219 69.61268
# Shear Modulus (GPa) = 37.40118 43.50321 40.45219
#
# Velocity S-wave (km/s) = 4.23485 4.56726 4.40419
# Velocity P-wave (km/s) = 7.52942 7.86077 7.69688
#
# Compressibility (1/GPa) = 0.01462776
#
# Stress axis : x y z
#
# Youngs Moduli (GPa) = 151.01098 105.72659 94.17824
#
# Poissons Ratio (x) = 0.07245 0.25494
# Poissons Ratio (y) = 0.10348 0.24892
# Poissons Ratio (z) = 0.40879 0.27944
#
# Static dielectric constant tensor:
#      x y z
#    x 4.234690 0.000000 0.018330 
#    y 0.000000 4.080100 0.000000 
#    z 0.018330 0.000000 3.627060 
# 
# 
# High freq. dielectric constant tensor:
#      x y z
#    x 1.846480 0.000000 0.000900 
#    y 0.000000 1.828590 0.000000 
#    z 0.000900 0.000000 1.814710 
# 
# From -- ./inp_files/62483.got.cif
#   From: 2010.06.25/outbox.cif.g09.slc.cpg/sg11_32_cif.got.tgz:62483.got - 2010.06.27 23:14:04.
