data_PCOD8076807
_publ_section_title
;
Structure prediction by ZEFSAII (Michael W. Deem and Ramdas Pophale) SiO2 
 PCOD8076807
Probable space group: P 21/M
;
_chemical_formula_sum "Si O2"
_cell_formula_units_Z 32
_cell_length_a 13.836161
_cell_length_b 18.439544
_cell_length_c 11.964673
_cell_angle_alpha 90.000000
_cell_angle_beta 148.982555
_cell_angle_gamma 90.000000
_cell_volume 1572.989946
_symmetry_space_group_name_H-M "P 21/M"
_symmetry_group_IT_number 11
_symmetry_cell_setting 'monoclinic'
loop_
_space_group_symop_operation_xyz
x,y,z
-x,1/2+y,-z
-x,-y,-z
x,1/2-y,z
loop_
_atom_site_type_symbol
_atom_site_label
_atom_site_fract_x
_atom_site_fract_y
_atom_site_fract_z
Si Si1 0.512328 0.549244 0.345866
Si Si2 0.729155 0.336543 0.298379
Si Si3 0.641692 0.168635 0.659497
Si Si4 0.192322 0.447642 0.974086
Si Si5 0.538302 0.572445 0.108019
Si Si6 0.477419 0.328551 0.252657
Si Si7 0.907675 0.929355 0.362459
Si Si8 0.856481 0.043620 0.784332
O O1 0.500531 0.627266 0.396236
O O2 0.547658 0.559670 0.250048
O O3 0.668429 0.499305 0.561392
O O4 0.312199 0.507737 0.162080
O O5 0.740964 0.250000 0.301239
O O6 0.621693 0.363261 0.305206
O O7 0.940797 0.366793 0.511325
O O8 0.618053 0.367869 0.080378
O O9 0.688109 0.250000 0.752233
O O10 0.565856 0.176726 0.460859
O O11 0.821125 0.116994 0.820297
O O12 0.197567 0.463349 0.848670
O O13 0.286040 0.369977 0.080718
O O14 0.974963 0.439563 0.790888
O O15 0.745919 0.602440 0.282852
O O16 0.500000 0.500000 0.000000
O O17 0.422771 0.250000 0.151649
O O18 0.000000 0.000000 0.500000
O O19 0.000000 0.000000 0.000000
#
# Coordination Sequence:
#
# PCOD8076807 Si02
#       8
#     4   4   4   4   4   4   4   4
#     4  12  24  44  68  95 136 175 228 277 330 403
#     4  11  24  43  65  97 137 173 219 283 342 401
#     4  11  24  44  67  93 133 176 217 274 340 402
#     4  12  22  37  68  96 130 170 217 273 334 393
#     4  12  23  42  69  97 131 183 229 275 331 398
#     4  10  21  40  65  95 130 171 215 271 338 401
#     4  12  23  37  64 100 130 171 226 273 331 391
#     4  12  24  40  69 102 130 173 223 281 338 396
#
# _framework density 20.343423000000001
#
# number of rings (size 3 to 8) (size 9 to 14) (size 15 to 20)
#    0.000    0.500    6.250    2.625    0.000    2.000 
#    0.000    0.625    0.000    0.000    0.000    0.000 
#    0.000    0.000    0.000    0.000    0.000    0.000 
#
# Total GULP energy -396553.387797 kJ/mol
# GULP energy per Si atom -12392.293369 kJ/mol
# Density = 2.029712 g / cm^3
# Si number density = 20.343423 Si / 1000 Ang^3
#
#
#
# Elastic Constant Matrix: (Units=GPa)
#
#
# Indices 1 2 3 4 5 6 
#
# 1 99.7552 46.9008 19.2148 0.0000 13.4854 0.0000
# 2 46.9008 140.6094 46.9535 0.0000 8.4690 0.0000
# 3 19.2148 46.9535 91.6531 0.0000 10.5006 0.0000
# 4 0.0000 0.0000 0.0000 18.7446 0.0000 -7.3199
# 5 13.4854 8.4690 10.5006 0.0000 35.7102 0.0000
# 6 0.0000 0.0000 0.0000 -7.3199 0.0000 21.9758
#
#
#
# Elastic Compliance Matrix: (Units=1/GPa)
#
#
# Indices 1 2 3 4 5 6 
#
# 1 0.012367 -0.003834 -0.000205 0.000000 -0.003701 0.000000
# 2 -0.003834 0.009788 -0.004254 0.000000 0.000377 0.000000
# 3 -0.000205 -0.004254 0.013462 0.000000 -0.002872 0.000000
# 4 0.000000 0.000000 0.000000 0.061326 0.000000 0.020427
# 5 -0.003701 0.000377 -0.002872 0.000000 0.030156 0.000000
# 6 0.000000 0.000000 0.000000 0.020427 0.000000 0.052308
#
#
# Mechanical properties :
#
#
# Convention : Reuss Voigt Hill
#
# Bulk Modulus (GPa) = 52.54228 62.01731 57.27980
# Shear Modulus (GPa) = 24.71134 29.88271 27.29703
#
# Velocity S-wave (km/s) = 3.48905 3.83680 3.66705
# Velocity P-wave (km/s) = 6.48961 7.08374 6.79317
#
# Compressibility (1/GPa) = 0.01903229
#
# Stress axis : x y z
#
# Youngs Moduli (GPa) = 80.86228 102.16081 74.28298
#
# Poissons Ratio (x) = 0.39166 0.01520
# Poissons Ratio (y) = 0.31000 0.31601
# Poissons Ratio (z) = 0.01655 0.43460
#
# Static dielectric constant tensor:
#      x y z
#    x 4.417410 0.000000 0.397490 
#    y 0.000000 3.611130 0.000000 
#    z 0.397490 0.000000 4.196070 
# 
# 
# High freq. dielectric constant tensor:
#      x y z
#    x 1.810970 0.000000 -0.000730 
#    y 0.000000 1.788180 0.000000 
#    z -0.000730 0.000000 1.795910 
# 
# From -- ./inp_files/40032.got.cif
#   From: 2010.06.25/outbox.cif.g09.slc.cpg/sg11_21_cif.got.tgz:40032.got - 2010.06.27 23:14:04.
