data_PCOD8076059
_publ_section_title
;
Structure prediction by ZEFSAII (Michael W. Deem and Ramdas Pophale) SiO2 
 PCOD8076059
Probable space group: P 21/M
;
_chemical_formula_sum "Si O2"
_cell_formula_units_Z 20
_cell_length_a 7.858498
_cell_length_b 18.931338
_cell_length_c 12.495086
_cell_angle_alpha 90.000000
_cell_angle_beta 33.708810
_cell_angle_gamma 90.000000
_cell_volume 1031.647781
_symmetry_space_group_name_H-M "P 21/M"
_symmetry_group_IT_number 11
_symmetry_cell_setting 'monoclinic'
loop_
_space_group_symop_operation_xyz
x,y,z
-x,1/2+y,-z
-x,-y,-z
x,1/2-y,z
loop_
_atom_site_type_symbol
_atom_site_label
_atom_site_fract_x
_atom_site_fract_y
_atom_site_fract_z
Si Si1 0.112628 0.577854 0.467095
Si Si2 0.447140 0.168059 0.885242
Si Si3 0.397458 0.329099 0.162454
Si Si4 0.896193 0.102843 0.034863
Si Si5 0.630695 0.511212 0.314621
O O1 0.405331 0.570482 0.388501
O O2 0.000000 0.500000 0.500000
O O3 0.845556 0.616365 0.667697
O O4 0.238781 0.625010 0.303091
O O5 0.491032 0.250000 0.831061
O O6 0.412533 0.157590 0.028979
O O7 0.148341 0.138742 0.979590
O O8 0.286223 0.250000 0.244328
O O9 0.720501 0.339857 0.054605
O O10 0.645246 0.062671 0.241581
O O11 0.034197 0.046875 0.875763
O O12 0.500000 0.500000 0.500000
#
# Coordination Sequence:
#
# PCOD8076059 Si02
#       5
#     4   4   4   4   4
#     4  11  22  38  59  87 119 151 192 244 289 341
#     4  10  23  41  59  85 121 156 192 240 294 347
#     4  11  23  39  62  88 117 157 197 237 292 349
#     4  10  21  38  59  86 116 151 197 241 283 348
#     4  10  21  37  57  87 119 150 191 242 295 341
#
# _framework density 19.386461000000001
#
# number of rings (size 3 to 8) (size 9 to 14) (size 15 to 20)
#    0.000    1.600    2.000    2.400    2.800    0.800 
#    0.000    0.000    0.000    9.600    0.000    0.000 
#    0.000    0.000    0.000    0.000    0.000    0.000 
#
# Total GULP energy -247845.603609 kJ/mol
# GULP energy per Si atom -12392.280180 kJ/mol
# Density = 1.934234 g / cm^3
# Si number density = 19.386461 Si / 1000 Ang^3
#
#
#
# Elastic Constant Matrix: (Units=GPa)
#
#
# Indices 1 2 3 4 5 6 
#
# 1 88.0701 41.6800 39.2174 0.0000 9.7241 0.0000
# 2 41.6800 144.6332 73.9760 0.0000 11.5424 0.0000
# 3 39.2174 73.9760 127.7328 0.0000 17.1401 0.0000
# 4 0.0000 0.0000 0.0000 39.3991 0.0000 -3.0657
# 5 9.7241 11.5424 17.1401 0.0000 24.3267 0.0000
# 6 0.0000 0.0000 0.0000 -3.0657 0.0000 4.0278
#
#
#
# Elastic Compliance Matrix: (Units=1/GPa)
#
#
# Indices 1 2 3 4 5 6 
#
# 1 0.013945 -0.002557 -0.002447 0.000000 -0.002637 0.000000
# 2 -0.002557 0.010304 -0.005151 0.000000 -0.000238 0.000000
# 3 -0.002447 -0.005151 0.012263 0.000000 -0.005219 0.000000
# 4 0.000000 0.000000 0.000000 0.026979 0.000000 0.020535
# 5 -0.002637 -0.000238 -0.005219 0.000000 0.045951 0.000000
# 6 0.000000 0.000000 0.000000 0.020535 0.000000 0.263901
#
#
# Mechanical properties :
#
#
# Convention : Reuss Voigt Hill
#
# Bulk Modulus (GPa) = 61.71267 74.46477 68.08872
# Shear Modulus (GPa) = 12.52960 27.25490 19.89225
#
# Velocity S-wave (km/s) = 2.54501 3.75356 3.20674
# Velocity P-wave (km/s) = 6.36695 7.56834 6.99349
#
# Compressibility (1/GPa) = 0.01620413
#
# Stress axis : x y z
#
# Youngs Moduli (GPa) = 71.70818 97.04675 81.54306
#
# Poissons Ratio (x) = 0.24812 0.19954
# Poissons Ratio (y) = 0.18334 0.42001
# Poissons Ratio (z) = 0.17547 0.49987
#
# Static dielectric constant tensor:
#      x y z
#    x 3.365960 0.000000 -0.365050 
#    y 0.000000 3.623460 0.000000 
#    z -0.365050 0.000000 3.527520 
# 
# 
# High freq. dielectric constant tensor:
#      x y z
#    x 1.749970 0.000000 -0.004140 
#    y 0.000000 1.765870 0.000000 
#    z -0.004140 0.000000 1.765100 
# 
# From -- ./inp_files/1976.got.cif
#   From: 2010.06.25/outbox.cif.g09.slc.cpg/sg11_1_cif.got.tgz:1976.got - 2010.06.27 23:14:04.
