data_PCOD8076413
_publ_section_title
;
Structure prediction by ZEFSAII (Michael W. Deem and Ramdas Pophale) SiO2 
 PCOD8076413
Probable space group: P 21/M
;
_chemical_formula_sum "Si O2"
_cell_formula_units_Z 24
_cell_length_a 14.997605
_cell_length_b 8.851002
_cell_length_c 14.749030
_cell_angle_alpha 90.000000
_cell_angle_beta 139.856094
_cell_angle_gamma 90.000000
_cell_volume 1262.240028
_symmetry_space_group_name_H-M "P 21/M"
_symmetry_group_IT_number 11
_symmetry_cell_setting 'monoclinic'
loop_
_space_group_symop_operation_xyz
x,y,z
-x,1/2+y,-z
-x,-y,-z
x,1/2-y,z
loop_
_atom_site_type_symbol
_atom_site_label
_atom_site_fract_x
_atom_site_fract_y
_atom_site_fract_z
Si Si1 0.385831 0.928023 0.348541
Si Si2 0.602769 0.071102 0.850425
Si Si3 0.422000 0.573862 0.855389
Si Si4 0.123222 0.072939 0.856298
Si Si5 0.894287 0.426966 0.348690
Si Si6 0.919142 0.074551 0.856118
O O1 0.397932 0.750000 0.366583
O O2 0.407287 0.979955 0.261581
O O3 0.237341 0.987473 0.268274
O O4 0.500000 0.000000 0.500000
O O5 0.599326 0.250000 0.859208
O O6 0.472835 0.999449 0.801265
O O7 0.743985 0.012724 0.003257
O O8 0.457219 0.750000 0.883012
O O9 0.259772 0.542716 0.735708
O O10 0.500000 0.500000 0.000000
O O11 0.156996 0.250000 0.876914
O O12 0.992218 0.038823 0.818090
O O13 0.081318 0.009420 0.726950
O O14 0.924183 0.250000 0.360972
O O15 0.000000 0.500000 0.500000
O O16 0.916608 0.250000 0.876648
O O17 0.000000 0.000000 0.000000
#
# Coordination Sequence:
#
# PCOD8076413 Si02
#       6
#     4   4   4   4   4   4
#     4  10  23  41  60  87 125 161 200 251 304 360
#     4  11  22  38  62  91 123 160 205 253 302 360
#     4  11  23  39  63  92 122 160 205 251 302 363
#     4  11  22  37  63  93 121 159 205 252 304 362
#     4  11  25  43  63  89 125 163 201 253 309 362
#     4  10  21  38  61  90 121 157 202 250 299 359
#
# _framework density 19.013815999999998
#
# number of rings (size 3 to 8) (size 9 to 14) (size 15 to 20)
#    0.000    1.333    3.333    2.000    0.000    6.000 
#    0.000    5.000    0.000    0.000    0.000    0.000 
#    0.000    0.000    0.000    0.000    0.000    0.000 
#
# Total GULP energy -297709.032498 kJ/mol
# GULP energy per Si atom -12404.543021 kJ/mol
# Density = 1.897054 g / cm^3
# Si number density = 19.013816 Si / 1000 Ang^3
#
#
#
# Elastic Constant Matrix: (Units=GPa)
#
#
# Indices 1 2 3 4 5 6 
#
# 1 166.7266 65.6692 76.5138 0.0000 -3.3968 0.0000
# 2 65.6692 77.9619 46.2560 0.0000 -2.1723 0.0000
# 3 76.5138 46.2560 152.0377 0.0000 -7.2861 0.0000
# 4 0.0000 0.0000 0.0000 38.2419 0.0000 -1.1327
# 5 -3.3968 -2.1723 -7.2861 0.0000 34.1500 0.0000
# 6 0.0000 0.0000 0.0000 -1.1327 0.0000 33.5440
#
#
#
# Elastic Compliance Matrix: (Units=1/GPa)
#
#
# Indices 1 2 3 4 5 6 
#
# 1 0.009991 -0.006629 -0.003015 0.000000 -0.000071 0.000000
# 2 -0.006629 0.020050 -0.002763 0.000000 0.000027 0.000000
# 3 -0.003015 -0.002763 0.009004 0.000000 0.001446 0.000000
# 4 0.000000 0.000000 0.000000 0.026176 0.000000 0.000884
# 5 -0.000071 0.000027 0.001446 0.000000 0.029586 0.000000
# 6 0.000000 0.000000 0.000000 0.000884 0.000000 0.029841
#
#
# Mechanical properties :
#
#
# Convention : Reuss Voigt Hill
#
# Bulk Modulus (GPa) = 70.25978 85.95602 78.10790
# Shear Modulus (GPa) = 32.42440 35.07298 33.74869
#
# Velocity S-wave (km/s) = 4.13402 4.29955 4.21759
# Velocity P-wave (km/s) = 7.73427 8.36382 8.05520
#
# Compressibility (1/GPa) = 0.01423289
#
# Stress axis : x y z
#
# Youngs Moduli (GPa) = 100.09255 49.87425 111.05866
#
# Poissons Ratio (x) = 0.33061 0.33479
# Poissons Ratio (y) = 0.66350 0.30684
# Poissons Ratio (z) = 0.30173 0.13780
#
# Static dielectric constant tensor:
#      x y z
#    x 3.422670 0.000000 0.051660 
#    y 0.000000 3.600200 0.000000 
#    z 0.051660 0.000000 3.454610 
# 
# 
# High freq. dielectric constant tensor:
#      x y z
#    x 1.759770 0.000000 0.000860 
#    y 0.000000 1.748740 0.000000 
#    z 0.000860 0.000000 1.738980 
# 
# From -- ./inp_files/51820.got.cif
#   From: 2010.06.25/outbox.cif.g09.slc.cpg/sg11_26_cif.got.tgz:51820.got - 2010.06.27 23:14:04.
