data_PCOD8076161
_publ_section_title
;
Structure prediction by ZEFSAII (Michael W. Deem and Ramdas Pophale) SiO2 
 PCOD8076161
Probable space group: P 21/M
;
_chemical_formula_sum "Si O2"
_cell_formula_units_Z 28
_cell_length_a 9.374933
_cell_length_b 8.865957
_cell_length_c 24.805138
_cell_angle_alpha 90.000000
_cell_angle_beta 138.481065
_cell_angle_gamma 90.000000
_cell_volume 1366.665351
_symmetry_space_group_name_H-M "P 21/M"
_symmetry_group_IT_number 11
_symmetry_cell_setting 'monoclinic'
loop_
_space_group_symop_operation_xyz
x,y,z
-x,1/2+y,-z
-x,-y,-z
x,1/2-y,z
loop_
_atom_site_type_symbol
_atom_site_label
_atom_site_fract_x
_atom_site_fract_y
_atom_site_fract_z
Si Si1 0.209165 0.416650 0.577162
Si Si2 0.348675 0.573296 0.001913
Si Si3 0.326973 0.930360 0.313437
Si Si4 0.552187 0.428283 0.849472
Si Si5 0.146148 0.072001 0.154716
Si Si6 0.290017 0.072421 0.413919
Si Si7 0.878587 0.918484 0.326993
O O1 0.184683 0.250000 0.546803
O O2 0.425783 0.488111 0.614321
O O3 0.241320 0.416598 0.650026
O O4 0.000000 0.500000 0.500000
O O5 0.384589 0.750000 0.007554
O O6 0.411373 0.516264 0.079283
O O7 0.500000 0.500000 0.000000
O O8 0.101678 0.528251 0.923531
O O9 0.309807 0.750000 0.308608
O O10 0.211458 0.992604 0.228383
O O11 0.224933 0.001202 0.337973
O O12 0.591114 0.250000 0.853271
O O13 0.716920 0.513457 0.856996
O O14 0.304370 0.471508 0.766612
O O15 0.181342 0.250000 0.169830
O O16 0.326111 0.250000 0.420287
O O17 0.500000 0.000000 0.500000
O O18 0.078418 0.033478 0.388814
O O19 0.963466 0.750000 0.336612
#
# Coordination Sequence:
#
# PCOD8076161 Si02
#       7
#     4   4   4   4   4   4   4
#     4  10  21  37  60  89 119 154 201 253 302 363
#     4  10  24  42  64  96 130 165 209 257 312 375
#     4  11  23  42  65  91 123 168 214 256 313 376
#     4  10  21  42  67  92 124 167 213 255 311 381
#     4  11  23  40  63  97 132 163 207 261 313 372
#     4  12  26  43  62  91 127 168 213 263 319 377
#     4  10  21  40  63  90 122 162 212 260 309 373
#
# _framework density 20.487822999999999
#
# number of rings (size 3 to 8) (size 9 to 14) (size 15 to 20)
#    0.000    1.429    1.429    3.429    2.000    6.286 
#    0.000    0.000    0.000    0.000    0.000    0.000 
#    0.000    0.000    0.000    0.000    0.000    0.000 
#
# Total GULP energy -347227.626442 kJ/mol
# GULP energy per Si atom -12400.986659 kJ/mol
# Density = 2.044119 g / cm^3
# Si number density = 20.487823 Si / 1000 Ang^3
#
#
#
# Elastic Constant Matrix: (Units=GPa)
#
#
# Indices 1 2 3 4 5 6 
#
# 1 89.6043 36.7734 31.5974 0.0000 0.0726 0.0000
# 2 36.7734 92.6337 52.2928 0.0000 4.4048 0.0000
# 3 31.5974 52.2928 121.1046 0.0000 2.1785 0.0000
# 4 0.0000 0.0000 0.0000 32.9884 0.0000 0.8101
# 5 0.0726 4.4048 2.1785 0.0000 39.0626 0.0000
# 6 0.0000 0.0000 0.0000 0.8101 0.0000 38.4092
#
#
#
# Elastic Compliance Matrix: (Units=1/GPa)
#
#
# Indices 1 2 3 4 5 6 
#
# 1 0.013577 -0.004511 -0.001605 0.000000 0.000573 0.000000
# 2 -0.004511 0.015837 -0.005635 0.000000 -0.001463 0.000000
# 3 -0.001605 -0.005635 0.011109 0.000000 0.000019 0.000000
# 4 0.000000 0.000000 0.000000 0.030329 0.000000 -0.000640
# 5 0.000573 -0.001463 0.000019 0.000000 0.025763 0.000000
# 6 0.000000 0.000000 0.000000 -0.000640 0.000000 0.026049
#
#
# Mechanical properties :
#
#
# Convention : Reuss Voigt Hill
#
# Bulk Modulus (GPa) = 58.75160 60.51890 59.63525
# Shear Modulus (GPa) = 32.92973 34.27065 33.60019
#
# Velocity S-wave (km/s) = 4.01344 4.09434 4.05409
# Velocity P-wave (km/s) = 7.08629 7.20795 7.14738
#
# Compressibility (1/GPa) = 0.01702081
#
# Stress axis : x y z
#
# Youngs Moduli (GPa) = 73.65421 63.14518 90.01843
#
# Poissons Ratio (x) = 0.28485 0.14446
# Poissons Ratio (y) = 0.33226 0.50724
# Poissons Ratio (z) = 0.11820 0.35582
#
# Static dielectric constant tensor:
#      x y z
#    x 3.994720 0.000000 -0.012090 
#    y 0.000000 3.672330 0.000000 
#    z -0.012090 0.000000 3.944380 
# 
# 
# High freq. dielectric constant tensor:
#      x y z
#    x 1.812770 0.000000 -0.001820 
#    y 0.000000 1.794500 0.000000 
#    z -0.001820 0.000000 1.816620 
# 
# From -- ./inp_files/70903.got.cif
#   From: 2010.06.25/outbox.cif.g09.slc.cpg/sg11_36_cif.got.tgz:70903.got - 2010.06.27 23:14:04.
