data_PCOD8076836
_publ_section_title
;
Structure prediction by ZEFSAII (Michael W. Deem and Ramdas Pophale) SiO2 
 PCOD8076836
Probable space group: P 21/M
;
_chemical_formula_sum "Si O2"
_cell_formula_units_Z 28
_cell_length_a 29.130250
_cell_length_b 9.097940
_cell_length_c 29.189014
_cell_angle_alpha 90.000000
_cell_angle_beta 169.971164
_cell_angle_gamma 90.000000
_cell_volume 1347.146118
_symmetry_space_group_name_H-M "P 21/M"
_symmetry_group_IT_number 11
_symmetry_cell_setting 'monoclinic'
loop_
_space_group_symop_operation_xyz
x,y,z
-x,1/2+y,-z
-x,-y,-z
x,1/2-y,z
loop_
_atom_site_type_symbol
_atom_site_label
_atom_site_fract_x
_atom_site_fract_y
_atom_site_fract_z
Si Si1 0.028321 0.430030 0.478193
Si Si2 0.855779 0.921550 0.609260
Si Si3 0.658079 0.250000 0.704622
Si Si4 0.137965 0.590743 0.292911
Si Si5 0.666931 0.961506 0.762902
Si Si6 0.388443 0.924813 0.084257
Si Si7 0.192728 0.250000 0.177657
Si Si8 0.444357 0.071327 0.042769
O O1 0.027955 0.250000 0.478601
O O2 0.000000 0.500000 0.500000
O O3 0.791991 0.494262 0.216242
O O4 0.293509 0.494346 0.717736
O O5 0.853122 0.750000 0.611239
O O6 0.123375 0.974542 0.848855
O O7 0.822729 0.975474 0.628337
O O8 0.618708 0.974310 0.344468
O O9 0.677267 0.129012 0.761868
O O10 0.378068 0.250000 0.404212
O O11 0.889764 0.250000 0.895262
O O12 0.136545 0.750000 0.315035
O O13 0.372067 0.584194 0.486157
O O14 0.861545 0.571739 0.995685
O O15 0.753824 0.890556 0.800545
O O16 0.395369 0.750000 0.078734
O O17 0.414344 0.028008 0.065867
O O18 0.447816 0.250000 0.040005
#
# Coordination Sequence:
#
# PCOD8076836 Si02
#       8
#     4   4   2   4   4   4   2   4
#     4  12  25  44  67  97 136 184 233 286 342 404
#     4  10  23  39  65  92 125 162 211 264 311 381
#     4  12  26  40  68  94 118 162 200 256 296 366
#     4  12  24  43  63  90 125 165 200 251 312 369
#     4  12  25  42  65  92 123 160 203 250 303 370
#     4  10  21  41  62  94 127 168 212 263 328 384
#     4  12  22  46  62  92 128 154 204 244 314 356
#     4  12  25  42  68 100 137 179 227 284 338 405
#
# _framework density 20.784680000000002
#
# number of rings (size 3 to 8) (size 9 to 14) (size 15 to 20)
#    0.000    0.571    1.429    7.286    2.000    2.286 
#    0.000    0.000    0.000    0.000    0.000    0.000 
#    0.000    0.000    0.000    0.000    0.000    0.000 
#
# Total GULP energy -347160.769831 kJ/mol
# GULP energy per Si atom -12398.598923 kJ/mol
# Density = 2.073737 g / cm^3
# Si number density = 20.784680 Si / 1000 Ang^3
#
#
#
# Elastic Constant Matrix: (Units=GPa)
#
#
# Indices 1 2 3 4 5 6 
#
# 1 106.3809 38.0947 44.7591 0.0000 -12.5240 0.0000
# 2 38.0947 124.4045 44.9509 0.0000 -12.6229 0.0000
# 3 44.7591 44.9509 148.1711 0.0000 -14.2386 0.0000
# 4 0.0000 0.0000 0.0000 8.0223 0.0000 -10.4147
# 5 -12.5240 -12.6229 -14.2386 0.0000 63.9837 0.0000
# 6 0.0000 0.0000 0.0000 -10.4147 0.0000 45.9557
#
#
#
# Elastic Compliance Matrix: (Units=1/GPa)
#
#
# Indices 1 2 3 4 5 6 
#
# 1 0.011524 -0.002462 -0.002620 0.000000 0.001187 0.000000
# 2 -0.002462 0.009644 -0.002090 0.000000 0.000956 0.000000
# 3 -0.002620 -0.002090 0.008262 0.000000 0.000913 0.000000
# 4 0.000000 0.000000 0.000000 0.176613 0.000000 0.040025
# 5 0.001187 0.000956 0.000913 0.000000 0.016253 0.000000
# 6 0.000000 0.000000 0.000000 0.040025 0.000000 0.030831
#
#
# Mechanical properties :
#
#
# Convention : Reuss Voigt Hill
#
# Bulk Modulus (GPa) = 66.28601 70.50734 68.39667
# Shear Modulus (GPa) = 18.34860 40.33578 29.34219
#
# Velocity S-wave (km/s) = 2.97441 4.41006 3.76137
# Velocity P-wave (km/s) = 6.61492 7.74131 7.20017
#
# Compressibility (1/GPa) = 0.01508614
#
# Stress axis : x y z
#
# Youngs Moduli (GPa) = 86.77639 103.68752 121.02996
#
# Poissons Ratio (x) = 0.25524 0.31713
# Poissons Ratio (y) = 0.21361 0.25300
# Poissons Ratio (z) = 0.22738 0.21675
#
# Static dielectric constant tensor:
#      x y z
#    x 3.800800 0.000000 0.068160 
#    y 0.000000 4.047730 0.000000 
#    z 0.068160 0.000000 4.216160 
# 
# 
# High freq. dielectric constant tensor:
#      x y z
#    x 1.824700 0.000000 0.000480 
#    y 0.000000 1.826990 0.000000 
#    z 0.000480 0.000000 1.836180 
# 
# From -- ./inp_files/73886.got.cif
#   From: 2010.06.25/outbox.cif.g09.slc.cpg/sg11_37_cif.got.tgz:73886.got - 2010.06.27 23:14:04.
