data_PCOD8076417
_publ_section_title
;
Structure prediction by ZEFSAII (Michael W. Deem and Ramdas Pophale) SiO2 
 PCOD8076417
Probable space group: P 21/M
;
_chemical_formula_sum "Si O2"
_cell_formula_units_Z 24
_cell_length_a 9.872467
_cell_length_b 8.695635
_cell_length_c 14.180127
_cell_angle_alpha 90.000000
_cell_angle_beta 100.631001
_cell_angle_gamma 90.000000
_cell_volume 1196.432014
_symmetry_space_group_name_H-M "P 21/M"
_symmetry_group_IT_number 11
_symmetry_cell_setting 'monoclinic'
loop_
_space_group_symop_operation_xyz
x,y,z
-x,1/2+y,-z
-x,-y,-z
x,1/2-y,z
loop_
_atom_site_type_symbol
_atom_site_label
_atom_site_fract_x
_atom_site_fract_y
_atom_site_fract_z
Si Si1 0.874418 0.930425 0.426445
Si Si2 0.304379 0.070810 0.907916
Si Si3 0.574278 0.570005 0.876392
Si Si4 0.757842 0.927458 0.723923
Si Si5 0.073198 0.926917 0.764251
Si Si6 0.650248 0.069347 0.522623
O O1 0.873501 0.750000 0.443483
O O2 0.888343 0.966556 0.318600
O O3 0.732232 0.000839 0.444897
O O4 0.000000 0.000000 0.500000
O O5 0.275220 0.250000 0.890856
O O6 0.431271 0.022607 0.856843
O O7 0.167995 0.976282 0.863867
O O8 0.338162 0.027187 0.019823
O O9 0.539754 0.750000 0.870340
O O10 0.661695 0.518086 0.797257
O O11 0.729512 0.750000 0.694411
O O12 0.915546 0.952739 0.774870
O O13 0.726885 0.030192 0.629459
O O14 0.099811 0.750000 0.740509
O O15 0.641492 0.250000 0.509242
O O16 0.500000 0.000000 0.500000
#
# Coordination Sequence:
#
# PCOD8076417 Si02
#       6
#     4   4   4   4   4   4
#     4  12  24  42  65  91 124 162 205 252 304 365
#     4  10  21  38  61  90 122 158 203 252 305 367
#     4   9  20  40  63  87 120 160 202 253 308 363
#     4  10  22  41  63  88 121 159 206 256 305 361
#     4  11  23  39  62  90 122 162 205 250 305 364
#     4  12  26  43  64  91 125 164 206 254 306 362
#
# _framework density 20.059645
#
# number of rings (size 3 to 8) (size 9 to 14) (size 15 to 20)
#    0.000    1.333    1.667    4.000    2.333    2.667 
#    0.000    0.000    0.000    0.000    0.000    0.000 
#    0.000    0.000    0.000    0.000    0.000    0.000 
#
# Total GULP energy -297764.899296 kJ/mol
# GULP energy per Si atom -12406.870804 kJ/mol
# Density = 2.001399 g / cm^3
# Si number density = 20.059645 Si / 1000 Ang^3
#
#
#
# Elastic Constant Matrix: (Units=GPa)
#
#
# Indices 1 2 3 4 5 6 
#
# 1 97.0243 37.0644 9.8385 0.0000 2.9357 0.0000
# 2 37.0644 113.4614 13.7842 0.0000 3.9386 0.0000
# 3 9.8385 13.7842 48.5501 0.0000 -0.2357 0.0000
# 4 0.0000 0.0000 0.0000 34.0994 0.0000 4.1756
# 5 2.9357 3.9386 -0.2357 0.0000 43.3953 0.0000
# 6 0.0000 0.0000 0.0000 4.1756 0.0000 34.8620
#
#
#
# Elastic Compliance Matrix: (Units=1/GPa)
#
#
# Indices 1 2 3 4 5 6 
#
# 1 0.011871 -0.003696 -0.001358 0.000000 -0.000475 0.000000
# 2 -0.003696 0.010310 -0.002182 0.000000 -0.000698 0.000000
# 3 -0.001358 -0.002182 0.021494 0.000000 0.000407 0.000000
# 4 0.000000 0.000000 0.000000 0.029763 0.000000 -0.003565
# 5 -0.000475 -0.000698 0.000407 0.000000 0.023142 0.000000
# 6 0.000000 0.000000 0.000000 -0.003565 0.000000 0.029111
#
#
# Mechanical properties :
#
#
# Convention : Reuss Voigt Hill
#
# Bulk Modulus (GPa) = 34.24380 42.26776 38.25578
# Shear Modulus (GPa) = 33.35610 35.69459 34.52535
#
# Velocity S-wave (km/s) = 4.08222 4.22290 4.15316
# Velocity P-wave (km/s) = 6.27116 6.70029 6.48928
#
# Compressibility (1/GPa) = 0.02920236
#
# Stress axis : x y z
#
# Youngs Moduli (GPa) = 84.23995 96.99041 46.52472
#
# Poissons Ratio (x) = 0.35851 0.06320
# Poissons Ratio (y) = 0.31138 0.10150
# Poissons Ratio (z) = 0.11443 0.21159
#
# Static dielectric constant tensor:
#      x y z
#    x 3.813950 0.000000 -0.022360 
#    y 0.000000 3.755550 0.000000 
#    z -0.022360 0.000000 3.823680 
# 
# 
# High freq. dielectric constant tensor:
#      x y z
#    x 1.795430 0.000000 0.002250 
#    y 0.000000 1.789140 0.000000 
#    z 0.002250 0.000000 1.782020 
# 
# From -- ./inp_files/20629.got.cif
#   From: 2010.06.25/outbox.cif.g09.slc.cpg/sg11_11_cif.got.tgz:20629.got - 2010.06.27 23:14:04.
