data_PCOD8076178
_publ_section_title
;
Structure prediction by ZEFSAII (Michael W. Deem and Ramdas Pophale) SiO2 
 PCOD8076178
Probable space group: P 21/M
;
_chemical_formula_sum "Si O2"
_cell_formula_units_Z 28
_cell_length_a 10.851778
_cell_length_b 21.365760
_cell_length_c 7.761920
_cell_angle_alpha 90.000000
_cell_angle_beta 46.632027
_cell_angle_gamma 90.000000
_cell_volume 1308.272164
_symmetry_space_group_name_H-M "P 21/M"
_symmetry_group_IT_number 11
_symmetry_cell_setting 'monoclinic'
loop_
_space_group_symop_operation_xyz
x,y,z
-x,1/2+y,-z
-x,-y,-z
x,1/2-y,z
loop_
_atom_site_type_symbol
_atom_site_label
_atom_site_fract_x
_atom_site_fract_y
_atom_site_fract_z
Si Si1 0.599423 0.119253 0.656122
Si Si2 0.791536 0.819577 0.629346
Si Si3 0.443421 0.478627 0.355870
Si Si4 0.120630 0.093350 0.758005
Si Si5 0.247773 0.323157 0.942442
Si Si6 0.435831 0.863980 0.938057
Si Si7 0.248379 0.908705 0.816595
O O1 0.445897 0.161065 0.733494
O O2 0.752095 0.124807 0.370424
O O3 0.542241 0.047527 0.732264
O O4 0.659892 0.142772 0.786232
O O5 0.866365 0.750000 0.533088
O O6 0.886879 0.866548 0.410432
O O7 0.590087 0.815055 0.777535
O O8 0.815111 0.842013 0.805037
O O9 0.258519 0.461780 0.614989
O O10 0.475900 0.432585 0.162679
O O11 0.600874 0.462664 0.340539
O O12 0.147563 0.138602 0.894616
O O13 0.934142 0.062461 0.961963
O O14 0.220416 0.250000 0.933625
O O15 0.300919 0.857125 0.911682
#
# Coordination Sequence:
#
# PCOD8076178 Si02
#       7
#     4   4   4   4   4   4   4
#     4  11  18  38  61  81 118 153 183 243 280 325
#     4   9  18  36  60  80 107 150 191 235 285 333
#     4   9  20  38  56  86 115 150 191 226 287 339
#     4  11  21  37  57  84 119 147 186 234 281 344
#     4  10  21  37  61  84 107 151 194 230 287 338
#     4   8  19  34  57  83 114 145 192 231 279 338
#     4  10  22  34  55  88 112 147 188 222 283 345
#
# _framework density 21.402274999999999
#
# number of rings (size 3 to 8) (size 9 to 14) (size 15 to 20)
#    0.857    1.429    1.429    1.286    0.000    1.714 
#    0.000    3.571    0.000    3.429    0.000    0.000 
#    0.000    0.000    0.000    0.000    0.000    0.000 
#
# Total GULP energy -346937.414416 kJ/mol
# GULP energy per Si atom -12390.621943 kJ/mol
# Density = 2.135356 g / cm^3
# Si number density = 21.402275 Si / 1000 Ang^3
#
#
#
# Elastic Constant Matrix: (Units=GPa)
#
#
# Indices 1 2 3 4 5 6 
#
# 1 61.6819 9.3122 51.2008 0.0000 7.4703 0.0000
# 2 9.3122 35.6245 -1.9835 0.0000 0.5938 0.0000
# 3 51.2008 -1.9835 128.4575 0.0000 1.1186 0.0000
# 4 0.0000 0.0000 0.0000 15.2661 0.0000 2.7443
# 5 7.4703 0.5938 1.1186 0.0000 35.4361 0.0000
# 6 0.0000 0.0000 0.0000 2.7443 0.0000 17.1779
#
#
#
# Elastic Compliance Matrix: (Units=1/GPa)
#
#
# Indices 1 2 3 4 5 6 
#
# 1 0.026968 -0.007565 -0.010820 0.000000 -0.005217 0.000000
# 2 -0.007565 0.030225 0.003473 0.000000 0.000979 0.000000
# 3 -0.010820 0.003473 0.012135 0.000000 0.001840 0.000000
# 4 0.000000 0.000000 0.000000 0.067441 0.000000 -0.010774
# 5 -0.005217 0.000979 0.001840 0.000000 0.029245 0.000000
# 6 0.000000 0.000000 0.000000 -0.010774 0.000000 0.059936
#
#
# Mechanical properties :
#
#
# Convention : Reuss Voigt Hill
#
# Bulk Modulus (GPa) = 25.31354 38.09142 31.70248
# Shear Modulus (GPa) = 18.59141 24.72497 21.65819
#
# Velocity S-wave (km/s) = 2.95051 3.40258 3.18458
# Velocity P-wave (km/s) = 4.84361 5.76830 5.32606
#
# Compressibility (1/GPa) = 0.03950455
#
# Stress axis : x y z
#
# Youngs Moduli (GPa) = 37.08136 33.08505 82.40601
#
# Poissons Ratio (x) = 0.25028 0.89165
# Poissons Ratio (y) = 0.28051 -0.28623
# Poissons Ratio (z) = 0.40123 -0.11492
#
# Static dielectric constant tensor:
#      x y z
#    x 3.753960 0.000000 0.291010 
#    y 0.000000 3.560980 0.000000 
#    z 0.291010 0.000000 3.827300 
# 
# 
# High freq. dielectric constant tensor:
#      x y z
#    x 1.829560 0.000000 0.028990 
#    y 0.000000 1.815610 0.000000 
#    z 0.028990 0.000000 1.841470 
# 
# From -- ./inp_files/19284.got.cif
#   From: 2010.06.25/outbox.cif.g09.slc.cpg/sg11_10_cif.got.tgz:19284.got - 2010.06.27 23:14:04.
