data_PCOD8076725
_publ_section_title
;
Structure prediction by ZEFSAII (Michael W. Deem and Ramdas Pophale) SiO2 
 PCOD8076725
Probable space group: P 21/M
;
_chemical_formula_sum "Si O2"
_cell_formula_units_Z 20
_cell_length_a 8.994495
_cell_length_b 17.141432
_cell_length_c 8.375819
_cell_angle_alpha 90.000000
_cell_angle_beta 127.085020
_cell_angle_gamma 90.000000
_cell_volume 1030.180712
_symmetry_space_group_name_H-M "P 21/M"
_symmetry_group_IT_number 11
_symmetry_cell_setting 'monoclinic'
loop_
_space_group_symop_operation_xyz
x,y,z
-x,1/2+y,-z
-x,-y,-z
x,1/2-y,z
loop_
_atom_site_type_symbol
_atom_site_label
_atom_site_fract_x
_atom_site_fract_y
_atom_site_fract_z
Si Si1 0.997868 0.009405 0.186539
Si Si2 0.729357 0.584512 0.225759
Si Si3 0.622661 0.026395 0.433339
Si Si4 0.559780 0.162976 0.182293
Si Si5 0.985868 0.338408 0.359660
O O1 0.025076 0.101515 0.240750
O O2 0.811237 0.975311 0.146506
O O3 0.166660 0.960588 0.372248
O O4 0.000000 0.000000 0.000000
O O5 0.617797 0.535337 0.285799
O O6 0.893427 0.636163 0.408796
O O7 0.580683 0.641679 0.050491
O O8 0.533605 0.107400 0.317429
O O9 0.500000 0.000000 0.500000
O O10 0.514101 0.250000 0.210483
O O11 0.769581 0.155590 0.258134
O O12 0.039451 0.250000 0.343193
#
# Coordination Sequence:
#
# PCOD8076725 Si02
#       5
#     4   4   4   4   4
#     4  11  22  39  63  91 120 164 205 241 299 361
#     4  11  21  41  62  88 121 161 206 238 303 363
#     4  11  22  39  63  91 122 159 204 250 291 364
#     4  11  22  38  63  92 120 158 199 251 307 349
#     4  10  21  40  61  90 123 154 198 255 302 351
#
# _framework density 19.414069999999999
#
# number of rings (size 3 to 8) (size 9 to 14) (size 15 to 20)
#    0.000    1.200    4.000    3.600    2.800    0.000 
#    0.000   12.000    0.000    0.000    0.000    0.000 
#    0.000    0.000    0.000    0.000    0.000    0.000 
#
# Total GULP energy -248028.120093 kJ/mol
# GULP energy per Si atom -12401.406005 kJ/mol
# Density = 1.936988 g / cm^3
# Si number density = 19.414070 Si / 1000 Ang^3
#
#
#
# Elastic Constant Matrix: (Units=GPa)
#
#
# Indices 1 2 3 4 5 6 
#
# 1 109.6934 55.3686 45.4801 0.0000 -17.0124 0.0000
# 2 55.3686 158.3460 83.9239 0.0000 -9.4374 0.0000
# 3 45.4801 83.9239 135.4419 0.0000 -3.3567 0.0000
# 4 0.0000 0.0000 0.0000 24.4633 0.0000 3.1851
# 5 -17.0124 -9.4374 -3.3567 0.0000 37.6393 0.0000
# 6 0.0000 0.0000 0.0000 3.1851 0.0000 22.7666
#
#
#
# Elastic Compliance Matrix: (Units=1/GPa)
#
#
# Indices 1 2 3 4 5 6 
#
# 1 0.012169 -0.002793 -0.002242 0.000000 0.004600 0.000000
# 2 -0.002793 0.010174 -0.005346 0.000000 0.000812 0.000000
# 3 -0.002242 -0.005346 0.011415 0.000000 -0.001336 0.000000
# 4 0.000000 0.000000 0.000000 0.041636 0.000000 -0.005825
# 5 0.004600 0.000812 -0.001336 0.000000 0.028732 0.000000
# 6 0.000000 0.000000 0.000000 -0.005825 0.000000 0.044739
#
#
# Mechanical properties :
#
#
# Convention : Reuss Voigt Hill
#
# Bulk Modulus (GPa) = 76.94105 85.89182 81.41644
# Shear Modulus (GPa) = 28.74267 31.55442 30.14855
#
# Velocity S-wave (km/s) = 3.85191 4.03592 3.94499
# Velocity P-wave (km/s) = 7.71366 8.12750 7.92329
#
# Compressibility (1/GPa) = 0.01299696
#
# Stress axis : x y z
#
# Youngs Moduli (GPa) = 82.17713 98.29368 87.60112
#
# Poissons Ratio (x) = 0.27452 0.19637
# Poissons Ratio (y) = 0.22951 0.46831
# Poissons Ratio (z) = 0.18421 0.52547
#
# Static dielectric constant tensor:
#      x y z
#    x 10.124090 0.000000 -0.448630 
#    y 0.000000 3.584130 0.000000 
#    z -0.448630 0.000000 3.795890 
# 
# 
# High freq. dielectric constant tensor:
#      x y z
#    x 1.744010 0.000000 0.014460 
#    y 0.000000 1.756710 0.000000 
#    z 0.014460 0.000000 1.771980 
# 
# From -- ./inp_files/12803.got.cif
#   From: 2010.06.25/outbox.cif.g09.slc.cpg/sg11_7_cif.got.tgz:12803.got - 2010.06.27 23:14:04.
