data_PCOD8076134
_publ_section_title
;
Structure prediction by ZEFSAII (Michael W. Deem and Ramdas Pophale) SiO2 
 PCOD8076134
Probable space group: P 21/M
;
_chemical_formula_sum "Si O2"
_cell_formula_units_Z 28
_cell_length_a 15.459692
_cell_length_b 8.864242
_cell_length_c 21.124446
_cell_angle_alpha 90.000000
_cell_angle_beta 28.459383
_cell_angle_gamma 90.000000
_cell_volume 1379.504631
_symmetry_space_group_name_H-M "P 21/M"
_symmetry_group_IT_number 11
_symmetry_cell_setting 'monoclinic'
loop_
_space_group_symop_operation_xyz
x,y,z
-x,1/2+y,-z
-x,-y,-z
x,1/2-y,z
loop_
_atom_site_type_symbol
_atom_site_label
_atom_site_fract_x
_atom_site_fract_y
_atom_site_fract_z
Si Si1 0.719194 0.578599 0.201527
Si Si2 0.100759 0.577721 0.630887
Si Si3 0.208946 0.077627 0.074531
Si Si4 0.439946 0.072035 0.472556
Si Si5 0.451157 0.072033 0.097943
Si Si6 0.061126 0.427795 0.395241
Si Si7 0.899522 0.079072 0.974889
O O1 0.650144 0.750000 0.237263
O O2 0.570914 0.481340 0.332856
O O3 0.904708 0.574605 0.120178
O O4 0.747839 0.502270 0.115163
O O5 0.169904 0.750000 0.592236
O O6 0.237128 0.472192 0.582066
O O7 0.899350 0.562919 0.789941
O O8 0.080174 0.529757 0.570384
O O9 0.260561 0.250000 0.027648
O O10 0.079586 0.013555 0.103047
O O11 0.391173 0.978416 0.955576
O O12 0.450380 0.250000 0.474346
O O13 0.500000 0.000000 0.500000
O O14 0.446141 0.250000 0.092485
O O15 0.260742 0.011881 0.248104
O O16 0.500000 0.000000 0.000000
O O17 0.066837 0.250000 0.401041
O O18 0.000000 0.500000 0.500000
O O19 0.836789 0.250000 0.002879
#
# Coordination Sequence:
#
# PCOD8076134 Si02
#       7
#     4   4   4   4   4   4   4
#     4  10  21  39  61  85 118 159 202 250 308 365
#     4  10  22  42  63  87 124 164 209 260 310 373
#     4  11  22  38  62  91 122 160 204 252 310 367
#     4  12  25  40  61  90 123 162 207 254 310 372
#     4  11  22  40  64  91 123 158 203 256 310 371
#     4  10  23  43  65  93 127 166 209 259 317 377
#     4  10  21  37  59  89 120 155 201 252 304 365
#
# _framework density 20.297139999999999
#
# number of rings (size 3 to 8) (size 9 to 14) (size 15 to 20)
#    0.000    1.429    1.429    3.857    0.000    8.000 
#    0.000    2.857    0.000    0.000    0.000    0.000 
#    0.000    0.000    0.000    0.000    0.000    0.000 
#
# Total GULP energy -347278.063245 kJ/mol
# GULP energy per Si atom -12402.787973 kJ/mol
# Density = 2.025094 g / cm^3
# Si number density = 20.297140 Si / 1000 Ang^3
#
#
#
# Elastic Constant Matrix: (Units=GPa)
#
#
# Indices 1 2 3 4 5 6 
#
# 1 99.3182 42.2032 42.6565 0.0000 12.3644 0.0000
# 2 42.2032 119.4448 51.3194 0.0000 -0.3624 0.0000
# 3 42.6565 51.3194 108.1866 0.0000 4.0917 0.0000
# 4 0.0000 0.0000 0.0000 36.7328 0.0000 2.5175
# 5 12.3644 -0.3624 4.0917 0.0000 29.0596 0.0000
# 6 0.0000 0.0000 0.0000 2.5175 0.0000 39.2839
#
#
#
# Elastic Compliance Matrix: (Units=1/GPa)
#
#
# Indices 1 2 3 4 5 6 
#
# 1 0.013696 -0.003294 -0.003635 0.000000 -0.005357 0.000000
# 2 -0.003294 0.011328 -0.004155 0.000000 0.002128 0.000000
# 3 -0.003635 -0.004155 0.012659 0.000000 -0.000287 0.000000
# 4 0.000000 0.000000 0.000000 0.027344 0.000000 -0.001752
# 5 -0.005357 0.002128 -0.000287 0.000000 0.036758 0.000000
# 6 0.000000 0.000000 0.000000 -0.001752 0.000000 0.025568
#
#
# Mechanical properties :
#
#
# Convention : Reuss Voigt Hill
#
# Bulk Modulus (GPa) = 64.45697 66.58974 65.52336
# Shear Modulus (GPa) = 32.32222 33.73329 33.02775
#
# Velocity S-wave (km/s) = 3.99488 4.08115 4.03825
# Velocity P-wave (km/s) = 7.28728 7.42202 7.35496
#
# Compressibility (1/GPa) = 0.01551423
#
# Stress axis : x y z
#
# Youngs Moduli (GPa) = 73.01153 88.28054 78.99791
#
# Poissons Ratio (x) = 0.29077 0.28718
# Poissons Ratio (y) = 0.24048 0.32825
# Poissons Ratio (z) = 0.26542 0.36682
#
# Static dielectric constant tensor:
#      x y z
#    x 3.822580 0.000000 -0.035180 
#    y 0.000000 3.716950 0.000000 
#    z -0.035180 0.000000 3.815260 
# 
# 
# High freq. dielectric constant tensor:
#      x y z
#    x 1.799850 0.000000 0.003550 
#    y 0.000000 1.797860 0.000000 
#    z 0.003550 0.000000 1.793570 
# 
# From -- ./inp_files/65395.got.cif
#   From: 2010.06.25/outbox.cif.g09.slc.cpg/sg11_33_cif.got.tgz:65395.got - 2010.06.27 23:14:04.
