data_PCOD8076256
_publ_section_title
;
Structure prediction by ZEFSAII (Michael W. Deem and Ramdas Pophale) SiO2 
 PCOD8076256
Probable space group: P 21/M
;
_chemical_formula_sum "Si O2"
_cell_formula_units_Z 28
_cell_length_a 21.802368
_cell_length_b 8.975218
_cell_length_c 22.941479
_cell_angle_alpha 90.000000
_cell_angle_beta 161.055395
_cell_angle_gamma 90.000000
_cell_volume 1457.439862
_symmetry_space_group_name_H-M "P 21/M"
_symmetry_group_IT_number 11
_symmetry_cell_setting 'monoclinic'
loop_
_space_group_symop_operation_xyz
x,y,z
-x,1/2+y,-z
-x,-y,-z
x,1/2-y,z
loop_
_atom_site_type_symbol
_atom_site_label
_atom_site_fract_x
_atom_site_fract_y
_atom_site_fract_z
Si Si1 0.809369 0.921560 0.310757
Si Si2 0.729335 0.073318 0.022586
Si Si3 0.149826 0.573638 0.994879
Si Si4 0.040784 0.419884 0.675423
Si Si5 0.361039 0.574771 0.297753
Si Si6 0.638205 0.425285 0.257340
Si Si7 0.233757 0.425689 0.295517
O O1 0.814028 0.750000 0.334378
O O2 0.799119 0.935651 0.231392
O O3 0.641412 0.004587 0.194716
O O4 0.000000 0.000000 0.500000
O O5 0.701889 0.250000 0.999449
O O6 0.898267 0.028592 0.217951
O O7 0.786912 0.011504 0.010753
O O8 0.533501 0.994824 0.861763
O O9 0.144071 0.750000 0.986139
O O10 0.297917 0.520248 0.177133
O O11 0.942063 0.513488 0.824982
O O12 0.037738 0.250000 0.695206
O O13 0.832584 0.465156 0.465679
O O14 0.333233 0.750000 0.279944
O O15 0.229632 0.498202 0.227979
O O16 0.578117 0.526400 0.500804
O O17 0.609094 0.250000 0.224741
O O18 0.221312 0.250000 0.275317
#
# Coordination Sequence:
#
# PCOD8076256 Si02
#       7
#     4   4   4   4   4   4   4
#     4   9  17  32  56  83 108 137 176 222 274 326
#     4  11  23  36  54  80 107 142 187 225 262 316
#     4   9  19  34  50  72 102 136 172 208 252 306
#     4   9  20  38  57  78 107 141 175 218 272 323
#     4   9  17  31  52  76 102 130 163 207 255 303
#     4  10  21  38  58  79 108 143 179 224 274 323
#     4   9  17  31  52  76 101 129 164 207 254 303
#
# _framework density 19.211770999999999
#
# number of rings (size 3 to 8) (size 9 to 14) (size 15 to 20)
#    0.000    2.571    0.000    2.571    0.000    5.143 
#    0.000    5.714    0.000    3.429    0.000    0.000 
#    0.000    0.000    0.000    0.000    0.000    0.000 
#
# Total GULP energy -347129.180797 kJ/mol
# GULP energy per Si atom -12397.470743 kJ/mol
# Density = 1.916804 g / cm^3
# Si number density = 19.211771 Si / 1000 Ang^3
#
#
#
# Elastic Constant Matrix: (Units=GPa)
#
#
# Indices 1 2 3 4 5 6 
#
# 1 130.0701 39.6103 38.3137 0.0000 2.2377 0.0000
# 2 39.6103 68.8468 22.9192 0.0000 -0.2967 0.0000
# 3 38.3137 22.9192 66.5720 0.0000 1.8383 0.0000
# 4 0.0000 0.0000 0.0000 25.8414 0.0000 1.5990
# 5 2.2377 -0.2967 1.8383 0.0000 28.3592 0.0000
# 6 0.0000 0.0000 0.0000 1.5990 0.0000 28.6889
#
#
#
# Elastic Compliance Matrix: (Units=1/GPa)
#
#
# Indices 1 2 3 4 5 6 
#
# 1 0.010365 -0.004501 -0.004400 0.000000 -0.000580 0.000000
# 2 -0.004501 0.018368 -0.003755 0.000000 0.000791 0.000000
# 3 -0.004400 -0.003755 0.018871 0.000000 -0.000915 0.000000
# 4 0.000000 0.000000 0.000000 0.038832 0.000000 -0.002164
# 5 -0.000580 0.000791 -0.000915 0.000000 0.035375 0.000000
# 6 0.000000 0.000000 0.000000 -0.002164 0.000000 0.034977
#
#
# Mechanical properties :
#
#
# Convention : Reuss Voigt Hill
#
# Bulk Modulus (GPa) = 44.85732 51.90836 48.38284
# Shear Modulus (GPa) = 26.38090 27.55427 26.96759
#
# Velocity S-wave (km/s) = 3.70964 3.79124 3.75066
# Velocity P-wave (km/s) = 6.46128 6.80018 6.63289
#
# Compressibility (1/GPa) = 0.02229291
#
# Stress axis : x y z
#
# Youngs Moduli (GPa) = 96.48023 54.44195 52.99021
#
# Poissons Ratio (x) = 0.24505 0.23313
# Poissons Ratio (y) = 0.43428 0.19898
# Poissons Ratio (z) = 0.42447 0.20443
#
# Static dielectric constant tensor:
#      x y z
#    x 3.863220 0.000000 0.078750 
#    y 0.000000 3.445020 0.000000 
#    z 0.078750 0.000000 3.524320 
# 
# 
# High freq. dielectric constant tensor:
#      x y z
#    x 1.747330 0.000000 0.002970 
#    y 0.000000 1.734790 0.000000 
#    z 0.002970 0.000000 1.747870 
# 
# From -- ./inp_files/69827.got.cif
#   From: 2010.06.25/outbox.cif.g09.slc.cpg/sg11_35_cif.got.tgz:69827.got - 2010.06.27 23:14:04.
