data_PCOD8076243
_publ_section_title
;
Structure prediction by ZEFSAII (Michael W. Deem and Ramdas Pophale) SiO2 
 PCOD8076243
Probable space group: P 21/M
;
_chemical_formula_sum "Si O2"
_cell_formula_units_Z 32
_cell_length_a 22.057715
_cell_length_b 8.843669
_cell_length_c 27.945269
_cell_angle_alpha 90.000000
_cell_angle_beta 18.726771
_cell_angle_gamma 90.000000
_cell_volume 1750.174906
_symmetry_space_group_name_H-M "P 21/M"
_symmetry_group_IT_number 11
_symmetry_cell_setting 'monoclinic'
loop_
_space_group_symop_operation_xyz
x,y,z
-x,1/2+y,-z
-x,-y,-z
x,1/2-y,z
loop_
_atom_site_type_symbol
_atom_site_label
_atom_site_fract_x
_atom_site_fract_y
_atom_site_fract_z
Si Si1 0.000515 0.078055 0.202117
Si Si2 0.008266 0.071300 0.942067
Si Si3 0.296586 0.427340 0.148970
Si Si4 0.280317 0.425140 0.909874
Si Si5 0.285547 0.928181 0.416815
Si Si6 0.999129 0.072645 0.698439
Si Si7 0.297435 0.573499 0.655995
Si Si8 0.001411 0.574958 0.549965
O O1 0.999941 0.250000 0.221770
O O2 0.815332 0.046889 0.308847
O O3 0.001443 0.962456 0.245015
O O4 0.187405 0.047049 0.031018
O O5 0.026062 0.250000 0.932480
O O6 0.191303 0.006262 0.778891
O O7 0.000000 0.000000 0.000000
O O8 0.817703 0.027874 0.056642
O O9 0.315216 0.250000 0.126151
O O10 0.182087 0.495419 0.190174
O O11 0.189759 0.463421 0.278441
O O12 0.500000 0.500000 0.000000
O O13 0.255334 0.250000 0.913623
O O14 0.497413 0.474101 0.750301
O O15 0.256222 0.750000 0.446375
O O16 0.179657 0.982724 0.447810
O O17 0.194599 0.011236 0.530276
O O18 0.985453 0.250000 0.700419
O O19 0.500000 0.500000 0.500000
O O20 0.314727 0.750000 0.654917
O O21 0.021917 0.750000 0.525039
O O22 0.000000 0.500000 0.500000
#
# Coordination Sequence:
#
# PCOD8076243 Si02
#       8
#     4   4   4   4   4   4   4   4
#     4   9  19  36  56  79 109 144 178 218 269 322
#     4  11  22  37  57  81 111 145 182 226 273 323
#     4  10  21  38  57  79 108 141 179 221 267 319
#     4   9  19  37  59  81 106 139 181 226 275 327
#     4   9  19  37  57  77 106 142 178 219 268 320
#     4  11  22  35  54  81 110 142 181 222 264 314
#     4  10  21  38  59  83 111 144 183 225 274 329
#     4   9  19  34  53  79 108 139 175 215 260 312
#
# _framework density 18.283887
#
# number of rings (size 3 to 8) (size 9 to 14) (size 15 to 20)
#    0.000    2.250    0.000    4.500    0.000    7.500 
#    0.000    2.500    0.000    0.000    0.000    0.000 
#    0.000    0.000    0.000    0.000    0.000    0.000 
#
# Total GULP energy -396881.412511 kJ/mol
# GULP energy per Si atom -12402.544141 kJ/mol
# Density = 1.824227 g / cm^3
# Si number density = 18.283887 Si / 1000 Ang^3
#
#
#
# Elastic Constant Matrix: (Units=GPa)
#
#
# Indices 1 2 3 4 5 6 
#
# 1 116.8187 64.9797 74.5140 0.0000 14.3510 0.0000
# 2 64.9797 116.1507 71.4510 0.0000 1.8541 0.0000
# 3 74.5140 71.4510 164.2531 0.0000 -14.6209 0.0000
# 4 0.0000 0.0000 0.0000 32.6440 0.0000 0.8255
# 5 14.3510 1.8541 -14.6209 0.0000 22.9972 0.0000
# 6 0.0000 0.0000 0.0000 0.8255 0.0000 36.4683
#
#
#
# Elastic Compliance Matrix: (Units=1/GPa)
#
#
# Indices 1 2 3 4 5 6 
#
# 1 0.018075 -0.005430 -0.007211 0.000000 -0.015426 0.000000
# 2 -0.005430 0.013832 -0.003553 0.000000 0.000015 0.000000
# 3 -0.007211 -0.003553 0.012011 0.000000 0.012422 0.000000
# 4 0.000000 0.000000 0.000000 0.030651 0.000000 -0.000694
# 5 -0.015426 0.000015 0.012422 0.000000 0.061007 0.000000
# 6 0.000000 0.000000 0.000000 -0.000694 0.000000 0.027437
#
#
# Mechanical properties :
#
#
# Convention : Reuss Voigt Hill
#
# Bulk Modulus (GPa) = 86.72066 91.01246 88.86656
# Shear Modulus (GPa) = 25.09485 30.84043 27.96764
#
# Velocity S-wave (km/s) = 3.70876 4.11147 3.91530
# Velocity P-wave (km/s) = 8.11622 8.51025 8.31557
#
# Compressibility (1/GPa) = 0.01153128
#
# Stress axis : x y z
#
# Youngs Moduli (GPa) = 55.32360 72.29395 83.25932
#
# Poissons Ratio (x) = 0.39255 0.60039
# Poissons Ratio (y) = 0.30041 0.29578
# Poissons Ratio (z) = 0.39894 0.25683
#
# Static dielectric constant tensor:
#      x y z
#    x 3.310190 0.000000 -0.027670 
#    y 0.000000 3.385330 0.000000 
#    z -0.027670 0.000000 3.502410 
# 
# 
# High freq. dielectric constant tensor:
#      x y z
#    x 1.709200 0.000000 0.000110 
#    y 0.000000 1.712260 0.000000 
#    z 0.000110 0.000000 1.715510 
# 
# From -- ./inp_files/72110.got.cif
#   From: 2010.06.25/outbox.cif.g09.slc.cpg/sg11_37_cif.got.tgz:72110.got - 2010.06.27 23:14:04.
