data_PCOD8077437
_publ_section_title
;
Structure prediction by ZEFSAII (Michael W. Deem and Ramdas Pophale) SiO2 
 PCOD8077437
Probable space group: P 21/M
;
_chemical_formula_sum "Si O2"
_cell_formula_units_Z 20
_cell_length_a 11.915707
_cell_length_b 8.712952
_cell_length_c 9.558487
_cell_angle_alpha 90.000000
_cell_angle_beta 103.385453
_cell_angle_gamma 90.000000
_cell_volume 965.413434
_symmetry_space_group_name_H-M "P 21/M"
_symmetry_group_IT_number 11
_symmetry_cell_setting 'monoclinic'
loop_
_space_group_symop_operation_xyz
x,y,z
-x,1/2+y,-z
-x,-y,-z
x,1/2-y,z
loop_
_atom_site_type_symbol
_atom_site_label
_atom_site_fract_x
_atom_site_fract_y
_atom_site_fract_z
Si Si1 0.591405 0.430250 0.630534
Si Si2 0.984230 0.929835 0.149137
Si Si3 0.530650 0.429971 0.155005
Si Si4 0.228440 0.075235 0.724854
Si Si5 0.174600 0.072066 0.398080
O O1 0.500000 0.500000 0.500000
O O2 0.576082 0.250000 0.626172
O O3 0.565589 0.496860 0.774413
O O4 0.719428 0.472809 0.624839
O O5 0.014661 0.750000 0.153352
O O6 0.853885 0.957087 0.165991
O O7 0.063020 0.014703 0.284500
O O8 0.000000 0.000000 0.000000
O O9 0.513611 0.250000 0.148917
O O10 0.661129 0.465922 0.238696
O O11 0.500000 0.500000 0.000000
O O12 0.273536 0.250000 0.742085
O O13 0.159048 0.045803 0.560170
O O14 0.196063 0.250000 0.369606
#
# Coordination Sequence:
#
# PCOD8077437 Si02
#       5
#     4   4   4   4   4
#     4  12  24  42  67  99 134 171 218 267 324 389
#     4  11  25  44  66  95 131 171 218 272 329 388
#     4  12  26  43  67  97 134 176 218 269 327 388
#     4  10  23  44  68  94 129 171 221 270 322 388
#     4  11  23  42  69  97 129 171 218 270 326 387
#
# _framework density 20.716511000000001
#
# number of rings (size 3 to 8) (size 9 to 14) (size 15 to 20)
#    0.000    0.800    2.000    5.400    2.800    2.400 
#    0.000    0.000    0.000    0.000    0.000    0.000 
#    0.000    0.000    0.000    0.000    0.000    0.000 
#
# Total GULP energy -248087.966326 kJ/mol
# GULP energy per Si atom -12404.398316 kJ/mol
# Density = 2.066936 g / cm^3
# Si number density = 20.716511 Si / 1000 Ang^3
#
#
#
# Elastic Constant Matrix: (Units=GPa)
#
#
# Indices 1 2 3 4 5 6 
#
# 1 72.3057 33.6219 24.0240 0.0000 -15.8850 0.0000
# 2 33.6219 164.1908 50.2554 0.0000 -10.3204 0.0000
# 3 24.0240 50.2554 121.2209 0.0000 -17.3720 0.0000
# 4 0.0000 0.0000 0.0000 39.7052 0.0000 3.1920
# 5 -15.8850 -10.3204 -17.3720 0.0000 43.7169 0.0000
# 6 0.0000 0.0000 0.0000 3.1920 0.0000 38.3457
#
#
#
# Elastic Compliance Matrix: (Units=1/GPa)
#
#
# Indices 1 2 3 4 5 6 
#
# 1 0.016616 -0.002638 -0.001509 0.000000 0.004815 0.000000
# 2 -0.002638 0.007406 -0.002581 0.000000 -0.000236 0.000000
# 3 -0.001509 -0.002581 0.010024 0.000000 0.002825 0.000000
# 4 0.000000 0.000000 0.000000 0.025355 0.000000 -0.002111
# 5 0.004815 -0.000236 0.002825 0.000000 0.025691 0.000000
# 6 0.000000 0.000000 0.000000 -0.002111 0.000000 0.026254
#
#
# Mechanical properties :
#
#
# Convention : Reuss Voigt Hill
#
# Bulk Modulus (GPa) = 48.57110 63.72444 56.14777
# Shear Modulus (GPa) = 37.97480 41.00797 39.49138
#
# Velocity S-wave (km/s) = 4.28608 4.45396 4.37083
# Velocity P-wave (km/s) = 6.92752 7.56818 7.25492
#
# Compressibility (1/GPa) = 0.02058838
#
# Stress axis : x y z
#
# Youngs Moduli (GPa) = 60.18257 135.02728 99.76465
#
# Poissons Ratio (x) = 0.35619 0.15058
# Poissons Ratio (y) = 0.15875 0.25753
# Poissons Ratio (z) = 0.09084 0.34855
#
# Static dielectric constant tensor:
#      x y z
#    x 6.712610 0.000000 -0.877520 
#    y 0.000000 4.712890 0.000000 
#    z -0.877520 0.000000 4.157740 
# 
# 
# High freq. dielectric constant tensor:
#      x y z
#    x 1.816270 0.000000 -0.008670 
#    y 0.000000 1.824990 0.000000 
#    z -0.008670 0.000000 1.826180 
# 
# From -- ./inp_files/15887.got.cif
#   From: 2010.06.25/outbox.cif.g09.slc.cpg/sg11_8_cif.got.tgz:15887.got - 2010.06.27 23:14:04.
