data_PCOD8077703
_publ_section_title
;
Structure prediction by ZEFSAII (Michael W. Deem and Ramdas Pophale) SiO2 
 PCOD8077703
Probable space group: P 21/M
;
_chemical_formula_sum "Si O2"
_cell_formula_units_Z 32
_cell_length_a 15.179235
_cell_length_b 8.745135
_cell_length_c 25.698043
_cell_angle_alpha 90.000000
_cell_angle_beta 151.087521
_cell_angle_gamma 90.000000
_cell_volume 1649.258468
_symmetry_space_group_name_H-M "P 21/M"
_symmetry_group_IT_number 11
_symmetry_cell_setting 'monoclinic'
loop_
_space_group_symop_operation_xyz
x,y,z
-x,1/2+y,-z
-x,-y,-z
x,1/2-y,z
loop_
_atom_site_type_symbol
_atom_site_label
_atom_site_fract_x
_atom_site_fract_y
_atom_site_fract_z
Si Si1 0.860406 0.577174 0.664650
Si Si2 0.790329 0.922921 0.514723
Si Si3 0.439362 0.071107 0.297126
Si Si4 0.787794 0.426922 0.731291
Si Si5 0.191560 0.570131 0.082885
Si Si6 0.800550 0.572742 0.022145
Si Si7 0.480505 0.928087 0.046154
Si Si8 0.885038 0.573133 0.275469
O O1 0.892930 0.750000 0.701229
O O2 0.733766 0.574272 0.547110
O O3 0.763506 0.478758 0.659165
O O4 0.056352 0.503057 0.749847
O O5 0.792492 0.750000 0.494453
O O6 0.650599 0.022687 0.408933
O O7 0.995030 0.994684 0.616272
O O8 0.422511 0.250000 0.278387
O O9 0.344023 0.027582 0.301714
O O10 0.349021 0.982576 0.202887
O O11 0.733654 0.250000 0.709014
O O12 0.992596 0.458532 0.855249
O O13 0.171272 0.750000 0.076080
O O14 0.248281 0.521825 0.054480
O O15 0.000000 0.500000 0.000000
O O16 0.764714 0.750000 0.992542
O O17 0.674774 0.516784 0.003669
O O18 0.430939 0.750000 0.016027
O O19 0.671707 0.951566 0.175494
O O20 0.500000 0.000000 0.000000
O O21 0.937073 0.750000 0.299305
#
# Coordination Sequence:
#
# PCOD8077703 Si02
#       8
#     4   4   4   4   4   4   4   4
#     4   9  19  33  53  79 113 152 194 240 294 353
#     4   9  20  37  57  83 114 153 199 247 298 356
#     4  12  24  38  61  86 114 155 199 245 300 360
#     4  11  22  35  54  80 117 156 197 247 296 354
#     4  12  24  42  65  89 121 158 201 253 305 359
#     4  11  24  40  60  89 123 161 205 250 302 362
#     4  11  23  37  59  90 125 163 204 249 303 364
#     4   9  18  35  55  79 113 152 193 239 292 350
#
# _framework density 19.402659
#
# number of rings (size 3 to 8) (size 9 to 14) (size 15 to 20)
#    0.750    0.750    1.250    4.875    0.000    7.000 
#    0.000    0.000    0.000    0.750    0.000    0.000 
#    0.000    0.000    0.000    0.000    0.000    0.000 
#
# Total GULP energy -396777.413483 kJ/mol
# GULP energy per Si atom -12399.294171 kJ/mol
# Density = 1.935850 g / cm^3
# Si number density = 19.402659 Si / 1000 Ang^3
#
#
#
# Elastic Constant Matrix: (Units=GPa)
#
#
# Indices 1 2 3 4 5 6 
#
# 1 38.5557 16.8120 0.2001 0.0000 -0.6067 0.0000
# 2 16.8120 134.1867 41.1017 0.0000 3.0424 0.0000
# 3 0.2001 41.1017 78.1912 0.0000 2.1121 0.0000
# 4 0.0000 0.0000 0.0000 30.8050 0.0000 -2.5237
# 5 -0.6067 3.0424 2.1121 0.0000 24.2729 0.0000
# 6 0.0000 0.0000 0.0000 -2.5237 0.0000 29.7367
#
#
#
# Elastic Compliance Matrix: (Units=1/GPa)
#
#
# Indices 1 2 3 4 5 6 
#
# 1 0.027745 -0.004135 0.002075 0.000000 0.001031 0.000000
# 2 -0.004135 0.009511 -0.004966 0.000000 -0.000863 0.000000
# 3 0.002075 -0.004966 0.015412 0.000000 -0.000667 0.000000
# 4 0.000000 0.000000 0.000000 0.032690 0.000000 0.002774
# 5 0.001031 -0.000863 -0.000667 0.000000 0.041390 0.000000
# 6 0.000000 0.000000 0.000000 0.002774 0.000000 0.033864
#
#
# Mechanical properties :
#
#
# Convention : Reuss Voigt Hill
#
# Bulk Modulus (GPa) = 25.89582 40.79569 33.34575
# Shear Modulus (GPa) = 26.66163 29.81757 28.23960
#
# Velocity S-wave (km/s) = 3.71094 3.92443 3.81917
# Velocity P-wave (km/s) = 5.63355 6.45030 6.05571
#
# Compressibility (1/GPa) = 0.03861627
#
# Stress axis : x y z
#
# Youngs Moduli (GPa) = 36.04255 105.14246 64.88433
#
# Poissons Ratio (x) = 0.43476 -0.13462
# Poissons Ratio (y) = 0.14904 0.32219
# Poissons Ratio (z) = -0.07478 0.52209
#
# Static dielectric constant tensor:
#      x y z
#    x 3.294680 0.000000 -0.017800 
#    y 0.000000 3.711310 0.000000 
#    z -0.017800 0.000000 3.568340 
# 
# 
# High freq. dielectric constant tensor:
#      x y z
#    x 1.722580 0.000000 -0.001350 
#    y 0.000000 1.775100 0.000000 
#    z -0.001350 0.000000 1.757540 
# 
# From -- ./inp_files/71649.got.cif
#   From: 2010.06.25/outbox.cif.g09.slc.cpg/sg11_36_cif.got.tgz:71649.got - 2010.06.27 23:14:04.
