data_PCOD8077671
_publ_section_title
;
Structure prediction by ZEFSAII (Michael W. Deem and Ramdas Pophale) SiO2 
 PCOD8077671
Probable space group: P 21/M
;
_chemical_formula_sum "Si O2"
_cell_formula_units_Z 20
_cell_length_a 16.299516
_cell_length_b 10.025847
_cell_length_c 11.686795
_cell_angle_alpha 90.000000
_cell_angle_beta 29.837236
_cell_angle_gamma 90.000000
_cell_volume 950.204968
_symmetry_space_group_name_H-M "P 21/M"
_symmetry_group_IT_number 11
_symmetry_cell_setting 'monoclinic'
loop_
_space_group_symop_operation_xyz
x,y,z
-x,1/2+y,-z
-x,-y,-z
x,1/2-y,z
loop_
_atom_site_type_symbol
_atom_site_label
_atom_site_fract_x
_atom_site_fract_y
_atom_site_fract_z
Si Si1 0.852820 0.250000 0.810012
Si Si2 0.034716 0.250000 0.364754
Si Si3 0.489357 0.750000 0.907921
Si Si4 0.405934 0.010713 0.358349
Si Si5 0.145122 0.099718 0.853983
Si Si6 0.692367 0.250000 0.646784
Si Si7 0.776185 0.973425 0.986667
O O1 0.004010 0.250000 0.538068
O O2 0.684022 0.250000 0.945355
O O3 0.859849 0.380355 0.881469
O O4 0.866071 0.250000 0.498855
O O5 0.137616 0.382076 0.212678
O O6 0.588573 0.617405 0.751968
O O7 0.460587 0.750000 0.079026
O O8 0.315625 0.879355 0.422847
O O9 0.584246 0.975926 0.190859
O O10 0.304323 0.071910 0.585218
O O11 0.082317 0.250000 0.908424
O O12 0.199057 0.087741 0.919451
O O13 0.000000 0.000000 0.000000
#
# Coordination Sequence:
#
# PCOD8077671 Si02
#       7
#     2   2   2   4   4   2   4
#     4   9  22  38  67  94 129 168 212 261 318 381
#     4  11  21  42  61  98 135 168 210 263 316 379
#     4   9  20  42  63  96 131 166 214 263 312 381
#     4  11  23  43  67  95 127 172 216 262 319 377
#     4  12  27  46  67  95 130 166 213 268 326 385
#     4  11  23  38  67  96 133 170 210 263 320 379
#     4  11  23  43  67  94 129 169 217 264 315 382
#
# _framework density 21.048090999999999
#
# number of rings (size 3 to 8) (size 9 to 14) (size 15 to 20)
#    0.000    1.200    2.000    3.600    2.800    0.000 
#    0.000    6.000    0.000    0.000    0.000    0.000 
#    0.000    0.000    0.000    0.000    0.000    0.000 
#
# Total GULP energy -248126.711015 kJ/mol
# GULP energy per Si atom -12406.335551 kJ/mol
# Density = 2.100018 g / cm^3
# Si number density = 21.048091 Si / 1000 Ang^3
#
#
#
# Elastic Constant Matrix: (Units=GPa)
#
#
# Indices 1 2 3 4 5 6 
#
# 1 56.8534 22.0622 25.4687 0.0000 -4.5546 0.0000
# 2 22.0622 166.7222 48.7594 0.0000 -4.4200 0.0000
# 3 25.4687 48.7594 121.8256 0.0000 4.0530 0.0000
# 4 0.0000 0.0000 0.0000 43.0937 0.0000 5.6336
# 5 -4.5546 -4.4200 4.0530 0.0000 35.9600 0.0000
# 6 0.0000 0.0000 0.0000 5.6336 0.0000 24.4628
#
#
#
# Elastic Compliance Matrix: (Units=1/GPa)
#
#
# Indices 1 2 3 4 5 6 
#
# 1 0.020043 -0.001502 -0.003681 0.000000 0.002769 0.000000
# 2 -0.001502 0.006953 -0.002500 0.000000 0.000946 0.000000
# 3 -0.003681 -0.002500 0.010042 0.000000 -0.001905 0.000000
# 4 0.000000 0.000000 0.000000 0.023926 0.000000 -0.005510
# 5 0.002769 0.000946 -0.001905 0.000000 0.028490 0.000000
# 6 0.000000 0.000000 0.000000 -0.005510 0.000000 0.042147
#
#
# Mechanical properties :
#
#
# Convention : Reuss Voigt Hill
#
# Bulk Modulus (GPa) = 46.14486 59.77578 52.96032
# Shear Modulus (GPa) = 32.42707 37.31069 34.86888
#
# Velocity S-wave (km/s) = 3.92933 4.21484 4.07459
# Velocity P-wave (km/s) = 6.52360 7.22134 6.88132
#
# Compressibility (1/GPa) = 0.02167089
#
# Stress axis : x y z
#
# Youngs Moduli (GPa) = 49.89306 143.82017 99.58065
#
# Poissons Ratio (x) = 0.21606 0.36655
# Poissons Ratio (y) = 0.07496 0.24898
# Poissons Ratio (z) = 0.18365 0.35960
#
# Static dielectric constant tensor:
#      x y z
#    x 3.585750 0.000000 0.163280 
#    y 0.000000 4.068190 0.000000 
#    z 0.163280 0.000000 4.104240 
# 
# 
# High freq. dielectric constant tensor:
#      x y z
#    x 1.810050 0.000000 0.006700 
#    y 0.000000 1.845640 0.000000 
#    z 0.006700 0.000000 1.842720 
# 
# From -- ./inp_files/15992.got.cif
#   From: 2010.06.25/outbox.cif.g09.slc.cpg/sg11_8_cif.got.tgz:15992.got - 2010.06.27 23:14:04.
