data_PCOD8077840
_publ_section_title
;
Structure prediction by ZEFSAII (Michael W. Deem and Ramdas Pophale) SiO2 
 PCOD8077840
Probable space group: P 21/M
;
_chemical_formula_sum "Si O2"
_cell_formula_units_Z 20
_cell_length_a 4.982889
_cell_length_b 24.039761
_cell_length_c 9.397399
_cell_angle_alpha 90.000000
_cell_angle_beta 55.271197
_cell_angle_gamma 90.000000
_cell_volume 925.157520
_symmetry_space_group_name_H-M "P 21/M"
_symmetry_group_IT_number 11
_symmetry_cell_setting 'monoclinic'
loop_
_space_group_symop_operation_xyz
x,y,z
-x,1/2+y,-z
-x,-y,-z
x,1/2-y,z
loop_
_atom_site_type_symbol
_atom_site_label
_atom_site_fract_x
_atom_site_fract_y
_atom_site_fract_z
Si Si1 0.723461 0.583758 0.673611
Si Si2 0.531421 0.098150 0.555553
Si Si3 0.650859 0.976510 0.150572
Si Si4 0.454644 0.368122 0.989268
Si Si5 0.858150 0.684600 0.172205
O O1 0.503247 0.596073 0.602930
O O2 0.621313 0.524281 0.767382
O O3 0.097421 0.585015 0.514581
O O4 0.659442 0.630762 0.812361
O O5 0.315914 0.051375 0.702491
O O6 0.432674 0.158836 0.644234
O O7 0.525338 0.930647 0.077080
O O8 0.000000 0.000000 0.000000
O O9 0.194014 0.332446 0.976952
O O10 0.803654 0.339165 0.871425
O O11 0.852194 0.750000 0.193100
#
# Coordination Sequence:
#
# PCOD8077840 Si02
#       5
#     4   4   4   4   4
#     4  12  23  40  62  97 135 163 200 263 320 378
#     4  11  24  40  63  95 130 166 211 256 317 379
#     4  11  23  41  65  95 136 180 213 251 312 393
#     4  11  24  42  66  95 123 166 220 259 313 390
#     4  11  24  47  69  88 120 169 220 271 320 378
#
# _framework density 21.617937999999999
#
# number of rings (size 3 to 8) (size 9 to 14) (size 15 to 20)
#    0.000    0.800    0.000    9.600    0.000    4.800 
#    0.000    6.000    0.000    0.000    0.000    0.000 
#    0.000    0.000    0.000    0.000    0.000    0.000 
#
# Total GULP energy -248094.496416 kJ/mol
# GULP energy per Si atom -12404.724821 kJ/mol
# Density = 2.156873 g / cm^3
# Si number density = 21.617938 Si / 1000 Ang^3
#
#
#
# Elastic Constant Matrix: (Units=GPa)
#
#
# Indices 1 2 3 4 5 6 
#
# 1 89.7395 44.7541 23.0847 0.0000 6.0017 0.0000
# 2 44.7541 156.3182 52.9978 0.0000 -14.5837 0.0000
# 3 23.0847 52.9978 105.5514 0.0000 2.0802 0.0000
# 4 0.0000 0.0000 0.0000 14.1968 0.0000 -4.3642
# 5 6.0017 -14.5837 2.0802 0.0000 40.3041 0.0000
# 6 0.0000 0.0000 0.0000 -4.3642 0.0000 34.4852
#
#
#
# Elastic Compliance Matrix: (Units=1/GPa)
#
#
# Indices 1 2 3 4 5 6 
#
# 1 0.013543 -0.003868 -0.000953 0.000000 -0.003367 0.000000
# 2 -0.003868 0.009193 -0.003851 0.000000 0.004101 0.000000
# 3 -0.000953 -0.003851 0.011652 0.000000 -0.001853 0.000000
# 4 0.000000 0.000000 0.000000 0.073290 0.000000 0.009275
# 5 -0.003367 0.004101 -0.001853 0.000000 0.026892 0.000000
# 6 0.000000 0.000000 0.000000 0.009275 0.000000 0.030172
#
#
# Mechanical properties :
#
#
# Convention : Reuss Voigt Hill
#
# Bulk Modulus (GPa) = 58.67190 65.92026 62.29608
# Shear Modulus (GPa) = 26.62868 33.18206 29.90537
#
# Velocity S-wave (km/s) = 3.51349 3.92207 3.72339
# Velocity P-wave (km/s) = 6.60748 7.14631 6.88217
#
# Compressibility (1/GPa) = 0.01704393
#
# Stress axis : x y z
#
# Youngs Moduli (GPa) = 73.83913 108.78076 85.81901
#
# Poissons Ratio (x) = 0.42080 0.08181
# Poissons Ratio (y) = 0.28563 0.33045
# Poissons Ratio (z) = 0.07039 0.41886
#
# Static dielectric constant tensor:
#      x y z
#    x 3.885060 0.000000 0.107150 
#    y 0.000000 3.892770 0.000000 
#    z 0.107150 0.000000 4.111040 
# 
# 
# High freq. dielectric constant tensor:
#      x y z
#    x 1.863720 0.000000 0.007340 
#    y 0.000000 1.829310 0.000000 
#    z 0.007340 0.000000 1.859460 
# 
# From -- ./inp_files/10406.got.cif
#   From: 2010.06.25/outbox.cif.g09.slc.cpg/sg11_6_cif.got.tgz:10406.got - 2010.06.27 23:14:04.
