data_PCOD8077902
_publ_section_title
;
Structure prediction by ZEFSAII (Michael W. Deem and Ramdas Pophale) SiO2 
 PCOD8077902
Probable space group: P 21/M
;
_chemical_formula_sum "Si O2"
_cell_formula_units_Z 28
_cell_length_a 21.832838
_cell_length_b 13.868448
_cell_length_c 9.231089
_cell_angle_alpha 90.000000
_cell_angle_beta 27.874590
_cell_angle_gamma 90.000000
_cell_volume 1306.795856
_symmetry_space_group_name_H-M "P 21/M"
_symmetry_group_IT_number 11
_symmetry_cell_setting 'monoclinic'
loop_
_space_group_symop_operation_xyz
x,y,z
-x,1/2+y,-z
-x,-y,-z
x,1/2-y,z
loop_
_atom_site_type_symbol
_atom_site_label
_atom_site_fract_x
_atom_site_fract_y
_atom_site_fract_z
Si Si1 0.711296 0.140311 0.174953
Si Si2 0.173909 0.362646 0.796264
Si Si3 0.183411 0.450034 0.462026
Si Si4 0.050884 0.518106 0.234581
Si Si5 0.413694 0.364232 0.797098
Si Si6 0.577393 0.637723 0.540507
Si Si7 0.287719 0.640537 0.167093
O O1 0.728337 0.250000 0.191054
O O2 0.563536 0.104913 0.520092
O O3 0.812846 0.076132 0.053145
O O4 0.742302 0.132527 0.940272
O O5 0.140457 0.250000 0.867046
O O6 0.160717 0.405373 0.665127
O O7 0.319971 0.383775 0.548305
O O8 0.071315 0.414480 0.116231
O O9 0.193406 0.567056 0.450751
O O10 0.058573 0.421644 0.624626
O O11 0.316574 0.410843 0.114472
O O12 0.000000 0.500000 0.500000
O O13 0.398056 0.250000 0.840432
O O14 0.378276 0.404548 0.709382
O O15 0.558328 0.750000 0.548601
O O16 0.435115 0.601407 0.887859
O O17 0.264888 0.750000 0.270998
#
# Coordination Sequence:
#
# PCOD8077902 Si02
#       7
#     4   4   4   4   4   4   4
#     4   9  20  40  66  97 132 165 214 278 330 377
#     4  11  26  45  63  91 137 176 209 266 329 391
#     4  12  24  39  66  98 131 173 215 262 326 397
#     4  12  25  43  67  99 124 169 231 271 319 390
#     4   9  19  38  66  98 128 166 214 269 326 386
#     4   8  17  36  61  89 121 166 216 259 315 375
#     4   9  19  37  62  94 129 166 211 268 326 377
#
# _framework density 21.426454
#
# number of rings (size 3 to 8) (size 9 to 14) (size 15 to 20)
#    0.000    2.000    1.429    3.429    2.000    4.000 
#    0.000    0.714    0.000    0.000    0.000    0.000 
#    0.000    0.000    0.000    0.000    0.000    0.000 
#
# Total GULP energy -347196.795706 kJ/mol
# GULP energy per Si atom -12399.885561 kJ/mol
# Density = 2.137769 g / cm^3
# Si number density = 21.426454 Si / 1000 Ang^3
#
#
#
# Elastic Constant Matrix: (Units=GPa)
#
#
# Indices 1 2 3 4 5 6 
#
# 1 134.1068 57.2580 74.1129 0.0000 3.0773 0.0000
# 2 57.2580 94.2978 63.9210 0.0000 -0.0020 0.0000
# 3 74.1129 63.9210 85.7435 0.0000 -7.1781 0.0000
# 4 0.0000 0.0000 0.0000 34.3193 0.0000 2.1973
# 5 3.0773 -0.0020 -7.1781 0.0000 27.6602 0.0000
# 6 0.0000 0.0000 0.0000 2.1973 0.0000 31.8617
#
#
#
# Elastic Compliance Matrix: (Units=1/GPa)
#
#
# Indices 1 2 3 4 5 6 
#
# 1 0.014956 -0.000057 -0.013314 0.000000 -0.005119 0.000000
# 2 -0.000057 0.021936 -0.016665 0.000000 -0.004317 0.000000
# 3 -0.013314 -0.016665 0.036511 0.000000 0.010955 0.000000
# 4 0.000000 0.000000 0.000000 0.029267 0.000000 -0.002018
# 5 -0.005119 -0.004317 0.010955 0.000000 0.039565 0.000000
# 6 0.000000 0.000000 0.000000 -0.002018 0.000000 0.031525
#
#
# Mechanical properties :
#
#
# Convention : Reuss Voigt Hill
#
# Bulk Modulus (GPa) = 75.00790 78.30355 76.65572
# Shear Modulus (GPa) = 20.98408 26.69201 23.83804
#
# Velocity S-wave (km/s) = 3.13286 3.53335 3.33911
# Velocity P-wave (km/s) = 6.94043 7.29868 7.12180
#
# Compressibility (1/GPa) = 0.01333193
#
# Stress axis : x y z
#
# Youngs Moduli (GPa) = 66.86242 45.58752 27.38870
#
# Poissons Ratio (x) = 0.00258 0.36464
# Poissons Ratio (y) = 0.00379 0.45644
# Poissons Ratio (z) = 0.89018 0.75973
#
# Static dielectric constant tensor:
#      x y z
#    x 3.792490 0.000000 -0.306190 
#    y 0.000000 4.041080 0.000000 
#    z -0.306190 0.000000 3.790210 
# 
# 
# High freq. dielectric constant tensor:
#      x y z
#    x 1.827940 0.000000 -0.021710 
#    y 0.000000 1.849130 0.000000 
#    z -0.021710 0.000000 1.833360 
# 
# From -- ./inp_files/26903.got.cif
#   From: 2010.06.25/outbox.cif.g09.slc.cpg/sg11_14_cif.got.tgz:26903.got - 2010.06.27 23:14:04.
