data_PCOD8077753
_publ_section_title
;
Structure prediction by ZEFSAII (Michael W. Deem and Ramdas Pophale) SiO2 
 PCOD8077753
Probable space group: P 21/M
;
_chemical_formula_sum "Si O2"
_cell_formula_units_Z 20
_cell_length_a 9.855948
_cell_length_b 18.649181
_cell_length_c 6.916715
_cell_angle_alpha 90.000000
_cell_angle_beta 50.806793
_cell_angle_gamma 90.000000
_cell_volume 985.304876
_symmetry_space_group_name_H-M "P 21/M"
_symmetry_group_IT_number 11
_symmetry_cell_setting 'monoclinic'
loop_
_space_group_symop_operation_xyz
x,y,z
-x,1/2+y,-z
-x,-y,-z
x,1/2-y,z
loop_
_atom_site_type_symbol
_atom_site_label
_atom_site_fract_x
_atom_site_fract_y
_atom_site_fract_z
Si Si1 0.579429 0.330884 0.301900
Si Si2 0.086175 0.483880 0.624416
Si Si3 0.691604 0.666858 0.123743
Si Si4 0.061664 0.611465 0.921128
Si Si5 0.417009 0.073866 0.142826
O O1 0.532599 0.250000 0.284958
O O2 0.449813 0.356346 0.588800
O O3 0.779750 0.333417 0.192497
O O4 0.559930 0.379517 0.128607
O O5 0.120482 0.559388 0.696053
O O6 0.266390 0.442136 0.433125
O O7 0.000000 0.500000 0.500000
O O8 0.958704 0.434723 0.865930
O O9 0.669960 0.750000 0.085250
O O10 0.661676 0.617485 0.965201
O O11 0.886281 0.654538 0.029076
O O12 0.500000 0.000000 0.000000
#
# Coordination Sequence:
#
# PCOD8077753 Si02
#       5
#     4   4   4   4   4
#     4  11  25  44  64  95 131 170 217 266 321 386
#     4  11  22  39  64 100 128 160 216 267 318 381
#     4  11  24  44  66  93 130 174 216 263 323 387
#     4  11  23  41  68  94 128 169 215 264 320 380
#     4  12  24  41  69  96 133 171 213 270 327 376
#
# _framework density 20.298286999999998
#
# number of rings (size 3 to 8) (size 9 to 14) (size 15 to 20)
#    0.000    0.800    4.000    3.600    2.800    1.600 
#    0.000    0.000    0.000    0.000    0.000    0.000 
#    0.000    0.000    0.000    0.000    0.000    0.000 
#
# Total GULP energy -248097.250748 kJ/mol
# GULP energy per Si atom -12404.862537 kJ/mol
# Density = 2.025209 g / cm^3
# Si number density = 20.298287 Si / 1000 Ang^3
#
#
#
# Elastic Constant Matrix: (Units=GPa)
#
#
# Indices 1 2 3 4 5 6 
#
# 1 129.2691 34.0748 52.4500 0.0000 -8.3737 0.0000
# 2 34.0748 97.2298 42.1291 0.0000 7.6378 0.0000
# 3 52.4500 42.1291 96.1693 0.0000 6.2890 0.0000
# 4 0.0000 0.0000 0.0000 31.3482 0.0000 0.2599
# 5 -8.3737 7.6378 6.2890 0.0000 34.8809 0.0000
# 6 0.0000 0.0000 0.0000 0.2599 0.0000 37.1916
#
#
#
# Elastic Compliance Matrix: (Units=1/GPa)
#
#
# Indices 1 2 3 4 5 6 
#
# 1 0.010578 -0.001730 -0.005264 0.000000 0.003867 0.000000
# 2 -0.001730 0.013090 -0.004631 0.000000 -0.002447 0.000000
# 3 -0.005264 -0.004631 0.015497 0.000000 -0.003044 0.000000
# 4 0.000000 0.000000 0.000000 0.031902 0.000000 -0.000223
# 5 0.003867 -0.002447 -0.003044 0.000000 0.030682 0.000000
# 6 0.000000 0.000000 0.000000 -0.000223 0.000000 0.026889
#
#
# Mechanical properties :
#
#
# Convention : Reuss Voigt Hill
#
# Bulk Modulus (GPa) = 62.83372 64.44176 63.63774
# Shear Modulus (GPa) = 31.80790 33.61843 32.71317
#
# Velocity S-wave (km/s) = 3.96286 4.07408 4.01886
# Velocity P-wave (km/s) = 7.20843 7.34487 7.27697
#
# Compressibility (1/GPa) = 0.01591502
#
# Stress axis : x y z
#
# Youngs Moduli (GPa) = 94.53278 76.39483 64.52807
#
# Poissons Ratio (x) = 0.13217 0.33970
# Poissons Ratio (y) = 0.16354 0.29881
# Poissons Ratio (z) = 0.49766 0.35377
#
# Static dielectric constant tensor:
#      x y z
#    x 3.821270 0.000000 -0.531530 
#    y 0.000000 3.711470 0.000000 
#    z -0.531530 0.000000 4.989450 
# 
# 
# High freq. dielectric constant tensor:
#      x y z
#    x 1.801000 0.000000 -0.000770 
#    y 0.000000 1.798890 0.000000 
#    z -0.000770 0.000000 1.802840 
# 
# From -- ./inp_files/1959.got.cif
#   From: 2010.06.25/outbox.cif.g09.slc.cpg/sg11_1_cif.got.tgz:1959.got - 2010.06.27 23:14:04.
