data_PCOD8077484
_publ_section_title
;
Structure prediction by ZEFSAII (Michael W. Deem and Ramdas Pophale) SiO2 
 PCOD8077484
Probable space group: P 21/M
;
_chemical_formula_sum "Si O2"
_cell_formula_units_Z 28
_cell_length_a 23.804613
_cell_length_b 8.638781
_cell_length_c 21.440483
_cell_angle_alpha 90.000000
_cell_angle_beta 18.365569
_cell_angle_gamma 90.000000
_cell_volume 1389.208055
_symmetry_space_group_name_H-M "P 21/M"
_symmetry_group_IT_number 11
_symmetry_cell_setting 'monoclinic'
loop_
_space_group_symop_operation_xyz
x,y,z
-x,1/2+y,-z
-x,-y,-z
x,1/2-y,z
loop_
_atom_site_type_symbol
_atom_site_label
_atom_site_fract_x
_atom_site_fract_y
_atom_site_fract_z
Si Si1 0.878558 0.567801 0.998279
Si Si2 0.979562 0.931205 0.453392
Si Si3 0.577661 0.930009 0.217614
Si Si4 0.421995 0.068768 0.145061
Si Si5 0.314355 0.069731 0.035556
Si Si6 0.693033 0.067469 0.309134
Si Si7 0.239950 0.430323 0.629127
O O1 0.912873 0.750000 0.959888
O O2 0.056200 0.478378 0.788902
O O3 0.720285 0.518307 0.119021
O O4 0.833020 0.515350 0.116277
O O5 0.008401 0.750000 0.428641
O O6 0.786202 0.973295 0.629481
O O7 0.125634 0.998920 0.253126
O O8 0.000000 0.000000 0.500000
O O9 0.528564 0.750000 0.276618
O O10 0.400772 0.031171 0.412961
O O11 0.658663 0.967494 0.065168
O O12 0.454368 0.250000 0.108656
O O13 0.500000 0.000000 0.000000
O O14 0.521213 0.000980 0.100129
O O15 0.308706 0.250000 0.056168
O O16 0.693639 0.250000 0.296222
O O17 0.500000 0.000000 0.500000
O O18 0.746715 0.033502 0.323092
O O19 0.242036 0.250000 0.643987
#
# Coordination Sequence:
#
# PCOD8077484 Si02
#       7
#     4   4   4   4   4   4   4
#     4  11  23  42  67  93 127 169 215 266 317 376
#     4  11  23  39  63  93 125 161 204 254 310 370
#     4  10  24  45  66  89 124 170 216 260 312 377
#     4  11  23  39  63  94 126 163 203 254 311 370
#     4  11  24  42  65  94 127 166 210 259 315 376
#     4  12  23  39  64  96 129 165 212 265 322 378
#     4  12  25  41  65  95 129 168 212 266 322 377
#
# _framework density 20.155369
#
# number of rings (size 3 to 8) (size 9 to 14) (size 15 to 20)
#    0.000    0.857    2.857    4.714    0.000    4.571 
#    0.000    4.286    0.000    0.000    0.000    0.000 
#    0.000    0.000    0.000    0.000    0.000    0.000 
#
# Total GULP energy -347398.259892 kJ/mol
# GULP energy per Si atom -12407.080710 kJ/mol
# Density = 2.010949 g / cm^3
# Si number density = 20.155369 Si / 1000 Ang^3
#
#
#
# Elastic Constant Matrix: (Units=GPa)
#
#
# Indices 1 2 3 4 5 6 
#
# 1 70.3826 35.1664 49.5515 0.0000 5.8856 0.0000
# 2 35.1664 94.6922 62.9276 0.0000 -6.1423 0.0000
# 3 49.5515 62.9276 163.2299 0.0000 -8.6166 0.0000
# 4 0.0000 0.0000 0.0000 38.4058 0.0000 -0.4117
# 5 5.8856 -6.1423 -8.6166 0.0000 29.7145 0.0000
# 6 0.0000 0.0000 0.0000 -0.4117 0.0000 31.3173
#
#
#
# Elastic Compliance Matrix: (Units=1/GPa)
#
#
# Indices 1 2 3 4 5 6 
#
# 1 0.020489 -0.004930 -0.004658 0.000000 -0.006428 0.000000
# 2 -0.004930 0.015439 -0.004301 0.000000 0.002921 0.000000
# 3 -0.004658 -0.004301 0.009343 0.000000 0.002743 0.000000
# 4 0.000000 0.000000 0.000000 0.026041 0.000000 0.000342
# 5 -0.006428 0.002921 0.002743 0.000000 0.036326 0.000000
# 6 0.000000 0.000000 0.000000 0.000342 0.000000 0.031936
#
#
# Mechanical properties :
#
#
# Convention : Reuss Voigt Hill
#
# Bulk Modulus (GPa) = 57.16990 69.28840 63.22915
# Shear Modulus (GPa) = 28.87089 31.93146 30.40117
#
# Velocity S-wave (km/s) = 3.78883 3.98460 3.88795
# Velocity P-wave (km/s) = 6.89685 7.45796 7.18289
#
# Compressibility (1/GPa) = 0.01749172
#
# Stress axis : x y z
#
# Youngs Moduli (GPa) = 48.80764 64.76951 107.02671
#
# Poissons Ratio (x) = 0.31933 0.49857
# Poissons Ratio (y) = 0.24063 0.46035
# Poissons Ratio (z) = 0.22736 0.27859
#
# Static dielectric constant tensor:
#      x y z
#    x 3.918160 0.000000 -0.504070 
#    y 0.000000 3.760360 0.000000 
#    z -0.504070 0.000000 4.485380 
# 
# 
# High freq. dielectric constant tensor:
#      x y z
#    x 1.784070 0.000000 -0.009610 
#    y 0.000000 1.799940 0.000000 
#    z -0.009610 0.000000 1.803800 
# 
# From -- ./inp_files/66694.got.cif
#   From: 2010.06.25/outbox.cif.g09.slc.cpg/sg11_34_cif.got.tgz:66694.got - 2010.06.27 23:14:04.
