data_PCOD8077637
_publ_section_title
;
Structure prediction by ZEFSAII (Michael W. Deem and Ramdas Pophale) SiO2 
 PCOD8077637
Probable space group: P 21/M
;
_chemical_formula_sum "Si O2"
_cell_formula_units_Z 28
_cell_length_a 9.926710
_cell_length_b 8.809132
_cell_length_c 28.029855
_cell_angle_alpha 90.000000
_cell_angle_beta 38.091661
_cell_angle_gamma 90.000000
_cell_volume 1512.129874
_symmetry_space_group_name_H-M "P 21/M"
_symmetry_group_IT_number 11
_symmetry_cell_setting 'monoclinic'
loop_
_space_group_symop_operation_xyz
x,y,z
-x,1/2+y,-z
-x,-y,-z
x,1/2-y,z
loop_
_atom_site_type_symbol
_atom_site_label
_atom_site_fract_x
_atom_site_fract_y
_atom_site_fract_z
Si Si1 0.999446 0.928821 0.779077
Si Si2 0.731014 0.929018 0.946934
Si Si3 0.110215 0.427272 0.514709
Si Si4 0.518997 0.427815 0.346346
Si Si5 0.754441 0.930069 0.667809
Si Si6 0.196634 0.569433 0.974015
Si Si7 0.649439 0.569411 0.802461
O O1 0.014303 0.750000 0.767426
O O2 0.894270 0.969128 0.858881
O O3 0.850127 0.996762 0.778065
O O4 0.243125 0.001559 0.710432
O O5 0.706244 0.750000 0.961268
O O6 0.500000 0.000000 0.000000
O O7 0.830364 0.006934 0.965493
O O8 0.060617 0.250000 0.530148
O O9 0.369762 0.458557 0.435108
O O10 0.000000 0.500000 0.500000
O O11 0.001358 0.505292 0.591377
O O12 0.547783 0.250000 0.329546
O O13 0.407032 0.492456 0.328883
O O14 0.770309 0.750000 0.662156
O O15 0.669110 0.989226 0.742665
O O16 0.184514 0.750000 0.977382
O O17 0.423017 0.510643 0.887908
O O18 0.000000 0.500000 0.000000
O O19 0.652708 0.750000 0.803191
#
# Coordination Sequence:
#
# PCOD8077637 Si02
#       7
#     4   4   4   4   4   4   4
#     4   9  17  31  52  77 101 135 178 217 254 309
#     4  11  21  36  59  82 109 146 185 227 272 322
#     4   9  16  29  49  74 102 131 166 210 258 310
#     4   8  15  27  48  74  97 127 172 211 248 304
#     4   9  17  30  51  75  99 133 173 214 256 306
#     4  11  23  39  57  82 111 143 185 229 276 327
#     4   9  18  33  52  75 104 137 177 216 257 319
#
# _framework density 18.516926999999999
#
# number of rings (size 3 to 8) (size 9 to 14) (size 15 to 20)
#    0.000    2.571    1.429    2.143    2.000    0.000 
#    0.000    2.143    0.000    2.571    0.000    0.000 
#    0.000    0.000    0.000    0.000    0.000    0.000 
#
# Total GULP energy -347026.820637 kJ/mol
# GULP energy per Si atom -12393.815023 kJ/mol
# Density = 1.847478 g / cm^3
# Si number density = 18.516927 Si / 1000 Ang^3
#
#
#
# Elastic Constant Matrix: (Units=GPa)
#
#
# Indices 1 2 3 4 5 6 
#
# 1 129.0325 17.3015 66.8358 0.0000 -11.3727 0.0000
# 2 17.3015 35.8590 25.2289 0.0000 -2.4821 0.0000
# 3 66.8358 25.2289 134.6786 0.0000 -16.8143 0.0000
# 4 0.0000 0.0000 0.0000 27.4462 0.0000 1.0449
# 5 -11.3727 -2.4821 -16.8143 0.0000 33.9784 0.0000
# 6 0.0000 0.0000 0.0000 1.0449 0.0000 21.7116
#
#
#
# Elastic Compliance Matrix: (Units=1/GPa)
#
#
# Indices 1 2 3 4 5 6 
#
# 1 0.010546 -0.001642 -0.004797 0.000000 0.001036 0.000000
# 2 -0.001642 0.032390 -0.005357 0.000000 -0.000834 0.000000
# 3 -0.004797 -0.005357 0.011255 0.000000 0.003573 0.000000
# 4 0.000000 0.000000 0.000000 0.036502 0.000000 -0.001757
# 5 0.001036 -0.000834 0.003573 0.000000 0.031484 0.000000
# 6 0.000000 0.000000 0.000000 -0.001757 0.000000 0.046143
#
#
# Mechanical properties :
#
#
# Convention : Reuss Voigt Hill
#
# Bulk Modulus (GPa) = 32.67924 57.58917 45.13420
# Shear Modulus (GPa) = 24.73882 29.30751 27.02316
#
# Velocity S-wave (km/s) = 3.65911 3.98268 3.82432
# Velocity P-wave (km/s) = 5.96144 7.23307 6.62783
#
# Compressibility (1/GPa) = 0.03060047
#
# Stress axis : x y z
#
# Youngs Moduli (GPa) = 94.82247 30.87337 88.84910
#
# Poissons Ratio (x) = 0.05069 0.42618
# Poissons Ratio (y) = 0.15569 0.47596
# Poissons Ratio (z) = 0.45483 0.16539
#
# Static dielectric constant tensor:
#      x y z
#    x 3.539520 0.000000 -0.116220 
#    y 0.000000 3.206870 0.000000 
#    z -0.116220 0.000000 3.900040 
# 
# 
# High freq. dielectric constant tensor:
#      x y z
#    x 1.707880 0.000000 -0.002640 
#    y 0.000000 1.681130 0.000000 
#    z -0.002640 0.000000 1.735380 
# 
# From -- ./inp_files/61229.got.cif
#   From: 2010.06.25/outbox.cif.g09.slc.cpg/sg11_31_cif.got.tgz:61229.got - 2010.06.27 23:14:04.
