data_PCOD8077013
_publ_section_title
;
Structure prediction by ZEFSAII (Michael W. Deem and Ramdas Pophale) SiO2 
 PCOD8077013
Probable space group: P 21/M
;
_chemical_formula_sum "Si O2"
_cell_formula_units_Z 32
_cell_length_a 11.371461
_cell_length_b 14.594463
_cell_length_c 16.893472
_cell_angle_alpha 90.000000
_cell_angle_beta 33.168265
_cell_angle_gamma 90.000000
_cell_volume 1533.874251
_symmetry_space_group_name_H-M "P 21/M"
_symmetry_group_IT_number 11
_symmetry_cell_setting 'monoclinic'
loop_
_space_group_symop_operation_xyz
x,y,z
-x,1/2+y,-z
-x,-y,-z
x,1/2-y,z
loop_
_atom_site_type_symbol
_atom_site_label
_atom_site_fract_x
_atom_site_fract_y
_atom_site_fract_z
Si Si1 0.208271 0.349149 0.088760
Si Si2 0.481064 0.854482 0.221767
Si Si3 0.021345 0.651847 0.463084
Si Si4 0.241142 0.105510 0.245088
Si Si5 0.880101 0.962905 0.408226
Si Si6 0.038554 0.031422 0.812181
Si Si7 0.417275 0.999910 0.718333
Si Si8 0.654806 0.137905 0.106498
O O1 0.103751 0.250000 0.124763
O O2 0.267776 0.343072 0.147451
O O3 0.050411 0.430314 0.155384
O O4 0.430879 0.361201 0.916715
O O5 0.482841 0.750000 0.253437
O O6 0.243478 0.902625 0.355031
O O7 0.627489 0.916561 0.196040
O O8 0.106389 0.750000 0.386694
O O9 0.884345 0.664956 0.619509
O O10 0.869901 0.617079 0.478531
O O11 0.479704 0.091138 0.146316
O O12 0.097096 0.016138 0.310650
O O13 0.900581 0.924964 0.307349
O O14 0.652673 0.014221 0.546415
O O15 0.249480 0.012139 0.743197
O O16 0.883216 0.101686 0.945229
O O17 0.382871 0.903028 0.783921
O O18 0.646476 0.250000 0.112556
#
# Coordination Sequence:
#
# PCOD8077013 Si02
#       8
#     4   4   4   4   4   4   4   4
#     4  10  22  40  63  95 128 166 212 265 320 380
#     4  10  22  38  65  95 127 169 210 263 319 380
#     4  11  21  37  61  95 129 164 209 262 322 384
#     4  11  22  40  65  96 128 163 205 266 328 381
#     4  11  24  41  69  92 129 171 213 266 320 376
#     4  11  27  43  64  92 130 176 215 262 310 378
#     4  12  23  47  64  92 128 172 224 260 308 375
#     4  12  26  42  66  96 130 167 210 265 328 384
#
# _framework density 20.862206
#
# number of rings (size 3 to 8) (size 9 to 14) (size 15 to 20)
#    0.000    1.000    3.750    3.000    1.750    2.500 
#    0.000    0.000    0.000    3.000    0.000    0.000 
#    0.000    0.000    0.000    0.000    0.000    0.000 
#
# Total GULP energy -396525.096428 kJ/mol
# GULP energy per Si atom -12391.409263 kJ/mol
# Density = 2.081472 g / cm^3
# Si number density = 20.862206 Si / 1000 Ang^3
#
#
#
# Elastic Constant Matrix: (Units=GPa)
#
#
# Indices 1 2 3 4 5 6 
#
# 1 132.7357 42.1898 37.8556 0.0000 -6.6499 0.0000
# 2 42.1898 71.3035 23.3837 0.0000 0.7411 0.0000
# 3 37.8556 23.3837 87.2499 0.0000 6.1166 0.0000
# 4 0.0000 0.0000 0.0000 11.9132 0.0000 -9.7323
# 5 -6.6499 0.7411 6.1166 0.0000 37.6286 0.0000
# 6 0.0000 0.0000 0.0000 -9.7323 0.0000 4.7032
#
#
#
# Elastic Compliance Matrix: (Units=1/GPa)
#
#
# Indices 1 2 3 4 5 6 
#
# 1 0.010161 -0.004973 -0.003246 0.000000 0.002421 0.000000
# 2 -0.004973 0.017815 -0.002560 0.000000 -0.000814 0.000000
# 3 -0.003246 -0.002560 0.013749 0.000000 -0.002758 0.000000
# 4 0.000000 0.000000 0.000000 -0.121572 0.000000 -0.251565
# 5 0.002421 -0.000814 -0.002758 0.000000 0.027468 0.000000
# 6 0.000000 0.000000 0.000000 -0.251565 0.000000 -0.307939
#
#
# Mechanical properties :
#
#
# Convention : Reuss Voigt Hill
#
# Bulk Modulus (GPa) = 49.58321 55.34969 52.46645
# Shear Modulus (GPa) = -15.05856 23.37302 4.15723
#
# Velocity S-wave (km/s) = -2.68957 3.35080 1.41316
# Velocity P-wave (km/s) = 3.76478 6.44664 5.27886
#
# Compressibility (1/GPa) = 0.02016812
#
# Stress axis : x y z
#
# Youngs Moduli (GPa) = 98.41104 56.13208 72.73282
#
# Poissons Ratio (x) = 0.27916 0.23607
# Poissons Ratio (y) = 0.48942 0.18618
# Poissons Ratio (z) = 0.31941 0.14369
#
# Static dielectric constant tensor:
#      x y z
#    x 3.798880 0.000000 0.136320 
#    y 0.000000 3.762290 0.000000 
#    z 0.136320 0.000000 3.951950 
# 
# 
# High freq. dielectric constant tensor:
#      x y z
#    x 1.811480 0.000000 0.007570 
#    y 0.000000 1.809890 0.000000 
#    z 0.007570 0.000000 1.830110 
# 
# From -- ./inp_files/59429.got.cif
#   From: 2010.06.25/outbox.cif.g09.slc.cpg/sg11_30_cif.got.tgz:59429.got - 2010.06.27 23:14:04.
