data_PCOD8077932
_publ_section_title
;
Structure prediction by ZEFSAII (Michael W. Deem and Ramdas Pophale) SiO2 
 PCOD8077932
Probable space group: P 21/M
;
_chemical_formula_sum "Si O2"
_cell_formula_units_Z 32
_cell_length_a 21.046287
_cell_length_b 9.772760
_cell_length_c 9.973250
_cell_angle_alpha 90.000000
_cell_angle_beta 103.705786
_cell_angle_gamma 90.000000
_cell_volume 1992.890774
_symmetry_space_group_name_H-M "P 21/M"
_symmetry_group_IT_number 11
_symmetry_cell_setting 'monoclinic'
loop_
_space_group_symop_operation_xyz
x,y,z
-x,1/2+y,-z
-x,-y,-z
x,1/2-y,z
loop_
_atom_site_type_symbol
_atom_site_label
_atom_site_fract_x
_atom_site_fract_y
_atom_site_fract_z
Si Si1 0.299830 0.913237 0.049154
Si Si2 0.444139 0.597923 0.131772
Si Si3 0.044895 0.590874 0.428419
Si Si4 0.700171 0.413237 0.249324
Si Si5 0.444139 0.902077 0.812367
Si Si6 0.807059 0.412218 0.505523
Si Si7 0.807059 0.087782 0.801536
Si Si8 0.044895 0.590873 0.116475
O O1 0.296786 0.750000 0.043993
O O2 0.372070 0.957388 0.136633
O O3 0.244801 0.975888 0.119824
O O4 0.286454 0.971190 0.893227
O O5 0.455725 0.750000 0.195890
O O6 0.500000 0.500000 0.220874
O O7 0.448259 0.602512 0.974129
O O8 0.032669 0.750000 0.454751
O O9 0.119389 0.548942 0.499998
O O10 0.029624 0.561143 0.264812
O O11 0.000000 0.500000 0.500000
O O12 0.703214 0.250000 0.247207
O O13 0.627930 0.457388 0.264563
O O14 0.755199 0.475888 0.375022
O O15 0.455725 0.750000 0.759835
O O16 0.800325 0.250000 0.505614
O O17 0.791568 0.471149 0.645784
O O18 0.800326 0.250000 0.794712
O O19 0.880611 0.048940 0.880609
O O20 0.032670 0.750000 0.077918
O O21 0.000000 0.500000 0.000000
#
# Coordination Sequence:
#
# PCOD8077932 Si02
#       8
#     4   4   4   4   4   4   4   4
#     4   8  13  21  35  56  77  97 129 170 202 231
#     4   8  13  21  34  53  76 100 126 158 195 233
#     4   9  18  31  46  66  90 114 143 178 214 256
#     4   8  13  21  35  56  77  97 129 170 202 231
#     4   8  13  21  34  53  76 100 126 158 195 233
#     4   8  14  25  40  58  81 107 134 166 203 241
#     4   8  14  25  40  58  81 107 134 166 203 241
#     4   9  18  31  46  66  90 114 143 178 214 256
#
# _framework density 16.057077
#
# number of rings (size 3 to 8) (size 9 to 14) (size 15 to 20)
#    0.000    3.750    0.000    3.000    0.000    1.500 
#    0.000    2.500    0.000    2.250    0.000    3.500 
#    0.000    0.000    0.000    0.000    0.000    0.000 
#
# Total GULP energy -396509.975396 kJ/mol
# GULP energy per Si atom -12390.936731 kJ/mol
# Density = 1.602053 g / cm^3
# Si number density = 16.057077 Si / 1000 Ang^3
#
#
#
# Elastic Constant Matrix: (Units=GPa)
#
#
# Indices 1 2 3 4 5 6 
#
# 1 159.9679 48.8053 84.2672 0.0000 5.1580 0.0000
# 2 48.8053 39.0765 34.1368 0.0000 3.0377 0.0000
# 3 84.2672 34.1368 84.7158 0.0000 10.4259 0.0000
# 4 0.0000 0.0000 0.0000 15.1906 0.0000 1.6670
# 5 5.1580 3.0377 10.4259 0.0000 24.3058 0.0000
# 6 0.0000 0.0000 0.0000 1.6670 0.0000 23.2399
#
#
#
# Elastic Compliance Matrix: (Units=1/GPa)
#
#
# Indices 1 2 3 4 5 6 
#
# 1 0.015027 -0.008677 -0.011816 0.000000 0.002964 0.000000
# 2 -0.008677 0.044595 -0.009375 0.000000 0.000289 0.000000
# 3 -0.011816 -0.009375 0.028381 0.000000 -0.008495 0.000000
# 4 0.000000 0.000000 0.000000 0.066352 0.000000 -0.004759
# 5 0.002964 0.000289 -0.008495 0.000000 0.044121 0.000000
# 6 0.000000 0.000000 0.000000 -0.004759 0.000000 0.043371
#
#
# Mechanical properties :
#
#
# Convention : Reuss Voigt Hill
#
# Bulk Modulus (GPa) = 35.37574 68.68651 52.03113
# Shear Modulus (GPa) = 16.07689 20.31733 18.19711
#
# Velocity S-wave (km/s) = 3.16766 3.56099 3.37007
# Velocity P-wave (km/s) = 5.95465 7.73155 6.90053
#
# Compressibility (1/GPa) = 0.02826796
#
# Stress axis : x y z
#
# Youngs Moduli (GPa) = 66.54500 22.42415 35.23488
#
# Poissons Ratio (x) = 0.19457 0.41635
# Poissons Ratio (y) = 0.57738 0.33032
# Poissons Ratio (z) = 0.78632 0.21022
#
# Static dielectric constant tensor:
#      x y z
#    x 3.343820 0.000000 0.046880 
#    y 0.000000 2.793200 0.000000 
#    z 0.046880 0.000000 3.117450 
# 
# 
# High freq. dielectric constant tensor:
#      x y z
#    x 1.628870 0.000000 0.007080 
#    y 0.000000 1.562520 0.000000 
#    z 0.007080 0.000000 1.594680 
# 
# From -- ./inp_files/26297.got.cif
#   From: 2010.06.25/outbox.cif.g09.slc.cpg/sg11_14_cif.got.tgz:26297.got - 2010.06.27 23:14:04.
