data_PCOD8077087
_publ_section_title
;
Structure prediction by ZEFSAII (Michael W. Deem and Ramdas Pophale) SiO2 
 PCOD8077087
Probable space group: P 21/M
;
_chemical_formula_sum "Si O2"
_cell_formula_units_Z 20
_cell_length_a 5.465218
_cell_length_b 17.682609
_cell_length_c 9.539844
_cell_angle_alpha 90.000000
_cell_angle_beta 76.951507
_cell_angle_gamma 90.000000
_cell_volume 898.119272
_symmetry_space_group_name_H-M "P 21/M"
_symmetry_group_IT_number 11
_symmetry_cell_setting 'monoclinic'
loop_
_space_group_symop_operation_xyz
x,y,z
-x,1/2+y,-z
-x,-y,-z
x,1/2-y,z
loop_
_atom_site_type_symbol
_atom_site_label
_atom_site_fract_x
_atom_site_fract_y
_atom_site_fract_z
Si Si1 0.132323 0.610555 0.201620
Si Si2 0.590969 0.596275 0.353632
Si Si3 0.936853 0.163871 0.076416
Si Si4 0.579476 0.079927 0.324400
Si Si5 0.281084 0.456383 0.107545
O O1 0.362509 0.621029 0.280628
O O2 0.083625 0.522210 0.170228
O O3 0.857883 0.639240 0.291412
O O4 0.215349 0.657127 0.050512
O O5 0.504420 0.619378 0.520820
O O6 0.648669 0.507223 0.340412
O O7 0.009297 0.250000 0.099162
O O8 0.807478 0.128179 0.230163
O O9 0.178946 0.109727 0.019337
O O10 0.356549 0.084901 0.241203
O O11 0.500000 0.500000 0.000000
#
# Coordination Sequence:
#
# PCOD8077087 Si02
#       5
#     4   4   4   4   4
#     4  11  22  42  66  98 128 178 226 284 328 410
#     4  10  23  39  71  98 132 169 230 280 338 397
#     4  12  25  41  65  98 137 179 230 288 356 415
#     4  10  22  39  65 101 130 169 222 288 336 412
#     4  11  21  40  69  98 135 174 236 287 342 400
#
# _framework density 22.268758999999999
#
# number of rings (size 3 to 8) (size 9 to 14) (size 15 to 20)
#    0.000    1.200    4.000    3.000    2.800    3.200 
#    0.000    2.000    0.000    0.000    0.000    0.000 
#    0.000    0.000    0.000    0.000    0.000    0.000 
#
# Total GULP energy -247827.604449 kJ/mol
# GULP energy per Si atom -12391.380222 kJ/mol
# Density = 2.221807 g / cm^3
# Si number density = 22.268759 Si / 1000 Ang^3
#
#
#
# Elastic Constant Matrix: (Units=GPa)
#
#
# Indices 1 2 3 4 5 6 
#
# 1 127.3225 42.0708 66.6883 0.0000 -12.9967 0.0000
# 2 42.0708 86.6152 28.4685 0.0000 10.5233 0.0000
# 3 66.6883 28.4685 164.9176 0.0000 3.0301 0.0000
# 4 0.0000 0.0000 0.0000 12.5407 0.0000 -2.4309
# 5 -12.9967 10.5233 3.0301 0.0000 26.8973 0.0000
# 6 0.0000 0.0000 0.0000 -2.4309 0.0000 13.6638
#
#
#
# Elastic Compliance Matrix: (Units=1/GPa)
#
#
# Indices 1 2 3 4 5 6 
#
# 1 0.013101 -0.006025 -0.004426 0.000000 0.009186 0.000000
# 2 -0.006025 0.015595 -0.000090 0.000000 -0.009002 0.000000
# 3 -0.004426 -0.000090 0.007924 0.000000 -0.002996 0.000000
# 4 0.000000 0.000000 0.000000 0.082588 0.000000 0.014693
# 5 0.009186 -0.009002 -0.002996 0.000000 0.045477 0.000000
# 6 0.000000 0.000000 0.000000 0.014693 0.000000 0.075800
#
#
# Mechanical properties :
#
#
# Convention : Reuss Voigt Hill
#
# Bulk Modulus (GPa) = 64.36168 72.59004 68.47586
# Shear Modulus (GPa) = 18.74432 26.72886 22.73659
#
# Velocity S-wave (km/s) = 2.90441 3.46827 3.19879
# Velocity P-wave (km/s) = 6.34133 6.97901 6.66780
#
# Compressibility (1/GPa) = 0.01553719
#
# Stress axis : x y z
#
# Youngs Moduli (GPa) = 76.33068 64.12291 126.19493
#
# Poissons Ratio (x) = 0.38631 0.55860
# Poissons Ratio (y) = 0.45986 0.01142
# Poissons Ratio (z) = 0.33787 0.00580
#
# Static dielectric constant tensor:
#      x y z
#    x 3.973130 0.000000 0.051280 
#    y 0.000000 3.625950 0.000000 
#    z 0.051280 0.000000 4.431240 
# 
# 
# High freq. dielectric constant tensor:
#      x y z
#    x 1.878990 0.000000 -0.000150 
#    y 0.000000 1.823760 0.000000 
#    z -0.000150 0.000000 1.891890 
# 
# From -- ./inp_files/10046.got.cif
#   From: 2010.06.25/outbox.cif.g09.slc.cpg/sg11_6_cif.got.tgz:10046.got - 2010.06.27 23:14:04.
