data_PCOD8077964
_publ_section_title
;
Structure prediction by ZEFSAII (Michael W. Deem and Ramdas Pophale) SiO2 
 PCOD8077964
Probable space group: P 21/M
;
_chemical_formula_sum "Si O2"
_cell_formula_units_Z 28
_cell_length_a 13.565509
_cell_length_b 9.151680
_cell_length_c 15.597720
_cell_angle_alpha 90.000000
_cell_angle_beta 86.172058
_cell_angle_gamma 90.000000
_cell_volume 1932.093143
_symmetry_space_group_name_H-M "P 21/M"
_symmetry_group_IT_number 11
_symmetry_cell_setting 'monoclinic'
loop_
_space_group_symop_operation_xyz
x,y,z
-x,1/2+y,-z
-x,-y,-z
x,1/2-y,z
loop_
_atom_site_type_symbol
_atom_site_label
_atom_site_fract_x
_atom_site_fract_y
_atom_site_fract_z
Si Si1 0.372662 0.919568 0.762683
Si Si2 0.903728 0.584640 0.476981
Si Si3 0.257080 0.577514 0.599867
Si Si4 0.377858 0.085251 0.929889
Si Si5 0.387078 0.914917 0.093915
Si Si6 0.399394 0.420883 0.261505
Si Si7 0.296617 0.414877 0.438701
O O1 0.361306 0.750000 0.785967
O O2 0.305279 0.966167 0.686977
O O3 0.485450 0.956750 0.732675
O O4 0.335421 0.009529 0.847025
O O5 0.931302 0.750000 0.447955
O O6 0.850965 0.500051 0.400193
O O7 0.823776 0.585971 0.559808
O O8 0.000000 0.500000 0.500000
O O9 0.245506 0.750000 0.590218
O O10 0.327087 0.515891 0.518513
O O11 0.337570 0.250000 0.936956
O O12 0.495534 0.082156 0.920485
O O13 0.339640 0.998628 0.015658
O O14 0.346610 0.750000 0.097091
O O15 0.354168 0.994580 0.182984
O O16 0.380998 0.250000 0.247333
O O17 0.342324 0.478771 0.348879
O O18 0.336535 0.250000 0.451715
#
# Coordination Sequence:
#
# PCOD8077964 Si02
#       7
#     4   4   4   4   4   4   4
#     4   9  17  27  40  57  81 112 142 171 202 236
#     4   9  17  30  46  62  79 103 132 167 209 245
#     4   9  17  28  41  60  83 108 136 168 202 241
#     4   9  16  25  38  54  74 104 139 173 207 239
#     4   9  16  25  37  55  76 101 137 176 208 238
#     4   9  16  28  41  55  80 113 143 170 202 239
#     4   8  17  29  41  58  81 108 137 170 203 240
#
# _framework density 14.492055000000001
#
# number of rings (size 3 to 8) (size 9 to 14) (size 15 to 20)
#    0.857    2.286    0.000    1.286    0.000    5.714 
#    0.000    0.000    0.000    0.000    0.000    0.000 
#    0.000    1.143    0.000    3.429    0.000    4.571 
#
# Total GULP energy -346969.106703 kJ/mol
# GULP energy per Si atom -12391.753811 kJ/mol
# Density = 1.445907 g / cm^3
# Si number density = 14.492055 Si / 1000 Ang^3
#
#
#
# Elastic Constant Matrix: (Units=GPa)
#
#
# Indices 1 2 3 4 5 6 
#
# 1 41.7481 29.8252 38.6328 0.0000 12.0858 0.0000
# 2 29.8252 101.5511 70.9792 0.0000 13.3680 0.0000
# 3 38.6328 70.9792 129.5127 0.0000 22.6110 0.0000
# 4 0.0000 0.0000 0.0000 29.5746 0.0000 2.7804
# 5 12.0858 13.3680 22.6110 0.0000 6.3301 0.0000
# 6 0.0000 0.0000 0.0000 2.7804 0.0000 16.1392
#
#
#
# Elastic Compliance Matrix: (Units=1/GPa)
#
#
# Indices 1 2 3 4 5 6 
#
# 1 0.056884 -0.005907 0.008109 0.000000 -0.125097 0.000000
# 2 -0.005907 0.016677 -0.008497 0.000000 0.006409 0.000000
# 3 0.008109 -0.008497 0.025318 0.000000 -0.087974 0.000000
# 4 0.000000 0.000000 0.000000 0.034369 0.000000 -0.005921
# 5 -0.125097 0.006409 -0.087974 0.000000 0.697522 0.000000
# 6 0.000000 0.000000 0.000000 -0.005921 0.000000 0.062981
#
#
# Mechanical properties :
#
#
# Convention : Reuss Voigt Hill
#
# Bulk Modulus (GPa) = 11.58882 61.29845 36.44364
# Shear Modulus (GPa) = 5.34700 19.30045 12.32372
#
# Velocity S-wave (km/s) = 1.92292 3.65334 2.91929
# Velocity P-wave (km/s) = 3.59780 7.75794 6.04689
#
# Compressibility (1/GPa) = 0.08629003
#
# Stress axis : x y z
#
# Youngs Moduli (GPa) = 17.57976 59.96158 39.49763
#
# Poissons Ratio (x) = 0.35419 -0.32030
# Poissons Ratio (y) = 0.10384 0.33561
# Poissons Ratio (z) = -0.14256 0.50949
#
# Static dielectric constant tensor:
#      x y z
#    x 2.386930 0.000000 0.030660 
#    y 0.000000 2.930670 0.000000 
#    z 0.030660 0.000000 2.854920 
# 
# 
# High freq. dielectric constant tensor:
#      x y z
#    x 1.495710 0.000000 0.007220 
#    y 0.000000 1.567920 0.000000 
#    z 0.007220 0.000000 1.550960 
# 
# From -- ./inp_files/51001.got.cif
#   From: 2010.06.25/outbox.cif.g09.slc.cpg/sg11_26_cif.got.tgz:51001.got - 2010.06.27 23:14:04.
