data_PCOD8077918
_publ_section_title
;
Structure prediction by ZEFSAII (Michael W. Deem and Ramdas Pophale) SiO2 
 PCOD8077918
Probable space group: P 21/M
;
_chemical_formula_sum "Si O2"
_cell_formula_units_Z 20
_cell_length_a 7.833605
_cell_length_b 23.238970
_cell_length_c 8.958107
_cell_angle_alpha 90.000000
_cell_angle_beta 32.805878
_cell_angle_gamma 90.000000
_cell_volume 883.546346
_symmetry_space_group_name_H-M "P 21/M"
_symmetry_group_IT_number 11
_symmetry_cell_setting 'monoclinic'
loop_
_space_group_symop_operation_xyz
x,y,z
-x,1/2+y,-z
-x,-y,-z
x,1/2-y,z
loop_
_atom_site_type_symbol
_atom_site_label
_atom_site_fract_x
_atom_site_fract_y
_atom_site_fract_z
Si Si1 0.702658 0.250000 0.514146
Si Si2 0.668581 0.353921 0.047665
Si Si3 0.035668 0.850659 0.489494
Si Si4 0.691820 0.481613 0.139491
Si Si5 0.042203 0.529566 0.624169
Si Si6 0.011831 0.750000 0.013812
O O1 0.751913 0.303604 0.586629
O O2 0.361207 0.250000 0.690143
O O3 0.936731 0.250000 0.201694
O O4 0.657480 0.412771 0.151425
O O5 0.320156 0.329165 0.275212
O O6 0.827594 0.367157 0.772211
O O7 0.856511 0.306956 0.004268
O O8 0.037573 0.902557 0.605421
O O9 0.377023 0.508042 0.447162
O O10 0.000000 0.500000 0.000000
O O11 0.741380 0.511319 0.942579
O O12 0.000000 0.500000 0.500000
#
# Coordination Sequence:
#
# PCOD8077918 Si02
#       6
#     2   4   4   4   4   2
#     4  12  28  46  68 102 124 176 224 288 324 376
#     4  12  24  46  68  97 133 182 215 268 330 406
#     4  12  25  44  73  94 135 174 230 265 328 394
#     4  12  26  41  67 102 140 172 216 269 340 389
#     4  12  23  44  67 102 133 173 218 273 319 399
#     4  12  28  46  70  96 138 168 226 278 338 382
#
# _framework density 22.636050000000001
#
# number of rings (size 3 to 8) (size 9 to 14) (size 15 to 20)
#    0.000    0.000    4.000    6.000    5.600    0.000 
#    0.000    0.000    0.000    0.000    0.000    0.000 
#    0.000    0.000    0.000    0.000    0.000    0.000 
#
# Total GULP energy -248066.693890 kJ/mol
# GULP energy per Si atom -12403.334694 kJ/mol
# Density = 2.258453 g / cm^3
# Si number density = 22.636050 Si / 1000 Ang^3
#
#
#
# Elastic Constant Matrix: (Units=GPa)
#
#
# Indices 1 2 3 4 5 6 
#
# 1 105.7239 34.5870 -4.9566 0.0000 -28.0842 0.0000
# 2 34.5870 147.8663 -11.5204 0.0000 -12.3065 0.0000
# 3 -4.9566 -11.5204 63.4718 0.0000 -18.2215 0.0000
# 4 0.0000 0.0000 0.0000 28.7725 0.0000 -7.7623
# 5 -28.0842 -12.3065 -18.2215 0.0000 47.4672 0.0000
# 6 0.0000 0.0000 0.0000 -7.7623 0.0000 31.9307
#
#
#
# Elastic Compliance Matrix: (Units=1/GPa)
#
#
# Indices 1 2 3 4 5 6 
#
# 1 0.012343 -0.002008 0.002862 0.000000 0.007881 0.000000
# 2 -0.002008 0.007469 0.001589 0.000000 0.001358 0.000000
# 3 0.002862 0.001589 0.018961 0.000000 0.009384 0.000000
# 4 0.000000 0.000000 0.000000 0.037195 0.000000 0.009042
# 5 0.007881 0.001358 0.009384 0.000000 0.029684 0.000000
# 6 0.000000 0.000000 0.000000 0.009042 0.000000 0.033516
#
#
# Mechanical properties :
#
#
# Convention : Reuss Voigt Hill
#
# Bulk Modulus (GPa) = 22.90525 39.25356 31.07940
# Shear Modulus (GPa) = 33.59396 41.56422 37.57909
#
# Velocity S-wave (km/s) = 3.85657 4.28973 4.07891
# Velocity P-wave (km/s) = 5.47464 6.47415 5.99526
#
# Compressibility (1/GPa) = 0.04365811
#
# Stress axis : x y z
#
# Youngs Moduli (GPa) = 81.01622 133.87861 52.74048
#
# Poissons Ratio (x) = 0.26887 -0.15093
# Poissons Ratio (y) = 0.16270 -0.08380
# Poissons Ratio (z) = -0.23185 -0.21271
#
# Static dielectric constant tensor:
#      x y z
#    x 4.013160 0.000000 0.245070 
#    y 0.000000 3.813460 0.000000 
#    z 0.245070 0.000000 2.633240 
# 
# 
# High freq. dielectric constant tensor:
#      x y z
#    x 1.907550 0.000000 -0.005600 
#    y 0.000000 1.898620 0.000000 
#    z -0.005600 0.000000 1.909270 
# 
# From -- ./inp_files/14900.got.cif
#   From: 2010.06.25/outbox.cif.g09.slc.cpg/sg11_8_cif.got.tgz:14900.got - 2010.06.27 23:14:04.
