data_PCOD8077145
_publ_section_title
;
Structure prediction by ZEFSAII (Michael W. Deem and Ramdas Pophale) SiO2 
 PCOD8077145
Probable space group: P 21/M
;
_chemical_formula_sum "Si O2"
_cell_formula_units_Z 32
_cell_length_a 15.835248
_cell_length_b 14.265212
_cell_length_c 21.237255
_cell_angle_alpha 90.000000
_cell_angle_beta 160.432359
_cell_angle_gamma 90.000000
_cell_volume 1606.726201
_symmetry_space_group_name_H-M "P 21/M"
_symmetry_group_IT_number 11
_symmetry_cell_setting 'monoclinic'
loop_
_space_group_symop_operation_xyz
x,y,z
-x,1/2+y,-z
-x,-y,-z
x,1/2-y,z
loop_
_atom_site_type_symbol
_atom_site_label
_atom_site_fract_x
_atom_site_fract_y
_atom_site_fract_z
Si Si1 0.975637 0.855273 0.743268
Si Si2 0.508549 0.510407 0.703307
Si Si3 0.424332 0.641600 0.146726
Si Si4 0.081891 0.354868 0.951991
Si Si5 0.942407 0.521830 0.295184
Si Si6 0.459147 0.561667 0.409779
Si Si7 0.318021 0.143597 0.987611
Si Si8 0.268611 0.492222 0.719551
O O1 0.018283 0.750000 0.747266
O O2 0.688534 0.865907 0.563690
O O3 0.054733 0.926482 0.743645
O O4 0.141415 0.872596 0.922265
O O5 0.547265 0.411919 0.766986
O O6 0.547105 0.503184 0.656012
O O7 0.224088 0.546262 0.517073
O O8 0.711326 0.584224 0.867891
O O9 0.491660 0.750000 0.206124
O O10 0.607903 0.601858 0.221504
O O11 0.126344 0.250000 0.007357
O O12 0.115140 0.363253 0.900697
O O13 0.799538 0.382924 0.769436
O O14 0.829681 0.607515 0.176922
O O15 0.754226 0.510713 0.221397
O O16 0.500000 0.500000 0.500000
O O17 0.409174 0.250000 0.040182
O O18 0.559686 0.081751 0.176757
O O19 0.000000 0.500000 0.500000
#
# Coordination Sequence:
#
# PCOD8077145 Si02
#       8
#     4   4   4   4   4   4   4   4
#     4  10  22  40  64  94 128 167 214 268 319 373
#     4  11  22  42  65  89 128 166 209 262 323 369
#     4  11  23  41  66  92 128 167 214 266 320 379
#     4  11  22  40  63  92 128 165 208 257 313 383
#     4  11  22  40  66  89 127 168 212 265 311 378
#     4  11  23  40  65  92 125 167 211 263 318 376
#     4  11  24  41  64  92 129 168 209 257 313 378
#     4  12  23  43  64  92 130 167 210 265 317 374
#
# _framework density 19.916274999999999
#
# number of rings (size 3 to 8) (size 9 to 14) (size 15 to 20)
#    0.000    1.000    3.750    3.375    0.000    4.500 
#    0.000    2.500    0.000    0.000    0.000    0.000 
#    0.000    0.000    0.000    0.000    0.000    0.000 
#
# Total GULP energy -396884.264969 kJ/mol
# GULP energy per Si atom -12402.633280 kJ/mol
# Density = 1.987094 g / cm^3
# Si number density = 19.916275 Si / 1000 Ang^3
#
#
#
# Elastic Constant Matrix: (Units=GPa)
#
#
# Indices 1 2 3 4 5 6 
#
# 1 102.8776 38.5287 12.7134 0.0000 -1.3236 0.0000
# 2 38.5287 120.6493 49.1802 0.0000 -1.8680 0.0000
# 3 12.7134 49.1802 110.4116 0.0000 -3.1540 0.0000
# 4 0.0000 0.0000 0.0000 17.7706 0.0000 1.4805
# 5 -1.3236 -1.8680 -3.1540 0.0000 33.1897 0.0000
# 6 0.0000 0.0000 0.0000 1.4805 0.0000 23.7732
#
#
#
# Elastic Compliance Matrix: (Units=1/GPa)
#
#
# Indices 1 2 3 4 5 6 
#
# 1 0.011055 -0.003678 0.000373 0.000000 0.000269 0.000000
# 2 -0.003678 0.011352 -0.004631 0.000000 0.000052 0.000000
# 3 0.000373 -0.004631 0.011100 0.000000 0.000809 0.000000
# 4 0.000000 0.000000 0.000000 0.056566 0.000000 -0.003523
# 5 0.000269 0.000052 0.000809 0.000000 0.030220 0.000000
# 6 0.000000 0.000000 0.000000 -0.003523 0.000000 0.042284
#
#
# Mechanical properties :
#
#
# Convention : Reuss Voigt Hill
#
# Bulk Modulus (GPa) = 56.70853 59.42035 58.06444
# Shear Modulus (GPa) = 27.12548 30.51445 28.81997
#
# Velocity S-wave (km/s) = 3.69450 3.91850 3.80815
# Velocity P-wave (km/s) = 6.83625 7.09737 6.96804
#
# Compressibility (1/GPa) = 0.01763403
#
# Stress axis : x y z
#
# Youngs Moduli (GPa) = 90.45493 88.09139 90.08935
#
# Poissons Ratio (x) = 0.32403 -0.03362
# Poissons Ratio (y) = 0.33273 0.41724
# Poissons Ratio (z) = -0.03376 0.40798
#
# Static dielectric constant tensor:
#      x y z
#    x 3.890330 0.000000 0.119660 
#    y 0.000000 3.667210 0.000000 
#    z 0.119660 0.000000 3.950010 
# 
# 
# High freq. dielectric constant tensor:
#      x y z
#    x 1.783990 0.000000 -0.001180 
#    y 0.000000 1.771130 0.000000 
#    z -0.001180 0.000000 1.796830 
# 
# From -- ./inp_files/65790.got.cif
#   From: 2010.06.25/outbox.cif.g09.slc.cpg/sg11_33_cif.got.tgz:65790.got - 2010.06.27 23:14:04.
