data_PCOD8077844
_publ_section_title
;
Structure prediction by ZEFSAII (Michael W. Deem and Ramdas Pophale) SiO2 
 PCOD8077844
Probable space group: P 21/M
;
_chemical_formula_sum "Si O2"
_cell_formula_units_Z 20
_cell_length_a 9.478822
_cell_length_b 8.569015
_cell_length_c 24.444831
_cell_angle_alpha 90.000000
_cell_angle_beta 151.712282
_cell_angle_gamma 90.000000
_cell_volume 940.932614
_symmetry_space_group_name_H-M "P 21/M"
_symmetry_group_IT_number 11
_symmetry_cell_setting 'monoclinic'
loop_
_space_group_symop_operation_xyz
x,y,z
-x,1/2+y,-z
-x,-y,-z
x,1/2-y,z
loop_
_atom_site_type_symbol
_atom_site_label
_atom_site_fract_x
_atom_site_fract_y
_atom_site_fract_z
Si Si1 0.819583 0.072482 0.600617
Si Si2 0.732546 0.066547 0.163732
Si Si3 0.093084 0.934010 0.973497
Si Si4 0.856146 0.433585 0.786471
Si Si5 0.754898 0.073028 0.454542
O O1 0.828048 0.250000 0.626089
O O2 0.895767 0.067895 0.562783
O O3 0.500000 0.000000 0.500000
O O4 0.058388 0.968260 0.713342
O O5 0.694474 0.250000 0.143491
O O6 0.416899 0.990321 0.066768
O O7 0.868094 0.997222 0.154498
O O8 0.086597 0.750000 0.974947
O O9 0.000000 0.000000 0.000000
O O10 0.859342 0.991736 0.847965
O O11 0.885656 0.250000 0.802183
O O12 0.549635 0.475999 0.651643
O O13 0.684481 0.250000 0.412784
O O14 0.000000 0.000000 0.500000
#
# Coordination Sequence:
#
# PCOD8077844 Si02
#       5
#     4   4   4   4   4
#     4  11  23  41  67  99 135 175 222 271 328 394
#     4  12  25  44  70 100 135 177 224 274 330 394
#     4  12  27  48  71  99 134 173 221 275 335 396
#     4  12  25  45  71  99 134 176 224 275 331 395
#     4  11  25  43  66  98 137 178 222 272 332 396
#
# _framework density 21.255509
#
# number of rings (size 3 to 8) (size 9 to 14) (size 15 to 20)
#    0.000    0.400    2.000    7.200    2.800    2.400 
#    0.000    0.000    0.000    0.000    0.000    0.000 
#    0.000    0.000    0.000    0.000    0.000    0.000 
#
# Total GULP energy -248157.460692 kJ/mol
# GULP energy per Si atom -12407.873035 kJ/mol
# Density = 2.120713 g / cm^3
# Si number density = 21.255509 Si / 1000 Ang^3
#
#
#
# Elastic Constant Matrix: (Units=GPa)
#
#
# Indices 1 2 3 4 5 6 
#
# 1 132.1950 59.8054 20.9872 0.0000 -4.7403 0.0000
# 2 59.8054 195.8535 27.8304 0.0000 -4.1333 0.0000
# 3 20.9872 27.8304 72.3609 0.0000 -10.1849 0.0000
# 4 0.0000 0.0000 0.0000 42.5080 0.0000 0.6528
# 5 -4.7403 -4.1333 -10.1849 0.0000 42.8277 0.0000
# 6 0.0000 0.0000 0.0000 0.6528 0.0000 41.8519
#
#
#
# Elastic Compliance Matrix: (Units=1/GPa)
#
#
# Indices 1 2 3 4 5 6 
#
# 1 0.008962 -0.002504 -0.001584 0.000000 0.000374 0.000000
# 2 -0.002504 0.006101 -0.001631 0.000000 -0.000076 0.000000
# 3 -0.001584 -0.001631 0.015374 0.000000 0.003323 0.000000
# 4 0.000000 0.000000 0.000000 0.023531 0.000000 -0.000367
# 5 0.000374 -0.000076 0.003323 0.000000 0.024174 0.000000
# 6 0.000000 0.000000 0.000000 -0.000367 0.000000 0.023900
#
#
# Mechanical properties :
#
#
# Convention : Reuss Voigt Hill
#
# Bulk Modulus (GPa) = 52.63185 68.62837 60.63011
# Shear Modulus (GPa) = 41.73259 44.88996 43.31128
#
# Velocity S-wave (km/s) = 4.43581 4.60055 4.51893
# Velocity P-wave (km/s) = 7.14496 7.78316 7.47088
#
# Compressibility (1/GPa) = 0.01899990
#
# Stress axis : x y z
#
# Youngs Moduli (GPa) = 111.58085 163.92056 65.04496
#
# Poissons Ratio (x) = 0.41041 0.10302
# Poissons Ratio (y) = 0.27937 0.10608
# Poissons Ratio (z) = 0.17672 0.26733
#
# Static dielectric constant tensor:
#      x y z
#    x 4.351160 0.000000 -0.184920 
#    y 0.000000 3.988580 0.000000 
#    z -0.184920 0.000000 3.735310 
# 
# 
# High freq. dielectric constant tensor:
#      x y z
#    x 1.846930 0.000000 -0.008170 
#    y 0.000000 1.855470 0.000000 
#    z -0.008170 0.000000 1.843000 
# 
# From -- ./inp_files/16025.got.cif
#   From: 2010.06.25/outbox.cif.g09.slc.cpg/sg11_9_cif.got.tgz:16025.got - 2010.06.27 23:14:04.
