data_PCOD8077334
_publ_section_title
;
Structure prediction by ZEFSAII (Michael W. Deem and Ramdas Pophale) SiO2 
 PCOD8077334
Probable space group: P 21/M
;
_chemical_formula_sum "Si O2"
_cell_formula_units_Z 28
_cell_length_a 8.947977
_cell_length_b 8.390262
_cell_length_c 28.873811
_cell_angle_alpha 90.000000
_cell_angle_beta 38.807175
_cell_angle_gamma 90.000000
_cell_volume 1358.517248
_symmetry_space_group_name_H-M "P 21/M"
_symmetry_group_IT_number 11
_symmetry_cell_setting 'monoclinic'
loop_
_space_group_symop_operation_xyz
x,y,z
-x,1/2+y,-z
-x,-y,-z
x,1/2-y,z
loop_
_atom_site_type_symbol
_atom_site_label
_atom_site_fract_x
_atom_site_fract_y
_atom_site_fract_z
Si Si1 0.810516 0.438488 0.641629
Si Si2 0.655258 0.939909 0.504776
Si Si3 0.546648 0.562957 0.351559
Si Si4 0.391720 0.564351 0.212882
Si Si5 0.063375 0.064419 0.214087
Si Si6 0.092828 0.935818 0.929420
Si Si7 0.762815 0.561192 0.927650
O O1 0.817539 0.250000 0.642317
O O2 0.640211 0.497704 0.641686
O O3 0.713378 0.505572 0.713833
O O4 0.076235 0.501608 0.568362
O O5 0.638957 0.750000 0.514218
O O6 0.500000 0.000000 0.500000
O O7 0.561081 0.027267 0.572704
O O8 0.602227 0.750000 0.333290
O O9 0.783520 0.461934 0.286860
O O10 0.451523 0.750000 0.202693
O O11 0.198696 0.538190 0.219685
O O12 0.630750 0.471829 0.143225
O O13 0.123885 0.250000 0.206180
O O14 0.146510 0.000596 0.143986
O O15 0.051661 0.750000 0.939643
O O16 0.939201 0.010410 0.924284
O O17 0.000000 0.000000 0.000000
O O18 0.764848 0.750000 0.928529
O O19 0.500000 0.500000 0.000000
#
# Coordination Sequence:
#
# PCOD8077334 Si02
#       7
#     4   4   4   4   4   4   4
#     4   9  21  39  60  85 117 154 196 241 292 349
#     4  11  22  39  61  88 120 157 198 244 293 349
#     4  11  22  39  61  87 117 154 196 243 295 350
#     4  11  22  39  62  89 118 154 196 243 294 350
#     4  11  23  40  60  87 119 155 196 242 291 349
#     4  11  23  40  60  87 119 155 196 243 294 350
#     4  10  23  40  60  85 117 153 195 242 293 349
#
# _framework density 20.610706
#
# number of rings (size 3 to 8) (size 9 to 14) (size 15 to 20)
#    0.000    1.429    0.000    5.143    0.000    5.714 
#    0.000    6.429    0.000    0.000    0.000    0.000 
#    0.000    0.000    0.000    0.000    0.000    0.000 
#
# Total GULP energy -347350.905786 kJ/mol
# GULP energy per Si atom -12405.389492 kJ/mol
# Density = 2.056379 g / cm^3
# Si number density = 20.610706 Si / 1000 Ang^3
#
#
#
# Elastic Constant Matrix: (Units=GPa)
#
#
# Indices 1 2 3 4 5 6 
#
# 1 174.6847 8.0371 78.2218 0.0000 9.3913 0.0000
# 2 8.0371 34.1002 5.8846 0.0000 6.1915 0.0000
# 3 78.2218 5.8846 179.7664 0.0000 8.6131 0.0000
# 4 0.0000 0.0000 0.0000 34.3166 0.0000 -2.0152
# 5 9.3913 6.1915 8.6131 0.0000 49.6945 0.0000
# 6 0.0000 0.0000 0.0000 -2.0152 0.0000 31.7330
#
#
#
# Elastic Compliance Matrix: (Units=1/GPa)
#
#
# Indices 1 2 3 4 5 6 
#
# 1 0.007178 -0.001038 -0.003056 0.000000 -0.000698 0.000000
# 2 -0.001038 0.030271 -0.000371 0.000000 -0.003511 0.000000
# 3 -0.003056 -0.000371 0.006932 0.000000 -0.000578 0.000000
# 4 0.000000 0.000000 0.000000 0.029249 0.000000 0.001858
# 5 -0.000698 -0.003511 -0.000578 0.000000 0.020792 0.000000
# 6 0.000000 0.000000 0.000000 0.001858 0.000000 0.031631
#
#
# Mechanical properties :
#
#
# Convention : Reuss Voigt Hill
#
# Bulk Modulus (GPa) = 28.20706 63.64869 45.92788
# Shear Modulus (GPa) = 34.05937 42.90934 38.48436
#
# Velocity S-wave (km/s) = 4.06952 4.56773 4.32580
# Velocity P-wave (km/s) = 5.98303 7.66598 6.87619
#
# Compressibility (1/GPa) = 0.03545212
#
# Stress axis : x y z
#
# Youngs Moduli (GPa) = 139.30782 33.03442 144.24985
#
# Poissons Ratio (x) = 0.03428 0.44085
# Poissons Ratio (y) = 0.14458 0.05353
# Poissons Ratio (z) = 0.42574 0.01226
#
# Static dielectric constant tensor:
#      x y z
#    x 3.575080 0.000000 -0.196650 
#    y 0.000000 3.799120 0.000000 
#    z -0.196650 0.000000 3.508790 
# 
# 
# High freq. dielectric constant tensor:
#      x y z
#    x 1.826860 0.000000 0.002380 
#    y 0.000000 1.795160 0.000000 
#    z 0.002380 0.000000 1.825750 
# 
# From -- ./inp_files/70806.got.cif
#   From: 2010.06.25/outbox.cif.g09.slc.cpg/sg11_36_cif.got.tgz:70806.got - 2010.06.27 23:14:04.
