data_PCOD8077843
_publ_section_title
;
Structure prediction by ZEFSAII (Michael W. Deem and Ramdas Pophale) SiO2 
 PCOD8077843
Probable space group: P 21/M
;
_chemical_formula_sum "Si O2"
_cell_formula_units_Z 32
_cell_length_a 11.597853
_cell_length_b 16.980328
_cell_length_c 13.720245
_cell_angle_alpha 90.000000
_cell_angle_beta 146.882614
_cell_angle_gamma 90.000000
_cell_volume 1476.254948
_symmetry_space_group_name_H-M "P 21/M"
_symmetry_group_IT_number 11
_symmetry_cell_setting 'monoclinic'
loop_
_space_group_symop_operation_xyz
x,y,z
-x,1/2+y,-z
-x,-y,-z
x,1/2-y,z
loop_
_atom_site_type_symbol
_atom_site_label
_atom_site_fract_x
_atom_site_fract_y
_atom_site_fract_z
Si Si1 0.687496 0.839609 0.089259
Si Si2 0.691068 0.104976 0.298315
Si Si3 0.903967 0.091577 0.121787
Si Si4 0.614525 0.341341 0.456385
Si Si5 0.586112 0.926706 0.214833
Si Si6 0.866472 0.661180 0.891323
Si Si7 0.019003 0.918426 0.189686
Si Si8 0.062147 0.342085 0.434121
O O1 0.760836 0.750000 0.155332
O O2 0.620723 0.874267 0.144752
O O3 0.879164 0.888769 0.180774
O O4 0.489315 0.841028 0.876319
O O5 0.676787 0.111181 0.403821
O O6 0.917986 0.136198 0.424800
O O7 0.662028 0.014763 0.245194
O O8 0.978930 0.149774 0.090065
O O9 0.940105 0.132984 0.250510
O O10 0.040085 0.012101 0.211560
O O11 0.659134 0.072298 0.931181
O O12 0.670379 0.250000 0.482318
O O13 0.371710 0.354113 0.312710
O O14 0.750631 0.378739 0.640445
O O15 0.717835 0.889083 0.397668
O O16 0.892162 0.750000 0.949120
O O17 0.916464 0.602113 0.013878
O O18 0.111922 0.250000 0.466241
#
# Coordination Sequence:
#
# PCOD8077843 Si02
#       8
#     4   4   4   4   4   4   4   4
#     4  12  22  38  68  98 130 171 216 266 326 386
#     4  12  22  42  68  97 133 172 215 270 331 388
#     4  12  26  45  67  95 134 177 219 266 325 393
#     4  11  23  41  67  98 129 166 217 276 332 382
#     4  12  25  44  66  98 136 177 218 265 325 395
#     4  11  25  44  66  94 129 170 221 274 324 384
#     4  12  24  43  70  98 130 168 218 275 334 388
#     4  12  26  42  65  97 134 177 222 267 323 391
#
# _framework density 21.676473000000001
#
# number of rings (size 3 to 8) (size 9 to 14) (size 15 to 20)
#    0.000    0.250    3.750    6.375    0.000    3.000 
#    0.000    0.000    0.000    0.000    0.000    0.000 
#    0.000    0.000    0.000    0.000    0.000    0.000 
#
# Total GULP energy -397113.578127 kJ/mol
# GULP energy per Si atom -12409.799316 kJ/mol
# Density = 2.162714 g / cm^3
# Si number density = 21.676473 Si / 1000 Ang^3
#
#
#
# Elastic Constant Matrix: (Units=GPa)
#
#
# Indices 1 2 3 4 5 6 
#
# 1 67.3907 15.1902 8.5006 0.0000 5.7638 0.0000
# 2 15.1902 102.3381 24.9170 0.0000 -0.3512 0.0000
# 3 8.5006 24.9170 101.8453 0.0000 5.5979 0.0000
# 4 0.0000 0.0000 0.0000 37.1976 0.0000 -2.6854
# 5 5.7638 -0.3512 5.5979 0.0000 14.3412 0.0000
# 6 0.0000 0.0000 0.0000 -2.6854 0.0000 29.9722
#
#
#
# Elastic Compliance Matrix: (Units=1/GPa)
#
#
# Indices 1 2 3 4 5 6 
#
# 1 0.015946 -0.002285 -0.000426 0.000000 -0.006299 0.000000
# 2 -0.002285 0.010741 -0.002557 0.000000 0.002179 0.000000
# 3 -0.000426 -0.002557 0.010704 0.000000 -0.004069 0.000000
# 4 0.000000 0.000000 0.000000 0.027058 0.000000 0.002424
# 5 -0.006299 0.002179 -0.004069 0.000000 0.073902 0.000000
# 6 0.000000 0.000000 0.000000 0.002424 0.000000 0.033581
#
#
# Mechanical properties :
#
#
# Convention : Reuss Voigt Hill
#
# Bulk Modulus (GPa) = 37.23622 40.97664 39.10643
# Shear Modulus (GPa) = 26.12063 31.16662 28.64363
#
# Velocity S-wave (km/s) = 3.47511 3.79596 3.63907
# Velocity P-wave (km/s) = 5.77211 6.17715 5.97806
#
# Compressibility (1/GPa) = 0.02685557
#
# Stress axis : x y z
#
# Youngs Moduli (GPa) = 62.71053 93.10385 93.42678
#
# Poissons Ratio (x) = 0.21273 0.03978
# Poissons Ratio (y) = 0.14329 0.23888
# Poissons Ratio (z) = 0.02670 0.23805
#
# Static dielectric constant tensor:
#      x y z
#    x 3.730460 0.000000 0.068740 
#    y 0.000000 3.996060 0.000000 
#    z 0.068740 0.000000 4.146540 
# 
# 
# High freq. dielectric constant tensor:
#      x y z
#    x 1.839630 0.000000 0.000970 
#    y 0.000000 1.864740 0.000000 
#    z 0.000970 0.000000 1.864620 
# 
# From -- ./inp_files/50688.got.cif
#   From: 2010.06.25/outbox.cif.g09.slc.cpg/sg11_26_cif.got.tgz:50688.got - 2010.06.27 23:14:04.
