data_PCOD8077948
_publ_section_title
;
Structure prediction by ZEFSAII (Michael W. Deem and Ramdas Pophale) SiO2 
 PCOD8077948
Probable space group: P 21/M
;
_chemical_formula_sum "Si O2"
_cell_formula_units_Z 28
_cell_length_a 13.724610
_cell_length_b 9.305666
_cell_length_c 16.072627
_cell_angle_alpha 90.000000
_cell_angle_beta 64.772378
_cell_angle_gamma 90.000000
_cell_volume 1856.954795
_symmetry_space_group_name_H-M "P 21/M"
_symmetry_group_IT_number 11
_symmetry_cell_setting 'monoclinic'
loop_
_space_group_symop_operation_xyz
x,y,z
-x,1/2+y,-z
-x,-y,-z
x,1/2-y,z
loop_
_atom_site_type_symbol
_atom_site_label
_atom_site_fract_x
_atom_site_fract_y
_atom_site_fract_z
Si Si1 0.617931 0.081644 0.044133
Si Si2 0.838197 0.417155 0.046918
Si Si3 0.043108 0.417909 0.862075
Si Si4 0.408682 0.582648 0.135741
Si Si5 0.793488 0.419873 0.680349
Si Si6 0.007264 0.415689 0.693241
Si Si7 0.894837 0.582222 0.508750
O O1 0.600538 0.250000 0.061875
O O2 0.724828 0.028526 0.051935
O O3 0.516066 0.002323 0.121931
O O4 0.629570 0.040517 0.942910
O O5 0.834838 0.250000 0.070064
O O6 0.862192 0.502312 0.122813
O O7 0.928031 0.450470 0.945187
O O8 0.070992 0.250000 0.852627
O O9 0.039374 0.484754 0.770103
O O10 0.434757 0.750000 0.132345
O O11 0.315428 0.537840 0.233301
O O12 0.802492 0.250000 0.660027
O O13 0.894732 0.477556 0.698038
O O14 0.794306 0.504712 0.591279
O O15 0.983854 0.250000 0.720162
O O16 0.105976 0.435631 0.591608
O O17 0.899836 0.750000 0.531236
O O18 0.000000 0.500000 0.500000
#
# Coordination Sequence:
#
# PCOD8077948 Si02
#       7
#     4   4   4   4   4   4   4
#     4   9  17  29  43  59  83 112 138 167 203 241
#     4   9  17  28  41  59  83 108 134 166 202 236
#     4   9  16  27  43  60  79 107 140 166 193 235
#     4   9  17  28  43  62  82 108 141 170 198 238
#     4   9  16  27  42  60  84 111 137 166 202 243
#     4   8  14  25  41  59  80 108 137 162 193 238
#     4   9  16  26  40  59  83 109 137 167 201 242
#
# _framework density 15.07845
#
# number of rings (size 3 to 8) (size 9 to 14) (size 15 to 20)
#    0.000    3.143    0.000    2.143    0.000    4.571 
#    0.000    3.571    0.000    5.143    0.000    1.000 
#    0.000    0.000    0.000    0.000    0.000    0.000 
#
# Total GULP energy -347043.097362 kJ/mol
# GULP energy per Si atom -12394.396334 kJ/mol
# Density = 1.504413 g / cm^3
# Si number density = 15.078450 Si / 1000 Ang^3
#
#
#
# Elastic Constant Matrix: (Units=GPa)
#
#
# Indices 1 2 3 4 5 6 
#
# 1 104.8852 36.1630 56.3455 0.0000 -0.9383 0.0000
# 2 36.1630 44.0733 43.5976 0.0000 -2.2822 0.0000
# 3 56.3455 43.5976 118.6335 0.0000 -2.2586 0.0000
# 4 0.0000 0.0000 0.0000 25.1938 0.0000 -2.3299
# 5 -0.9383 -2.2822 -2.2586 0.0000 23.6136 0.0000
# 6 0.0000 0.0000 0.0000 -2.3299 0.0000 23.1916
#
#
#
# Elastic Compliance Matrix: (Units=1/GPa)
#
#
# Indices 1 2 3 4 5 6 
#
# 1 0.014374 -0.007950 -0.003916 0.000000 -0.000572 0.000000
# 2 -0.007950 0.040160 -0.010935 0.000000 0.002520 0.000000
# 3 -0.003916 -0.010935 0.014311 0.000000 0.000156 0.000000
# 4 0.000000 0.000000 0.000000 0.040065 0.000000 0.004025
# 5 -0.000572 0.002520 0.000156 0.000000 0.042584 0.000000
# 6 0.000000 0.000000 0.000000 0.004025 0.000000 0.043523
#
#
# Mechanical properties :
#
#
# Convention : Reuss Voigt Hill
#
# Bulk Modulus (GPa) = 43.02424 59.97826 51.50125
# Shear Modulus (GPa) = 20.13156 23.16553 21.64854
#
# Velocity S-wave (km/s) = 3.65790 3.92386 3.79321
# Velocity P-wave (km/s) = 6.81438 7.77128 7.30851
#
# Compressibility (1/GPa) = 0.02324271
#
# Stress axis : x y z
#
# Youngs Moduli (GPa) = 69.57019 24.90063 69.87647
#
# Poissons Ratio (x) = 0.19795 0.27366
# Poissons Ratio (y) = 0.55306 0.76409
# Poissons Ratio (z) = 0.27246 0.27229
#
# Static dielectric constant tensor:
#      x y z
#    x 2.786490 0.000000 0.013180 
#    y 0.000000 2.860930 0.000000 
#    z 0.013180 0.000000 3.234740 
# 
# 
# High freq. dielectric constant tensor:
#      x y z
#    x 1.546740 0.000000 -0.001390 
#    y 0.000000 1.567880 0.000000 
#    z -0.001390 0.000000 1.577640 
# 
# From -- ./inp_files/38642.got.cif
#   From: 2010.06.25/outbox.cif.g09.slc.cpg/sg11_20_cif.got.tgz:38642.got - 2010.06.27 23:14:04.
