data_PCOD8077597
_publ_section_title
;
Structure prediction by ZEFSAII (Michael W. Deem and Ramdas Pophale) SiO2 
 PCOD8077597
Probable space group: P 21/M
;
_chemical_formula_sum "Si O2"
_cell_formula_units_Z 28
_cell_length_a 13.929148
_cell_length_b 9.104800
_cell_length_c 13.692584
_cell_angle_alpha 90.000000
_cell_angle_beta 83.843888
_cell_angle_gamma 90.000000
_cell_volume 1726.508517
_symmetry_space_group_name_H-M "P 21/M"
_symmetry_group_IT_number 11
_symmetry_cell_setting 'monoclinic'
loop_
_space_group_symop_operation_xyz
x,y,z
-x,1/2+y,-z
-x,-y,-z
x,1/2-y,z
loop_
_atom_site_type_symbol
_atom_site_label
_atom_site_fract_x
_atom_site_fract_y
_atom_site_fract_z
Si Si1 0.017470 0.921797 0.099882
Si Si2 0.222648 0.579455 0.026696
Si Si3 0.678248 0.079202 0.344824
Si Si4 0.403870 0.081360 0.480728
Si Si5 0.474703 0.082650 0.269141
Si Si6 0.158489 0.923759 0.822627
Si Si7 0.425364 0.924814 0.080087
O O1 0.993908 0.750000 0.094587
O O2 0.131579 0.947513 0.110086
O O3 0.945310 0.997560 0.185920
O O4 0.000000 0.000000 0.000000
O O5 0.241279 0.750000 0.009574
O O6 0.319372 0.512547 0.063039
O O7 0.202187 0.515655 0.920347
O O8 0.681606 0.250000 0.369469
O O9 0.581194 0.040759 0.295984
O O10 0.769993 0.029714 0.271568
O O11 0.682927 0.992557 0.447905
O O12 0.412124 0.250000 0.510706
O O13 0.394635 0.066188 0.364311
O O14 0.500000 0.000000 0.500000
O O15 0.475662 0.250000 0.229384
O O16 0.446590 0.970544 0.188149
O O17 0.141729 0.750000 0.828225
O O18 0.433180 0.750000 0.070348
O O19 0.500000 0.000000 0.000000
#
# Coordination Sequence:
#
# PCOD8077597 Si02
#       7
#     4   4   4   4   4   4   4
#     4   9  16  28  44  61  83 112 144 178 215 259
#     4   8  16  30  44  58  84 119 147 171 210 257
#     4   9  17  29  46  66  92 120 143 175 222 267
#     4   9  17  29  45  63  87 116 147 182 220 261
#     4   9  18  32  45  61  88 120 148 178 215 253
#     4   9  16  28  45  65  89 115 140 174 219 262
#     4  11  21  32  46  64  87 118 152 182 211 251
#
# _framework density 16.217701999999999
#
# number of rings (size 3 to 8) (size 9 to 14) (size 15 to 20)
#    0.000    2.857    0.000    3.857    0.000    5.714 
#    0.000   10.000    0.000    0.000    0.000    1.000 
#    0.000    0.000    0.000    0.000    0.000    0.000 
#
# Total GULP energy -346955.493001 kJ/mol
# GULP energy per Si atom -12391.267607 kJ/mol
# Density = 1.618079 g / cm^3
# Si number density = 16.217702 Si / 1000 Ang^3
#
#
#
# Elastic Constant Matrix: (Units=GPa)
#
#
# Indices 1 2 3 4 5 6 
#
# 1 104.3347 42.7973 53.2221 0.0000 -26.5950 0.0000
# 2 42.7973 69.6531 47.6795 0.0000 -13.6507 0.0000
# 3 53.2221 47.6795 101.0217 0.0000 -26.9211 0.0000
# 4 0.0000 0.0000 0.0000 29.9264 0.0000 -6.0485
# 5 -26.5950 -13.6507 -26.9211 0.0000 27.6953 0.0000
# 6 0.0000 0.0000 0.0000 -6.0485 0.0000 23.3668
#
#
#
# Elastic Compliance Matrix: (Units=1/GPa)
#
#
# Indices 1 2 3 4 5 6 
#
# 1 0.015981 -0.005803 -0.003176 0.000000 0.009398 0.000000
# 2 -0.005803 0.023336 -0.008606 0.000000 -0.002436 0.000000
# 3 -0.003176 -0.008606 0.018477 0.000000 0.010669 0.000000
# 4 0.000000 0.000000 0.000000 0.035260 0.000000 0.009127
# 5 0.009398 -0.002436 0.010669 0.000000 0.054303 0.000000
# 6 0.000000 0.000000 0.000000 0.009127 0.000000 0.045158
#
#
# Mechanical properties :
#
#
# Convention : Reuss Voigt Hill
#
# Bulk Modulus (GPa) = 44.20039 62.48970 53.34505
# Shear Modulus (GPa) = 21.25624 24.95176 23.10400
#
# Velocity S-wave (km/s) = 3.62426 3.92669 3.77850
# Velocity P-wave (km/s) = 6.69532 7.69246 7.21115
#
# Compressibility (1/GPa) = 0.02262423
#
# Stress axis : x y z
#
# Youngs Moduli (GPa) = 62.57595 42.85211 54.12204
#
# Poissons Ratio (x) = 0.24868 0.17187
# Poissons Ratio (y) = 0.36315 0.46576
# Poissons Ratio (z) = 0.19872 0.36877
#
# Static dielectric constant tensor:
#      x y z
#    x 3.398290 0.000000 -0.453570 
#    y 0.000000 3.154830 0.000000 
#    z -0.453570 0.000000 3.219640 
# 
# 
# High freq. dielectric constant tensor:
#      x y z
#    x 1.602770 0.000000 -0.030360 
#    y 0.000000 1.621440 0.000000 
#    z -0.030360 0.000000 1.607600 
# 
# From -- ./inp_files/50993.got.cif
#   From: 2010.06.25/outbox.cif.g09.slc.cpg/sg11_26_cif.got.tgz:50993.got - 2010.06.27 23:14:04.
