data_PCOD8077024
_publ_section_title
;
Structure prediction by ZEFSAII (Michael W. Deem and Ramdas Pophale) SiO2 
 PCOD8077024
Probable space group: P 21/M
;
_chemical_formula_sum "Si O2"
_cell_formula_units_Z 32
_cell_length_a 12.378035
_cell_length_b 8.863803
_cell_length_c 28.456187
_cell_angle_alpha 90.000000
_cell_angle_beta 148.080481
_cell_angle_gamma 90.000000
_cell_volume 1650.746658
_symmetry_space_group_name_H-M "P 21/M"
_symmetry_group_IT_number 11
_symmetry_cell_setting 'monoclinic'
loop_
_space_group_symop_operation_xyz
x,y,z
-x,1/2+y,-z
-x,-y,-z
x,1/2-y,z
loop_
_atom_site_type_symbol
_atom_site_label
_atom_site_fract_x
_atom_site_fract_y
_atom_site_fract_z
Si Si1 0.142368 0.070648 0.940999
Si Si2 0.544870 0.571522 0.124534
Si Si3 0.869551 0.571242 0.168870
Si Si4 0.288178 0.072140 0.477259
Si Si5 0.746320 0.427915 0.633062
Si Si6 0.022482 0.927030 0.558828
Si Si7 0.866967 0.572519 0.909839
Si Si8 0.595763 0.425769 0.238327
O O1 0.129727 0.250000 0.938979
O O2 0.165853 0.009267 0.896592
O O3 0.936559 0.999427 0.886161
O O4 0.330333 0.013715 0.041599
O O5 0.510764 0.750000 0.110455
O O6 0.687499 0.513396 0.134811
O O7 0.648304 0.523436 0.211636
O O8 0.871307 0.750000 0.169013
O O9 0.086661 0.511856 0.268280
O O10 0.263802 0.250000 0.463163
O O11 0.524653 0.023585 0.570992
O O12 0.157462 0.012629 0.473254
O O13 0.201654 0.000167 0.397818
O O14 0.760442 0.250000 0.631488
O O15 0.001351 0.750000 0.544341
O O16 0.242103 0.970570 0.661727
O O17 0.000000 0.000000 0.500000
O O18 0.906207 0.750000 0.924646
O O19 0.629201 0.532547 0.826668
O O20 0.000000 0.500000 0.000000
O O21 0.614644 0.250000 0.232196
#
# Coordination Sequence:
#
# PCOD8077024 Si02
#       8
#     4   4   4   4   4   4   4   4
#     4  11  22  37  56  79 112 149 183 228 285 335
#     4  11  21  35  57  82 109 143 189 232 273 336
#     4   9  20  35  52  79 112 145 182 226 276 330
#     4   9  18  33  55  81 109 140 178 224 275 328
#     4   9  17  33  56  80 107 141 181 225 271 324
#     4  10  22  39  57  82 115 149 186 230 280 335
#     4  11  22  38  59  82 110 145 190 238 282 331
#     4  10  22  39  59  82 112 148 185 232 289 334
#
# _framework density 19.385166000000002
#
# number of rings (size 3 to 8) (size 9 to 14) (size 15 to 20)
#    0.000    2.000    1.250    2.250    0.000    2.500 
#    0.000    5.000    0.000    0.000    0.000    0.000 
#    0.000    0.000    0.000    0.000    0.000    0.000 
#
# Total GULP energy -396872.273221 kJ/mol
# GULP energy per Si atom -12402.258538 kJ/mol
# Density = 1.934104 g / cm^3
# Si number density = 19.385166 Si / 1000 Ang^3
#
#
#
# Elastic Constant Matrix: (Units=GPa)
#
#
# Indices 1 2 3 4 5 6 
#
# 1 166.6547 44.5990 68.4288 0.0000 0.6842 0.0000
# 2 44.5990 51.0399 31.1196 0.0000 0.0912 0.0000
# 3 68.4288 31.1196 112.5379 0.0000 -3.1965 0.0000
# 4 0.0000 0.0000 0.0000 22.8732 0.0000 -3.9796
# 5 0.6842 0.0912 -3.1965 0.0000 32.1366 0.0000
# 6 0.0000 0.0000 0.0000 -3.9796 0.0000 31.6134
#
#
#
# Elastic Compliance Matrix: (Units=1/GPa)
#
#
# Indices 1 2 3 4 5 6 
#
# 1 0.009142 -0.005519 -0.004050 0.000000 -0.000582 0.000000
# 2 -0.005519 0.026913 -0.004097 0.000000 -0.000366 0.000000
# 3 -0.004050 -0.004097 0.012519 0.000000 0.001343 0.000000
# 4 0.000000 0.000000 0.000000 0.044698 0.000000 0.005627
# 5 -0.000582 -0.000366 0.001343 0.000000 0.031264 0.000000
# 6 0.000000 0.000000 0.000000 0.005627 0.000000 0.032340
#
#
# Mechanical properties :
#
#
# Convention : Reuss Voigt Hill
#
# Bulk Modulus (GPa) = 47.07056 68.72526 57.89791
# Shear Modulus (GPa) = 26.13833 29.73030 27.93432
#
# Velocity S-wave (km/s) = 3.67600 3.92045 3.80019
# Velocity P-wave (km/s) = 6.50782 7.48483 7.01336
#
# Compressibility (1/GPa) = 0.02124470
#
# Stress axis : x y z
#
# Youngs Moduli (GPa) = 109.38004 37.15627 79.87658
#
# Poissons Ratio (x) = 0.20505 0.32346
# Poissons Ratio (y) = 0.60363 0.32726
# Poissons Ratio (z) = 0.44294 0.15223
#
# Static dielectric constant tensor:
#      x y z
#    x 3.893960 0.000000 0.075650 
#    y 0.000000 3.363120 0.000000 
#    z 0.075650 0.000000 3.706600 
# 
# 
# High freq. dielectric constant tensor:
#      x y z
#    x 1.764800 0.000000 0.007250 
#    y 0.000000 1.739830 0.000000 
#    z 0.007250 0.000000 1.759330 
# 
# From -- ./inp_files/73206.got.cif
#   From: 2010.06.25/outbox.cif.g09.slc.cpg/sg11_37_cif.got.tgz:73206.got - 2010.06.27 23:14:04.
