data_PCOD8077163
_publ_section_title
;
Structure prediction by ZEFSAII (Michael W. Deem and Ramdas Pophale) SiO2 
 PCOD8077163
Probable space group: P 21/M
;
_chemical_formula_sum "Si O2"
_cell_formula_units_Z 24
_cell_length_a 14.681039
_cell_length_b 9.504292
_cell_length_c 17.626038
_cell_angle_alpha 90.000000
_cell_angle_beta 150.609714
_cell_angle_gamma 90.000000
_cell_volume 1206.971231
_symmetry_space_group_name_H-M "P 21/M"
_symmetry_group_IT_number 11
_symmetry_cell_setting 'monoclinic'
loop_
_space_group_symop_operation_xyz
x,y,z
-x,1/2+y,-z
-x,-y,-z
x,1/2-y,z
loop_
_atom_site_type_symbol
_atom_site_label
_atom_site_fract_x
_atom_site_fract_y
_atom_site_fract_z
Si Si1 0.206143 0.750000 0.217898
Si Si2 0.331792 0.906485 0.852502
Si Si3 0.804500 0.479323 0.399163
Si Si4 0.386144 0.250000 0.673622
Si Si5 0.823960 0.250000 0.980156
Si Si6 0.017814 0.402999 0.688175
Si Si7 0.640748 0.750000 0.524383
Si Si8 0.091288 0.013833 0.231039
O O1 0.425956 0.750000 0.388648
O O2 0.125335 0.606032 0.193502
O O3 0.144204 0.750000 0.086223
O O4 0.354769 0.750000 0.902063
O O5 0.323393 0.898346 0.754667
O O6 0.147626 0.971361 0.755075
O O7 0.500000 0.000000 0.000000
O O8 0.699859 0.620869 0.344206
O O9 0.839843 0.394005 0.502449
O O10 0.000000 0.500000 0.500000
O O11 0.323577 0.250000 0.540239
O O12 0.607381 0.250000 0.843358
O O13 0.915252 0.109132 0.080573
O O14 0.118310 0.250000 0.759259
O O15 0.948019 0.431113 0.720972
O O16 0.729013 0.611852 0.626857
#
# Coordination Sequence:
#
# PCOD8077163 Si02
#       8
#     2   4   4   2   2   4   2   4
#     4  11  22  44  65  95 132 165 207 258 332 384
#     4  11  26  41  63  91 129 173 213 259 309 382
#     4  10  24  37  65  88 128 164 216 262 318 361
#     4  11  22  42  63  95 123 170 219 266 309 389
#     4  10  26  40  68  90 129 174 209 258 324 396
#     4  11  23  40  64  93 125 164 212 265 324 364
#     4  10  22  40  68  98 122 165 213 262 317 387
#     4  11  22  40  66  97 127 162 211 266 316 387
#
# _framework density 19.884485000000002
#
# number of rings (size 3 to 8) (size 9 to 14) (size 15 to 20)
#    0.000    1.333    2.500    2.000   15.167    0.000 
#    0.000    0.000    1.833    0.000    0.000    0.000 
#    0.000    0.000    0.000    0.000    0.000    0.000 
#
# Total GULP energy -297536.157431 kJ/mol
# GULP energy per Si atom -12397.339893 kJ/mol
# Density = 1.983923 g / cm^3
# Si number density = 19.884485 Si / 1000 Ang^3
#
#
#
# Elastic Constant Matrix: (Units=GPa)
#
#
# Indices 1 2 3 4 5 6 
#
# 1 102.1938 44.5735 38.3921 0.0000 -7.5477 0.0000
# 2 44.5735 160.1074 43.6009 0.0000 4.8933 0.0000
# 3 38.3921 43.6009 112.1354 0.0000 -8.2539 0.0000
# 4 0.0000 0.0000 0.0000 15.0983 0.0000 2.6225
# 5 -7.5477 4.8933 -8.2539 0.0000 30.0909 0.0000
# 6 0.0000 0.0000 0.0000 2.6225 0.0000 34.9250
#
#
#
# Elastic Compliance Matrix: (Units=1/GPa)
#
#
# Indices 1 2 3 4 5 6 
#
# 1 0.012270 -0.002694 -0.002954 0.000000 0.002705 0.000000
# 2 -0.002694 0.007687 -0.002254 0.000000 -0.002544 0.000000
# 3 -0.002954 -0.002254 0.011000 0.000000 0.002643 0.000000
# 4 0.000000 0.000000 0.000000 0.067108 0.000000 -0.005039
# 5 0.002705 -0.002544 0.002643 0.000000 0.035050 0.000000
# 6 0.000000 0.000000 0.000000 -0.005039 0.000000 0.029011
#
#
# Mechanical properties :
#
#
# Convention : Reuss Voigt Hill
#
# Bulk Modulus (GPa) = 65.99341 69.72997 67.86169
# Shear Modulus (GPa) = 27.32507 32.54752 29.93629
#
# Velocity S-wave (km/s) = 3.71103 4.05016 3.88430
# Velocity P-wave (km/s) = 7.18490 7.55086 7.37015
#
# Compressibility (1/GPa) = 0.01515303
#
# Stress axis : x y z
#
# Youngs Moduli (GPa) = 81.49898 130.08309 90.90783
#
# Poissons Ratio (x) = 0.35046 0.26857
# Poissons Ratio (y) = 0.21957 0.20490
# Poissons Ratio (z) = 0.24077 0.29320
#
# Static dielectric constant tensor:
#      x y z
#    x 3.668860 0.000000 -0.316470 
#    y 0.000000 3.551570 0.000000 
#    z -0.316470 0.000000 4.015770 
# 
# 
# High freq. dielectric constant tensor:
#      x y z
#    x 1.774020 0.000000 -0.018300 
#    y 0.000000 1.788040 0.000000 
#    z -0.018300 0.000000 1.782530 
# 
# From -- ./inp_files/25792.got.cif
#   From: 2010.06.25/outbox.cif.g09.slc.cpg/sg11_13_cif.got.tgz:25792.got - 2010.06.27 23:14:04.
