data_PCOD8078789
_publ_section_title
;
Structure prediction by ZEFSAII (Michael W. Deem and Ramdas Pophale) SiO2 
 PCOD8078789
Probable space group: C 2/M
;
_chemical_formula_sum "Si O2"
_cell_formula_units_Z 64
_cell_length_a 28.168034
_cell_length_b 9.117194
_cell_length_c 22.909119
_cell_angle_alpha 90.000000
_cell_angle_beta 135.264639
_cell_angle_gamma 90.000000
_cell_volume 4140.911035
_symmetry_space_group_name_H-M "C 2/M"
_symmetry_group_IT_number 12
_symmetry_cell_setting 'monoclinic'
loop_
_space_group_symop_operation_xyz
x,y,z
-x,y,-z
-x,-y,-z
x,-y,z
1/2+x,1/2+y,z
1/2-x,1/2+y,-z
1/2-x,1/2-y,-z
1/2+x,1/2-y,z
loop_
_atom_site_type_symbol
_atom_site_label
_atom_site_fract_x
_atom_site_fract_y
_atom_site_fract_z
Si Si1 0.145433 0.827839 0.675020
Si Si2 0.114825 0.830670 0.515803
Si Si3 0.485342 0.834217 0.418913
Si Si4 0.340360 0.330321 0.730385
Si Si5 0.901233 0.335408 0.953956
Si Si6 0.280889 0.669455 0.806134
Si Si7 0.538801 0.164841 0.122195
Si Si8 0.754253 0.172682 0.442098
O O1 0.142042 0.789417 0.603592
O O2 0.082127 0.757202 0.653707
O O3 0.213210 0.758772 0.760052
O O4 0.145531 0.000000 0.686857
O O5 0.172516 0.791628 0.520177
O O6 0.048909 0.737052 0.441100
O O7 0.093784 0.000000 0.495511
O O8 0.500000 0.827813 0.500000
O O9 0.475724 0.000000 0.388383
O O10 0.339374 0.500000 0.711615
O O11 0.303901 0.302784 0.759995
O O12 0.418104 0.276213 0.800493
O O13 0.303352 0.235904 0.649497
O O14 0.876922 0.500000 0.948055
O O15 0.837810 0.225719 0.901167
O O16 0.931840 0.333548 0.916646
O O17 0.960051 0.285373 0.050659
O O18 0.267287 0.500000 0.806652
O O19 0.544176 0.000000 0.152536
O O20 0.750000 0.250000 0.500000
O O21 0.742730 0.000000 0.438532
#
# Coordination Sequence:
#
# PCOD8078789 Si02
#       8
#     8   8   8   8   8   8   8   8
#     4  10  17  27  42  59  81 110 142 171 204 249
#     4   9  18  31  45  59  77 105 138 172 210 254
#     4   9  17  27  41  61  82 103 131 169 209 247
#     4  10  19  29  42  59  79 106 138 175 216 254
#     4   8  14  24  37  54  76 105 138 168 202 243
#     4  10  18  25  37  58  84 110 139 174 209 244
#     4   8  14  25  40  55  74 102 137 172 203 244
#     4  11  22  35  48  63  82 107 142 182 221 257
#
# _framework density 15.455536
#
# number of rings (size 3 to 8) (size 9 to 14) (size 15 to 20)
#    0.000    2.625    1.250    2.625    0.000    4.500 
#    0.000    2.500    0.000    0.000    0.000    0.000 
#    0.000    0.000    0.000    1.125    0.000   15.000 
#
# Total GULP energy -396716.289400 kJ/mol
# GULP energy per Si atom -12397.384044 kJ/mol
# Density = 1.542036 g / cm^3
# Si number density = 15.455536 Si / 1000 Ang^3
#
#
#
# Elastic Constant Matrix: (Units=GPa)
#
#
# Indices 1 2 3 4 5 6 
#
# 1 53.3628 42.5674 45.7028 0.0000 18.2732 0.0000
# 2 42.5674 105.5927 65.9734 0.0000 22.7609 0.0000
# 3 45.7028 65.9734 94.5352 0.0000 33.2943 0.0000
# 4 0.0000 0.0000 0.0000 27.2535 0.0000 6.5947
# 5 18.2732 22.7609 33.2943 0.0000 24.4641 0.0000
# 6 0.0000 0.0000 0.0000 6.5947 0.0000 19.7265
#
#
#
# Elastic Compliance Matrix: (Units=1/GPa)
#
#
# Indices 1 2 3 4 5 6 
#
# 1 0.034538 -0.006239 -0.010183 0.000000 -0.006135 0.000000
# 2 -0.006239 0.017924 -0.010103 0.000000 0.001734 0.000000
# 3 -0.010183 -0.010103 0.031808 0.000000 -0.026284 0.000000
# 4 0.000000 0.000000 0.000000 0.039922 0.000000 -0.013346
# 5 -0.006135 0.001734 -0.026284 0.000000 0.079617 0.000000
# 6 0.000000 0.000000 0.000000 -0.013346 0.000000 0.055155
#
#
# Mechanical properties :
#
#
# Convention : Reuss Voigt Hill
#
# Bulk Modulus (GPa) = 32.02916 62.44199 47.23557
# Shear Modulus (GPa) = 15.50766 20.90529 18.20647
#
# Velocity S-wave (km/s) = 3.17104 3.68177 3.43591
# Velocity P-wave (km/s) = 5.84600 7.65263 6.80949
#
# Compressibility (1/GPa) = 0.03122155
#
# Stress axis : x y z
#
# Youngs Moduli (GPa) = 28.95330 55.79111 31.43817
#
# Poissons Ratio (x) = 0.34807 0.32013
# Poissons Ratio (y) = 0.18063 0.31762
# Poissons Ratio (z) = 0.29483 0.56366
#
# Static dielectric constant tensor:
#      x y z
#    x 3.015230 0.000000 0.208010 
#    y 0.000000 3.091870 0.000000 
#    z 0.208010 0.000000 3.086100 
# 
# 
# High freq. dielectric constant tensor:
#      x y z
#    x 1.539130 0.000000 0.042610 
#    y 0.000000 1.606030 0.000000 
#    z 0.042610 0.000000 1.580220 
# 
# From -- ./inp_files/326849.got.cif
#   From: 2010.06.25/outbox.cif.g09.slc.cpg/sg12_164_cif.got.tgz:326849.got - 2010.06.28 00:19:55.
