data_PCOD8078706
_publ_section_title
;
Structure prediction by ZEFSAII (Michael W. Deem and Ramdas Pophale) SiO2 
 PCOD8078706
Probable space group: C 2/M
;
_chemical_formula_sum "Si O2"
_cell_formula_units_Z 64
_cell_length_a 30.990594
_cell_length_b 9.072276
_cell_length_c 14.482575
_cell_angle_alpha 90.000000
_cell_angle_beta 90.142348
_cell_angle_gamma 90.000000
_cell_volume 4071.839025
_symmetry_space_group_name_H-M "C 2/M"
_symmetry_group_IT_number 12
_symmetry_cell_setting 'monoclinic'
loop_
_space_group_symop_operation_xyz
x,y,z
-x,y,-z
-x,-y,-z
x,-y,z
1/2+x,1/2+y,z
1/2-x,1/2+y,-z
1/2-x,1/2-y,-z
1/2+x,1/2-y,z
loop_
_atom_site_type_symbol
_atom_site_label
_atom_site_fract_x
_atom_site_fract_y
_atom_site_fract_z
Si Si1 0.754798 0.329661 0.403850
Si Si2 0.548034 0.825442 0.899082
Si Si3 0.085029 0.674926 0.289316
Si Si4 0.451269 0.824852 0.899117
Si Si5 0.415844 0.174415 0.290630
Si Si6 0.659287 0.332031 0.394324
Si Si7 0.337748 0.673954 0.391367
Si Si8 0.501790 0.174775 0.396860
O O1 0.766821 0.500000 0.418997
O O2 0.750000 0.250000 0.500000
O O3 0.708080 0.314841 0.354506
O O4 0.793947 0.249015 0.350461
O O5 0.499691 0.762739 0.883475
O O6 0.579590 0.775869 0.816579
O O7 0.544526 0.000000 0.896756
O O8 0.565893 0.772760 0.999732
O O9 0.086298 0.500000 0.293964
O O10 0.079750 0.731672 0.183329
O O11 0.129418 0.732935 0.330488
O O12 0.044509 0.737066 0.347400
O O13 0.453112 0.000000 0.895433
O O14 0.376944 0.265285 0.332486
O O15 0.459311 0.224508 0.342284
O O16 0.407446 0.000000 0.301638
O O17 0.643773 0.500000 0.386585
O O18 0.656059 0.281380 0.501277
O O19 0.333660 0.500000 0.379211
O O20 0.500000 0.240709 0.500000
O O21 0.504345 0.000000 0.399465
#
# Coordination Sequence:
#
# PCOD8078706 Si02
#       8
#     8   8   8   8   8   8   8   8
#     4   9  17  31  49  67  88 115 148 185 223 264
#     4   8  13  23  41  63  88 114 145 189 231 262
#     4  10  17  26  43  66  88 116 153 186 217 256
#     4   8  13  23  40  64  89 112 145 191 230 257
#     4  10  17  27  44  65  87 118 154 184 222 264
#     4   9  19  32  44  62  90 119 145 176 219 266
#     4  10  20  32  45  64  91 120 150 185 223 265
#     4   9  16  24  35  57  88 117 149 185 211 241
#
# _framework density 15.717714000000001
#
# number of rings (size 3 to 8) (size 9 to 14) (size 15 to 20)
#    0.000    2.875    1.250    3.000    0.000    4.000 
#    0.000    0.625    0.000    3.000    0.000    2.625 
#    0.000    0.000    0.000    0.000    0.000    0.000 
#
# Total GULP energy -396526.080263 kJ/mol
# GULP energy per Si atom -12391.440008 kJ/mol
# Density = 1.568194 g / cm^3
# Si number density = 15.717714 Si / 1000 Ang^3
#
#
#
# Elastic Constant Matrix: (Units=GPa)
#
#
# Indices 1 2 3 4 5 6 
#
# 1 111.2252 39.7155 58.6242 0.0000 2.5065 0.0000
# 2 39.7155 44.5212 30.7501 0.0000 0.3077 0.0000
# 3 58.6242 30.7501 118.6535 0.0000 4.5799 0.0000
# 4 0.0000 0.0000 0.0000 10.8904 0.0000 -0.6388
# 5 2.5065 0.3077 4.5799 0.0000 9.2030 0.0000
# 6 0.0000 0.0000 0.0000 -0.6388 0.0000 23.0454
#
#
#
# Elastic Compliance Matrix: (Units=1/GPa)
#
#
# Indices 1 2 3 4 5 6 
#
# 1 0.015213 -0.010240 -0.004808 0.000000 -0.001408 0.000000
# 2 -0.010240 0.034316 -0.003973 0.000000 0.003619 0.000000
# 3 -0.004808 -0.003973 0.012008 0.000000 -0.004534 0.000000
# 4 0.000000 0.000000 0.000000 0.091974 0.000000 0.002550
# 5 -0.001408 0.003619 -0.004534 0.000000 0.111179 0.000000
# 6 0.000000 0.000000 0.000000 0.002550 0.000000 0.043463
#
#
# Mechanical properties :
#
#
# Convention : Reuss Voigt Hill
#
# Bulk Modulus (GPa) = 42.56576 59.17552 50.87064
# Shear Modulus (GPa) = 14.12315 18.31510 16.21912
#
# Velocity S-wave (km/s) = 3.00083 3.41728 3.21581
# Velocity P-wave (km/s) = 6.25674 7.30076 6.79882
#
# Compressibility (1/GPa) = 0.02349306
#
# Stress axis : x y z
#
# Youngs Moduli (GPa) = 65.73114 29.14128 83.27562
#
# Poissons Ratio (x) = 0.29842 0.40042
# Poissons Ratio (y) = 0.67312 0.33088
# Poissons Ratio (z) = 0.31606 0.11579
#
# Static dielectric constant tensor:
#      x y z
#    x 3.075500 0.000000 -0.018760 
#    y 0.000000 2.719990 0.000000 
#    z -0.018760 0.000000 3.214170 
# 
# 
# High freq. dielectric constant tensor:
#      x y z
#    x 1.595310 0.000000 -0.001910 
#    y 0.000000 1.572090 0.000000 
#    z -0.001910 0.000000 1.589110 
# 
# From -- ./inp_files/248392.got.cif
#   From: 2010.06.25/outbox.cif.g09.slc.cpg/sg12_125_cif.got.tgz:248392.got - 2010.06.28 00:19:55.
