data_PCOD8078594
_publ_section_title
;
Structure prediction by ZEFSAII (Michael W. Deem and Ramdas Pophale) SiO2 
 PCOD8078594
Probable space group: C 2/M
;
_chemical_formula_sum "Si O2"
_cell_formula_units_Z 48
_cell_length_a 20.415281
_cell_length_b 8.732784
_cell_length_c 16.584956
_cell_angle_alpha 90.000000
_cell_angle_beta 115.653949
_cell_angle_gamma 90.000000
_cell_volume 2665.337057
_symmetry_space_group_name_H-M "C 2/M"
_symmetry_group_IT_number 12
_symmetry_cell_setting 'monoclinic'
loop_
_space_group_symop_operation_xyz
x,y,z
-x,y,-z
-x,-y,-z
x,-y,z
1/2+x,1/2+y,z
1/2-x,1/2+y,-z
1/2-x,1/2-y,-z
1/2+x,1/2-y,z
loop_
_atom_site_type_symbol
_atom_site_label
_atom_site_fract_x
_atom_site_fract_y
_atom_site_fract_z
Si Si1 0.554805 0.323585 0.956336
Si Si2 0.290541 0.820794 0.945721
Si Si3 0.180740 0.675106 0.776732
Si Si4 0.960116 0.820296 0.593087
Si Si5 0.973083 0.320893 0.224891
Si Si6 0.097430 0.678125 0.581391
O O1 0.569200 0.500000 0.943505
O O2 0.629812 0.246495 0.021510
O O3 0.500000 0.301461 0.000000
O O4 0.518777 0.243642 0.860140
O O5 0.245317 0.784112 0.840703
O O6 0.297034 0.000000 0.962601
O O7 0.250000 0.750000 0.000000
O O8 0.202309 0.500000 0.806489
O O9 0.107211 0.717749 0.785162
O O10 0.169672 0.700889 0.674367
O O11 0.894450 0.739819 0.506329
O O12 0.964631 0.757080 0.686593
O O13 0.034867 0.778204 0.589129
O O14 0.946582 0.000000 0.587693
O O15 0.987918 0.500000 0.233308
O O16 0.074618 0.500000 0.570435
#
# Coordination Sequence:
#
# PCOD8078594 Si02
#       6
#     8   8   8   8   8   8
#     4  11  24  40  57  78 106 139 178 224 270 318
#     4  12  23  35  55  79 107 141 179 221 265 317
#     4   9  18  31  49  74 103 136 174 217 263 310
#     4  10  17  25  41  66  99 134 170 211 258 311
#     4  10  19  32  51  73 101 138 176 215 261 314
#     4   9  16  27  42  64  98 134 170 211 259 312
#
# _framework density 18.008980000000001
#
# number of rings (size 3 to 8) (size 9 to 14) (size 15 to 20)
#    0.000    1.833    1.667    6.500    0.000    4.667 
#    0.000    0.000    0.000    0.000    0.000    1.167 
#    0.000    0.000    0.000    0.000    0.000    0.000 
#
# Total GULP energy -297528.458057 kJ/mol
# GULP energy per Si atom -12397.019086 kJ/mol
# Density = 1.796799 g / cm^3
# Si number density = 18.008980 Si / 1000 Ang^3
#
#
#
# Elastic Constant Matrix: (Units=GPa)
#
#
# Indices 1 2 3 4 5 6 
#
# 1 42.8087 33.4747 29.0160 0.0000 5.9361 0.0000
# 2 33.4747 108.5065 53.8491 0.0000 3.5969 0.0000
# 3 29.0160 53.8491 160.1747 0.0000 12.2934 0.0000
# 4 0.0000 0.0000 0.0000 37.7307 0.0000 2.4667
# 5 5.9361 3.5969 12.2934 0.0000 14.6813 0.0000
# 6 0.0000 0.0000 0.0000 2.4667 0.0000 17.6799
#
#
#
# Elastic Compliance Matrix: (Units=1/GPa)
#
#
# Indices 1 2 3 4 5 6 
#
# 1 0.033058 -0.008729 -0.002343 0.000000 -0.009266 0.000000
# 2 -0.008729 0.013369 -0.003134 0.000000 0.002878 0.000000
# 3 -0.002343 -0.003134 0.008111 0.000000 -0.005076 0.000000
# 4 0.000000 0.000000 0.000000 0.026748 0.000000 -0.003732
# 5 -0.009266 0.002878 -0.005076 0.000000 0.075406 0.000000
# 6 0.000000 0.000000 0.000000 -0.003732 0.000000 0.057082
#
#
# Mechanical properties :
#
#
# Convention : Reuss Voigt Hill
#
# Bulk Modulus (GPa) = 38.27546 60.46326 49.36936
# Shear Modulus (GPa) = 19.92873 27.02837 23.47855
#
# Velocity S-wave (km/s) = 3.33017 3.87825 3.61461
# Velocity P-wave (km/s) = 6.00719 7.32812 6.70029
#
# Compressibility (1/GPa) = 0.02612640
#
# Stress axis : x y z
#
# Youngs Moduli (GPa) = 30.24977 74.80060 123.29089
#
# Poissons Ratio (x) = 0.65291 0.28886
# Poissons Ratio (y) = 0.26404 0.38641
# Poissons Ratio (z) = 0.07087 0.23444
#
# Static dielectric constant tensor:
#      x y z
#    x 2.815350 0.000000 0.271310 
#    y 0.000000 3.439760 0.000000 
#    z 0.271310 0.000000 4.195520 
# 
# 
# High freq. dielectric constant tensor:
#      x y z
#    x 1.619370 0.000000 0.015380 
#    y 0.000000 1.712730 0.000000 
#    z 0.015380 0.000000 1.727990 
# 
# From -- ./inp_files/230375.got.cif
#   From: 2010.06.25/outbox.cif.g09.slc.cpg/sg12_116_cif.got.tgz:230375.got - 2010.06.28 00:19:55.
