data_PCOD8078067
_publ_section_title
;
Structure prediction by ZEFSAII (Michael W. Deem and Ramdas Pophale) SiO2 
 PCOD8078067
Probable space group: C 2/M
;
_chemical_formula_sum "Si O2"
_cell_formula_units_Z 64
_cell_length_a 17.799556
_cell_length_b 18.341101
_cell_length_c 13.714720
_cell_angle_alpha 90.000000
_cell_angle_beta 70.849772
_cell_angle_gamma 90.000000
_cell_volume 4229.585640
_symmetry_space_group_name_H-M "C 2/M"
_symmetry_group_IT_number 12
_symmetry_cell_setting 'monoclinic'
loop_
_space_group_symop_operation_xyz
x,y,z
-x,y,-z
-x,-y,-z
x,-y,z
1/2+x,1/2+y,z
1/2-x,1/2+y,-z
1/2-x,1/2-y,-z
1/2+x,1/2-y,z
loop_
_atom_site_type_symbol
_atom_site_label
_atom_site_fract_x
_atom_site_fract_y
_atom_site_fract_z
Si Si1 0.220198 0.582108 0.895338
Si Si2 0.590360 0.419729 0.493309
Si Si3 0.027835 0.914099 0.720593
Si Si4 0.739816 0.581471 0.899245
Si Si5 0.855375 0.720591 0.041892
Si Si6 0.862289 0.144348 0.716164
Si Si7 0.820028 0.721940 0.845759
Si Si8 0.073775 0.142086 0.905628
O O1 0.189667 0.500000 0.891408
O O2 0.143114 0.636110 0.922160
O O3 0.285132 0.602131 0.786976
O O4 0.260571 0.592006 0.984146
O O5 0.500000 0.426617 0.500000
O O6 0.630177 0.500000 0.467349
O O7 0.589045 0.393757 0.606620
O O8 0.636019 0.363551 0.402474
O O9 0.938083 0.893324 0.732652
O O10 0.056798 0.867248 0.799346
O O11 0.030888 0.000000 0.742440
O O12 0.765215 0.500000 0.857844
O O13 0.803742 0.637311 0.823111
O O14 0.650737 0.596097 0.901866
O O15 0.764903 0.744199 0.094741
O O16 0.914479 0.771463 0.078255
O O17 0.876148 0.726828 0.917876
O O18 0.860614 0.230872 0.742461
O O19 0.000000 0.112040 0.000000
#
# Coordination Sequence:
#
# PCOD8078067 Si02
#       8
#     8   8   8   8   8   8   8   8
#     4   9  15  24  42  61  74  96 133 170 194 216
#     4   8  15  26  37  52  78 106 127 154 189 218
#     4  10  19  27  36  56  85 109 125 147 186 233
#     4   9  17  27  38  57  83 104 125 157 194 226
#     4   8  15  26  36  53  80 103 125 157 194 221
#     4  10  15  24  42  60  77  97 129 163 190 223
#     4   8  14  25  40  55  74 102 130 159 191 219
#     4  11  19  26  38  56  81 110 130 144 178 237
#
# _framework density 15.131505000000001
#
# number of rings (size 3 to 8) (size 9 to 14) (size 15 to 20)
#    0.000    2.875    0.000    6.000    0.000    2.000 
#    0.000    0.000    0.000    7.125    0.000    0.875 
#    0.000    4.500    0.000    0.000    0.000    0.000 
#
# Total GULP energy -396508.268165 kJ/mol
# GULP energy per Si atom -12390.883380 kJ/mol
# Density = 1.509707 g / cm^3
# Si number density = 15.131505 Si / 1000 Ang^3
#
#
#
# Elastic Constant Matrix: (Units=GPa)
#
#
# Indices 1 2 3 4 5 6 
#
# 1 26.4662 21.2592 24.5988 0.0000 6.0725 0.0000
# 2 21.2592 122.6367 51.9112 0.0000 -2.0722 0.0000
# 3 24.5988 51.9112 107.0589 0.0000 0.6253 0.0000
# 4 0.0000 0.0000 0.0000 21.6721 0.0000 -1.8739
# 5 6.0725 -2.0722 0.6253 0.0000 15.7763 0.0000
# 6 0.0000 0.0000 0.0000 -1.8739 0.0000 16.3898
#
#
#
# Elastic Compliance Matrix: (Units=1/GPa)
#
#
# Indices 1 2 3 4 5 6 
#
# 1 0.057113 -0.006013 -0.010076 0.000000 -0.022374 0.000000
# 2 -0.006013 0.010931 -0.003941 0.000000 0.003907 0.000000
# 3 -0.010076 -0.003941 0.013551 0.000000 0.002824 0.000000
# 4 0.000000 0.000000 0.000000 0.046603 0.000000 0.005328
# 5 -0.022374 0.003907 0.002824 0.000000 0.072400 0.000000
# 6 0.000000 0.000000 0.000000 0.005328 0.000000 0.061623
#
#
# Mechanical properties :
#
#
# Convention : Reuss Voigt Hill
#
# Bulk Modulus (GPa) = 24.07752 50.18891 37.13321
# Shear Modulus (GPa) = 15.81643 21.32714 18.57179
#
# Velocity S-wave (km/s) = 3.23656 3.75834 3.50717
# Velocity P-wave (km/s) = 5.46935 7.21623 6.40265
#
# Compressibility (1/GPa) = 0.04153252
#
# Stress axis : x y z
#
# Youngs Moduli (GPa) = 17.50901 91.48325 73.79796
#
# Poissons Ratio (x) = 0.55013 0.74362
# Poissons Ratio (y) = 0.10529 0.29086
# Poissons Ratio (z) = 0.17643 0.36057
#
# Static dielectric constant tensor:
#      x y z
#    x 2.589390 0.000000 0.023900 
#    y 0.000000 3.393160 0.000000 
#    z 0.023900 0.000000 3.059650 
# 
# 
# High freq. dielectric constant tensor:
#      x y z
#    x 1.535810 0.000000 0.004290 
#    y 0.000000 1.583290 0.000000 
#    z 0.004290 0.000000 1.561990 
# 
# From -- ./inp_files/157809.got.cif
#   From: 2010.06.25/outbox.cif.g09.slc.cpg/sg12_79_cif.got.tgz:157809.got - 2010.06.28 00:19:55.
