data_PCOD8078014
_publ_section_title
;
Structure prediction by ZEFSAII (Michael W. Deem and Ramdas Pophale) SiO2 
 PCOD8078014
Probable space group: P 21/M
;
_chemical_formula_sum "Si O2"
_cell_formula_units_Z 28
_cell_length_a 30.000000
_cell_length_b 9.000000
_cell_length_c 30.000000
_cell_angle_alpha 90.000000
_cell_angle_beta 10.000000
_cell_angle_gamma 90.000000
_cell_volume 1406.550239
_symmetry_space_group_name_H-M "P 21/M"
_symmetry_group_IT_number 11
_symmetry_cell_setting 'monoclinic'
loop_
_space_group_symop_operation_xyz
x,y,z
-x,1/2+y,-z
-x,-y,-z
x,1/2-y,z
loop_
_atom_site_type_symbol
_atom_site_label
_atom_site_fract_x
_atom_site_fract_y
_atom_site_fract_z
Si Si1 0.862879 0.427849 0.441441
Si Si2 0.659619 0.422068 0.179212
Si Si3 0.339362 0.920583 0.926991
Si Si4 0.818601 0.430551 0.301707
Si Si5 0.928258 0.924169 0.469722
Si Si6 0.238581 0.068836 0.738588
Si Si7 0.539634 0.077677 0.007534
O O1 0.856666 0.250000 0.442175
O O2 0.581546 0.493988 0.709138
O O3 0.944490 0.473311 0.410509
O O4 0.074556 0.496740 0.199830
O O5 0.667841 0.250000 0.188827
O O6 0.632878 0.420699 0.152962
O O7 0.414987 0.511876 0.438154
O O8 0.913397 0.512500 0.942422
O O9 0.333627 0.750000 0.950556
O O10 0.816427 0.250000 0.300363
O O11 0.785236 0.510726 0.287692
O O12 0.918079 0.750000 0.466569
O O13 0.180376 0.962060 0.249813
O O14 0.677737 0.974821 0.743742
O O15 0.239792 0.250000 0.739968
O O16 0.500000 0.000000 0.500000
O O17 0.000000 0.000000 0.000000
O O18 0.507525 0.250000 0.030074
O O19 0.500000 0.000000 0.000000
#
# Coordination Sequence:
#
# PCOD8078014 Si02
#       7
#     4   4   4   4   4   4   4
#     4  12  25  40  63  95 126 158 205 262 311 356
#     4  11  24  43  66  93 124 165 212 255 304 367
#     4  11  24  43  66  90 124 168 208 249 308 377
#     4  12  25  42  65  95 129 166 206 255 314 368
#     4  10  21  38  58  82 115 157 199 238 295 365
#     4  12  25  44  67  94 128 166 210 259 310 369
#     4  10  21  36  57  83 112 150 195 244 295 354
#
# _framework density 19.906860999999999
#
# number of rings (size 3 to 8) (size 9 to 14) (size 15 to 20)
#    0.000    0.857    0.000    7.714    0.000    8.000 
#    0.000    0.000    0.000    0.000    0.000    0.000 
#    0.000    0.000    0.000    0.000    0.000    0.000 
#
# Total GULP energy -347259.153883 kJ/mol
# GULP energy per Si atom -12402.112639 kJ/mol
# Density = 1.986155 g / cm^3
# Si number density = 19.906861 Si / 1000 Ang^3
#
#
#
# Elastic Constant Matrix: (Units=GPa)
#
#
# Indices 1 2 3 4 5 6 
#
# 1 87.5815 39.7136 20.7247 0.0000 1.4413 0.0000
# 2 39.7136 181.4162 51.1384 0.0000 -0.8574 0.0000
# 3 20.7247 51.1384 150.5926 0.0000 -0.4436 0.0000
# 4 0.0000 0.0000 0.0000 27.6203 0.0000 -3.7447
# 5 1.4413 -0.8574 -0.4436 0.0000 40.7438 0.0000
# 6 0.0000 0.0000 0.0000 -3.7447 0.0000 39.6799
#
#
#
# Elastic Compliance Matrix: (Units=1/GPa)
#
#
# Indices 1 2 3 4 5 6 
#
# 1 0.012795 -0.002551 -0.000896 0.000000 -0.000516 0.000000
# 2 -0.002551 0.006605 -0.001891 0.000000 0.000209 0.000000
# 3 -0.000896 -0.001891 0.007406 0.000000 0.000073 0.000000
# 4 0.000000 0.000000 0.000000 0.036675 0.000000 0.003461
# 5 -0.000516 0.000209 0.000073 0.000000 0.024567 0.000000
# 6 0.000000 0.000000 0.000000 0.003461 0.000000 0.025528
#
#
# Mechanical properties :
#
#
# Convention : Reuss Voigt Hill
#
# Bulk Modulus (GPa) = 61.99746 71.41596 66.70671
# Shear Modulus (GPa) = 38.57170 42.14303 40.35737
#
# Velocity S-wave (km/s) = 4.40660 4.60609 4.50745
# Velocity P-wave (km/s) = 7.55660 8.01505 7.78920
#
# Compressibility (1/GPa) = 0.01612969
#
# Stress axis : x y z
#
# Youngs Moduli (GPa) = 78.15460 151.40850 135.02234
#
# Poissons Ratio (x) = 0.38621 0.12101
# Poissons Ratio (y) = 0.19936 0.25535
# Poissons Ratio (z) = 0.07004 0.28634
#
# Static dielectric constant tensor:
#      x y z
#    x 3.738830 0.000000 0.008700 
#    y 0.000000 4.144260 0.000000 
#    z 0.008700 0.000000 4.162740 
# 
# 
# High freq. dielectric constant tensor:
#      x y z
#    x 1.794540 0.000000 -0.001110 
#    y 0.000000 1.803730 0.000000 
#    z -0.001110 0.000000 1.814130 
# 
# From -- ./inp_files/73836.got.cif
#   From: 2010.06.25/outbox.ucp.g09.slc.cvg/sg11_37_cif.got.tgz:73836.got - 2010.06.28 13:43:20.
