data_PCOD8078847
_publ_section_title
;
Structure prediction by ZEFSAII (Michael W. Deem and Ramdas Pophale) SiO2 
 PCOD8078847
Probable space group: C 2/M
;
_chemical_formula_sum "Si O2"
_cell_formula_units_Z 64
_cell_length_a 14.106815
_cell_length_b 23.685623
_cell_length_c 12.397539
_cell_angle_alpha 90.000000
_cell_angle_beta 66.712302
_cell_angle_gamma 90.000000
_cell_volume 3804.899769
_symmetry_space_group_name_H-M "C 2/M"
_symmetry_group_IT_number 12
_symmetry_cell_setting 'monoclinic'
loop_
_space_group_symop_operation_xyz
x,y,z
-x,y,-z
-x,-y,-z
x,-y,z
1/2+x,1/2+y,z
1/2-x,1/2+y,-z
1/2-x,1/2-y,-z
1/2+x,1/2-y,z
loop_
_atom_site_type_symbol
_atom_site_label
_atom_site_fract_x
_atom_site_fract_y
_atom_site_fract_z
Si Si1 0.758044 0.320971 0.286275
Si Si2 0.249853 0.675634 0.101198
Si Si3 0.580595 0.828028 0.601010
Si Si4 0.209463 0.437656 0.796486
Si Si5 0.704214 0.937383 0.053018
Si Si6 0.368389 0.214878 0.648700
Si Si7 0.514948 0.062638 0.740145
Si Si8 0.880314 0.721119 0.026742
O O1 0.838593 0.309886 0.345380
O O2 0.723444 0.387152 0.289669
O O3 0.659577 0.281229 0.353626
O O4 0.811692 0.306043 0.150287
O O5 0.280662 0.610090 0.067700
O O6 0.217578 0.685175 0.239098
O O7 0.350241 0.712823 0.027716
O O8 0.150389 0.690606 0.070868
O O9 0.634043 0.820590 0.460946
O O10 0.481740 0.786576 0.651214
O O11 0.541382 0.892455 0.634456
O O12 0.256935 0.500000 0.748266
O O13 0.094734 0.432137 0.802092
O O14 0.197585 0.429438 0.928607
O O15 0.594706 0.925405 0.157285
O O16 0.745183 0.000000 0.063630
O O17 0.519237 0.000000 0.686108
O O18 0.000000 0.713903 0.000000
#
# Coordination Sequence:
#
# PCOD8078847 Si02
#       8
#     8   8   8   8   8   8   8   8
#     4  10  19  31  49  69  93 123 154 192 235 279
#     4  10  19  32  45  68  97 121 158 191 228 282
#     4  10  19  32  48  65  95 126 156 198 224 269
#     4   9  17  27  43  69  95 120 150 188 235 284
#     4  10  17  27  44  67  96 125 152 186 232 279
#     4  10  20  32  45  66  94 127 161 189 226 271
#     4   9  17  28  44  67  94 126 157 186 226 278
#     4  10  20  30  48  69  93 124 154 192 237 279
#
# _framework density 16.820416000000002
#
# number of rings (size 3 to 8) (size 9 to 14) (size 15 to 20)
#    0.000    2.250    2.500    1.500    1.750    1.500 
#    0.000    1.875    0.000    0.375    0.000    1.750 
#    0.000    2.000    0.000    0.000    0.000    0.000 
#
# Total GULP energy -396592.610847 kJ/mol
# GULP energy per Si atom -12393.519089 kJ/mol
# Density = 1.678213 g / cm^3
# Si number density = 16.820416 Si / 1000 Ang^3
#
#
#
# Elastic Constant Matrix: (Units=GPa)
#
#
# Indices 1 2 3 4 5 6 
#
# 1 39.7159 31.2781 6.4200 0.0000 3.2733 0.0000
# 2 31.2781 147.9463 35.5882 0.0000 4.7625 0.0000
# 3 6.4200 35.5882 66.5063 0.0000 8.3800 0.0000
# 4 0.0000 0.0000 0.0000 23.9226 0.0000 -0.5272
# 5 3.2733 4.7625 8.3800 0.0000 13.6114 0.0000
# 6 0.0000 0.0000 0.0000 -0.5272 0.0000 24.4055
#
#
#
# Elastic Compliance Matrix: (Units=1/GPa)
#
#
# Indices 1 2 3 4 5 6 
#
# 1 0.030654 -0.006609 0.001317 0.000000 -0.005870 0.000000
# 2 -0.006609 0.009183 -0.004414 0.000000 0.001094 0.000000
# 3 0.001317 -0.004414 0.018556 0.000000 -0.010196 0.000000
# 4 0.000000 0.000000 0.000000 0.041821 0.000000 0.000903
# 5 -0.005870 0.001094 -0.010196 0.000000 0.080775 0.000000
# 6 0.000000 0.000000 0.000000 0.000903 0.000000 0.040994
#
#
# Mechanical properties :
#
#
# Convention : Reuss Voigt Hill
#
# Bulk Modulus (GPa) = 25.65281 44.52676 35.08979
# Shear Modulus (GPa) = 19.65503 24.44670 22.05086
#
# Velocity S-wave (km/s) = 3.42207 3.81648 3.62464
# Velocity P-wave (km/s) = 5.55862 6.77864 6.19872
#
# Compressibility (1/GPa) = 0.03898209
#
# Stress axis : x y z
#
# Youngs Moduli (GPa) = 32.62182 108.89839 53.89186
#
# Poissons Ratio (x) = 0.71966 -0.07097
# Poissons Ratio (y) = 0.21558 0.23786
# Poissons Ratio (z) = -0.04296 0.48065
#
# Static dielectric constant tensor:
#      x y z
#    x 2.914000 0.000000 0.153140 
#    y 0.000000 3.687860 0.000000 
#    z 0.153140 0.000000 3.090320 
# 
# 
# High freq. dielectric constant tensor:
#      x y z
#    x 1.606010 0.000000 0.019730 
#    y 0.000000 1.663630 0.000000 
#    z 0.019730 0.000000 1.640570 
# 
# From -- ./inp_files/148640.got.cif
#   From: 2010.06.25/outbox.cif.g09.slc.cpg/sg12_75_cif.got.tgz:148640.got - 2010.06.28 00:19:55.
