data_PCOD8078235
_publ_section_title
;
Structure prediction by ZEFSAII (Michael W. Deem and Ramdas Pophale) SiO2 
 PCOD8078235
Probable space group: C 2/M
;
_chemical_formula_sum "Si O2"
_cell_formula_units_Z 64
_cell_length_a 25.318914
_cell_length_b 13.642711
_cell_length_c 12.348160
_cell_angle_alpha 90.000000
_cell_angle_beta 106.743074
_cell_angle_gamma 90.000000
_cell_volume 4084.462814
_symmetry_space_group_name_H-M "C 2/M"
_symmetry_group_IT_number 12
_symmetry_cell_setting 'monoclinic'
loop_
_space_group_symop_operation_xyz
x,y,z
-x,y,-z
-x,-y,-z
x,-y,z
1/2+x,1/2+y,z
1/2-x,1/2+y,-z
1/2-x,1/2-y,-z
1/2+x,1/2-y,z
loop_
_atom_site_type_symbol
_atom_site_label
_atom_site_fract_x
_atom_site_fract_y
_atom_site_fract_z
Si Si1 0.124984 0.287602 0.944911
Si Si2 0.852022 0.389268 0.822086
Si Si3 0.086995 0.384765 0.349406
Si Si4 0.302071 0.610404 0.973604
Si Si5 0.387157 0.887807 0.402998
Si Si6 0.200745 0.684921 0.795836
Si Si7 0.728424 0.606099 0.806958
Si Si8 0.959581 0.616361 0.247179
O O1 0.168262 0.338144 0.887816
O O2 0.064760 0.311654 0.860300
O O3 0.124355 0.333012 0.062243
O O4 0.142185 0.173083 0.970923
O O5 0.873678 0.500000 0.844753
O O6 0.875860 0.340587 0.725959
O O7 0.786233 0.385373 0.780400
O O8 0.097369 0.500000 0.359962
O O9 0.105878 0.336256 0.475341
O O10 0.023663 0.359778 0.290027
O O11 0.319696 0.500000 0.952223
O O12 0.264899 0.657149 0.854716
O O13 0.263829 0.610691 0.058317
O O14 0.325272 0.875866 0.318562
O O15 0.431960 0.848231 0.343641
O O16 0.400672 0.000000 0.430245
O O17 0.192859 0.798804 0.753864
O O18 0.700780 0.500000 0.760086
O O19 0.948084 0.500000 0.217681
#
# Coordination Sequence:
#
# PCOD8078235 Si02
#       8
#     8   8   8   8   8   8   8   8
#     4  10  17  27  41  65  88 110 138 170 210 254
#     4  10  17  26  42  60  89 117 136 164 207 258
#     4   9  18  30  41  61  87 115 144 169 204 251
#     4  10  17  26  42  64  89 112 138 172 208 246
#     4   9  17  28  44  62  86 114 142 175 205 238
#     4  10  16  27  43  66  85 109 145 172 203 248
#     4   9  16  26  41  62  90 118 134 164 212 250
#     4   9  17  28  45  64  86 111 138 174 211 247
#
# _framework density 15.669135000000001
#
# number of rings (size 3 to 8) (size 9 to 14) (size 15 to 20)
#    0.000    2.500    2.500    1.875    0.000    3.000 
#    0.000    2.500    0.000    0.000    0.000    2.625 
#    0.000    6.000    0.000    0.000    0.000    0.000 
#
# Total GULP energy -396430.703029 kJ/mol
# GULP energy per Si atom -12388.459470 kJ/mol
# Density = 1.563347 g / cm^3
# Si number density = 15.669135 Si / 1000 Ang^3
#
#
#
# Elastic Constant Matrix: (Units=GPa)
#
#
# Indices 1 2 3 4 5 6 
#
# 1 54.1100 18.7665 37.5413 0.0000 -6.1473 0.0000
# 2 18.7665 50.2384 24.1639 0.0000 -1.4554 0.0000
# 3 37.5413 24.1639 79.5268 0.0000 -6.3720 0.0000
# 4 0.0000 0.0000 0.0000 11.5105 0.0000 3.4854
# 5 -6.1473 -1.4554 -6.3720 0.0000 22.1618 0.0000
# 6 0.0000 0.0000 0.0000 3.4854 0.0000 16.0272
#
#
#
# Elastic Compliance Matrix: (Units=1/GPa)
#
#
# Indices 1 2 3 4 5 6 
#
# 1 0.028863 -0.005000 -0.011762 0.000000 0.004296 0.000000
# 2 -0.005000 0.024184 -0.005089 0.000000 -0.001262 0.000000
# 3 -0.011762 -0.005089 0.019842 0.000000 0.002108 0.000000
# 4 0.000000 0.000000 0.000000 0.093001 0.000000 -0.020225
# 5 0.004296 -0.001262 0.002108 0.000000 0.046838 0.000000
# 6 0.000000 0.000000 0.000000 -0.020225 0.000000 0.066792
#
#
# Mechanical properties :
#
#
# Convention : Reuss Voigt Hill
#
# Bulk Modulus (GPa) = 34.26129 38.31319 36.28724
# Shear Modulus (GPa) = 15.01722 16.83347 15.92534
#
# Velocity S-wave (km/s) = 3.09915 3.28122 3.19148
# Velocity P-wave (km/s) = 5.89231 6.23375 6.06543
#
# Compressibility (1/GPa) = 0.02918746
#
# Stress axis : x y z
#
# Youngs Moduli (GPa) = 34.64607 41.34954 50.39875
#
# Poissons Ratio (x) = 0.20676 0.59277
# Poissons Ratio (y) = 0.17324 0.25648
# Poissons Ratio (z) = 0.40750 0.21043
#
# Static dielectric constant tensor:
#      x y z
#    x 2.850040 0.000000 -0.091160 
#    y 0.000000 2.957200 0.000000 
#    z -0.091160 0.000000 3.087940 
# 
# 
# High freq. dielectric constant tensor:
#      x y z
#    x 1.576350 0.000000 -0.003390 
#    y 0.000000 1.572460 0.000000 
#    z -0.003390 0.000000 1.591410 
# 
# From -- ./inp_files/176106.got.cif
#   From: 2010.06.25/outbox.cif.g09.slc.cpg/sg12_89_cif.got.tgz:176106.got - 2010.06.28 00:19:55.
