data_PCOD8078089
_publ_section_title
;
Structure prediction by ZEFSAII (Michael W. Deem and Ramdas Pophale) SiO2 
 PCOD8078089
Probable space group: C 2/M
;
_chemical_formula_sum "Si O2"
_cell_formula_units_Z 48
_cell_length_a 28.271984
_cell_length_b 14.793319
_cell_length_c 23.179265
_cell_angle_alpha 90.000000
_cell_angle_beta 17.451541
_cell_angle_gamma 90.000000
_cell_volume 2907.345768
_symmetry_space_group_name_H-M "C 2/M"
_symmetry_group_IT_number 12
_symmetry_cell_setting 'monoclinic'
loop_
_space_group_symop_operation_xyz
x,y,z
-x,y,-z
-x,-y,-z
x,-y,z
1/2+x,1/2+y,z
1/2-x,1/2+y,-z
1/2-x,1/2-y,-z
1/2+x,1/2-y,z
loop_
_atom_site_type_symbol
_atom_site_label
_atom_site_fract_x
_atom_site_fract_y
_atom_site_fract_z
Si Si1 0.730340 0.838907 0.985520
Si Si2 0.899039 0.213393 0.950969
Si Si3 0.453608 0.101348 0.381105
Si Si4 0.268001 0.249271 0.410709
Si Si5 0.608922 0.894024 0.320068
Si Si6 0.470671 0.603108 0.309914
O O1 0.895078 0.893564 0.796233
O O2 0.750000 0.750000 0.000000
O O3 0.682490 0.805814 0.977343
O O4 0.591349 0.899931 0.173310
O O5 0.045832 0.244719 0.820446
O O6 0.960056 0.148534 0.828490
O O7 0.774101 0.158443 0.134631
O O8 0.312646 0.165134 0.525367
O O9 0.523226 0.135967 0.360858
O O10 0.386066 0.000000 0.465912
O O11 0.250000 0.250000 0.500000
O O12 0.183571 0.157015 0.487511
O O13 0.500000 0.865839 0.500000
O O14 0.646398 0.000000 0.276114
O O15 0.422484 0.500000 0.353357
#
# Coordination Sequence:
#
# PCOD8078089 Si02
#       6
#     8   8   8   8   8   8
#     4  10  15  28  47  67  93 128 160 203 242 293
#     4  10  18  31  46  66 101 132 156 204 246 286
#     4  11  19  31  49  70 101 136 163 200 248 288
#     4  10  19  31  43  70 102 132 156 198 244 314
#     4  10  20  33  50  71  95 133 182 211 229 276
#     4  10  17  27  45  68  98 131 155 189 248 299
#
# _framework density 16.509905
#
# number of rings (size 3 to 8) (size 9 to 14) (size 15 to 20)
#    0.000    1.833    8.333    1.000    0.000    3.333 
#    0.000    0.833    0.000    3.000    0.000    0.000 
#    0.000   29.333    0.000    0.000    0.000    0.000 
#
# Total GULP energy -297466.064679 kJ/mol
# GULP energy per Si atom -12394.419362 kJ/mol
# Density = 1.647233 g / cm^3
# Si number density = 16.509905 Si / 1000 Ang^3
#
#
#
# Elastic Constant Matrix: (Units=GPa)
#
#
# Indices 1 2 3 4 5 6 
#
# 1 52.0823 27.2149 51.5165 -0.0023 -20.4882 0.0026
# 2 27.2149 78.2195 39.0490 -0.0054 -11.4838 0.0045
# 3 51.5165 39.0490 112.1113 0.0017 -21.5110 0.0019
# 4 -0.0023 -0.0054 0.0017 20.9768 0.0000 -0.9798
# 5 -20.4882 -11.4838 -21.5110 0.0000 29.0261 -0.0010
# 6 0.0026 0.0045 0.0019 -0.9798 -0.0010 17.9692
#
#
#
# Elastic Compliance Matrix: (Units=1/GPa)
#
#
# Indices 1 2 3 4 5 6 
#
# 1 0.043482 -0.005146 -0.014793 0.000005 0.017693 -0.000002
# 2 -0.005146 0.016239 -0.003213 0.000004 0.000412 -0.000003
# 3 -0.014793 -0.003213 0.017007 -0.000004 0.000891 0.000001
# 4 0.000005 0.000004 -0.000004 0.047793 0.000002 0.002606
# 5 0.017693 0.000412 0.000891 0.000002 0.047764 0.000000
# 6 -0.000002 -0.000003 0.000001 0.002606 0.000000 0.055793
#
#
# Mechanical properties :
#
#
# Convention : Reuss Voigt Hill
#
# Bulk Modulus (GPa) = 32.86794 53.10820 42.98807
# Shear Modulus (GPa) = 17.57320 21.90326 19.73823
#
# Velocity S-wave (km/s) = 3.26606 3.64631 3.46141
# Velocity P-wave (km/s) = 5.84586 7.06857 6.48609
#
# Compressibility (1/GPa) = 0.03042479
#
# Stress axis : x y z
#
# Youngs Moduli (GPa) = 22.99795 61.57939 58.79794
#
# Poissons Ratio (x) = 0.31688 0.86982
# Poissons Ratio (y) = 0.11835 0.18889
# Poissons Ratio (z) = 0.34022 0.19783
#
# Static dielectric constant tensor:
#      x y z
#    x 3.332580 0.000340 -0.608770 
#    y 0.000340 3.284980 -0.000350 
#    z -0.608770 -0.000350 3.313920 
# 
# 
# High freq. dielectric constant tensor:
#      x y z
#    x 1.608590 0.000000 -0.043070 
#    y 0.000000 1.631170 0.000000 
#    z -0.043070 0.000000 1.610770 
# 
# From -- ./inp_files/86806.got.cif
#   From: 2010.06.25/outbox.cif.g09.slc.cpg/sg12_44_cif.got.tgz:86806.got - 2010.06.28 00:19:55.
