data_PCOD8078667
_publ_section_title
;
Structure prediction by ZEFSAII (Michael W. Deem and Ramdas Pophale) SiO2 
 PCOD8078667
Probable space group: C 2/M
;
_chemical_formula_sum "Si O2"
_cell_formula_units_Z 56
_cell_length_a 17.804232
_cell_length_b 22.065345
_cell_length_c 12.901596
_cell_angle_alpha 90.000000
_cell_angle_beta 133.629738
_cell_angle_gamma 90.000000
_cell_volume 3668.633135
_symmetry_space_group_name_H-M "C 2/M"
_symmetry_group_IT_number 12
_symmetry_cell_setting 'monoclinic'
loop_
_space_group_symop_operation_xyz
x,y,z
-x,y,-z
-x,-y,-z
x,-y,z
1/2+x,1/2+y,z
1/2-x,1/2+y,-z
1/2-x,1/2-y,-z
1/2+x,1/2-y,z
loop_
_atom_site_type_symbol
_atom_site_label
_atom_site_fract_x
_atom_site_fract_y
_atom_site_fract_z
Si Si1 0.061654 0.178716 0.155970
Si Si2 0.594314 0.821280 0.155971
Si Si3 0.913855 0.226556 0.160385
Si Si4 0.584822 0.067475 0.669646
Si Si5 0.043699 0.342833 0.330506
Si Si6 0.713204 0.157161 0.669510
Si Si7 0.746521 0.773444 0.160371
O O1 0.079186 0.249998 0.158374
O O2 0.172483 0.145306 0.270113
O O3 0.991633 0.173244 0.194084
O O4 0.000000 0.150537 0.000000
O O5 0.597627 0.854688 0.270116
O O6 0.702450 0.826752 0.194092
O O7 0.500000 0.849459 0.000000
O O8 0.837151 0.199129 0.174306
O O9 0.977965 0.281413 0.270840
O O10 0.849469 0.250008 0.000014
O O11 0.500000 0.063984 0.500000
O O12 0.535173 0.102274 0.720387
O O13 0.685219 0.102267 0.720392
O O14 0.618362 0.000000 0.736736
O O15 0.133236 0.337495 0.500008
O O16 0.707148 0.218576 0.729206
#
# Coordination Sequence:
#
# PCOD8078667 Si02
#       7
#     8   8   8   8   8   8   8
#     4   9  15  27  39  60  89 120 145 172 210 266
#     4   9  15  27  39  60  89 120 145 172 210 266
#     4  10  17  26  41  63  91 122 153 168 208 266
#     4   9  18  32  47  66  90 112 142 187 232 263
#     4  10  18  28  44  64  86 117 151 184 217 257
#     4  10  18  28  44  64  86 117 151 184 217 257
#     4  10  17  26  41  63  91 122 153 168 208 266
#
# _framework density 15.26454
#
# number of rings (size 3 to 8) (size 9 to 14) (size 15 to 20)
#    0.000    2.429    7.143    0.000    0.000    5.143 
#    0.000    0.000    0.000    0.857    0.000    0.000 
#    0.000    0.000    0.000    7.143    0.000    0.857 
#
# Total GULP energy -346948.209663 kJ/mol
# GULP energy per Si atom -12391.007488 kJ/mol
# Density = 1.522980 g / cm^3
# Si number density = 15.264540 Si / 1000 Ang^3
#
#
#
# Elastic Constant Matrix: (Units=GPa)
#
#
# Indices 1 2 3 4 5 6 
#
# 1 181.0956 43.9007 42.8458 0.0000 -6.4347 0.0000
# 2 43.9007 46.7590 25.9432 0.0000 -1.2421 0.0000
# 3 42.8458 25.9432 78.6797 0.0000 -0.6504 0.0000
# 4 0.0000 0.0000 0.0000 5.2004 0.0000 -0.9990
# 5 -6.4347 -1.2421 -0.6504 0.0000 23.0689 0.0000
# 6 0.0000 0.0000 0.0000 -0.9990 0.0000 19.7047
#
#
#
# Elastic Compliance Matrix: (Units=1/GPa)
#
#
# Indices 1 2 3 4 5 6 
#
# 1 0.007499 -0.005798 -0.002158 0.000000 0.001719 0.000000
# 2 -0.005798 0.030689 -0.006963 0.000000 -0.000161 0.000000
# 3 -0.002158 -0.006963 0.016176 0.000000 -0.000521 0.000000
# 4 0.000000 0.000000 0.000000 0.194184 0.000000 0.009845
# 5 0.001719 -0.000161 -0.000521 0.000000 0.043804 0.000000
# 6 0.000000 0.000000 0.000000 0.009845 0.000000 0.051248
#
#
# Mechanical properties :
#
#
# Convention : Reuss Voigt Hill
#
# Bulk Modulus (GPa) = 40.77168 59.10152 49.93660
# Shear Modulus (GPa) = 13.10226 22.51778 17.81002
#
# Velocity S-wave (km/s) = 2.93293 3.84496 3.41949
# Velocity P-wave (km/s) = 6.18365 7.64944 6.95526
#
# Compressibility (1/GPa) = 0.02452683
#
# Stress axis : x y z
#
# Youngs Moduli (GPa) = 133.35114 32.58531 61.81833
#
# Poissons Ratio (x) = 0.18892 0.13339
# Poissons Ratio (y) = 0.77314 0.43045
# Poissons Ratio (z) = 0.28774 0.22690
#
# Static dielectric constant tensor:
#      x y z
#    x 3.653970 0.000000 -0.053310 
#    y 0.000000 2.548010 0.000000 
#    z -0.053310 0.000000 2.885540 
# 
# 
# High freq. dielectric constant tensor:
#      x y z
#    x 1.611660 0.000000 -0.002340 
#    y 0.000000 1.507160 0.000000 
#    z -0.002340 0.000000 1.577940 
# 
# From -- ./inp_files/159283.got.cif
#   From: 2010.06.25/outbox.cif.g09.slc.cpg/sg12_80_cif.got.tgz:159283.got - 2010.06.28 00:19:55.
