data_PCOD8078399
_publ_section_title
;
Structure prediction by ZEFSAII (Michael W. Deem and Ramdas Pophale) SiO2 
 PCOD8078399
Probable space group: C 2/M
;
_chemical_formula_sum "Si O2"
_cell_formula_units_Z 56
_cell_length_a 22.837910
_cell_length_b 14.701375
_cell_length_c 20.472575
_cell_angle_alpha 90.000000
_cell_angle_beta 24.818796
_cell_angle_gamma 90.000000
_cell_volume 2885.209421
_symmetry_space_group_name_H-M "C 2/M"
_symmetry_group_IT_number 12
_symmetry_cell_setting 'monoclinic'
loop_
_space_group_symop_operation_xyz
x,y,z
-x,y,-z
-x,-y,-z
x,-y,z
1/2+x,1/2+y,z
1/2-x,1/2+y,-z
1/2-x,1/2-y,-z
1/2+x,1/2-y,z
loop_
_atom_site_type_symbol
_atom_site_label
_atom_site_fract_x
_atom_site_fract_y
_atom_site_fract_z
Si Si1 0.321898 0.396828 0.901038
Si Si2 0.124813 0.860220 0.599253
Si Si3 0.958060 0.331570 0.358506
Si Si4 0.756215 0.777376 0.088653
Si Si5 0.313825 0.397889 0.315834
Si Si6 0.999631 0.249939 0.073740
Si Si7 0.925998 0.599041 0.253409
O O1 0.260091 0.500000 0.965183
O O2 0.482449 0.402432 0.713915
O O3 0.233407 0.329540 0.943534
O O4 0.326104 0.346357 0.966613
O O5 0.131059 0.753570 0.577193
O O6 0.120346 0.877361 0.680758
O O7 0.259163 0.906579 0.431779
O O8 0.854916 0.387335 0.510170
O O9 0.001142 0.383375 0.247834
O O10 0.094931 0.305851 0.261517
O O11 0.845221 0.786927 0.064848
O O12 0.347906 0.500000 0.258822
O O13 0.385133 0.330315 0.191868
O O14 0.961297 0.328421 0.162951
O O15 0.000000 0.288629 0.000000
O O16 0.976029 0.500000 0.178399
#
# Coordination Sequence:
#
# PCOD8078399 Si02
#       7
#     8   8   8   8   8   8   8
#     4  10  18  31  56  88 122 143 171 232 296 344
#     4  10  16  31  58  90 117 144 173 228 297 344
#     4  10  18  35  61  88 119 137 173 238 300 341
#     4  10  22  35  53  86 115 149 186 223 287 344
#     4  11  20  36  60  86 113 147 187 229 285 340
#     4  12  25  42  56  76 115 161 200 233 264 325
#     4  11  20  34  59  90 117 147 188 231 285 340
#
# _framework density 19.409334000000001
#
# number of rings (size 3 to 8) (size 9 to 14) (size 15 to 20)
#    0.000    1.429    4.286    5.143    0.000    3.429 
#    0.000    0.714    0.000    0.857    0.000    3.000 
#    0.000    0.000    0.000    0.000    0.000    0.000 
#
# Total GULP energy -347081.130409 kJ/mol
# GULP energy per Si atom -12395.754657 kJ/mol
# Density = 1.936516 g / cm^3
# Si number density = 19.409334 Si / 1000 Ang^3
#
#
#
# Elastic Constant Matrix: (Units=GPa)
#
#
# Indices 1 2 3 4 5 6 
#
# 1 85.6734 14.0071 40.1388 -0.0008 -7.1508 0.0019
# 2 14.0071 132.9233 18.1434 -0.0003 -0.5171 0.0015
# 3 40.1388 18.1434 61.4267 -0.0018 -9.2140 0.0045
# 4 -0.0008 -0.0003 -0.0018 10.4034 0.0003 -5.3720
# 5 -7.1508 -0.5171 -9.2140 0.0003 21.2251 -0.0017
# 6 0.0019 0.0015 0.0045 -5.3720 -0.0017 4.6347
#
#
#
# Elastic Compliance Matrix: (Units=1/GPa)
#
#
# Indices 1 2 3 4 5 6 
#
# 1 0.016852 -0.000301 -0.010774 0.000004 0.000993 0.000008
# 2 -0.000301 0.007860 -0.002258 -0.000001 -0.000890 -0.000002
# 3 -0.010774 -0.002258 0.025066 -0.000013 0.007197 -0.000032
# 4 0.000004 -0.000001 -0.000013 0.239418 0.000015 0.277505
# 5 0.000993 -0.000890 0.007197 0.000015 0.050551 0.000028
# 6 0.000008 -0.000002 -0.000032 0.277505 0.000028 0.537413
#
#
# Mechanical properties :
#
#
# Convention : Reuss Voigt Hill
#
# Bulk Modulus (GPa) = 43.26911 47.17800 45.22356
# Shear Modulus (GPa) = 5.48528 21.10158 13.29343
#
# Velocity S-wave (km/s) = 1.68293 3.30083 2.61990
# Velocity P-wave (km/s) = 5.11054 6.23594 5.70108
#
# Compressibility (1/GPa) = 0.02311118
#
# Stress axis : x y z
#
# Youngs Moduli (GPa) = 59.33990 127.23218 39.89444
#
# Poissons Ratio (x) = 0.03834 0.42982
# Poissons Ratio (y) = 0.01788 0.09009
# Poissons Ratio (z) = 0.63932 0.28730
#
# Static dielectric constant tensor:
#      x y z
#    x 3.124220 -0.000010 -0.398420 
#    y -0.000010 3.653820 0.000010 
#    z -0.398420 0.000010 3.543060 
# 
# 
# High freq. dielectric constant tensor:
#      x y z
#    x 1.703610 0.000000 -0.046720 
#    y 0.000000 1.766600 0.000000 
#    z -0.046720 0.000000 1.754180 
# 
# From -- ./inp_files/284480.got.cif
#   From: 2010.06.25/outbox.cif.g09.slc.cpg/sg12_143_cif.got.tgz:284480.got - 2010.06.28 00:19:55.
