data_PCOD8078982
_publ_section_title
;
Structure prediction by ZEFSAII (Michael W. Deem and Ramdas Pophale) SiO2 
 PCOD8078982
Probable space group: C 2/M
;
_chemical_formula_sum "Si O2"
_cell_formula_units_Z 60
_cell_length_a 12.739364
_cell_length_b 13.863507
_cell_length_c 19.437756
_cell_angle_alpha 90.000000
_cell_angle_beta 104.055188
_cell_angle_gamma 90.000000
_cell_volume 3330.171388
_symmetry_space_group_name_H-M "C 2/M"
_symmetry_group_IT_number 12
_symmetry_cell_setting 'monoclinic'
loop_
_space_group_symop_operation_xyz
x,y,z
-x,y,-z
-x,-y,-z
x,-y,z
1/2+x,1/2+y,z
1/2-x,1/2+y,-z
1/2-x,1/2-y,-z
1/2+x,1/2-y,z
loop_
_atom_site_type_symbol
_atom_site_label
_atom_site_fract_x
_atom_site_fract_y
_atom_site_fract_z
Si Si1 0.600404 0.719873 0.821299
Si Si2 0.243489 0.887900 0.186477
Si Si3 0.641057 0.603999 0.598567
Si Si4 0.825463 0.701156 0.567568
Si Si5 0.752104 0.892569 0.245633
Si Si6 0.000000 0.259290 0.500000
Si Si7 0.483070 0.610714 0.917781
Si Si8 0.125098 0.224844 0.280256
O O1 0.652750 0.827413 0.825338
O O2 0.695268 0.645962 0.816027
O O3 0.558476 0.687961 0.889812
O O4 0.501061 0.706233 0.752508
O O5 0.204532 0.853258 0.256415
O O6 0.142936 0.871882 0.119070
O O7 0.277910 0.000000 0.196131
O O8 0.590567 0.500000 0.570749
O O9 0.763919 0.608007 0.587298
O O10 0.652597 0.613192 0.682192
O O11 0.572488 0.691161 0.559002
O O12 0.750000 0.750000 0.500000
O O13 0.852012 0.775730 0.634178
O O14 0.934057 0.673338 0.542608
O O15 0.649415 0.829219 0.251014
O O16 0.708696 0.000000 0.227192
O O17 0.514902 0.500000 0.903787
O O18 0.500000 0.632156 0.000000
#
# Coordination Sequence:
#
# PCOD8078982 Si02
#       8
#     8   8   8   8   8   4   8   8
#     4  10  18  30  51  74  97 126 161 199 237 283
#     4   9  19  34  51  74 100 127 162 201 241 287
#     4   9  17  29  44  63  86 110 143 190 235 276
#     4   9  18  31  47  65  90 122 155 194 240 287
#     4   9  17  29  46  67  89 115 152 195 235 277
#     4  10  17  28  45  62  82 114 150 182 227 284
#     4   9  18  33  52  75 104 134 162 195 237 285
#     4   9  18  32  48  68  94 124 158 197 244 290
#
# _framework density 18.017088999999999
#
# number of rings (size 3 to 8) (size 9 to 14) (size 15 to 20)
#    0.000    2.800    0.000    1.400    0.000    2.667 
#    0.000    3.667    0.000    0.400    0.000    0.000 
#    0.000    0.000    0.000    0.000    0.000    0.000 
#
# Total GULP energy -371699.175364 kJ/mol
# GULP energy per Si atom -12389.972512 kJ/mol
# Density = 1.797608 g / cm^3
# Si number density = 18.017089 Si / 1000 Ang^3
#
#
#
# Elastic Constant Matrix: (Units=GPa)
#
#
# Indices 1 2 3 4 5 6 
#
# 1 84.2658 27.3538 22.5939 0.0000 -15.8714 0.0000
# 2 27.3538 85.7172 13.0744 0.0000 -12.3811 0.0000
# 3 22.5939 13.0744 90.0964 0.0000 -11.7840 0.0000
# 4 0.0000 0.0000 0.0000 15.3109 0.0000 1.5096
# 5 -15.8714 -12.3811 -11.7840 0.0000 19.5347 0.0000
# 6 0.0000 0.0000 0.0000 1.5096 0.0000 21.5773
#
#
#
# Elastic Compliance Matrix: (Units=1/GPa)
#
#
# Indices 1 2 3 4 5 6 
#
# 1 0.015186 -0.003217 -0.002165 0.000000 0.008993 0.000000
# 2 -0.003217 0.013586 -0.000413 0.000000 0.005748 0.000000
# 3 -0.002165 -0.000413 0.012418 0.000000 0.005470 0.000000
# 4 0.000000 0.000000 0.000000 0.065766 0.000000 -0.004601
# 5 0.008993 0.005748 0.005470 0.000000 0.065440 0.000000
# 6 0.000000 0.000000 0.000000 -0.004601 0.000000 0.046667
#
#
# Mechanical properties :
#
#
# Convention : Reuss Voigt Hill
#
# Bulk Modulus (GPa) = 33.78450 42.90262 38.34356
# Shear Modulus (GPa) = 20.78833 24.42175 22.60504
#
# Velocity S-wave (km/s) = 3.40047 3.68567 3.54594
# Velocity P-wave (km/s) = 5.84890 6.47890 6.17194
#
# Compressibility (1/GPa) = 0.02959937
#
# Stress axis : x y z
#
# Youngs Moduli (GPa) = 65.85088 73.60482 80.53130
#
# Poissons Ratio (x) = 0.23677 0.17436
# Poissons Ratio (y) = 0.21183 0.03326
# Poissons Ratio (z) = 0.14258 0.03040
#
# Static dielectric constant tensor:
#      x y z
#    x 3.601190 0.000000 -0.141140 
#    y 0.000000 3.267750 0.000000 
#    z -0.141140 0.000000 3.286080 
# 
# 
# High freq. dielectric constant tensor:
#      x y z
#    x 1.697960 0.000000 -0.007790 
#    y 0.000000 1.678820 0.000000 
#    z -0.007790 0.000000 1.688170 
# 
# From -- ./inp_files/263386.got.cif
#   From: 2010.06.25/outbox.cif.g09.slc.cpg/sg12_132_cif.got.tgz:263386.got - 2010.06.28 00:19:55.
