data_PCOD8078864
_publ_section_title
;
Structure prediction by ZEFSAII (Michael W. Deem and Ramdas Pophale) SiO2 
 PCOD8078864
Probable space group: C 2/M
;
_chemical_formula_sum "Si O2"
_cell_formula_units_Z 56
_cell_length_a 30.124598
_cell_length_b 9.089083
_cell_length_c 29.348217
_cell_angle_alpha 90.000000
_cell_angle_beta 24.845403
_cell_angle_gamma 90.000000
_cell_volume 3376.365376
_symmetry_space_group_name_H-M "C 2/M"
_symmetry_group_IT_number 12
_symmetry_cell_setting 'monoclinic'
loop_
_space_group_symop_operation_xyz
x,y,z
-x,y,-z
-x,-y,-z
x,-y,z
1/2+x,1/2+y,z
1/2-x,1/2+y,-z
1/2-x,1/2-y,-z
1/2+x,1/2-y,z
loop_
_atom_site_type_symbol
_atom_site_label
_atom_site_fract_x
_atom_site_fract_y
_atom_site_fract_z
Si Si1 0.650965 0.828647 0.150166
Si Si2 0.061296 0.175014 0.487071
Si Si3 0.206782 0.324477 0.747508
Si Si4 0.091194 0.174068 0.292179
Si Si5 0.192413 0.325020 0.863474
Si Si6 0.132249 0.670424 0.065459
Si Si7 0.996756 0.673293 0.898842
O O1 0.576846 0.749712 0.256324
O O2 0.600958 0.797380 0.146858
O O3 0.655814 0.000000 0.156523
O O4 0.768913 0.765913 0.042521
O O5 0.181389 0.235152 0.375611
O O6 0.000000 0.238232 0.500000
O O7 0.003918 0.227512 0.586662
O O8 0.059639 0.000000 0.485754
O O9 0.208459 0.500000 0.746122
O O10 0.188364 0.264967 0.815772
O O11 0.112145 0.262027 0.803821
O O12 0.200598 0.229740 0.212249
O O13 0.089768 0.000000 0.286807
O O14 0.191359 0.500000 0.864371
O O15 0.092135 0.261140 0.984402
O O16 0.164549 0.500000 0.028569
O O17 0.032855 0.711943 0.125888
O O18 0.000186 0.500000 0.903186
#
# Coordination Sequence:
#
# PCOD8078864 Si02
#       7
#     8   8   8   8   8   8   8
#     4  10  19  29  44  66  89 114 146 182 219 261
#     4   9  15  24  39  62  91 118 144 180 220 251
#     4   9  15  22  35  62  93 116 142 176 216 259
#     4  10  17  27  45  65  91 119 142 176 221 260
#     4   9  14  21  36  61  91 117 136 167 216 263
#     4   9  17  30  46  65  89 115 143 179 223 262
#     4   9  15  23  38  61  90 116 138 172 220 266
#
# _framework density 16.585882000000002
#
# number of rings (size 3 to 8) (size 9 to 14) (size 15 to 20)
#    0.000    2.714    2.857    0.857    0.000    2.286 
#    0.000    0.000    0.000    1.286    0.000    3.000 
#    0.000    0.000    0.000    0.000    0.000    0.429 
#
# Total GULP energy -347065.533253 kJ/mol
# GULP energy per Si atom -12395.197616 kJ/mol
# Density = 1.654813 g / cm^3
# Si number density = 16.585882 Si / 1000 Ang^3
#
#
#
# Elastic Constant Matrix: (Units=GPa)
#
#
# Indices 1 2 3 4 5 6 
#
# 1 138.2481 22.8437 89.0674 -0.0080 6.4361 0.0031
# 2 22.8437 22.3970 22.2290 -0.0435 7.2516 0.0332
# 3 89.0674 22.2290 143.5931 -0.0146 2.5166 0.0151
# 4 -0.0080 -0.0435 -0.0146 12.4046 0.0060 6.2770
# 5 6.4361 7.2516 2.5166 0.0060 32.0403 -0.0050
# 6 0.0031 0.0332 0.0151 6.2770 -0.0050 14.1811
#
#
#
# Elastic Compliance Matrix: (Units=1/GPa)
#
#
# Indices 1 2 3 4 5 6 
#
# 1 0.012724 -0.005830 -0.006978 -0.000038 -0.000689 0.000035
# 2 -0.005830 0.059867 -0.005442 0.000354 -0.011951 -0.000294
# 3 -0.006978 -0.005442 0.012105 -0.000014 0.001683 0.000008
# 4 -0.000038 0.000354 -0.000014 0.103885 -0.000098 -0.045983
# 5 -0.000689 -0.011951 0.001683 -0.000098 0.033922 0.000082
# 6 0.000035 -0.000294 0.000008 -0.045983 0.000082 0.090870
#
#
# Mechanical properties :
#
#
# Convention : Reuss Voigt Hill
#
# Bulk Modulus (GPa) = 20.74830 63.61317 42.18074
# Shear Modulus (GPa) = 13.66349 23.06507 18.36428
#
# Velocity S-wave (km/s) = 2.87331 3.73318 3.33111
# Velocity P-wave (km/s) = 4.85228 7.55111 6.34681
#
# Compressibility (1/GPa) = 0.04819671
#
# Stress axis : x y z
#
# Youngs Moduli (GPa) = 78.58909 16.70376 82.60718
#
# Poissons Ratio (x) = 0.09738 0.57644
# Poissons Ratio (y) = 0.45815 0.44957
# Poissons Ratio (z) = 0.54841 0.09091
#
# Static dielectric constant tensor:
#      x y z
#    x 3.325290 -0.000030 0.038010 
#    y -0.000030 2.586210 0.000040 
#    z 0.038010 0.000040 3.267280 
# 
# 
# High freq. dielectric constant tensor:
#      x y z
#    x 1.640870 0.000000 0.011340 
#    y 0.000000 1.578190 0.000000 
#    z 0.011340 0.000000 1.630340 
# 
# From -- ./inp_files/351598.got.cif
#   From: 2010.06.25/outbox.cif.g09.slc.cpg/sg12_176_cif.got.tgz:351598.got - 2010.06.28 00:19:55.
