data_PCOD8078929
_publ_section_title
;
Structure prediction by ZEFSAII (Michael W. Deem and Ramdas Pophale) SiO2 
 PCOD8078929
Probable space group: C 2/M
;
_chemical_formula_sum "Si O2"
_cell_formula_units_Z 64
_cell_length_a 21.743236
_cell_length_b 14.636181
_cell_length_c 11.999219
_cell_angle_alpha 90.000000
_cell_angle_beta 112.203894
_cell_angle_gamma 90.000000
_cell_volume 3535.437558
_symmetry_space_group_name_H-M "C 2/M"
_symmetry_group_IT_number 12
_symmetry_cell_setting 'monoclinic'
loop_
_space_group_symop_operation_xyz
x,y,z
-x,y,-z
-x,-y,-z
x,-y,z
1/2+x,1/2+y,z
1/2-x,1/2+y,-z
1/2-x,1/2-y,-z
1/2+x,1/2-y,z
loop_
_atom_site_type_symbol
_atom_site_label
_atom_site_fract_x
_atom_site_fract_y
_atom_site_fract_z
Si Si1 0.302959 0.641932 0.615972
Si Si2 0.818977 0.726914 0.990870
Si Si3 0.653299 0.106313 0.795127
Si Si4 0.830107 0.656922 0.575969
Si Si5 0.577896 0.210024 0.551308
Si Si6 0.789184 0.599808 0.767172
Si Si7 0.690716 0.600337 0.132337
Si Si8 0.143705 0.898526 0.576243
O O1 0.226049 0.612130 0.542827
O O2 0.303226 0.750530 0.613017
O O3 0.329747 0.606486 0.752363
O O4 0.350586 0.600057 0.553866
O O5 0.811448 0.671475 0.872718
O O6 0.848604 0.825499 0.971378
O O7 0.750000 0.750000 0.000000
O O8 0.863880 0.668197 0.106996
O O9 0.609277 0.146086 0.666290
O O10 0.730502 0.117442 0.819654
O O11 0.634881 0.000000 0.803856
O O12 0.896894 0.673500 0.551678
O O13 0.838957 0.596033 0.693575
O O14 0.500000 0.197091 0.500000
O O15 0.594954 0.317322 0.582412
O O16 0.789836 0.500000 0.823912
O O17 0.715209 0.625152 0.676332
O O18 0.671915 0.500000 0.073544
O O19 0.118583 0.000000 0.597164
#
# Coordination Sequence:
#
# PCOD8078929 Si02
#       8
#     8   8   8   8   8   8   8   8
#     4   9  14  26  48  74 108 136 158 201 263 314
#     4  10  19  31  48  73 111 140 167 201 252 322
#     4  10  21  35  50  69 100 139 174 211 254 303
#     4   9  17  29  49  74 106 134 170 217 261 303
#     4  11  22  36  54  74 101 140 186 222 258 299
#     4  10  18  30  53  82 107 136 166 209 269 323
#     4  10  17  27  48  77 106 136 163 197 255 319
#     4   9  18  30  49  80 112 136 162 205 263 320
#
# _framework density 18.102426999999999
#
# number of rings (size 3 to 8) (size 9 to 14) (size 15 to 20)
#    0.000    2.250    2.500    3.000    0.000    2.000 
#    0.000    0.625    0.000    0.750    0.000    1.750 
#    0.000    3.250    0.000    0.000    0.000    0.000 
#
# Total GULP energy -396497.217245 kJ/mol
# GULP energy per Si atom -12390.538039 kJ/mol
# Density = 1.806122 g / cm^3
# Si number density = 18.102427 Si / 1000 Ang^3
#
#
#
# Elastic Constant Matrix: (Units=GPa)
#
#
# Indices 1 2 3 4 5 6 
#
# 1 57.3991 21.9402 24.2410 0.0000 -4.2055 0.0000
# 2 21.9402 129.4592 51.1262 0.0000 -2.4350 0.0000
# 3 24.2410 51.1262 82.7909 0.0000 -17.6959 0.0000
# 4 0.0000 0.0000 0.0000 18.0713 0.0000 -3.8043
# 5 -4.2055 -2.4350 -17.6959 0.0000 15.0888 0.0000
# 6 0.0000 0.0000 0.0000 -3.8043 0.0000 13.5210
#
#
#
# Elastic Compliance Matrix: (Units=1/GPa)
#
#
# Indices 1 2 3 4 5 6 
#
# 1 0.020084 -0.001369 -0.005186 0.000000 -0.000705 0.000000
# 2 -0.001369 0.011021 -0.008150 0.000000 -0.008161 0.000000
# 3 -0.005186 -0.008150 0.024074 0.000000 0.025474 0.000000
# 4 0.000000 0.000000 0.000000 0.058820 0.000000 0.016550
# 5 -0.000705 -0.008161 0.025474 0.000000 0.094636 0.000000
# 6 0.000000 0.000000 0.000000 0.016550 0.000000 0.078615
#
#
# Mechanical properties :
#
#
# Convention : Reuss Voigt Hill
#
# Bulk Modulus (GPa) = 38.80343 51.58488 45.19415
# Shear Modulus (GPa) = 15.37280 20.82567 18.09923
#
# Velocity S-wave (km/s) = 2.91729 3.39549 3.16543
# Velocity P-wave (km/s) = 5.72970 6.62800 6.19515
#
# Compressibility (1/GPa) = 0.02577092
#
# Stress axis : x y z
#
# Youngs Moduli (GPa) = 49.79197 90.73280 41.53790
#
# Poissons Ratio (x) = 0.12421 0.21540
# Poissons Ratio (y) = 0.06816 0.33851
# Poissons Ratio (z) = 0.25821 0.73943
#
# Static dielectric constant tensor:
#      x y z
#    x 2.803670 0.000000 -0.313290 
#    y 0.000000 3.636760 0.000000 
#    z -0.313290 0.000000 3.370100 
# 
# 
# High freq. dielectric constant tensor:
#      x y z
#    x 1.629570 0.000000 -0.037070 
#    y 0.000000 1.726180 0.000000 
#    z -0.037070 0.000000 1.691130 
# 
# From -- ./inp_files/176140.got.cif
#   From: 2010.06.25/outbox.cif.g09.slc.cpg/sg12_89_cif.got.tgz:176140.got - 2010.06.28 00:19:55.
