data_PCOD8078152
_publ_section_title
;
Structure prediction by ZEFSAII (Michael W. Deem and Ramdas Pophale) SiO2 
 PCOD8078152
Probable space group: C 2/M
;
_chemical_formula_sum "Si O2"
_cell_formula_units_Z 48
_cell_length_a 24.495679
_cell_length_b 9.166341
_cell_length_c 15.213431
_cell_angle_alpha 90.000000
_cell_angle_beta 119.026263
_cell_angle_gamma 90.000000
_cell_volume 2986.905714
_symmetry_space_group_name_H-M "C 2/M"
_symmetry_group_IT_number 12
_symmetry_cell_setting 'monoclinic'
loop_
_space_group_symop_operation_xyz
x,y,z
-x,y,-z
-x,-y,-z
x,-y,z
1/2+x,1/2+y,z
1/2-x,1/2+y,-z
1/2-x,1/2-y,-z
1/2+x,1/2-y,z
loop_
_atom_site_type_symbol
_atom_site_label
_atom_site_fract_x
_atom_site_fract_y
_atom_site_fract_z
Si Si1 0.592855 0.826829 0.511653
Si Si2 0.184552 0.171749 0.457382
Si Si3 0.428188 0.338618 0.972217
Si Si4 0.038003 0.329075 0.841192
Si Si5 0.909919 0.169829 0.769308
Si Si6 0.041379 0.329455 0.651129
O O1 0.649571 0.738526 0.513917
O O2 0.589366 0.780073 0.612368
O O3 0.528762 0.768265 0.417262
O O4 0.603964 0.000000 0.507680
O O5 0.250000 0.250000 0.500000
O O6 0.147199 0.206441 0.338770
O O7 0.193635 0.000000 0.478596
O O8 0.408664 0.500000 0.987697
O O9 0.417256 0.233674 0.047164
O O10 0.500000 0.333311 0.000000
O O11 0.389544 0.292097 0.854506
O O12 0.032912 0.500000 0.851823
O O13 0.968728 0.265445 0.787805
O O14 0.067232 0.289033 0.768333
O O15 0.929706 0.000000 0.779573
O O16 0.032455 0.500000 0.632948
#
# Coordination Sequence:
#
# PCOD8078152 Si02
#       6
#     8   8   8   8   8   8
#     4   9  16  31  48  64  89 123 154 182 220 269
#     4  11  22  34  48  67  89 119 157 194 228 265
#     4   8  15  27  40  57  86 121 148 175 217 270
#     4  10  16  24  42  69  93 116 147 181 218 263
#     4   9  18  31  43  58  87 122 152 181 220 269
#     4   8  15  26  45  68  93 122 148 177 223 273
#
# _framework density 16.070143000000002
#
# number of rings (size 3 to 8) (size 9 to 14) (size 15 to 20)
#    0.000    2.833    1.667    3.000    0.000    3.667 
#    0.000    3.333    0.000    0.000    0.000    1.167 
#    0.000    0.000    0.000    0.000    0.000    0.000 
#
# Total GULP energy -297380.784815 kJ/mol
# GULP energy per Si atom -12390.866034 kJ/mol
# Density = 1.603357 g / cm^3
# Si number density = 16.070143 Si / 1000 Ang^3
#
#
#
# Elastic Constant Matrix: (Units=GPa)
#
#
# Indices 1 2 3 4 5 6 
#
# 1 86.2457 40.7878 53.3995 0.0000 -16.2099 0.0000
# 2 40.7878 74.7913 56.3015 0.0000 -12.5031 0.0000
# 3 53.3995 56.3015 133.0928 0.0000 -28.7807 0.0000
# 4 0.0000 0.0000 0.0000 26.1594 0.0000 -3.4578
# 5 -16.2099 -12.5031 -28.7807 0.0000 22.2845 0.0000
# 6 0.0000 0.0000 0.0000 -3.4578 0.0000 17.4443
#
#
#
# Elastic Compliance Matrix: (Units=1/GPa)
#
#
# Indices 1 2 3 4 5 6 
#
# 1 0.017532 -0.006227 -0.003327 0.000000 0.004963 0.000000
# 2 -0.006227 0.021832 -0.007031 0.000000 -0.001362 0.000000
# 3 -0.003327 -0.007031 0.014495 0.000000 0.012355 0.000000
# 4 0.000000 0.000000 0.000000 0.039256 0.000000 0.007781
# 5 0.004963 -0.001362 0.012355 0.000000 0.063676 0.000000
# 6 0.000000 0.000000 0.000000 0.007781 0.000000 0.058868
#
#
# Mechanical properties :
#
#
# Convention : Reuss Voigt Hill
#
# Bulk Modulus (GPa) = 48.33814 66.12303 57.23059
# Shear Modulus (GPa) = 19.55218 22.75371 21.15294
#
# Velocity S-wave (km/s) = 3.49187 3.76693 3.63201
# Velocity P-wave (km/s) = 6.81193 7.75600 7.29924
#
# Compressibility (1/GPa) = 0.02068760
#
# Stress axis : x y z
#
# Youngs Moduli (GPa) = 57.03710 45.80395 68.99166
#
# Poissons Ratio (x) = 0.28524 0.22953
# Poissons Ratio (y) = 0.35519 0.48511
# Poissons Ratio (z) = 0.18976 0.32207
#
# Static dielectric constant tensor:
#      x y z
#    x 2.724940 0.000000 -0.351710 
#    y 0.000000 2.971670 0.000000 
#    z -0.351710 0.000000 3.580780 
# 
# 
# High freq. dielectric constant tensor:
#      x y z
#    x 1.565290 0.000000 -0.028560 
#    y 0.000000 1.610280 0.000000 
#    z -0.028560 0.000000 1.629540 
# 
# From -- ./inp_files/236855.got.cif
#   From: 2010.06.25/outbox.cif.g09.slc.cpg/sg12_119_cif.got.tgz:236855.got - 2010.06.28 00:19:55.
