data_PCOD8078739
_publ_section_title
;
Structure prediction by ZEFSAII (Michael W. Deem and Ramdas Pophale) SiO2 
 PCOD8078739
Probable space group: C 2/M
;
_chemical_formula_sum "Si O2"
_cell_formula_units_Z 32
_cell_length_a 23.230698
_cell_length_b 8.717845
_cell_length_c 9.683933
_cell_angle_alpha 90.000000
_cell_angle_beta 114.773862
_cell_angle_gamma 90.000000
_cell_volume 1780.713589
_symmetry_space_group_name_H-M "C 2/M"
_symmetry_group_IT_number 12
_symmetry_cell_setting 'monoclinic'
loop_
_space_group_symop_operation_xyz
x,y,z
-x,y,-z
-x,-y,-z
x,-y,z
1/2+x,1/2+y,z
1/2-x,1/2+y,-z
1/2-x,1/2-y,-z
1/2+x,1/2-y,z
loop_
_atom_site_type_symbol
_atom_site_label
_atom_site_fract_x
_atom_site_fract_y
_atom_site_fract_z
Si Si1 0.801335 0.823443 0.649118
Si Si2 0.193669 0.182272 0.031808
Si Si3 0.940232 0.820742 0.798874
Si Si4 0.435988 0.180840 0.095240
O O1 0.750000 0.750000 0.500000
O O2 0.797558 0.759369 0.801706
O O3 0.872052 0.795201 0.656590
O O4 0.784633 0.000000 0.637736
O O5 0.192095 0.000000 0.020411
O O6 0.250000 0.250000 0.000000
O O7 0.127690 0.247641 0.902774
O O8 0.999864 0.754197 0.770684
O O9 0.950130 0.000000 0.842035
O O10 0.937592 0.725825 0.937152
O O11 0.436173 0.000000 0.117909
#
# Coordination Sequence:
#
# PCOD8078739 Si02
#       4
#     8   8   8   8
#     4   9  19  32  49  72  99 128 160 195 238 285
#     4  10  20  34  50  72  99 129 161 198 240 287
#     4   9  16  28  44  66  95 125 157 199 240 279
#     4  10  17  26  44  70  94 122 158 198 240 283
#
# _framework density 17.970324000000002
#
# number of rings (size 3 to 8) (size 9 to 14) (size 15 to 20)
#    0.000    2.500    0.000    6.750    0.000    6.000 
#    0.000    0.000    0.000    1.500    0.000   10.500 
#    0.000    0.000    0.000    0.000    0.000    0.000 
#
# Total GULP energy -198231.561686 kJ/mol
# GULP energy per Si atom -12389.472605 kJ/mol
# Density = 1.792942 g / cm^3
# Si number density = 17.970324 Si / 1000 Ang^3
#
#
#
# Elastic Constant Matrix: (Units=GPa)
#
#
# Indices 1 2 3 4 5 6 
#
# 1 163.2996 56.9025 58.0918 0.0000 43.0929 0.0000
# 2 56.9025 95.6977 39.0483 0.0000 19.3853 0.0000
# 3 58.0918 39.0483 74.9399 0.0000 31.7671 0.0000
# 4 0.0000 0.0000 0.0000 25.2112 0.0000 8.9083
# 5 43.0929 19.3853 31.7671 0.0000 32.2254 0.0000
# 6 0.0000 0.0000 0.0000 8.9083 0.0000 34.9393
#
#
#
# Elastic Compliance Matrix: (Units=1/GPa)
#
#
# Indices 1 2 3 4 5 6 
#
# 1 0.010811 -0.003441 -0.002296 0.000000 -0.010123 0.000000
# 2 -0.003441 0.014442 -0.005369 0.000000 0.001206 0.000000
# 3 -0.002296 -0.005369 0.026199 0.000000 -0.019526 0.000000
# 4 0.000000 0.000000 0.000000 0.043592 0.000000 -0.011114
# 5 -0.010123 0.001206 -0.019526 0.000000 0.063091 0.000000
# 6 0.000000 0.000000 0.000000 -0.011114 0.000000 0.031455
#
#
# Mechanical properties :
#
#
# Convention : Reuss Voigt Hill
#
# Bulk Modulus (GPa) = 34.20098 71.33583 52.76840
# Shear Modulus (GPa) = 22.56839 30.46814 26.51826
#
# Velocity S-wave (km/s) = 3.54767 4.12208 3.84561
# Velocity P-wave (km/s) = 5.98786 7.90177 7.01044
#
# Compressibility (1/GPa) = 0.02923893
#
# Stress axis : x y z
#
# Youngs Moduli (GPa) = 92.49885 69.24281 38.16965
#
# Poissons Ratio (x) = 0.23824 0.08765
# Poissons Ratio (y) = 0.31825 0.20495
# Poissons Ratio (z) = 0.21241 0.37180
#
# Static dielectric constant tensor:
#      x y z
#    x 3.916690 0.000000 0.714820 
#    y 0.000000 3.332430 0.000000 
#    z 0.714820 0.000000 3.574330 
# 
# 
# High freq. dielectric constant tensor:
#      x y z
#    x 1.702120 0.000000 0.051230 
#    y 0.000000 1.706210 0.000000 
#    z 0.051230 0.000000 1.645450 
# 
# From -- ./inp_files/92035.got.cif
#   From: 2010.06.25/outbox.cif.g09.slc.cpg/sg12_47_cif.got.tgz:92035.got - 2010.06.28 00:19:55.
