data_PCOD8078279
_publ_section_title
;
Structure prediction by ZEFSAII (Michael W. Deem and Ramdas Pophale) SiO2 
 PCOD8078279
Probable space group: C 2/M
;
_chemical_formula_sum "Si O2"
_cell_formula_units_Z 40
_cell_length_a 13.550451
_cell_length_b 19.895005
_cell_length_c 9.856983
_cell_angle_alpha 90.000000
_cell_angle_beta 66.979223
_cell_angle_gamma 90.000000
_cell_volume 2445.687760
_symmetry_space_group_name_H-M "C 2/M"
_symmetry_group_IT_number 12
_symmetry_cell_setting 'monoclinic'
loop_
_space_group_symop_operation_xyz
x,y,z
-x,y,-z
-x,-y,-z
x,-y,z
1/2+x,1/2+y,z
1/2-x,1/2+y,-z
1/2-x,1/2-y,-z
1/2+x,1/2-y,z
loop_
_atom_site_type_symbol
_atom_site_label
_atom_site_fract_x
_atom_site_fract_y
_atom_site_fract_z
Si Si1 0.003313 0.923290 0.336898
Si Si2 0.840786 0.820090 0.315945
Si Si3 0.884021 0.261807 0.037859
Si Si4 0.334396 0.684430 0.800735
Si Si5 0.115472 0.724447 0.472751
O O1 0.111355 0.888749 0.220023
O O2 0.000000 0.917292 0.500000
O O3 0.898812 0.888625 0.327251
O O4 0.004371 0.000000 0.287941
O O5 0.863188 0.802308 0.147115
O O6 0.886303 0.756645 0.376675
O O7 0.712235 0.829439 0.408422
O O8 0.794338 0.319520 0.109872
O O9 0.117321 0.234675 0.113956
O O10 0.000000 0.295041 0.000000
O O11 0.362904 0.713419 0.638748
O O12 0.000000 0.690698 0.500000
#
# Coordination Sequence:
#
# PCOD8078279 Si02
#       5
#     8   8   8   8   8
#     4  11  20  33  50  69 100 129 160 197 228 286
#     4  10  18  28  46  71  93 124 160 187 239 281
#     4  10  18  28  48  69 100 122 142 205 240 275
#     4  10  18  30  44  71  97 122 158 183 244 284
#     4  10  16  28  48  67  98 120 149 208 236 274
#
# _framework density 16.355316999999999
#
# number of rings (size 3 to 8) (size 9 to 14) (size 15 to 20)
#    0.000    1.800    6.000    0.000    0.000    0.000 
#    0.000    2.000    0.000    1.200    0.000    0.000 
#    0.000    0.000    0.000    0.000    0.000    0.000 
#
# Total GULP energy -247926.665243 kJ/mol
# GULP energy per Si atom -12396.333262 kJ/mol
# Density = 1.631809 g / cm^3
# Si number density = 16.355317 Si / 1000 Ang^3
#
#
#
# Elastic Constant Matrix: (Units=GPa)
#
#
# Indices 1 2 3 4 5 6 
#
# 1 150.4609 47.8113 20.4445 0.0000 -33.4127 0.0000
# 2 47.8113 87.3066 18.2010 0.0000 -19.6309 0.0000
# 3 20.4445 18.2010 49.1593 0.0000 -6.0966 0.0000
# 4 0.0000 0.0000 0.0000 15.0258 0.0000 -1.3020
# 5 -33.4127 -19.6309 -6.0966 0.0000 33.5058 0.0000
# 6 0.0000 0.0000 0.0000 -1.3020 0.0000 21.8808
#
#
#
# Elastic Compliance Matrix: (Units=1/GPa)
#
#
# Indices 1 2 3 4 5 6 
#
# 1 0.009536 -0.003189 -0.001880 0.000000 0.007299 0.000000
# 2 -0.003189 0.015082 -0.003638 0.000000 0.004994 0.000000
# 3 -0.001880 -0.003638 0.022481 0.000000 0.000084 0.000000
# 4 0.000000 0.000000 0.000000 0.066897 0.000000 0.003981
# 5 0.007299 0.004994 0.000084 0.000000 0.040066 0.000000
# 6 0.000000 0.000000 0.000000 0.003981 0.000000 0.045939
#
#
# Mechanical properties :
#
#
# Convention : Reuss Voigt Hill
#
# Bulk Modulus (GPa) = 33.68761 51.09336 42.39049
# Shear Modulus (GPa) = 21.99641 27.44715 24.72178
#
# Velocity S-wave (km/s) = 3.67128 4.10100 3.89208
# Velocity P-wave (km/s) = 6.21394 7.33019 6.79503
#
# Compressibility (1/GPa) = 0.02968450
#
# Stress axis : x y z
#
# Youngs Moduli (GPa) = 104.86683 66.30550 44.48126
#
# Poissons Ratio (x) = 0.21145 0.08362
# Poissons Ratio (y) = 0.33442 0.16184
# Poissons Ratio (z) = 0.19714 0.24124
#
# Static dielectric constant tensor:
#      x y z
#    x 3.572240 0.000000 -0.097500 
#    y 0.000000 2.613420 0.000000 
#    z -0.097500 0.000000 3.238630 
# 
# 
# High freq. dielectric constant tensor:
#      x y z
#    x 1.653120 0.000000 0.002360 
#    y 0.000000 1.552880 0.000000 
#    z 0.002360 0.000000 1.646060 
# 
# From -- ./inp_files/132069.got.cif
#   From: 2010.06.25/outbox.cif.g09.slc.cpg/sg12_67_cif.got.tgz:132069.got - 2010.06.28 00:19:55.
