data_PCOD8078111
_publ_section_title
;
Structure prediction by ZEFSAII (Michael W. Deem and Ramdas Pophale) SiO2 
 PCOD8078111
Probable space group: C 2/M
;
_chemical_formula_sum "Si O2"
_cell_formula_units_Z 48
_cell_length_a 25.936703
_cell_length_b 14.474371
_cell_length_c 12.379157
_cell_angle_alpha 90.000000
_cell_angle_beta 155.204177
_cell_angle_gamma 90.000000
_cell_volume 1949.033785
_symmetry_space_group_name_H-M "C 2/M"
_symmetry_group_IT_number 12
_symmetry_cell_setting 'monoclinic'
loop_
_space_group_symop_operation_xyz
x,y,z
-x,y,-z
-x,-y,-z
x,-y,z
1/2+x,1/2+y,z
1/2-x,1/2+y,-z
1/2-x,1/2-y,-z
1/2+x,1/2-y,z
loop_
_atom_site_type_symbol
_atom_site_label
_atom_site_fract_x
_atom_site_fract_y
_atom_site_fract_z
Si Si1 0.151948 0.691955 0.954924
Si Si2 0.629923 0.818576 0.674052
Si Si3 0.904120 0.606898 0.609633
Si Si4 0.127229 0.831340 0.091671
Si Si5 0.708815 0.500000 0.990764
Si Si6 0.499711 0.500000 0.766482
Si Si7 0.500000 0.792318 0.000000
Si Si8 0.749101 0.500000 0.822097
O O1 0.291674 0.725226 0.192093
O O2 0.097540 0.763347 0.936382
O O3 0.164320 0.589589 0.029869
O O4 0.073552 0.689576 0.690376
O O5 0.544287 0.838092 0.401264
O O6 0.716276 0.908852 0.834575
O O7 0.934390 0.500000 0.655948
O O8 0.759636 0.623209 0.338498
O O9 0.961322 0.643750 0.827860
O O10 0.110674 0.774501 0.171434
O O11 0.025620 0.911090 0.889535
O O12 0.580749 0.500000 0.811004
O O13 0.685280 0.500000 0.818324
O O14 0.356043 0.500000 0.467361
#
# Coordination Sequence:
#
# PCOD8078111 Si02
#       8
#     8   8   8   8   4   4   4   4
#     4   9  19  37  61  94 132 169 200 248 321 385
#     4   9  16  33  67  91 124 172 203 243 317 394
#     4  11  21  46  70  92 126 170 215 263 318 381
#     4  11  24  46  67  91 131 170 213 263 325 381
#     4  10  15  36  59  96 132 167 207 245 322 390
#     4  12  21  39  62  99 129 163 214 264 322 381
#     4  12  29  43  66  94 120 168 228 276 314 368
#     4  10  23  32  61 102 135 161 205 264 307 386
#
# _framework density 24.627587999999999
#
# number of rings (size 3 to 8) (size 9 to 14) (size 15 to 20)
#    0.000    1.667    5.000    1.000    4.667    0.333 
#    3.000    0.833    0.000    1.000    0.000    0.000 
#    0.000    0.000    0.000    0.000    0.000    0.000 
#
# Total GULP energy -297636.904485 kJ/mol
# GULP energy per Si atom -12401.537687 kJ/mol
# Density = 2.457153 g / cm^3
# Si number density = 24.627588 Si / 1000 Ang^3
#
#
#
# Elastic Constant Matrix: (Units=GPa)
#
#
# Indices 1 2 3 4 5 6 
#
# 1 120.7438 44.0320 37.0904 0.0000 -25.0951 0.0000
# 2 44.0320 172.1924 55.7177 0.0000 -15.9212 0.0000
# 3 37.0904 55.7177 146.0480 0.0000 -28.5102 0.0000
# 4 0.0000 0.0000 0.0000 37.5301 0.0000 -8.0306
# 5 -25.0951 -15.9212 -28.5102 0.0000 28.2329 0.0000
# 6 0.0000 0.0000 0.0000 -8.0306 0.0000 15.8099
#
#
#
# Elastic Compliance Matrix: (Units=1/GPa)
#
#
# Indices 1 2 3 4 5 6 
#
# 1 0.010778 -0.001864 -0.000450 0.000000 0.008075 0.000000
# 2 -0.001864 0.006997 -0.002179 0.000000 0.000089 0.000000
# 3 -0.000450 -0.002179 0.009310 0.000000 0.007773 0.000000
# 4 0.000000 0.000000 0.000000 0.029894 0.000000 0.015185
# 5 0.008075 0.000089 0.007773 0.000000 0.050497 0.000000
# 6 0.000000 0.000000 0.000000 0.015185 0.000000 0.070965
#
#
# Mechanical properties :
#
#
# Convention : Reuss Voigt Hill
#
# Bulk Modulus (GPa) = 55.24768 79.18495 67.21632
# Shear Modulus (GPa) = 25.84520 36.45751 31.15136
#
# Velocity S-wave (km/s) = 3.24302 3.85171 3.56040
# Velocity P-wave (km/s) = 6.04193 7.21135 6.65239
#
# Compressibility (1/GPa) = 0.01810031
#
# Stress axis : x y z
#
# Youngs Moduli (GPa) = 92.77995 142.91174 107.41325
#
# Poissons Ratio (x) = 0.26638 0.04832
# Poissons Ratio (y) = 0.17294 0.23403
# Poissons Ratio (z) = 0.04173 0.31137
#
# Static dielectric constant tensor:
#      x y z
#    x 4.825380 0.000000 -0.161870 
#    y 0.000000 4.699610 0.000000 
#    z -0.161870 0.000000 4.533150 
# 
# 
# High freq. dielectric constant tensor:
#      x y z
#    x 1.996270 0.000000 0.004000 
#    y 0.000000 1.993700 0.000000 
#    z 0.004000 0.000000 1.996300 
# 
# From -- ./inp_files/183933.got.cif
#   From: 2010.06.25/outbox.cif.g09.slc.cpg/sg12_92_cif.got.tgz:183933.got - 2010.06.28 00:19:55.
