data_PCOD8078945
_publ_section_title
;
Structure prediction by ZEFSAII (Michael W. Deem and Ramdas Pophale) SiO2 
 PCOD8078945
Probable space group: C 2/M
;
_chemical_formula_sum "Si O2"
_cell_formula_units_Z 48
_cell_length_a 20.326608
_cell_length_b 15.769217
_cell_length_c 30.454144
_cell_angle_alpha 90.000000
_cell_angle_beta 162.733622
_cell_angle_gamma 90.000000
_cell_volume 2897.387837
_symmetry_space_group_name_H-M "C 2/M"
_symmetry_group_IT_number 12
_symmetry_cell_setting 'monoclinic'
loop_
_space_group_symop_operation_xyz
x,y,z
-x,y,-z
-x,-y,-z
x,-y,z
1/2+x,1/2+y,z
1/2-x,1/2+y,-z
1/2-x,1/2-y,-z
1/2+x,1/2-y,z
loop_
_atom_site_type_symbol
_atom_site_label
_atom_site_fract_x
_atom_site_fract_y
_atom_site_fract_z
Si Si1 0.076784 0.094557 0.425055
Si Si2 0.232469 0.595322 0.627360
Si Si3 0.989720 0.757005 0.831274
Si Si4 0.090854 0.595222 0.440043
Si Si5 0.832730 0.154831 0.428097
Si Si6 0.350445 0.251709 0.313919
O O1 0.247969 0.121236 0.496694
O O2 0.207305 0.094260 0.555328
O O3 0.878716 0.164936 0.300335
O O4 0.980769 0.000000 0.355115
O O5 0.285280 0.500000 0.676876
O O6 0.428524 0.652890 0.771340
O O7 0.231855 0.599296 0.574353
O O8 0.000000 0.624698 0.500000
O O9 0.896734 0.681102 0.741143
O O10 0.891056 0.748832 0.817755
O O11 0.250000 0.750000 0.000000
O O12 0.993296 0.500000 0.371008
O O13 0.890762 0.663710 0.313542
O O14 0.000000 0.109556 0.500000
O O15 0.961709 0.240159 0.527749
#
# Coordination Sequence:
#
# PCOD8078945 Si02
#       6
#     8   8   8   8   8   8
#     4   9  18  29  49  76  97 120 159 200 243 291
#     4  10  17  30  53  75  96 123 164 212 252 284
#     4  11  19  31  47  72 102 131 161 200 242 294
#     4  10  17  27  52  80  94 116 156 209 255 285
#     4   8  16  31  48  68  92 124 162 199 237 273
#     4   9  17  31  48  70  97 125 155 204 240 281
#
# _framework density 16.566647
#
# number of rings (size 3 to 8) (size 9 to 14) (size 15 to 20)
#    1.000    1.500    3.333    1.000    0.000    0.333 
#    0.000    1.667    0.000    4.000    0.000    5.833 
#    0.000    0.000    0.000    0.000    0.000    0.000 
#
# Total GULP energy -297332.768897 kJ/mol
# GULP energy per Si atom -12388.865371 kJ/mol
# Density = 1.652894 g / cm^3
# Si number density = 16.566647 Si / 1000 Ang^3
#
#
#
# Elastic Constant Matrix: (Units=GPa)
#
#
# Indices 1 2 3 4 5 6 
#
# 1 134.5019 37.6332 30.1401 0.0125 15.3001 0.0054
# 2 37.6332 95.0977 23.2681 0.1048 16.4034 0.0218
# 3 30.1401 23.2681 77.9839 0.2317 20.8307 -0.0442
# 4 0.0125 0.1048 0.2317 13.2079 -0.0086 -1.1049
# 5 15.3001 16.4034 20.8307 -0.0086 20.2507 -0.0263
# 6 0.0054 0.0218 -0.0442 -1.1049 -0.0263 27.3278
#
#
#
# Elastic Compliance Matrix: (Units=1/GPa)
#
#
# Indices 1 2 3 4 5 6 
#
# 1 0.008897 -0.002591 -0.001973 0.000045 -0.002594 -0.000004
# 2 -0.002591 0.013087 -0.000820 -0.000094 -0.007800 -0.000023
# 3 -0.001973 -0.000820 0.018278 -0.000323 -0.016647 0.000002
# 4 0.000045 -0.000094 -0.000323 0.075976 0.000411 0.003072
# 5 -0.002594 -0.007800 -0.016647 0.000411 0.074783 0.000068
# 6 -0.000004 -0.000023 0.000002 0.003072 0.000068 0.036717
#
#
# Mechanical properties :
#
#
# Convention : Reuss Voigt Hill
#
# Bulk Modulus (GPa) = 33.90374 54.40737 44.15555
# Shear Modulus (GPa) = 20.13404 26.59342 23.36373
#
# Velocity S-wave (km/s) = 3.48995 4.01089 3.75945
# Velocity P-wave (km/s) = 6.06211 7.37309 6.74950
#
# Compressibility (1/GPa) = 0.02949527
#
# Stress axis : x y z
#
# Youngs Moduli (GPa) = 112.39917 76.41277 54.71112
#
# Poissons Ratio (x) = 0.19796 0.10793
# Poissons Ratio (y) = 0.29119 0.04484
# Poissons Ratio (z) = 0.22174 0.06263
#
# Static dielectric constant tensor:
#      x y z
#    x 3.258580 0.000100 -0.020970 
#    y 0.000100 3.167510 0.000330 
#    z -0.020970 0.000330 2.536380 
# 
# 
# High freq. dielectric constant tensor:
#      x y z
#    x 1.655390 0.000010 0.002510 
#    y 0.000010 1.648790 -0.000050 
#    z 0.002510 -0.000050 1.557660 
# 
# From -- ./inp_files/381272.got.cif
#   From: 2010.06.25/outbox.cif.g09.slc.cpg/sg12_191_cif.got.tgz:381272.got - 2010.06.28 00:19:55.
