data_PCOD8078354
_publ_section_title
;
Structure prediction by ZEFSAII (Michael W. Deem and Ramdas Pophale) SiO2 
 PCOD8078354
Probable space group: C 2/M
;
_chemical_formula_sum "Si O2"
_cell_formula_units_Z 56
_cell_length_a 5.164113
_cell_length_b 26.372402
_cell_length_c 22.603311
_cell_angle_alpha 90.000000
_cell_angle_beta 71.267368
_cell_angle_gamma 90.000000
_cell_volume 2915.278741
_symmetry_space_group_name_H-M "C 2/M"
_symmetry_group_IT_number 12
_symmetry_cell_setting 'monoclinic'
loop_
_space_group_symop_operation_xyz
x,y,z
-x,y,-z
-x,-y,-z
x,-y,z
1/2+x,1/2+y,z
1/2-x,1/2+y,-z
1/2-x,1/2-y,-z
1/2+x,1/2-y,z
loop_
_atom_site_type_symbol
_atom_site_label
_atom_site_fract_x
_atom_site_fract_y
_atom_site_fract_z
Si Si1 0.002814 0.059017 0.832697
Si Si2 0.678011 0.271679 0.069656
Si Si3 0.846849 0.442545 0.572712
Si Si4 0.777078 0.892287 0.624990
Si Si5 0.200874 0.885018 0.040515
Si Si6 0.601502 0.060026 0.757299
Si Si7 0.596074 0.717103 0.427583
O O1 0.931432 0.077636 0.903038
O O2 0.766297 0.073632 0.804446
O O3 0.293551 0.080199 0.788886
O O4 0.039408 0.000000 0.836617
O O5 0.363141 0.256864 0.105270
O O6 0.734335 0.330958 0.069501
O O7 0.750000 0.250000 0.000000
O O8 0.821393 0.500000 0.598597
O O9 0.548236 0.420170 0.582151
O O10 0.000000 0.440894 0.500000
O O11 0.010958 0.409728 0.608306
O O12 0.736419 0.906981 0.695947
O O13 0.812093 0.832050 0.615851
O O14 0.500000 0.905329 0.000000
O O15 0.000000 0.880631 0.000000
O O16 0.618730 0.000000 0.740979
O O17 0.500000 0.700000 0.500000
O O18 0.346457 0.743703 0.412064
#
# Coordination Sequence:
#
# PCOD8078354 Si02
#       7
#     8   8   8   8   8   8   8
#     4  10  23  40  56  80 115 147 185 237 277 328
#     4  10  16  30  49  77 108 136 169 209 258 328
#     4  11  22  34  52  88 129 151 178 238 303 354
#     4  12  22  37  63  85 110 160 204 242 284 350
#     4  12  21  33  58  85 109 145 178 224 283 352
#     4  10  21  40  61  80 108 151 198 234 276 340
#     4  10  21  37  57  85 116 152 196 243 295 347
#
# _framework density 19.209139
#
# number of rings (size 3 to 8) (size 9 to 14) (size 15 to 20)
#    0.000    1.286    2.857    5.143    0.000    4.000 
#    0.000    0.000    0.000    5.143    0.000    0.000 
#    0.000    0.000    0.000    0.000    0.000    0.000 
#
# Total GULP energy -347251.349372 kJ/mol
# GULP energy per Si atom -12401.833906 kJ/mol
# Density = 1.916542 g / cm^3
# Si number density = 19.209139 Si / 1000 Ang^3
#
#
#
# Elastic Constant Matrix: (Units=GPa)
#
#
# Indices 1 2 3 4 5 6 
#
# 1 111.8813 25.9266 14.6512 0.0000 -11.1181 0.0000
# 2 25.9266 63.5155 34.8031 0.0000 -1.6092 0.0000
# 3 14.6512 34.8031 66.6912 0.0000 -7.6999 0.0000
# 4 0.0000 0.0000 0.0000 17.1392 0.0000 -7.3993
# 5 -11.1181 -1.6092 -7.6999 0.0000 23.8002 0.0000
# 6 0.0000 0.0000 0.0000 -7.3993 0.0000 25.2154
#
#
#
# Elastic Compliance Matrix: (Units=1/GPa)
#
#
# Indices 1 2 3 4 5 6 
#
# 1 0.010357 -0.004426 0.000580 0.000000 0.004727 0.000000
# 2 -0.004426 0.024064 -0.012088 0.000000 -0.004351 0.000000
# 3 0.000580 -0.012088 0.021931 0.000000 0.006549 0.000000
# 4 0.000000 0.000000 0.000000 0.066810 0.000000 0.019605
# 5 0.004727 -0.004351 0.006549 0.000000 0.046049 0.000000
# 6 0.000000 0.000000 0.000000 0.019605 0.000000 0.045411
#
#
# Mechanical properties :
#
#
# Convention : Reuss Voigt Hill
#
# Bulk Modulus (GPa) = 40.84114 43.64997 42.24556
# Shear Modulus (GPa) = 19.63458 24.34476 21.98967
#
# Velocity S-wave (km/s) = 3.20057 3.56385 3.38709
# Velocity P-wave (km/s) = 5.91318 6.30140 6.11037
#
# Compressibility (1/GPa) = 0.02448511
#
# Stress axis : x y z
#
# Youngs Moduli (GPa) = 96.54897 41.55552 45.59678
#
# Poissons Ratio (x) = 0.18392 -0.02645
# Poissons Ratio (y) = 0.42732 0.55118
# Poissons Ratio (z) = -0.05600 0.50233
#
# Static dielectric constant tensor:
#      x y z
#    x 4.355560 0.000000 -0.188660 
#    y 0.000000 3.480900 0.000000 
#    z -0.188660 0.000000 3.198360 
# 
# 
# High freq. dielectric constant tensor:
#      x y z
#    x 1.778290 0.000000 -0.002590 
#    y 0.000000 1.739980 0.000000 
#    z -0.002590 0.000000 1.715610 
# 
# From -- ./inp_files/298075.got.cif
#   From: 2010.06.25/outbox.cif.g09.slc.cpg/sg12_150_cif.got.tgz:298075.got - 2010.06.28 00:19:55.
