data_PCOD8078095
_publ_section_title
;
Structure prediction by ZEFSAII (Michael W. Deem and Ramdas Pophale) SiO2 
 PCOD8078095
Probable space group: C 2/M
;
_chemical_formula_sum "Si O2"
_cell_formula_units_Z 64
_cell_length_a 24.424838
_cell_length_b 23.902044
_cell_length_c 9.312790
_cell_angle_alpha 90.000000
_cell_angle_beta 39.610281
_cell_angle_gamma 90.000000
_cell_volume 3466.323807
_symmetry_space_group_name_H-M "C 2/M"
_symmetry_group_IT_number 12
_symmetry_cell_setting 'monoclinic'
loop_
_space_group_symop_operation_xyz
x,y,z
-x,y,-z
-x,-y,-z
x,-y,z
1/2+x,1/2+y,z
1/2-x,1/2+y,-z
1/2-x,1/2-y,-z
1/2+x,1/2-y,z
loop_
_atom_site_type_symbol
_atom_site_label
_atom_site_fract_x
_atom_site_fract_y
_atom_site_fract_z
Si Si1 0.163674 0.145468 0.519438
Si Si2 0.736020 0.436535 0.594680
Si Si3 0.720121 0.651333 0.865358
Si Si4 0.142228 0.667017 0.952617
Si Si5 0.839245 0.280541 0.788855
Si Si6 0.908345 0.164260 0.624849
Si Si7 0.839628 0.232582 0.253246
Si Si8 0.415046 0.937152 0.083958
O O1 0.176247 0.090723 0.592429
O O2 0.255095 0.164712 0.271224
O O3 0.102608 0.133504 0.507127
O O4 0.117591 0.193697 0.710481
O O5 0.705607 0.500000 0.674510
O O6 0.726891 0.406362 0.765823
O O7 0.835321 0.431516 0.352216
O O8 0.816490 0.673356 0.712331
O O9 0.672469 0.697948 0.868246
O O10 0.664657 0.641295 0.120689
O O11 0.108042 0.711766 0.900726
O O12 0.096039 0.607425 0.022336
O O13 0.119984 0.687901 0.156754
O O14 0.904164 0.231730 0.607298
O O15 0.750000 0.250000 0.000000
O O16 0.000000 0.146533 0.500000
O O17 0.750000 0.250000 0.500000
O O18 0.419336 0.000000 0.009772
O O19 0.500000 0.922845 0.000000
#
# Coordination Sequence:
#
# PCOD8078095 Si02
#       8
#     8   8   8   8   8   8   8   8
#     4   9  17  31  53  75 105 138 175 221 269 320
#     4   9  19  36  60  83  98 136 194 226 257 321
#     4  10  18  34  55  74 110 145 174 225 270 314
#     4  10  15  29  52  75  99 141 182 209 252 320
#     4  10  16  31  52  71 108 143 172 208 261 319
#     4  11  21  34  51  78 114 147 174 217 280 334
#     4   9  15  26  48  76  97 129 174 216 263 303
#     4   9  19  35  52  76 112 142 171 223 270 299
#
# _framework density 18.463365
#
# number of rings (size 3 to 8) (size 9 to 14) (size 15 to 20)
#    0.000    2.375    5.000    1.500    0.000    0.000 
#    4.500    3.750    0.000    2.250    0.000    2.625 
#    0.000    0.000    0.000    0.000    0.000    0.000 
#
# Total GULP energy -396546.633157 kJ/mol
# GULP energy per Si atom -12392.082286 kJ/mol
# Density = 1.842134 g / cm^3
# Si number density = 18.463365 Si / 1000 Ang^3
#
#
#
# Elastic Constant Matrix: (Units=GPa)
#
#
# Indices 1 2 3 4 5 6 
#
# 1 119.6746 54.6632 34.3754 0.0000 20.6389 0.0000
# 2 54.6632 121.9251 29.2405 0.0000 17.5600 0.0000
# 3 34.3754 29.2405 34.3456 0.0000 19.5898 0.0000
# 4 0.0000 0.0000 0.0000 16.9085 0.0000 7.0036
# 5 20.6389 17.5600 19.5898 0.0000 29.5322 0.0000
# 6 0.0000 0.0000 0.0000 7.0036 0.0000 21.9058
#
#
#
# Elastic Compliance Matrix: (Units=1/GPa)
#
#
# Indices 1 2 3 4 5 6 
#
# 1 0.012725 -0.003326 -0.009588 0.000000 -0.000556 0.000000
# 2 -0.003326 0.011180 -0.005990 0.000000 -0.000350 0.000000
# 3 -0.009588 -0.005990 0.061060 0.000000 -0.030241 0.000000
# 4 0.000000 0.000000 0.000000 0.068169 0.000000 -0.021795
# 5 -0.000556 -0.000350 -0.030241 0.000000 0.054518 0.000000
# 6 0.000000 0.000000 0.000000 -0.021795 0.000000 0.052618
#
#
# Mechanical properties :
#
#
# Convention : Reuss Voigt Hill
#
# Bulk Modulus (GPa) = 21.20508 56.94486 39.07497
# Shear Modulus (GPa) = 15.93395 24.18037 20.05716
#
# Velocity S-wave (km/s) = 2.94088 3.62282 3.29952
# Velocity P-wave (km/s) = 4.80016 6.95764 5.97706
#
# Compressibility (1/GPa) = 0.04715851
#
# Stress axis : x y z
#
# Youngs Moduli (GPa) = 78.58683 89.44826 16.37734
#
# Poissons Ratio (x) = 0.29747 0.15702
# Poissons Ratio (y) = 0.26135 0.09810
# Poissons Ratio (z) = 0.75346 0.53577
#
# Static dielectric constant tensor:
#      x y z
#    x 3.448370 0.000000 0.270820 
#    y 0.000000 3.479460 0.000000 
#    z 0.270820 0.000000 3.145220 
# 
# 
# High freq. dielectric constant tensor:
#      x y z
#    x 1.706090 0.000000 0.024240 
#    y 0.000000 1.702920 0.000000 
#    z 0.024240 0.000000 1.685880 
# 
# From -- ./inp_files/99656.got.cif
#   From: 2010.06.25/outbox.cif.g09.slc.cpg/sg12_50_cif.got.tgz:99656.got - 2010.06.28 00:19:55.
