data_PCOD8078859
_publ_section_title
;
Structure prediction by ZEFSAII (Michael W. Deem and Ramdas Pophale) SiO2 
 PCOD8078859
Probable space group: C 2/M
;
_chemical_formula_sum "Si O2"
_cell_formula_units_Z 64
_cell_length_a 30.902777
_cell_length_b 8.746180
_cell_length_c 12.485413
_cell_angle_alpha 90.000000
_cell_angle_beta 99.028451
_cell_angle_gamma 90.000000
_cell_volume 3332.763894
_symmetry_space_group_name_H-M "C 2/M"
_symmetry_group_IT_number 12
_symmetry_cell_setting 'monoclinic'
loop_
_space_group_symop_operation_xyz
x,y,z
-x,y,-z
-x,-y,-z
x,-y,z
1/2+x,1/2+y,z
1/2-x,1/2+y,-z
1/2-x,1/2-y,-z
1/2+x,1/2-y,z
loop_
_atom_site_type_symbol
_atom_site_label
_atom_site_fract_x
_atom_site_fract_y
_atom_site_fract_z
Si Si1 0.173573 0.328036 0.357854
Si Si2 0.365791 0.818447 0.876114
Si Si3 0.340263 0.819390 0.414999
Si Si4 0.465084 0.181744 0.899174
Si Si5 0.015906 0.318369 0.331489
Si Si6 0.562421 0.179084 0.558671
Si Si7 0.740646 0.327614 0.719654
Si Si8 0.716698 0.677150 0.069585
O O1 0.155392 0.500000 0.357756
O O2 0.148768 0.252973 0.246515
O O3 0.161995 0.249372 0.465887
O O4 0.226407 0.325235 0.368344
O O5 0.416028 0.769075 0.917046
O O6 0.332575 0.748967 0.952123
O O7 0.359617 0.000000 0.877511
O O8 0.388280 0.781936 0.388430
O O9 0.307530 0.726324 0.328380
O O10 0.329183 0.000000 0.407964
O O11 0.475113 0.250097 0.784003
O O12 0.468133 0.000000 0.896699
O O13 0.500000 0.246107 0.000000
O O14 0.017067 0.500000 0.320168
O O15 0.051347 0.259896 0.433909
O O16 0.969137 0.257979 0.359404
O O17 0.554152 0.000000 0.548586
O O18 0.738412 0.500000 0.766920
O O19 0.761137 0.206873 0.808395
O O20 0.711928 0.500000 0.043126
O O21 0.750000 0.750000 0.000000
#
# Coordination Sequence:
#
# PCOD8078859 Si02
#       8
#     8   8   8   8   8   8   8   8
#     4   8  15  27  46  67  95 134 173 213 255 301
#     4   9  17  32  52  77 105 137 177 217 261 311
#     4  10  17  27  44  72 102 132 173 215 260 307
#     4   9  16  26  43  69 101 136 172 216 266 311
#     4   8  13  24  40  61  93 129 169 214 263 308
#     4   8  14  23  39  63  92 128 167 216 264 304
#     4  10  20  34  49  71 103 136 167 206 257 312
#     4  11  22  39  60  79 100 132 172 215 259 309
#
# _framework density 19.203279999999999
#
# number of rings (size 3 to 8) (size 9 to 14) (size 15 to 20)
#    0.000    2.875    0.000    4.125    0.000    3.000 
#    2.250    2.500    0.000    0.375    0.000    2.625 
#    0.000    0.000    0.000    0.000    0.000    0.000 
#
# Total GULP energy -396465.022076 kJ/mol
# GULP energy per Si atom -12389.531940 kJ/mol
# Density = 1.915957 g / cm^3
# Si number density = 19.203280 Si / 1000 Ang^3
#
#
#
# Elastic Constant Matrix: (Units=GPa)
#
#
# Indices 1 2 3 4 5 6 
#
# 1 162.2872 29.5027 59.2893 0.0000 3.3298 0.0000
# 2 29.5027 41.1653 15.9762 0.0000 -3.6680 0.0000
# 3 59.2893 15.9762 79.0694 0.0000 -9.9423 0.0000
# 4 0.0000 0.0000 0.0000 12.5740 0.0000 1.0755
# 5 3.3298 -3.6680 -9.9423 0.0000 32.3131 0.0000
# 6 0.0000 0.0000 0.0000 1.0755 0.0000 21.4346
#
#
#
# Elastic Compliance Matrix: (Units=1/GPa)
#
#
# Indices 1 2 3 4 5 6 
#
# 1 0.009485 -0.004536 -0.006640 0.000000 -0.003535 0.000000
# 2 -0.004536 0.028590 -0.001986 0.000000 0.003102 0.000000
# 3 -0.006640 -0.001986 0.018813 0.000000 0.006247 0.000000
# 4 0.000000 0.000000 0.000000 0.079872 0.000000 -0.004007
# 5 -0.003535 0.003102 0.006247 0.000000 0.033586 0.000000
# 6 0.000000 0.000000 0.000000 -0.004007 0.000000 0.046855
#
#
# Mechanical properties :
#
#
# Convention : Reuss Voigt Hill
#
# Bulk Modulus (GPa) = 32.71741 54.67314 43.69527
# Shear Modulus (GPa) = 19.70741 25.11460 22.41100
#
# Velocity S-wave (km/s) = 3.20699 3.62031 3.41990
# Velocity P-wave (km/s) = 5.54865 6.78293 6.19659
#
# Compressibility (1/GPa) = 0.03056477
#
# Stress axis : x y z
#
# Youngs Moduli (GPa) = 105.43031 34.97726 53.15466
#
# Poissons Ratio (x) = 0.15865 0.35296
# Poissons Ratio (y) = 0.47820 0.10555
# Poissons Ratio (z) = 0.70009 0.06945
#
# Static dielectric constant tensor:
#      x y z
#    x 3.866160 0.000000 -0.195520 
#    y 0.000000 3.252860 0.000000 
#    z -0.195520 0.000000 3.644510 
# 
# 
# High freq. dielectric constant tensor:
#      x y z
#    x 1.761160 0.000000 -0.008220 
#    y 0.000000 1.684110 0.000000 
#    z -0.008220 0.000000 1.733100 
# 
# From -- ./inp_files/187487.got.cif
#   From: 2010.06.25/outbox.cif.g09.slc.cpg/sg12_94_cif.got.tgz:187487.got - 2010.06.28 00:19:55.
