data_PCOD8078986
_publ_section_title
;
Structure prediction by ZEFSAII (Michael W. Deem and Ramdas Pophale) SiO2 
 PCOD8078986
Probable space group: C 2/M
;
_chemical_formula_sum "Si O2"
_cell_formula_units_Z 64
_cell_length_a 28.068530
_cell_length_b 24.033715
_cell_length_c 18.143294
_cell_angle_alpha 90.000000
_cell_angle_beta 19.951321
_cell_angle_gamma 90.000000
_cell_volume 4176.315409
_symmetry_space_group_name_H-M "C 2/M"
_symmetry_group_IT_number 12
_symmetry_cell_setting 'monoclinic'
loop_
_space_group_symop_operation_xyz
x,y,z
-x,y,-z
-x,-y,-z
x,-y,z
1/2+x,1/2+y,z
1/2-x,1/2+y,-z
1/2-x,1/2-y,-z
1/2+x,1/2-y,z
loop_
_atom_site_type_symbol
_atom_site_label
_atom_site_fract_x
_atom_site_fract_y
_atom_site_fract_z
Si Si1 0.878082 0.563715 0.473454
Si Si2 0.931672 0.337746 0.796707
Si Si3 0.354912 0.359045 0.244526
Si Si4 0.304253 0.759309 0.594251
Si Si5 0.655639 0.940491 0.305085
Si Si6 0.154601 0.331232 0.239818
Si Si7 0.169486 0.739712 0.939006
Si Si8 0.629360 0.288738 0.645129
O O1 0.902683 0.500000 0.412291
O O2 0.754258 0.590979 0.606027
O O3 0.839652 0.567441 0.614670
O O4 0.018154 0.599711 0.257311
O O5 0.841302 0.336846 0.854043
O O6 0.059035 0.296502 0.594959
O O7 0.844413 0.317437 0.994693
O O8 0.314966 0.301481 0.261456
O O9 0.367950 0.346843 0.313838
O O10 0.500000 0.380364 0.000000
O O11 0.264232 0.730609 0.729302
O O12 0.336175 0.707543 0.492485
O O13 0.500000 0.940894 0.500000
O O14 0.730200 0.887347 0.160726
O O15 0.727175 0.000000 0.180650
O O16 0.256650 0.282069 0.113064
O O17 0.000000 0.323597 0.500000
O O18 0.020576 0.760333 0.126509
O O19 0.750000 0.250000 0.500000
#
# Coordination Sequence:
#
# PCOD8078986 Si02
#       8
#     8   8   8   8   8   8   8   8
#     4  10  19  31  45  65  94 123 154 194 230 276
#     4  10  19  30  44  70  96 126 155 182 233 287
#     4  10  17  28  45  64  91 120 155 193 234 274
#     4   9  17  30  44  65  91 124 156 190 226 276
#     4   9  16  27  46  65  88 127 157 176 218 276
#     4  11  17  28  45  67 101 129 148 185 236 277
#     4  11  19  29  47  67  95 130 157 192 232 285
#     4   9  19  30  44  64  88 123 162 192 228 272
#
# _framework density 15.324513
#
# number of rings (size 3 to 8) (size 9 to 14) (size 15 to 20)
#    0.000    2.125    5.000    1.875    0.000    0.250 
#    0.000    0.000    0.000    0.000    0.000    1.750 
#    0.000    1.500    0.000    0.500    0.000    0.000 
#
# Total GULP energy -396506.132111 kJ/mol
# GULP energy per Si atom -12390.816628 kJ/mol
# Density = 1.528963 g / cm^3
# Si number density = 15.324513 Si / 1000 Ang^3
#
#
#
# Elastic Constant Matrix: (Units=GPa)
#
#
# Indices 1 2 3 4 5 6 
#
# 1 63.8645 53.2301 19.0122 -0.0038 13.6575 0.0014
# 2 53.2301 98.0524 34.0513 -0.0049 11.1244 0.0008
# 3 19.0122 34.0513 48.5576 -0.0046 13.0399 0.0004
# 4 -0.0038 -0.0049 -0.0046 19.1387 0.0021 0.9307
# 5 13.6575 11.1244 13.0399 0.0021 28.1130 0.0006
# 6 0.0014 0.0008 0.0004 0.9307 0.0006 29.5347
#
#
#
# Elastic Compliance Matrix: (Units=1/GPa)
#
#
# Indices 1 2 3 4 5 6 
#
# 1 0.030602 -0.016212 0.001892 0.000003 -0.009329 -0.000001
# 2 -0.016212 0.022099 -0.010185 0.000000 0.003855 0.000000
# 3 0.001892 -0.010185 0.029882 0.000006 -0.010750 0.000000
# 4 0.000003 0.000000 0.000006 0.052330 -0.000008 -0.001649
# 5 -0.009329 0.003855 -0.010750 -0.000008 0.043564 0.000000
# 6 -0.000001 0.000000 0.000000 -0.001649 0.000000 0.033910
#
#
# Mechanical properties :
#
#
# Convention : Reuss Voigt Hill
#
# Bulk Modulus (GPa) = 29.78477 47.00687 38.39582
# Shear Modulus (GPa) = 18.34264 22.30266 20.32265
#
# Velocity S-wave (km/s) = 3.46345 3.81905 3.64559
# Velocity P-wave (km/s) = 5.95585 7.08433 6.54446
#
# Compressibility (1/GPa) = 0.03357420
#
# Stress axis : x y z
#
# Youngs Moduli (GPa) = 32.67739 45.25062 33.46458
#
# Poissons Ratio (x) = 0.73359 -0.06331
# Poissons Ratio (y) = 0.52976 0.34084
# Poissons Ratio (z) = -0.06182 0.46088
#
# Static dielectric constant tensor:
#      x y z
#    x 3.249110 -0.000010 0.060930 
#    y -0.000010 3.134730 0.000060 
#    z 0.060930 0.000060 2.800530 
# 
# 
# High freq. dielectric constant tensor:
#      x y z
#    x 1.605390 0.000000 -0.005430 
#    y 0.000000 1.561860 0.000000 
#    z -0.005430 0.000000 1.554240 
# 
# From -- ./inp_files/184979.got.cif
#   From: 2010.06.25/outbox.cif.g09.slc.cpg/sg12_93_cif.got.tgz:184979.got - 2010.06.28 00:19:55.
