data_PCOD8078108
_publ_section_title
;
Structure prediction by ZEFSAII (Michael W. Deem and Ramdas Pophale) SiO2 
 PCOD8078108
Probable space group: C 2/M
;
_chemical_formula_sum "Si O2"
_cell_formula_units_Z 52
_cell_length_a 30.715664
_cell_length_b 11.589103
_cell_length_c 12.213899
_cell_angle_alpha 90.000000
_cell_angle_beta 140.445695
_cell_angle_gamma 90.000000
_cell_volume 2768.684310
_symmetry_space_group_name_H-M "C 2/M"
_symmetry_group_IT_number 12
_symmetry_cell_setting 'monoclinic'
loop_
_space_group_symop_operation_xyz
x,y,z
-x,y,-z
-x,-y,-z
x,-y,z
1/2+x,1/2+y,z
1/2-x,1/2+y,-z
1/2-x,1/2-y,-z
1/2+x,1/2-y,z
loop_
_atom_site_type_symbol
_atom_site_label
_atom_site_fract_x
_atom_site_fract_y
_atom_site_fract_z
Si Si1 0.327064 0.737703 0.249655
Si Si2 0.076445 0.247558 0.368325
Si Si3 0.886698 0.000000 0.299887
Si Si4 0.935521 0.000000 0.631166
Si Si5 0.080909 0.371672 0.159310
Si Si6 0.415499 0.500000 0.110024
Si Si7 0.810032 0.634469 0.000130
Si Si8 0.087048 0.751991 0.952682
O O1 0.384046 0.783647 0.444958
O O2 0.342780 0.616908 0.218841
O O3 0.322249 0.839141 0.151761
O O4 0.254016 0.712439 0.166565
O O5 0.103985 0.323813 0.321894
O O6 0.994656 0.255144 0.228433
O O7 0.099351 0.114831 0.388230
O O8 0.936721 0.000000 0.500895
O O9 0.926359 0.000000 0.261864
O O10 0.013683 0.000000 0.818412
O O11 0.111739 0.500000 0.203504
O O12 0.106530 0.287728 0.112971
O O13 0.000000 0.377259 0.000000
O O14 0.380759 0.380303 0.003174
O O15 0.793784 0.500000 0.953171
O O16 0.877837 0.665060 0.063722
#
# Coordination Sequence:
#
# PCOD8078108 Si02
#       8
#     8   8   4   4   8   4   8   8
#     4  10  21  36  55  80 107 145 184 221 270 324
#     4   9  19  35  56  81 108 139 184 228 267 321
#     4  10  15  32  52  74 108 140 175 215 266 324
#     4   8  17  27  50  81 107 134 171 225 272 308
#     4   9  18  34  55  77 109 147 179 219 272 325
#     4  10  17  29  50  79 107 139 174 219 267 315
#     4  11  22  36  54  79 112 147 179 221 273 327
#     4  10  20  34  55  83 108 141 182 225 272 320
#
# _framework density 18.781485
#
# number of rings (size 3 to 8) (size 9 to 14) (size 15 to 20)
#    0.000    2.308    2.308    0.692    0.000    2.462 
#    0.000    4.615    0.000    0.000    0.000    0.000 
#    0.000    0.000    0.000    0.000    0.000    0.000 
#
# Total GULP energy -322191.685080 kJ/mol
# GULP energy per Si atom -12391.987888 kJ/mol
# Density = 1.873874 g / cm^3
# Si number density = 18.781485 Si / 1000 Ang^3
#
#
#
# Elastic Constant Matrix: (Units=GPa)
#
#
# Indices 1 2 3 4 5 6 
#
# 1 72.1845 42.2818 43.0732 0.0000 -10.5319 0.0000
# 2 42.2818 99.9364 31.3073 0.0000 -21.8861 0.0000
# 3 43.0732 31.3073 77.2478 0.0000 -10.6784 0.0000
# 4 0.0000 0.0000 0.0000 24.3841 0.0000 -5.2511
# 5 -10.5319 -21.8861 -10.6784 0.0000 24.4917 0.0000
# 6 0.0000 0.0000 0.0000 -5.2511 0.0000 26.2996
#
#
#
# Elastic Compliance Matrix: (Units=1/GPa)
#
#
# Indices 1 2 3 4 5 6 
#
# 1 0.024334 -0.007029 -0.010792 0.000000 -0.000522 0.000000
# 2 -0.007029 0.015571 -0.000942 0.000000 0.010481 0.000000
# 3 -0.010792 -0.000942 0.019779 0.000000 0.003141 0.000000
# 4 0.000000 0.000000 0.000000 0.042853 0.000000 0.008556
# 5 -0.000522 0.010481 0.003141 0.000000 0.051341 0.000000
# 6 0.000000 0.000000 0.000000 0.008556 0.000000 0.039732
#
#
# Mechanical properties :
#
#
# Convention : Reuss Voigt Hill
#
# Bulk Modulus (GPa) = 45.13262 53.63260 49.38261
# Shear Modulus (GPa) = 20.96242 23.88218 22.42230
#
# Velocity S-wave (km/s) = 3.34447 3.56979 3.45896
# Velocity P-wave (km/s) = 6.24472 6.75347 6.50407
#
# Compressibility (1/GPa) = 0.02215692
#
# Stress axis : x y z
#
# Youngs Moduli (GPa) = 41.09447 64.22291 50.55831
#
# Poissons Ratio (x) = 0.45142 0.54563
# Poissons Ratio (y) = 0.28885 0.04765
# Poissons Ratio (z) = 0.44350 0.06052
#
# Static dielectric constant tensor:
#      x y z
#    x 3.292240 0.000000 -0.046650 
#    y 0.000000 3.710630 0.000000 
#    z -0.046650 0.000000 3.255730 
# 
# 
# High freq. dielectric constant tensor:
#      x y z
#    x 1.709570 0.000000 -0.007800 
#    y 0.000000 1.739070 0.000000 
#    z -0.007800 0.000000 1.704580 
# 
# From -- ./inp_files/188459.got.cif
#   From: 2010.06.25/outbox.cif.g09.slc.cpg/sg12_95_cif.got.tgz:188459.got - 2010.06.28 00:19:55.
