data_PCOD8078157
_publ_section_title
;
Structure prediction by ZEFSAII (Michael W. Deem and Ramdas Pophale) SiO2 
 PCOD8078157
Probable space group: C 2/M
;
_chemical_formula_sum "Si O2"
_cell_formula_units_Z 56
_cell_length_a 30.369988
_cell_length_b 17.252463
_cell_length_c 17.171384
_cell_angle_alpha 90.000000
_cell_angle_beta 160.341272
_cell_angle_gamma 90.000000
_cell_volume 3026.766776
_symmetry_space_group_name_H-M "C 2/M"
_symmetry_group_IT_number 12
_symmetry_cell_setting 'monoclinic'
loop_
_space_group_symop_operation_xyz
x,y,z
-x,y,-z
-x,-y,-z
x,-y,z
1/2+x,1/2+y,z
1/2-x,1/2+y,-z
1/2-x,1/2-y,-z
1/2+x,1/2-y,z
loop_
_atom_site_type_symbol
_atom_site_label
_atom_site_fract_x
_atom_site_fract_y
_atom_site_fract_z
Si Si1 0.815460 0.587231 0.958286
Si Si2 0.471551 0.589717 0.761012
Si Si3 0.112762 0.815469 0.528711
Si Si4 0.311936 0.088999 0.665768
Si Si5 0.846371 0.217538 0.924987
Si Si6 0.642768 0.766430 0.885486
Si Si7 0.469576 0.138038 0.075008
O O1 0.787718 0.500000 0.942082
O O2 0.682061 0.627965 0.706113
O O3 0.869529 0.640586 0.119062
O O4 0.919897 0.582063 0.061433
O O5 0.505993 0.500000 0.805888
O O6 0.440893 0.630201 0.628527
O O7 0.344251 0.600000 0.604229
O O8 0.601607 0.632017 0.013201
O O9 0.214151 0.749581 0.663839
O O10 0.995055 0.768602 0.373642
O O11 0.368324 0.133685 0.834252
O O12 0.347897 0.000000 0.739749
O O13 0.382775 0.117904 0.704880
O O14 0.817027 0.222581 0.968211
O O15 0.966979 0.274548 0.103663
O O16 0.750000 0.750000 0.000000
#
# Coordination Sequence:
#
# PCOD8078157 Si02
#       7
#     8   8   8   8   8   8   8
#     4  10  18  31  52  77  99 125 162 203 240 284
#     4  10  18  30  48  73 100 130 164 202 239 279
#     4   9  17  33  52  70  98 130 159 195 244 294
#     4  10  16  24  46  74 101 129 160 202 242 275
#     4   9  19  31  48  70  96 128 165 197 240 293
#     4   9  19  34  50  71  99 127 156 197 248 299
#     4   9  16  27  44  73 102 127 161 199 241 286
#
# _framework density 18.501591000000001
#
# number of rings (size 3 to 8) (size 9 to 14) (size 15 to 20)
#    0.000    2.857    2.857    2.143    0.000    2.857 
#    0.000    5.000    0.000    0.000    0.000   10.000 
#    0.000    0.000    0.000    0.000    0.000    0.000 
#
# Total GULP energy -346868.086437 kJ/mol
# GULP energy per Si atom -12388.145944 kJ/mol
# Density = 1.845948 g / cm^3
# Si number density = 18.501591 Si / 1000 Ang^3
#
#
#
# Elastic Constant Matrix: (Units=GPa)
#
#
# Indices 1 2 3 4 5 6 
#
# 1 85.9832 42.4847 25.5769 0.0000 26.3871 0.0000
# 2 42.4847 140.2028 65.8874 0.0000 21.9836 0.0000
# 3 25.5769 65.8874 62.2626 0.0000 29.3587 0.0000
# 4 0.0000 0.0000 0.0000 29.6194 0.0000 -1.6658
# 5 26.3871 21.9836 29.3587 0.0000 25.6517 0.0000
# 6 0.0000 0.0000 0.0000 -1.6658 0.0000 13.9968
#
#
#
# Elastic Compliance Matrix: (Units=1/GPa)
#
#
# Indices 1 2 3 4 5 6 
#
# 1 0.021239 -0.008845 0.015995 0.000000 -0.032574 0.000000
# 2 -0.008845 0.019434 -0.029042 0.000000 0.025683 0.000000
# 3 0.015995 -0.029042 0.078738 0.000000 -0.081682 0.000000
# 4 0.000000 0.000000 0.000000 0.033989 0.000000 0.004045
# 5 -0.032574 0.025683 -0.081682 0.000000 0.143968 0.000000
# 6 0.000000 0.000000 0.000000 0.004045 0.000000 0.071926
#
#
# Mechanical properties :
#
#
# Convention : Reuss Voigt Hill
#
# Bulk Modulus (GPa) = 13.22271 61.81629 37.51950
# Shear Modulus (GPa) = 11.40803 24.15355 17.78079
#
# Velocity S-wave (km/s) = 2.48583 3.61707 3.10343
# Velocity P-wave (km/s) = 3.92447 7.13639 5.75889
#
# Compressibility (1/GPa) = 0.07562747
#
# Stress axis : x y z
#
# Youngs Moduli (GPa) = 47.08252 51.45669 12.70028
#
# Poissons Ratio (x) = 0.45514 -0.20314
# Poissons Ratio (y) = 0.41645 0.36884
# Poissons Ratio (z) = -0.75308 1.49440
#
# Static dielectric constant tensor:
#      x y z
#    x 3.164610 0.000000 0.220160 
#    y 0.000000 3.536040 0.000000 
#    z 0.220160 0.000000 3.501220 
# 
# 
# High freq. dielectric constant tensor:
#      x y z
#    x 1.690430 0.000000 0.024880 
#    y 0.000000 1.714790 0.000000 
#    z 0.024880 0.000000 1.697760 
# 
# From -- ./inp_files/296955.got.cif
#   From: 2010.06.25/outbox.cif.g09.slc.cpg/sg12_149_cif.got.tgz:296955.got - 2010.06.28 00:19:55.
