data_PCOD8078259
_publ_section_title
;
Structure prediction by ZEFSAII (Michael W. Deem and Ramdas Pophale) SiO2 
 PCOD8078259
Probable space group: C 2/M
;
_chemical_formula_sum "Si O2"
_cell_formula_units_Z 56
_cell_length_a 21.564162
_cell_length_b 16.083454
_cell_length_c 18.215885
_cell_angle_alpha 90.000000
_cell_angle_beta 152.478984
_cell_angle_gamma 90.000000
_cell_volume 2919.265907
_symmetry_space_group_name_H-M "C 2/M"
_symmetry_group_IT_number 12
_symmetry_cell_setting 'monoclinic'
loop_
_space_group_symop_operation_xyz
x,y,z
-x,y,-z
-x,-y,-z
x,-y,z
1/2+x,1/2+y,z
1/2-x,1/2+y,-z
1/2-x,1/2-y,-z
1/2+x,1/2-y,z
loop_
_atom_site_type_symbol
_atom_site_label
_atom_site_fract_x
_atom_site_fract_y
_atom_site_fract_z
Si Si1 0.091219 0.410236 0.824948
Si Si2 0.481304 0.135980 0.089049
Si Si3 0.141719 0.238948 0.673281
Si Si4 0.386445 0.736614 0.189479
Si Si5 0.589491 0.319701 0.025182
Si Si6 0.218170 0.408126 0.245863
Si Si7 0.902529 0.090669 0.114743
O O1 0.031087 0.500000 0.733955
O O2 0.056746 0.401591 0.873536
O O3 0.035175 0.326391 0.725788
O O4 0.249359 0.413733 0.978859
O O5 0.636274 0.114918 0.233704
O O6 0.464045 0.235122 0.067433
O O7 0.384920 0.092687 0.929627
O O8 0.144262 0.208351 0.760356
O O9 0.258393 0.307259 0.785429
O O10 0.164664 0.158851 0.645158
O O11 0.000000 0.278683 0.500000
O O12 0.470822 0.663327 0.236814
O O13 0.250000 0.750000 0.000000
O O14 0.500000 0.348123 0.000000
O O15 0.585513 0.390250 0.959169
O O16 0.281961 0.500000 0.320489
O O17 0.970158 0.000000 0.199356
#
# Coordination Sequence:
#
# PCOD8078259 Si02
#       7
#     8   8   8   8   8   8   8
#     4  10  17  26  48  78 106 134 179 233 279 316
#     4  10  16  27  50  80 106 142 183 233 273 317
#     4  11  22  35  54  84 116 151 183 224 288 342
#     4  10  17  33  55  77 108 145 188 234 266 325
#     4  11  18  34  57  78 112 145 189 233 277 328
#     4  10  18  29  46  75 112 146 183 223 271 338
#     4  10  19  31  53  84 108 141 194 242 274 315
#
# _framework density 19.182904000000001
#
# number of rings (size 3 to 8) (size 9 to 14) (size 15 to 20)
#    0.000    1.714    7.143    4.286    0.000    2.286 
#    0.000    0.000    0.000    5.143    0.000    2.000 
#    0.000    0.000    0.000    0.000    0.000    0.000 
#
# Total GULP energy -346893.761291 kJ/mol
# GULP energy per Si atom -12389.062903 kJ/mol
# Density = 1.913924 g / cm^3
# Si number density = 19.182904 Si / 1000 Ang^3
#
#
#
# Elastic Constant Matrix: (Units=GPa)
#
#
# Indices 1 2 3 4 5 6 
#
# 1 144.4431 35.9633 20.3422 0.0000 5.3401 0.0001
# 2 35.9633 145.5151 0.9138 -0.0001 4.9947 0.0000
# 3 20.3422 0.9138 41.4993 -0.0003 5.8036 -0.0002
# 4 0.0000 -0.0001 -0.0003 3.1008 -0.0001 -5.0808
# 5 5.3401 4.9947 5.8036 -0.0001 11.5854 0.0000
# 6 0.0001 0.0000 -0.0002 -5.0808 0.0000 8.8557
#
#
#
# Elastic Compliance Matrix: (Units=1/GPa)
#
#
# Indices 1 2 3 4 5 6 
#
# 1 0.007959 -0.001910 -0.003722 -0.000015 -0.000981 -0.000009
# 2 -0.001910 0.007437 0.001180 0.000005 -0.002917 0.000003
# 3 -0.003722 0.001180 0.027665 0.000055 -0.012652 0.000032
# 4 -0.000015 0.000005 0.000055 5.383032 0.000035 3.088429
# 5 -0.000981 -0.002917 -0.012652 0.000035 0.094363 0.000020
# 6 -0.000009 0.000003 0.000032 3.088429 0.000020 1.884858
#
#
# Mechanical properties :
#
#
# Convention : Reuss Voigt Hill
#
# Bulk Modulus (GPa) = 29.27646 49.54401 39.41024
# Shear Modulus (GPa) = 0.67335 22.99094 11.83214
#
# Velocity S-wave (km/s) = 0.59311 3.46571 2.48625
# Velocity P-wave (km/s) = 3.97038 6.47287 5.36945
#
# Compressibility (1/GPa) = 0.03415713
#
# Stress axis : x y z
#
# Youngs Moduli (GPa) = 125.64137 134.46450 36.14717
#
# Poissons Ratio (x) = 0.25683 0.13455
# Poissons Ratio (y) = 0.23998 -0.04267
# Poissons Ratio (z) = 0.46767 -0.15873
#
# Static dielectric constant tensor:
#      x y z
#    x 3.765510 0.000000 0.106220 
#    y 0.000000 4.604750 0.000000 
#    z 0.106220 0.000000 2.805820 
# 
# 
# High freq. dielectric constant tensor:
#      x y z
#    x 1.765670 0.000000 0.003230 
#    y 0.000000 1.754340 0.000000 
#    z 0.003230 0.000000 1.656490 
# 
# From -- ./inp_files/285024.got.cif
#   From: 2010.06.25/outbox.cif.g09.slc.cpg/sg12_143_cif.got.tgz:285024.got - 2010.06.28 00:19:55.
