data_PCOD8078194
_publ_section_title
;
Structure prediction by ZEFSAII (Michael W. Deem and Ramdas Pophale) SiO2 
 PCOD8078194
Probable space group: C 2/M
;
_chemical_formula_sum "Si O2"
_cell_formula_units_Z 64
_cell_length_a 25.291273
_cell_length_b 21.194919
_cell_length_c 8.518142
_cell_angle_alpha 90.000000
_cell_angle_beta 50.860984
_cell_angle_gamma 90.000000
_cell_volume 3541.559262
_symmetry_space_group_name_H-M "C 2/M"
_symmetry_group_IT_number 12
_symmetry_cell_setting 'monoclinic'
loop_
_space_group_symop_operation_xyz
x,y,z
-x,y,-z
-x,-y,-z
x,-y,z
1/2+x,1/2+y,z
1/2-x,1/2+y,-z
1/2-x,1/2-y,-z
1/2+x,1/2-y,z
loop_
_atom_site_type_symbol
_atom_site_label
_atom_site_fract_x
_atom_site_fract_y
_atom_site_fract_z
Si Si1 0.685869 0.241897 0.510022
Si Si2 0.074234 0.268627 0.286614
Si Si3 0.513597 0.929413 0.644348
Si Si4 0.805048 0.199101 0.831211
Si Si5 0.424585 0.805903 0.078613
Si Si6 0.857718 0.634675 0.609692
Si Si7 0.373857 0.069330 0.088445
Si Si8 0.730977 0.070156 0.994431
O O1 0.750000 0.250000 0.500000
O O2 0.685951 0.294475 0.374100
O O3 0.615989 0.246847 0.743896
O O4 0.689923 0.173403 0.418997
O O5 0.121997 0.206722 0.218036
O O6 0.117895 0.321407 0.293350
O O7 0.000000 0.256325 0.500000
O O8 0.068594 0.286587 0.115346
O O9 0.500000 0.897075 0.500000
O O10 0.575490 0.890921 0.608567
O O11 0.539281 0.000000 0.567889
O O12 0.447236 0.925916 0.870434
O O13 0.750000 0.250000 0.000000
O O14 0.785109 0.126569 0.899070
O O15 0.376903 0.869186 0.193096
O O16 0.500000 0.816029 0.000000
O O17 0.817102 0.576566 0.762433
O O18 0.369048 0.000000 0.182494
O O19 0.312999 0.075704 0.080810
O O20 0.764788 0.000000 0.937994
#
# Coordination Sequence:
#
# PCOD8078194 Si02
#       8
#     8   8   8   8   8   8   8   8
#     4  11  23  34  54  78 108 149 186 229 287 331
#     4  11  21  35  58  83 110 147 193 239 284 330
#     4  10  16  25  44  73 106 145 188 226 260 307
#     4  11  20  39  60  81 111 150 192 241 283 335
#     4  12  22  35  51  80 114 148 191 236 279 338
#     4  11  19  32  53  77 110 145 189 231 274 328
#     4  10  19  31  47  71 111 156 189 224 272 327
#     4  11  20  33  58  86 109 143 194 241 280 330
#
# _framework density 18.071135999999999
#
# number of rings (size 3 to 8) (size 9 to 14) (size 15 to 20)
#    0.000    1.125    5.000    5.250    0.000    0.250 
#    0.000    1.250    0.000    1.875    0.000    0.000 
#    0.000    2.000    0.000    0.000    0.000    0.000 
#
# Total GULP energy -396504.231527 kJ/mol
# GULP energy per Si atom -12390.757235 kJ/mol
# Density = 1.803001 g / cm^3
# Si number density = 18.071136 Si / 1000 Ang^3
#
#
#
# Elastic Constant Matrix: (Units=GPa)
#
#
# Indices 1 2 3 4 5 6 
#
# 1 102.9230 49.2117 22.0085 0.0000 3.1194 0.0000
# 2 49.2117 108.7311 29.2829 0.0000 -12.4726 0.0000
# 3 22.0085 29.2829 78.8631 0.0000 0.6576 0.0000
# 4 0.0000 0.0000 0.0000 -13.5233 0.0000 2.2838
# 5 3.1194 -12.4726 0.6576 0.0000 26.3303 0.0000
# 6 0.0000 0.0000 0.0000 2.2838 0.0000 29.4742
#
#
#
# Elastic Compliance Matrix: (Units=1/GPa)
#
#
# Indices 1 2 3 4 5 6 
#
# 1 0.013021 -0.006028 -0.001359 0.000000 -0.004364 0.000000
# 2 -0.006028 0.013694 -0.003463 0.000000 0.007287 0.000000
# 3 -0.001359 -0.003463 0.014361 0.000000 -0.001838 0.000000
# 4 0.000000 0.000000 0.000000 -0.072991 0.000000 0.005656
# 5 -0.004364 0.007287 -0.001838 0.000000 0.041994 0.000000
# 6 0.000000 0.000000 0.000000 0.005656 0.000000 0.033490
#
#
# Mechanical properties :
#
#
# Convention : Reuss Voigt Hill
#
# Bulk Modulus (GPa) = 51.61278 54.61372 53.11325
# Shear Modulus (GPa) = 69.70863 21.12386 45.41624
#
# Velocity S-wave (km/s) = 6.21758 3.42267 5.01861
# Velocity P-wave (km/s) = 8.95362 6.77545 7.93958
#
# Compressibility (1/GPa) = 0.01937505
#
# Stress axis : x y z
#
# Youngs Moduli (GPa) = 76.79844 73.02523 69.63397
#
# Poissons Ratio (x) = 0.44019 0.09465
# Poissons Ratio (y) = 0.46293 0.24116
# Poissons Ratio (z) = 0.10438 0.25291
#
# Static dielectric constant tensor:
#      x y z
#    x 3.463040 0.000000 0.081310 
#    y 0.000000 3.733550 0.000000 
#    z 0.081310 0.000000 3.470920 
# 
# 
# High freq. dielectric constant tensor:
#      x y z
#    x 1.692470 0.000000 0.012570 
#    y 0.000000 1.677070 0.000000 
#    z 0.012570 0.000000 1.698750 
# 
# From -- ./inp_files/106381.got.cif
#   From: 2010.06.25/outbox.cif.g09.slc.cpg/sg12_54_cif.got.tgz:106381.got - 2010.06.28 00:19:55.
