data_PCOD8078712
_publ_section_title
;
Structure prediction by ZEFSAII (Michael W. Deem and Ramdas Pophale) SiO2 
 PCOD8078712
Probable space group: C 2/M
;
_chemical_formula_sum "Si O2"
_cell_formula_units_Z 64
_cell_length_a 27.752750
_cell_length_b 13.613823
_cell_length_c 12.052805
_cell_angle_alpha 90.000000
_cell_angle_beta 63.756004
_cell_angle_gamma 90.000000
_cell_volume 4084.392953
_symmetry_space_group_name_H-M "C 2/M"
_symmetry_group_IT_number 12
_symmetry_cell_setting 'monoclinic'
loop_
_space_group_symop_operation_xyz
x,y,z
-x,y,-z
-x,-y,-z
x,-y,z
1/2+x,1/2+y,z
1/2-x,1/2+y,-z
1/2-x,1/2-y,-z
1/2+x,1/2-y,z
loop_
_atom_site_type_symbol
_atom_site_label
_atom_site_fract_x
_atom_site_fract_y
_atom_site_fract_z
Si Si1 0.135874 0.203819 0.626143
Si Si2 0.708693 0.613668 0.717877
Si Si3 0.458324 0.613300 0.384377
Si Si4 0.074894 0.113716 0.331254
Si Si5 0.301455 0.888852 0.459527
Si Si6 0.786301 0.111077 0.627614
Si Si7 0.750982 0.611697 0.914032
Si Si8 0.186342 0.799651 0.173975
O O1 0.156628 0.173337 0.727542
O O2 0.072730 0.180779 0.674176
O O3 0.146383 0.319430 0.594987
O O4 0.167135 0.138021 0.505224
O O5 0.699657 0.500000 0.697824
O O6 0.761985 0.649451 0.597386
O O7 0.715365 0.632049 0.841143
O O8 0.451072 0.500000 0.359230
O O9 0.521254 0.641326 0.317621
O O10 0.434382 0.633817 0.530020
O O11 0.122563 0.183142 0.239776
O O12 0.090050 0.000000 0.296794
O O13 0.271451 0.879298 0.372202
O O14 0.320775 0.000000 0.462273
O O15 0.786781 0.179235 0.734728
O O16 0.797292 0.000000 0.655410
O O17 0.773016 0.500000 0.891959
O O18 0.801716 0.685677 0.867353
O O19 0.712473 0.628419 0.057339
#
# Coordination Sequence:
#
# PCOD8078712 Si02
#       8
#     8   8   8   8   8   8   8   8
#     4  11  16  25  45  63  85 115 143 176 219 264
#     4   9  17  28  40  60  90 117 141 170 212 267
#     4   9  17  27  43  68  89 108 139 183 228 264
#     4   9  17  29  44  65  91 110 137 184 229 259
#     4   9  18  27  38  60  89 117 144 176 213 257
#     4  10  17  26  43  67  87 107 143 184 221 258
#     4  10  21  32  43  65  92 120 152 176 206 260
#     4  11  19  30  49  65  87 121 148 179 220 255
#
# _framework density 15.669403000000001
#
# number of rings (size 3 to 8) (size 9 to 14) (size 15 to 20)
#    0.000    2.250    1.250    6.750    0.000    0.000 
#    0.000    0.000    0.000    1.500    0.000    5.250 
#    0.000    0.000    0.000   11.875    0.000    0.375 
#
# Total GULP energy -396771.136248 kJ/mol
# GULP energy per Si atom -12399.098008 kJ/mol
# Density = 1.563374 g / cm^3
# Si number density = 15.669403 Si / 1000 Ang^3
#
#
#
# Elastic Constant Matrix: (Units=GPa)
#
#
# Indices 1 2 3 4 5 6 
#
# 1 96.5472 46.8405 25.2811 0.0000 -5.3641 0.0000
# 2 46.8405 74.7120 15.8458 0.0000 -7.7082 0.0000
# 3 25.2811 15.8458 56.4386 0.0000 0.7670 0.0000
# 4 0.0000 0.0000 0.0000 17.4708 0.0000 0.4069
# 5 -5.3641 -7.7082 0.7670 0.0000 19.4718 0.0000
# 6 0.0000 0.0000 0.0000 0.4069 0.0000 22.6223
#
#
#
# Elastic Compliance Matrix: (Units=1/GPa)
#
#
# Indices 1 2 3 4 5 6 
#
# 1 0.015959 -0.008908 -0.004662 0.000000 0.001054 0.000000
# 2 -0.008908 0.019889 -0.001669 0.000000 0.005485 0.000000
# 3 -0.004662 -0.001669 0.020312 0.000000 -0.002745 0.000000
# 4 0.000000 0.000000 0.000000 0.057262 0.000000 -0.001030
# 5 0.001054 0.005485 -0.002745 0.000000 0.053926 0.000000
# 6 0.000000 0.000000 0.000000 -0.001030 0.000000 0.044223
#
#
# Mechanical properties :
#
#
# Convention : Reuss Voigt Hill
#
# Bulk Modulus (GPa) = 38.93488 44.84806 41.89147
# Shear Modulus (GPa) = 19.95141 21.22833 20.58987
#
# Velocity S-wave (km/s) = 3.57216 3.68470 3.62887
# Velocity P-wave (km/s) = 6.47422 6.84005 6.65965
#
# Compressibility (1/GPa) = 0.02568391
#
# Stress axis : x y z
#
# Youngs Moduli (GPa) = 62.66248 50.27850 49.23107
#
# Poissons Ratio (x) = 0.44787 0.22951
# Poissons Ratio (y) = 0.55818 0.08214
# Poissons Ratio (z) = 0.29212 0.08389
#
# Static dielectric constant tensor:
#      x y z
#    x 2.961310 0.000000 0.190840 
#    y 0.000000 2.992360 0.000000 
#    z 0.190840 0.000000 2.793060 
# 
# 
# High freq. dielectric constant tensor:
#      x y z
#    x 1.583240 0.000000 0.022170 
#    y 0.000000 1.600570 0.000000 
#    z 0.022170 0.000000 1.573770 
# 
# From -- ./inp_files/183002.got.cif
#   From: 2010.06.25/outbox.cif.g09.slc.cpg/sg12_92_cif.got.tgz:183002.got - 2010.06.28 00:19:55.
