data_PCOD8078668
_publ_section_title
;
Structure prediction by ZEFSAII (Michael W. Deem and Ramdas Pophale) SiO2 
 PCOD8078668
Probable space group: C 2/M
;
_chemical_formula_sum "Si O2"
_cell_formula_units_Z 64
_cell_length_a 18.690569
_cell_length_b 18.790904
_cell_length_c 25.304570
_cell_angle_alpha 90.000000
_cell_angle_beta 27.296559
_cell_angle_gamma 90.000000
_cell_volume 4075.675485
_symmetry_space_group_name_H-M "C 2/M"
_symmetry_group_IT_number 12
_symmetry_cell_setting 'monoclinic'
loop_
_space_group_symop_operation_xyz
x,y,z
-x,y,-z
-x,-y,-z
x,-y,z
1/2+x,1/2+y,z
1/2-x,1/2+y,-z
1/2-x,1/2-y,-z
1/2+x,1/2-y,z
loop_
_atom_site_type_symbol
_atom_site_label
_atom_site_fract_x
_atom_site_fract_y
_atom_site_fract_z
Si Si1 0.285238 0.225244 0.036208
Si Si2 0.147800 0.665748 0.374375
Si Si3 0.298207 0.419575 0.365984
Si Si4 0.570860 0.420967 0.047208
Si Si5 0.888305 0.211104 0.146036
Si Si6 0.143921 0.921274 0.121959
Si Si7 0.000438 0.582281 0.378699
Si Si8 0.208485 0.668618 0.166298
O O1 0.261343 0.141337 0.061817
O O2 0.165192 0.271156 0.151310
O O3 0.250000 0.250000 0.000000
O O4 0.463675 0.240546 0.936801
O O5 0.263287 0.633447 0.341553
O O6 0.240480 0.727607 0.281385
O O7 0.000000 0.702627 0.500000
O O8 0.086200 0.602446 0.376838
O O9 0.269916 0.500000 0.364266
O O10 0.480537 0.409343 0.260274
O O11 0.186177 0.405541 0.490347
O O12 0.521254 0.500000 0.063780
O O13 0.420983 0.371985 0.137061
O O14 0.625176 0.416249 0.071640
O O15 0.708656 0.396284 0.917972
O O16 0.831803 0.211929 0.122583
O O17 0.211079 0.000000 0.092560
O O18 0.036055 0.500000 0.340845
O O19 0.058742 0.636048 0.294332
#
# Coordination Sequence:
#
# PCOD8078668 Si02
#       8
#     8   8   8   8   8   8   8   8
#     4  11  18  32  48  63  89 123 151 183 229 274
#     4   9  15  24  39  62  91 124 156 179 206 257
#     4   9  15  26  41  61  89 122 156 184 211 251
#     4  10  17  26  41  63  92 118 144 175 212 263
#     4  10  19  29  43  66  92 121 148 184 228 270
#     4  10  19  30  47  67  86 114 156 194 220 256
#     4   9  17  26  40  62  94 128 151 177 213 260
#     4  10  20  30  42  66  93 118 151 181 228 273
#
# _framework density 15.702918
#
# number of rings (size 3 to 8) (size 9 to 14) (size 15 to 20)
#    0.000    2.250    3.750    2.250    0.000    4.500 
#    0.000    0.625    0.000    1.500    0.000    0.000 
#    0.000    0.500    0.000    0.000    0.000   10.875 
#
# Total GULP energy -396437.947534 kJ/mol
# GULP energy per Si atom -12388.685860 kJ/mol
# Density = 1.566718 g / cm^3
# Si number density = 15.702918 Si / 1000 Ang^3
#
#
#
# Elastic Constant Matrix: (Units=GPa)
#
#
# Indices 1 2 3 4 5 6 
#
# 1 49.2325 35.5747 28.8454 -0.0025 6.2086 -0.0004
# 2 35.5747 88.2622 43.5047 -0.0014 -1.4651 0.0011
# 3 28.8454 43.5047 105.4690 -0.0207 7.3371 0.0034
# 4 -0.0025 -0.0014 -0.0207 20.8424 0.0128 -1.0145
# 5 6.2086 -1.4651 7.3371 0.0128 19.3035 -0.0009
# 6 -0.0004 0.0011 0.0034 -1.0145 -0.0009 22.0180
#
#
#
# Elastic Compliance Matrix: (Units=1/GPa)
#
#
# Indices 1 2 3 4 5 6 
#
# 1 0.031639 -0.011277 -0.003322 0.000006 -0.009769 0.000002
# 2 -0.011277 0.018461 -0.005013 -0.000009 0.006934 -0.000001
# 3 -0.003322 -0.005013 0.012747 0.000014 -0.004157 -0.000001
# 4 0.000006 -0.000009 0.000014 0.048087 -0.000040 0.002216
# 5 -0.009769 0.006934 -0.004157 -0.000040 0.057052 0.000001
# 6 0.000002 -0.000001 -0.000001 0.002216 0.000001 0.045520
#
#
# Mechanical properties :
#
#
# Convention : Reuss Voigt Hill
#
# Bulk Modulus (GPa) = 42.33174 50.97927 46.65551
# Shear Modulus (GPa) = 19.18617 21.43537 20.31077
#
# Velocity S-wave (km/s) = 3.49925 3.69867 3.60034
# Velocity P-wave (km/s) = 6.58352 7.12570 6.85997
#
# Compressibility (1/GPa) = 0.02362294
#
# Stress axis : x y z
#
# Youngs Moduli (GPa) = 31.60691 54.16746 78.44955
#
# Poissons Ratio (x) = 0.61085 0.26060
# Poissons Ratio (y) = 0.35643 0.39328
# Poissons Ratio (z) = 0.10499 0.27155
#
# Static dielectric constant tensor:
#      x y z
#    x 2.693940 0.000000 0.179180 
#    y 0.000000 2.866710 0.000030 
#    z 0.179180 0.000030 3.314520 
# 
# 
# High freq. dielectric constant tensor:
#      x y z
#    x 1.564540 0.000000 0.019390 
#    y 0.000000 1.571180 0.000000 
#    z 0.019390 0.000000 1.619170 
# 
# From -- ./inp_files/189472.got.cif
#   From: 2010.06.25/outbox.cif.g09.slc.cpg/sg12_95_cif.got.tgz:189472.got - 2010.06.28 00:19:55.
