data_PCOD8078961
_publ_section_title
;
Structure prediction by ZEFSAII (Michael W. Deem and Ramdas Pophale) SiO2 
 PCOD8078961
Probable space group: C 2/M
;
_chemical_formula_sum "Si O2"
_cell_formula_units_Z 64
_cell_length_a 20.882229
_cell_length_b 17.823457
_cell_length_c 11.501144
_cell_angle_alpha 90.000000
_cell_angle_beta 115.611868
_cell_angle_gamma 90.000000
_cell_volume 3860.047249
_symmetry_space_group_name_H-M "C 2/M"
_symmetry_group_IT_number 12
_symmetry_cell_setting 'monoclinic'
loop_
_space_group_symop_operation_xyz
x,y,z
-x,y,-z
-x,-y,-z
x,-y,z
1/2+x,1/2+y,z
1/2-x,1/2+y,-z
1/2-x,1/2-y,-z
1/2+x,1/2-y,z
loop_
_atom_site_type_symbol
_atom_site_label
_atom_site_fract_x
_atom_site_fract_y
_atom_site_fract_z
Si Si1 0.294187 0.089275 0.291464
Si Si2 0.897777 0.412169 0.964086
Si Si3 0.640040 0.416365 0.215819
Si Si4 0.987515 0.183976 0.853063
Si Si5 0.770093 0.410876 0.016934
Si Si6 0.884920 0.083695 0.077472
Si Si7 0.065561 0.411037 0.475530
Si Si8 0.029987 0.646520 0.197498
O O1 0.220877 0.112231 0.299201
O O2 0.294992 0.122477 0.160908
O O3 0.361415 0.122015 0.413938
O O4 0.297816 0.000000 0.287794
O O5 0.896293 0.500000 0.932620
O O6 0.911763 0.365111 0.858338
O O7 0.823088 0.382824 0.957558
O O8 0.958552 0.397651 0.107519
O O9 0.629109 0.500000 0.259781
O O10 0.585487 0.359396 0.233768
O O11 0.625254 0.420166 0.067873
O O12 0.984852 0.265944 0.796127
O O13 0.051700 0.139933 0.840425
O O14 0.000000 0.190082 0.000000
O O15 0.773599 0.500000 0.028317
O O16 0.689064 0.386648 0.923842
O O17 0.903652 0.000000 0.138006
O O18 0.066302 0.500000 0.480747
O O19 0.060581 0.385679 0.339575
O O20 0.000000 0.379534 0.500000
#
# Coordination Sequence:
#
# PCOD8078961 Si02
#       8
#     8   8   8   8   8   8   8   8
#     4   8  14  26  44  68  89 109 146 194 229 259
#     4  10  18  30  46  61  89 126 155 183 218 267
#     4   8  14  25  45  68  91 118 149 184 228 269
#     4  10  17  28  43  64  99 126 146 181 224 271
#     4   8  14  26  46  70  92 114 146 187 226 263
#     4   8  14  25  45  71  94 118 150 184 223 270
#     4  10  19  31  49  67  85 112 153 198 229 257
#     4  11  20  30  42  65  94 121 154 180 220 272
#
# _framework density 16.580107999999999
#
# number of rings (size 3 to 8) (size 9 to 14) (size 15 to 20)
#    0.000    2.875    1.250    4.125    0.000    3.500 
#    0.000    1.250    2.750    0.000    0.000    0.000 
#    0.000    1.000    0.000    0.000    0.000    0.000 
#
# Total GULP energy -396644.931336 kJ/mol
# GULP energy per Si atom -12395.154104 kJ/mol
# Density = 1.654237 g / cm^3
# Si number density = 16.580108 Si / 1000 Ang^3
#
#
#
# Elastic Constant Matrix: (Units=GPa)
#
#
# Indices 1 2 3 4 5 6 
#
# 1 137.4513 28.4017 46.5330 0.0000 18.8029 0.0000
# 2 28.4017 41.8801 14.0550 0.0000 6.7416 0.0000
# 3 46.5330 14.0550 57.5225 0.0000 9.4355 0.0000
# 4 0.0000 0.0000 0.0000 9.1759 0.0000 0.1262
# 5 18.8029 6.7416 9.4355 0.0000 20.7062 0.0000
# 6 0.0000 0.0000 0.0000 0.1262 0.0000 6.5988
#
#
#
# Elastic Compliance Matrix: (Units=1/GPa)
#
#
# Indices 1 2 3 4 5 6 
#
# 1 0.011400 -0.004401 -0.007224 0.000000 -0.005628 0.000000
# 2 -0.004401 0.028424 -0.002726 0.000000 -0.004015 0.000000
# 3 -0.007224 -0.002726 0.024504 0.000000 -0.003719 0.000000
# 4 0.000000 0.000000 0.000000 0.109010 0.000000 -0.002085
# 5 -0.005628 -0.004015 -0.003719 0.000000 0.056407 0.000000
# 6 0.000000 0.000000 0.000000 -0.002085 0.000000 0.151583
#
#
# Mechanical properties :
#
#
# Convention : Reuss Voigt Hill
#
# Bulk Modulus (GPa) = 28.06916 46.09257 37.08087
# Shear Modulus (GPa) = 11.85100 17.15379 14.50240
#
# Velocity S-wave (km/s) = 2.67642 3.22001 2.96072
# Velocity P-wave (km/s) = 5.14948 6.45638 5.83961
#
# Compressibility (1/GPa) = 0.03562628
#
# Stress axis : x y z
#
# Youngs Moduli (GPa) = 87.71907 35.18210 40.80933
#
# Poissons Ratio (x) = 0.15484 0.29479
# Poissons Ratio (y) = 0.38605 0.11125
# Poissons Ratio (z) = 0.63365 0.09591
#
# Static dielectric constant tensor:
#      x y z
#    x 3.550250 0.000000 0.248070 
#    y 0.000000 2.936730 0.000000 
#    z 0.248070 0.000000 2.819590 
# 
# 
# High freq. dielectric constant tensor:
#      x y z
#    x 1.650890 0.000000 0.018400 
#    y 0.000000 1.611180 0.000000 
#    z 0.018400 0.000000 1.590620 
# 
# From -- ./inp_files/168488.got.cif
#   From: 2010.06.25/outbox.cif.g09.slc.cpg/sg12_85_cif.got.tgz:168488.got - 2010.06.28 00:19:55.
