data_PCOD8078096
_publ_section_title
;
Structure prediction by ZEFSAII (Michael W. Deem and Ramdas Pophale) SiO2 
 PCOD8078096
Probable space group: C 2/M
;
_chemical_formula_sum "Si O2"
_cell_formula_units_Z 36
_cell_length_a 17.831988
_cell_length_b 14.471621
_cell_length_c 8.877174
_cell_angle_alpha 90.000000
_cell_angle_beta 117.138197
_cell_angle_gamma 90.000000
_cell_volume 2038.624465
_symmetry_space_group_name_H-M "C 2/M"
_symmetry_group_IT_number 12
_symmetry_cell_setting 'monoclinic'
loop_
_space_group_symop_operation_xyz
x,y,z
-x,y,-z
-x,-y,-z
x,-y,z
1/2+x,1/2+y,z
1/2-x,1/2+y,-z
1/2-x,1/2-y,-z
1/2+x,1/2-y,z
loop_
_atom_site_type_symbol
_atom_site_label
_atom_site_fract_x
_atom_site_fract_y
_atom_site_fract_z
Si Si1 0.431958 0.000000 0.606519
Si Si2 0.256073 0.500000 0.584329
Si Si3 0.587133 0.397448 0.321805
Si Si4 0.559284 0.155230 0.794534
Si Si5 0.500000 0.727775 0.000000
Si Si6 0.657166 0.000000 0.773851
Si Si7 0.000000 0.790687 0.500000
O O1 0.475372 0.092129 0.709717
O O2 0.334785 0.000000 0.580143
O O3 0.574874 0.000000 0.583876
O O4 0.310670 0.408880 0.590770
O O5 0.242921 0.500000 0.756346
O O6 0.545491 0.500000 0.268823
O O7 0.559126 0.334574 0.157758
O O8 0.561858 0.353588 0.457545
O O9 0.559895 0.228570 0.659408
O O10 0.644284 0.092521 0.861970
O O11 0.560578 0.208241 0.954147
#
# Coordination Sequence:
#
# PCOD8078096 Si02
#       7
#     4   4   8   8   4   4   4
#     4   9  16  32  54  74  98 128 157 205 246 291
#     4   8  18  31  52  72  98 138 156 196 260 285
#     4   9  19  33  51  72  99 131 167 199 253 282
#     4  10  17  31  54  77  97 128 167 201 246 283
#     4  10  21  31  50  76 100 126 166 211 233 296
#     4   9  16  32  52  72 100 128 157 201 248 293
#     4  10  15  29  52  78  90 118 176 215 223 282
#
# _framework density 17.658967000000001
#
# number of rings (size 3 to 8) (size 9 to 14) (size 15 to 20)
#    1.333    1.333    2.222    1.333    0.000    1.778 
#    0.000   11.111    0.000    8.000    0.000    0.000 
#    0.000    0.000    0.000    0.000    0.000    0.000 
#
# Total GULP energy -223022.575652 kJ/mol
# GULP energy per Si atom -12390.143092 kJ/mol
# Density = 1.761877 g / cm^3
# Si number density = 17.658967 Si / 1000 Ang^3
#
#
#
# Elastic Constant Matrix: (Units=GPa)
#
#
# Indices 1 2 3 4 5 6 
#
# 1 115.8411 55.5759 32.4583 0.0000 -18.7829 0.0000
# 2 55.5759 121.6093 42.1583 0.0000 -23.7861 0.0000
# 3 32.4583 42.1583 67.6531 0.0000 -24.9143 0.0000
# 4 0.0000 0.0000 0.0000 12.1948 0.0000 -9.7643
# 5 -18.7829 -23.7861 -24.9143 0.0000 28.8609 0.0000
# 6 0.0000 0.0000 0.0000 -9.7643 0.0000 12.7451
#
#
#
# Elastic Compliance Matrix: (Units=1/GPa)
#
#
# Indices 1 2 3 4 5 6 
#
# 1 0.011572 -0.004092 -0.002156 0.000000 0.002298 0.000000
# 2 -0.004092 0.012331 -0.004338 0.000000 0.003755 0.000000
# 3 -0.002156 -0.004338 0.024463 0.000000 0.016139 0.000000
# 4 0.000000 0.000000 0.000000 0.212132 0.000000 0.162520
# 5 0.002298 0.003755 0.016139 0.000000 0.053171 0.000000
# 6 0.000000 0.000000 0.000000 0.162520 0.000000 0.202973
#
#
# Mechanical properties :
#
#
# Convention : Reuss Voigt Hill
#
# Bulk Modulus (GPa) = 36.77320 62.83205 49.80262
# Shear Modulus (GPa) = 9.14279 22.42088 15.78184
#
# Velocity S-wave (km/s) = 2.27786 3.56709 2.99273
# Velocity P-wave (km/s) = 5.27139 7.25421 6.34079
#
# Compressibility (1/GPa) = 0.02719372
#
# Stress axis : x y z
#
# Youngs Moduli (GPa) = 86.41362 81.09364 40.87886
#
# Poissons Ratio (x) = 0.33181 0.08814
# Poissons Ratio (y) = 0.35357 0.17735
# Poissons Ratio (z) = 0.18632 0.35182
#
# Static dielectric constant tensor:
#      x y z
#    x 3.083210 0.000000 -0.292050 
#    y 0.000000 3.410800 0.000000 
#    z -0.292050 0.000000 2.963490 
# 
# 
# High freq. dielectric constant tensor:
#      x y z
#    x 1.667720 0.000000 -0.031040 
#    y 0.000000 1.694840 0.000000 
#    z -0.031040 0.000000 1.649110 
# 
# From -- ./inp_files/72558.got.cif
#   From: 2010.06.25/outbox.cif.g09.slc.cpg/sg12_37_cif.got.tgz:72558.got - 2010.06.28 00:19:55.
