data_PCOD8079043
_publ_section_title
;
Structure prediction by ZEFSAII (Michael W. Deem and Ramdas Pophale) SiO2 
 PCOD8079043
Probable space group: C 2/M
;
_chemical_formula_sum "Si O2"
_cell_formula_units_Z 64
_cell_length_a 18.953150
_cell_length_b 8.863951
_cell_length_c 20.451192
_cell_angle_alpha 90.000000
_cell_angle_beta 83.522559
_cell_angle_gamma 90.000000
_cell_volume 3413.863101
_symmetry_space_group_name_H-M "C 2/M"
_symmetry_group_IT_number 12
_symmetry_cell_setting 'monoclinic'
loop_
_space_group_symop_operation_xyz
x,y,z
-x,y,-z
-x,-y,-z
x,-y,z
1/2+x,1/2+y,z
1/2-x,1/2+y,-z
1/2-x,1/2-y,-z
1/2+x,1/2-y,z
loop_
_atom_site_type_symbol
_atom_site_label
_atom_site_fract_x
_atom_site_fract_y
_atom_site_fract_z
Si Si1 0.478970 0.824121 0.855085
Si Si2 0.388114 0.672014 0.329209
Si Si3 0.670722 0.678510 0.323202
Si Si4 0.631909 0.177061 0.893126
Si Si5 0.531509 0.176572 0.293862
Si Si6 0.921374 0.829449 0.979828
Si Si7 0.756067 0.824681 0.429461
Si Si8 0.283373 0.322969 0.224124
O O1 0.558964 0.776704 0.864918
O O2 0.464470 0.776559 0.782479
O O3 0.422076 0.738373 0.906712
O O4 0.468103 0.000000 0.868448
O O5 0.415032 0.500000 0.322365
O O6 0.454529 0.782508 0.330731
O O7 0.336632 0.695930 0.396326
O O8 0.346233 0.715886 0.267864
O O9 0.677375 0.500000 0.323587
O O10 0.589105 0.728288 0.327513
O O11 0.701600 0.743784 0.386880
O O12 0.711537 0.743824 0.255856
O O13 0.696136 0.259177 0.848931
O O14 0.645413 0.000000 0.890529
O O15 0.631029 0.234296 0.968068
O O16 0.545125 0.000000 0.302237
O O17 0.893520 0.000000 0.979870
O O18 0.000000 0.818482 0.000000
O O19 0.750000 0.750000 0.500000
O O20 0.735472 0.000000 0.434762
O O21 0.268360 0.500000 0.221745
#
# Coordination Sequence:
#
# PCOD8079043 Si02
#       8
#     8   8   8   8   8   8   8   8
#     4   9  18  30  46  71 103 140 178 222 274 327
#     4   9  19  34  55  83 113 143 179 221 267 317
#     4  11  23  38  57  82 113 148 184 223 270 322
#     4  10  17  28  47  73 103 137 180 228 277 329
#     4  11  21  35  55  81 113 146 183 226 274 324
#     4   9  17  27  41  66  99 137 178 225 276 325
#     4  10  21  40  64  90 117 148 182 221 265 316
#     4  10  19  33  53  78 108 141 182 231 277 325
#
# _framework density 18.747091000000001
#
# number of rings (size 3 to 8) (size 9 to 14) (size 15 to 20)
#    0.000    2.125    1.250    3.750    0.000    5.500 
#    0.000    0.625    0.000    4.500    0.000    0.000 
#    0.000    0.000    0.000    0.000    0.000    0.000 
#
# Total GULP energy -396898.296577 kJ/mol
# GULP energy per Si atom -12403.071768 kJ/mol
# Density = 1.870442 g / cm^3
# Si number density = 18.747091 Si / 1000 Ang^3
#
#
#
# Elastic Constant Matrix: (Units=GPa)
#
#
# Indices 1 2 3 4 5 6 
#
# 1 72.6167 40.5155 28.8769 0.0000 -4.3109 0.0000
# 2 40.5155 111.9887 41.3696 0.0000 -7.5136 0.0000
# 3 28.8769 41.3696 91.8496 0.0000 -17.3009 0.0000
# 4 0.0000 0.0000 0.0000 35.5102 0.0000 -5.9028
# 5 -4.3109 -7.5136 -17.3009 0.0000 21.1388 0.0000
# 6 0.0000 0.0000 0.0000 -5.9028 0.0000 28.6865
#
#
#
# Elastic Compliance Matrix: (Units=1/GPa)
#
#
# Indices 1 2 3 4 5 6 
#
# 1 0.018060 -0.005319 -0.003482 0.000000 -0.001057 0.000000
# 2 -0.005319 0.012279 -0.003831 0.000000 0.000144 0.000000
# 3 -0.003482 -0.003831 0.015744 0.000000 0.010814 0.000000
# 4 0.000000 0.000000 0.000000 0.029158 0.000000 0.006000
# 5 -0.001057 0.000144 0.010814 0.000000 0.055993 0.000000
# 6 0.000000 0.000000 0.000000 0.006000 0.000000 0.036094
#
#
# Mechanical properties :
#
#
# Convention : Reuss Voigt Hill
#
# Bulk Modulus (GPa) = 48.02898 55.33099 51.67999
# Shear Modulus (GPa) = 25.05875 28.11328 26.58602
#
# Velocity S-wave (km/s) = 3.66002 3.87668 3.76991
# Velocity P-wave (km/s) = 6.59819 7.04391 6.82469
#
# Compressibility (1/GPa) = 0.02082076
#
# Stress axis : x y z
#
# Youngs Moduli (GPa) = 55.37059 81.44293 63.51458
#
# Poissons Ratio (x) = 0.43316 0.22113
# Poissons Ratio (y) = 0.29450 0.24333
# Poissons Ratio (z) = 0.19277 0.31201
#
# Static dielectric constant tensor:
#      x y z
#    x 3.190770 0.000000 -0.166320 
#    y 0.000000 3.467640 0.000000 
#    z -0.166320 0.000000 3.415060 
# 
# 
# High freq. dielectric constant tensor:
#      x y z
#    x 1.701960 0.000000 -0.017920 
#    y 0.000000 1.739420 0.000000 
#    z -0.017920 0.000000 1.720780 
# 
# From -- ./inp_files/314052.got.cif
#   From: 2010.06.25/outbox.cif.g09.slc.cpg/sg12_158_cif.got.tgz:314052.got - 2010.06.28 00:19:55.
