data_PCOD8079866
_publ_section_title
;
Structure prediction by ZEFSAII (Michael W. Deem and Ramdas Pophale) SiO2 
 PCOD8079866
Probable space group: C 2/M
;
_chemical_formula_sum "Si O2"
_cell_formula_units_Z 48
_cell_length_a 18.175712
_cell_length_b 15.236404
_cell_length_c 9.822688
_cell_angle_alpha 90.000000
_cell_angle_beta 75.147002
_cell_angle_gamma 90.000000
_cell_volume 2629.329855
_symmetry_space_group_name_H-M "C 2/M"
_symmetry_group_IT_number 12
_symmetry_cell_setting 'monoclinic'
loop_
_space_group_symop_operation_xyz
x,y,z
-x,y,-z
-x,-y,-z
x,-y,z
1/2+x,1/2+y,z
1/2-x,1/2+y,-z
1/2-x,1/2-y,-z
1/2+x,1/2-y,z
loop_
_atom_site_type_symbol
_atom_site_label
_atom_site_fract_x
_atom_site_fract_y
_atom_site_fract_z
Si Si1 0.911757 0.401150 0.521988
Si Si2 0.277245 0.699087 0.697067
Si Si3 0.351537 0.100151 0.112285
Si Si4 0.145582 0.767694 0.595600
Si Si5 0.869962 0.672317 0.815538
Si Si6 0.526379 0.760018 0.846734
O O1 0.899807 0.500000 0.471609
O O2 0.875272 0.333456 0.432544
O O3 0.869747 0.392771 0.687232
O O4 0.000000 0.379037 0.500000
O O5 0.228379 0.616464 0.771399
O O6 0.221366 0.769970 0.651562
O O7 0.340397 0.675205 0.549234
O O8 0.317213 0.743496 0.807846
O O9 0.420237 0.158079 0.136967
O O10 0.375676 0.000000 0.118984
O O11 0.337011 0.121917 0.960977
O O12 0.075644 0.803754 0.723004
O O13 0.955173 0.705771 0.797520
O O14 0.500000 0.711860 0.000000
#
# Coordination Sequence:
#
# PCOD8079866 Si02
#       6
#     8   8   8   8   8   8
#     4  10  18  26  43  69 100 133 157 190 237 292
#     4   9  19  31  48  64  95 137 174 200 230 283
#     4  10  20  32  47  72 105 136 160 196 246 296
#     4   9  17  32  44  66  95 131 167 205 232 281
#     4  10  18  31  47  69 100 132 169 199 238 289
#     4   9  18  29  46  72  99 125 159 200 244 293
#
# _framework density 18.255602
#
# number of rings (size 3 to 8) (size 9 to 14) (size 15 to 20)
#    0.000    2.500    1.667    1.000    0.000    6.333 
#    0.000    0.000    0.000    0.000    0.000    2.333 
#    0.000   29.333    0.000    0.000    0.000    0.000 
#
# Total GULP energy -297383.820624 kJ/mol
# GULP energy per Si atom -12390.992526 kJ/mol
# Density = 1.821405 g / cm^3
# Si number density = 18.255602 Si / 1000 Ang^3
#
#
#
# Elastic Constant Matrix: (Units=GPa)
#
#
# Indices 1 2 3 4 5 6 
#
# 1 78.8014 28.1391 29.2907 0.0000 -0.2490 0.0000
# 2 28.1391 14.9051 4.3370 0.0000 -0.9382 0.0000
# 3 29.2907 4.3370 120.4563 0.0000 -17.1041 0.0000
# 4 0.0000 0.0000 0.0000 13.6657 0.0000 -1.4206
# 5 -0.2490 -0.9382 -17.1041 0.0000 30.0949 0.0000
# 6 0.0000 0.0000 0.0000 -1.4206 0.0000 13.8766
#
#
#
# Elastic Compliance Matrix: (Units=1/GPa)
#
#
# Indices 1 2 3 4 5 6 
#
# 1 0.047150 -0.086753 -0.009431 0.000000 -0.007675 0.000000
# 2 -0.086753 0.227438 0.015024 0.000000 0.014911 0.000000
# 3 -0.009431 0.015024 0.010997 0.000000 0.006640 0.000000
# 4 0.000000 0.000000 0.000000 0.073963 0.000000 0.007572
# 5 -0.007675 0.014911 0.006640 0.000000 0.037404 0.000000
# 6 0.000000 0.000000 0.000000 0.007572 0.000000 0.072839
#
#
# Mechanical properties :
#
#
# Convention : Reuss Voigt Hill
#
# Bulk Modulus (GPa) = 8.11268 37.52182 22.81725
# Shear Modulus (GPa) = 7.42722 21.68717 14.55720
#
# Velocity S-wave (km/s) = 2.01923 3.45044 2.82691
# Velocity P-wave (km/s) = 3.14483 6.03923 4.81468
#
# Compressibility (1/GPa) = 0.12326386
#
# Stress axis : x y z
#
# Youngs Moduli (GPa) = 21.20887 4.39680 90.93271
#
# Poissons Ratio (x) = 0.38144 0.85763
# Poissons Ratio (y) = 1.83993 -1.36614
# Poissons Ratio (z) = 0.20003 -0.06606
#
# Static dielectric constant tensor:
#      x y z
#    x 3.392240 0.000000 -0.097360 
#    y 0.000000 2.724950 0.000000 
#    z -0.097360 0.000000 4.072180 
# 
# 
# High freq. dielectric constant tensor:
#      x y z
#    x 1.709870 0.000000 0.002740 
#    y 0.000000 1.623130 0.000000 
#    z 0.002740 0.000000 1.744600 
# 
# From -- ./inp_files/167754.got.cif
#   From: 2010.06.25/outbox.cif.g09.slc.cpg/sg12_84_cif.got.tgz:167754.got - 2010.06.28 00:19:55.
