data_PCOD8079113
_publ_section_title
;
Structure prediction by ZEFSAII (Michael W. Deem and Ramdas Pophale) SiO2 
 PCOD8079113
Probable space group: C 2/M
;
_chemical_formula_sum "Si O2"
_cell_formula_units_Z 64
_cell_length_a 28.196682
_cell_length_b 15.234145
_cell_length_c 19.544512
_cell_angle_alpha 90.000000
_cell_angle_beta 21.429359
_cell_angle_gamma 90.000000
_cell_volume 3067.288136
_symmetry_space_group_name_H-M "C 2/M"
_symmetry_group_IT_number 12
_symmetry_cell_setting 'monoclinic'
loop_
_space_group_symop_operation_xyz
x,y,z
-x,y,-z
-x,-y,-z
x,-y,z
1/2+x,1/2+y,z
1/2-x,1/2+y,-z
1/2-x,1/2-y,-z
1/2+x,1/2-y,z
loop_
_atom_site_type_symbol
_atom_site_label
_atom_site_fract_x
_atom_site_fract_y
_atom_site_fract_z
Si Si1 0.885215 0.739380 0.208036
Si Si2 0.768044 0.597460 0.628033
Si Si3 0.689141 0.188896 0.295534
Si Si4 0.525445 0.597717 0.386005
Si Si5 0.749550 0.904835 0.686664
Si Si6 0.902892 0.666992 0.995764
Si Si7 0.565788 0.100297 0.195520
Si Si8 0.099257 0.719197 0.273731
O O1 0.823798 0.836340 0.291014
O O2 0.773348 0.669669 0.339633
O O3 0.952497 0.709442 0.189292
O O4 0.000000 0.735586 0.000000
O O5 0.714603 0.500000 0.685801
O O6 0.767987 0.610240 0.711182
O O7 0.911492 0.608415 0.405711
O O8 0.676090 0.168341 0.231817
O O9 0.552783 0.223194 0.505995
O O10 0.797251 0.261367 0.159104
O O11 0.500000 0.607398 0.500000
O O12 0.583997 0.500000 0.291524
O O13 0.390938 0.611005 0.527701
O O14 0.629295 0.675285 0.225664
O O15 0.744607 0.000000 0.657137
O O16 0.634836 0.907863 0.898651
O O17 0.884634 0.630331 0.944788
O O18 0.632099 0.165584 0.161350
O O19 0.608626 0.000000 0.152599
#
# Coordination Sequence:
#
# PCOD8079113 Si02
#       8
#     8   8   8   8   8   8   8   8
#     4  10  20  34  55  83 107 140 191 236 283 327
#     4  10  20  38  58  81 112 146 191 231 274 336
#     4  10  18  34  58  83 106 147 189 235 281 322
#     4  10  17  28  52  84 107 139 184 228 280 327
#     4  10  18  30  51  79 111 139 178 235 279 326
#     4  11  20  35  53  79 116 142 187 230 282 338
#     4  10  23  37  55  81 114 153 186 226 284 343
#     4  10  18  35  59  79 115 147 188 233 277 337
#
# _framework density 20.865335999999999
#
# number of rings (size 3 to 8) (size 9 to 14) (size 15 to 20)
#    0.000    1.875    5.000    1.125    0.000    4.500 
#    0.000    3.125    0.000    3.000    0.000    0.000 
#    0.000    0.000    0.000    0.000    0.000    0.000 
#
# Total GULP energy -396471.198208 kJ/mol
# GULP energy per Si atom -12389.724944 kJ/mol
# Density = 2.081785 g / cm^3
# Si number density = 20.865336 Si / 1000 Ang^3
#
#
#
# Elastic Constant Matrix: (Units=GPa)
#
#
# Indices 1 2 3 4 5 6 
#
# 1 71.4009 25.5840 7.1708 0.0001 -3.0592 0.0000
# 2 25.5840 118.9008 5.7699 0.0001 0.3639 0.0001
# 3 7.1708 5.7699 26.0243 0.0002 -2.3344 0.0000
# 4 0.0001 0.0001 0.0002 9.2597 -0.0001 -0.8142
# 5 -3.0592 0.3639 -2.3344 -0.0001 26.6435 0.0001
# 6 0.0000 0.0001 0.0000 -0.8142 0.0001 14.6404
#
#
#
# Elastic Compliance Matrix: (Units=1/GPa)
#
#
# Indices 1 2 3 4 5 6 
#
# 1 0.015558 -0.003185 -0.003444 0.000000 0.001528 0.000000
# 2 -0.003185 0.009156 -0.001206 0.000000 -0.000596 0.000000
# 3 -0.003444 -0.001206 0.039922 -0.000001 0.003119 0.000000
# 4 0.000000 0.000000 -0.000001 0.108525 0.000000 0.006035
# 5 0.001528 -0.000596 0.003119 0.000000 0.037989 0.000000
# 6 0.000000 0.000000 0.000000 0.006035 0.000000 0.068640
#
#
# Mechanical properties :
#
#
# Convention : Reuss Voigt Hill
#
# Bulk Modulus (GPa) = 20.42217 32.59726 26.50972
# Shear Modulus (GPa) = 16.03686 21.96215 18.99950
#
# Velocity S-wave (km/s) = 2.77535 3.24785 3.02085
# Velocity P-wave (km/s) = 4.48095 5.45172 4.99000
#
# Compressibility (1/GPa) = 0.04896639
#
# Stress axis : x y z
#
# Youngs Moduli (GPa) = 64.27540 109.21704 25.04909
#
# Poissons Ratio (x) = 0.34788 0.08626
# Poissons Ratio (y) = 0.20473 0.03021
# Poissons Ratio (z) = 0.22134 0.13170
#
# Static dielectric constant tensor:
#      x y z
#    x 4.081240 0.000000 -0.336960 
#    y 0.000000 4.090520 0.000000 
#    z -0.336960 0.000000 3.532530 
# 
# 
# High freq. dielectric constant tensor:
#      x y z
#    x 1.807990 0.000000 -0.022740 
#    y 0.000000 1.818720 0.000000 
#    z -0.022740 0.000000 1.790010 
# 
# From -- ./inp_files/330365.got.cif
#   From: 2010.06.25/outbox.cif.g09.slc.cpg/sg12_166_cif.got.tgz:330365.got - 2010.06.28 00:19:55.
