data_PCOD8079938
_publ_section_title
;
Structure prediction by ZEFSAII (Michael W. Deem and Ramdas Pophale) SiO2 
 PCOD8079938
Probable space group: C 2/M
;
_chemical_formula_sum "Si O2"
_cell_formula_units_Z 48
_cell_length_a 17.739010
_cell_length_b 13.429468
_cell_length_c 13.520633
_cell_angle_alpha 90.000000
_cell_angle_beta 110.149320
_cell_angle_gamma 90.000000
_cell_volume 3023.830241
_symmetry_space_group_name_H-M "C 2/M"
_symmetry_group_IT_number 12
_symmetry_cell_setting 'monoclinic'
loop_
_space_group_symop_operation_xyz
x,y,z
-x,y,-z
-x,-y,-z
x,-y,z
1/2+x,1/2+y,z
1/2-x,1/2+y,-z
1/2-x,1/2-y,-z
1/2+x,1/2-y,z
loop_
_atom_site_type_symbol
_atom_site_label
_atom_site_fract_x
_atom_site_fract_y
_atom_site_fract_z
Si Si1 0.497184 0.608793 0.881579
Si Si2 0.348425 0.265326 0.834682
Si Si3 0.595983 0.789333 0.923600
Si Si4 0.474953 0.115718 0.384386
Si Si5 0.811063 0.382858 0.209643
Si Si6 0.556010 0.116694 0.223155
O O1 0.506644 0.500000 0.836445
O O2 0.410492 0.654169 0.819009
O O3 0.569098 0.679036 0.873460
O O4 0.500000 0.600710 0.000000
O O5 0.262366 0.316281 0.786298
O O6 0.359886 0.169177 0.768544
O O7 0.365565 0.224001 0.951806
O O8 0.662024 0.841159 0.884611
O O9 0.514482 0.856101 0.888155
O O10 0.500000 0.166916 0.500000
O O11 0.380831 0.132956 0.321590
O O12 0.527239 0.158462 0.317147
O O13 0.494734 0.000000 0.399003
O O14 0.788424 0.500000 0.188539
O O15 0.570528 0.000000 0.230053
#
# Coordination Sequence:
#
# PCOD8079938 Si02
#       6
#     8   8   8   8   8   8
#     4   8  14  25  40  56  79 114 147 173 203 242
#     4  10  18  27  40  64  94 116 142 176 211 258
#     4   9  17  28  42  61  87 119 153 179 201 248
#     4   8  15  30  50  66  80 105 143 184 222 259
#     4  10  19  30  44  63  88 116 147 183 221 256
#     4   9  17  29  46  66  88 116 147 179 214 253
#
# _framework density 15.873906
#
# number of rings (size 3 to 8) (size 9 to 14) (size 15 to 20)
#    0.000    3.000    0.000    4.000    0.000    2.667 
#    0.000    1.667    0.000    0.000    0.000    0.000 
#    0.000   67.333    0.000    0.000    0.000    0.000 
#
# Total GULP energy -297328.469760 kJ/mol
# GULP energy per Si atom -12388.686240 kJ/mol
# Density = 1.583778 g / cm^3
# Si number density = 15.873906 Si / 1000 Ang^3
#
#
#
# Elastic Constant Matrix: (Units=GPa)
#
#
# Indices 1 2 3 4 5 6 
#
# 1 100.1719 51.8145 34.3234 0.0000 -1.6990 0.0000
# 2 51.8145 102.0364 31.8009 0.0000 -4.7890 0.0000
# 3 34.3234 31.8009 78.1065 0.0000 1.0674 0.0000
# 4 0.0000 0.0000 0.0000 10.0181 0.0000 2.0152
# 5 -1.6990 -4.7890 1.0674 0.0000 7.4994 0.0000
# 6 0.0000 0.0000 0.0000 2.0152 0.0000 29.9211
#
#
#
# Elastic Compliance Matrix: (Units=1/GPa)
#
#
# Indices 1 2 3 4 5 6 
#
# 1 0.014489 -0.006160 -0.003858 0.000000 -0.000102 0.000000
# 2 -0.006160 0.014323 -0.003237 0.000000 0.008211 0.000000
# 3 -0.003858 -0.003237 0.015887 0.000000 -0.005202 0.000000
# 4 0.000000 0.000000 0.000000 0.101190 0.000000 -0.006815
# 5 -0.000102 0.008211 -0.005202 0.000000 0.139306 0.000000
# 6 0.000000 0.000000 0.000000 -0.006815 0.000000 0.033880
#
#
# Mechanical properties :
#
#
# Convention : Reuss Voigt Hill
#
# Bulk Modulus (GPa) = 54.97498 57.35472 56.16485
# Shear Modulus (GPa) = 14.21878 20.31280 17.26579
#
# Velocity S-wave (km/s) = 2.99613 3.58108 3.30158
# Velocity P-wave (km/s) = 6.83202 7.30128 7.07055
#
# Compressibility (1/GPa) = 0.01819009
#
# Stress axis : x y z
#
# Youngs Moduli (GPa) = 69.01618 69.81905 62.94394
#
# Poissons Ratio (x) = 0.43010 0.24282
# Poissons Ratio (y) = 0.42516 0.20372
# Poissons Ratio (z) = 0.26625 0.22598
#
# Static dielectric constant tensor:
#      x y z
#    x 2.968820 0.000000 -0.079670 
#    y 0.000000 3.268030 0.000000 
#    z -0.079670 0.000000 2.962920 
# 
# 
# High freq. dielectric constant tensor:
#      x y z
#    x 1.599000 0.000000 -0.003490 
#    y 0.000000 1.606890 0.000000 
#    z -0.003490 0.000000 1.574260 
# 
# From -- ./inp_files/155473.got.cif
#   From: 2010.06.25/outbox.cif.g09.slc.cpg/sg12_78_cif.got.tgz:155473.got - 2010.06.28 00:19:55.
