data_PCOD8079476
_publ_section_title
;
Structure prediction by ZEFSAII (Michael W. Deem and Ramdas Pophale) SiO2 
 PCOD8079476
Probable space group: C 2/M
;
_chemical_formula_sum "Si O2"
_cell_formula_units_Z 64
_cell_length_a 24.932484
_cell_length_b 9.451878
_cell_length_c 14.792776
_cell_angle_alpha 90.000000
_cell_angle_beta 89.742621
_cell_angle_gamma 90.000000
_cell_volume 3486.012624
_symmetry_space_group_name_H-M "C 2/M"
_symmetry_group_IT_number 12
_symmetry_cell_setting 'monoclinic'
loop_
_space_group_symop_operation_xyz
x,y,z
-x,y,-z
-x,-y,-z
x,-y,z
1/2+x,1/2+y,z
1/2-x,1/2+y,-z
1/2-x,1/2-y,-z
1/2+x,1/2-y,z
loop_
_atom_site_type_symbol
_atom_site_label
_atom_site_fract_x
_atom_site_fract_y
_atom_site_fract_z
Si Si1 0.198031 0.835689 0.812699
Si Si2 0.591214 0.331936 0.713294
Si Si3 0.302981 0.331780 0.800446
Si Si4 0.982062 0.158547 0.793906
Si Si5 0.609900 0.657833 0.339576
Si Si6 0.347747 0.662924 0.994953
Si Si7 0.943672 0.660443 0.952083
Si Si8 0.439715 0.669600 0.482952
O O1 0.146095 0.779156 0.758463
O O2 0.247381 0.743559 0.777063
O O3 0.208483 0.000000 0.790814
O O4 0.191597 0.812678 0.920307
O O5 0.588862 0.500000 0.711108
O O6 0.541333 0.279550 0.774985
O O7 0.584080 0.272788 0.611632
O O8 0.296128 0.500000 0.794449
O O9 0.346593 0.270287 0.728020
O O10 0.319993 0.288714 0.901968
O O11 0.949852 0.153910 0.700799
O O12 0.948194 0.261435 0.857053
O O13 0.984542 0.000000 0.836224
O O14 0.631858 0.500000 0.353122
O O15 0.601054 0.728543 0.438480
O O16 0.366241 0.500000 0.989530
O O17 0.399865 0.758826 0.012787
O O18 0.925028 0.500000 0.936344
O O19 0.000000 0.669181 0.000000
O O20 0.500000 0.727115 0.500000
O O21 0.440412 0.500000 0.485799
#
# Coordination Sequence:
#
# PCOD8079476 Si02
#       8
#     8   8   8   8   8   8   8   8
#     4  10  21  35  51  76 105 136 175 217 261 305
#     4   9  17  29  49  78 108 135 169 214 263 309
#     4  10  20  35  53  74 101 136 178 217 255 306
#     4  10  17  31  54  76 102 134 169 213 259 303
#     4   9  16  28  49  78 105 127 165 214 258 302
#     4  10  20  36  56  75  98 132 179 224 258 298
#     4  11  23  34  46  73 111 143 170 203 253 316
#     4   9  14  24  47  79 109 132 160 211 266 304
#
# _framework density 18.359085
#
# number of rings (size 3 to 8) (size 9 to 14) (size 15 to 20)
#    0.000    2.250    2.500    1.500    0.000    3.000 
#    0.000    1.250    0.000    0.000    0.000    3.500 
#    0.000    0.000    0.000    0.000    0.000    0.000 
#
# Total GULP energy -396650.370909 kJ/mol
# GULP energy per Si atom -12395.324091 kJ/mol
# Density = 1.831730 g / cm^3
# Si number density = 18.359085 Si / 1000 Ang^3
#
#
#
# Elastic Constant Matrix: (Units=GPa)
#
#
# Indices 1 2 3 4 5 6 
#
# 1 124.9219 28.8298 40.5696 0.0000 -9.6567 0.0000
# 2 28.8298 42.3395 12.8068 0.0000 -4.5541 0.0000
# 3 40.5696 12.8068 93.4822 0.0000 -9.9801 0.0000
# 4 0.0000 0.0000 0.0000 5.6662 0.0000 0.3165
# 5 -9.6567 -4.5541 -9.9801 0.0000 24.2312 0.0000
# 6 0.0000 0.0000 0.0000 0.3165 0.0000 29.0676
#
#
#
# Elastic Compliance Matrix: (Units=1/GPa)
#
#
# Indices 1 2 3 4 5 6 
#
# 1 0.010702 -0.006009 -0.003647 0.000000 0.001634 0.000000
# 2 -0.006009 0.028282 -0.000999 0.000000 0.002509 0.000000
# 3 -0.003647 -0.000999 0.012805 0.000000 0.003633 0.000000
# 4 0.000000 0.000000 0.000000 0.176592 0.000000 -0.001923
# 5 0.001634 0.002509 0.003633 0.000000 0.043888 0.000000
# 6 0.000000 0.000000 0.000000 -0.001923 0.000000 0.034424
#
#
# Mechanical properties :
#
#
# Convention : Reuss Voigt Hill
#
# Bulk Modulus (GPa) = 32.80868 47.23954 40.02411
# Shear Modulus (GPa) = 14.78584 23.69549 19.24066
#
# Velocity S-wave (km/s) = 2.84098 3.59648 3.24082
# Velocity P-wave (km/s) = 5.35452 6.55996 5.98765
#
# Compressibility (1/GPa) = 0.03047974
#
# Stress axis : x y z
#
# Youngs Moduli (GPa) = 93.43712 35.35815 78.09651
#
# Poissons Ratio (x) = 0.21245 0.28482
# Poissons Ratio (y) = 0.56142 0.07802
# Poissons Ratio (z) = 0.34077 0.03532
#
# Static dielectric constant tensor:
#      x y z
#    x 3.377650 0.000000 -0.064330 
#    y 0.000000 2.975730 0.000000 
#    z -0.064330 0.000000 3.558220 
# 
# 
# High freq. dielectric constant tensor:
#      x y z
#    x 1.711430 0.000000 -0.008310 
#    y 0.000000 1.659400 0.000000 
#    z -0.008310 0.000000 1.714460 
# 
# From -- ./inp_files/238677.got.cif
#   From: 2010.06.25/outbox.cif.g09.slc.cpg/sg12_120_cif.got.tgz:238677.got - 2010.06.28 00:19:55.
