data_PCOD8079402
_publ_section_title
;
Structure prediction by ZEFSAII (Michael W. Deem and Ramdas Pophale) SiO2 
 PCOD8079402
Probable space group: C 2/M
;
_chemical_formula_sum "Si O2"
_cell_formula_units_Z 44
_cell_length_a 15.773156
_cell_length_b 15.938625
_cell_length_c 20.526501
_cell_angle_alpha 90.000000
_cell_angle_beta 27.091626
_cell_angle_gamma 90.000000
_cell_volume 2350.127968
_symmetry_space_group_name_H-M "C 2/M"
_symmetry_group_IT_number 12
_symmetry_cell_setting 'monoclinic'
loop_
_space_group_symop_operation_xyz
x,y,z
-x,y,-z
-x,-y,-z
x,-y,z
1/2+x,1/2+y,z
1/2-x,1/2+y,-z
1/2-x,1/2-y,-z
1/2+x,1/2-y,z
loop_
_atom_site_type_symbol
_atom_site_label
_atom_site_fract_x
_atom_site_fract_y
_atom_site_fract_z
Si Si1 0.682436 0.901749 0.643759
Si Si2 0.766978 0.597144 0.900794
Si Si3 0.772600 0.096280 0.928529
Si Si4 0.127440 0.348115 0.821521
Si Si5 0.033729 0.903350 0.326717
Si Si6 0.000000 0.205376 0.000000
O O1 0.487982 0.892848 0.738714
O O2 0.683404 0.843374 0.707281
O O3 0.846086 0.864789 0.485803
O O4 0.714951 0.000000 0.640958
O O5 0.708655 0.500000 0.935790
O O6 0.664002 0.648243 0.915735
O O7 0.713387 0.636123 0.008853
O O8 0.914101 0.139160 0.779298
O O9 0.823863 0.000000 0.901313
O O10 0.565402 0.101468 0.040479
O O11 0.292517 0.396263 0.744175
O O12 0.094536 0.257705 0.877009
O O13 0.993387 0.000000 0.341197
#
# Coordination Sequence:
#
# PCOD8079402 Si02
#       6
#     8   8   8   8   8   4
#     4   9  19  34  56  79 105 138 172 210 250 300
#     4   9  20  39  58  74  93 130 184 226 253 294
#     4   9  17  31  54  79 104 134 171 212 251 297
#     4  11  19  31  47  80 112 136 167 201 254 312
#     4  10  17  30  54  82 110 138 166 203 253 308
#     4  12  23  34  55  74 102 140 176 214 261 298
#
# _framework density 18.722384000000002
#
# number of rings (size 3 to 8) (size 9 to 14) (size 15 to 20)
#    0.000    2.182    1.818    3.545    0.000    5.818 
#    0.000    0.909    4.000    0.000    0.000    6.364 
#    0.000    0.000    0.000    0.000    0.000    0.000 
#
# Total GULP energy -272623.577893 kJ/mol
# GULP energy per Si atom -12391.980813 kJ/mol
# Density = 1.867977 g / cm^3
# Si number density = 18.722384 Si / 1000 Ang^3
#
#
#
# Elastic Constant Matrix: (Units=GPa)
#
#
# Indices 1 2 3 4 5 6 
#
# 1 91.3141 25.9038 57.8192 -0.0304 -2.5866 -0.0196
# 2 25.9038 32.4197 21.3427 -0.0021 -0.4967 0.0205
# 3 57.8192 21.3427 146.9695 -0.1489 25.6682 -0.0641
# 4 -0.0304 -0.0021 -0.1489 33.1083 0.0885 24.0332
# 5 -2.5866 -0.4967 25.6682 0.0885 21.8883 0.0550
# 6 -0.0196 0.0205 -0.0641 24.0332 0.0550 36.8082
#
#
#
# Elastic Compliance Matrix: (Units=1/GPa)
#
#
# Indices 1 2 3 4 5 6 
#
# 1 0.019244 -0.009813 -0.008179 -0.000075 0.011643 0.000033
# 2 -0.009813 0.040346 -0.002460 0.000003 0.002640 -0.000038
# 3 -0.008179 -0.002460 0.013277 0.000121 -0.016593 -0.000034
# 4 -0.000075 0.000003 0.000121 0.057419 -0.000289 -0.037490
# 5 0.011643 0.002640 -0.016593 -0.000289 0.066581 0.000065
# 6 0.000033 -0.000038 -0.000034 -0.037490 0.000065 0.051646
#
#
# Mechanical properties :
#
#
# Convention : Reuss Voigt Hill
#
# Bulk Modulus (GPa) = 31.28607 53.42610 42.35608
# Shear Modulus (GPa) = 16.66271 29.40348 23.03309
#
# Velocity S-wave (km/s) = 2.98650 3.96725 3.51129
# Velocity P-wave (km/s) = 5.35155 7.04154 6.25389
#
# Compressibility (1/GPa) = 0.03196311
#
# Stress axis : x y z
#
# Youngs Moduli (GPa) = 51.96491 24.78559 75.31779
#
# Poissons Ratio (x) = 0.24322 0.61604
# Poissons Ratio (y) = 0.50994 0.18525
# Poissons Ratio (z) = 0.42503 0.06096
#
# Static dielectric constant tensor:
#      x y z
#    x 3.498650 0.000010 0.351330 
#    y 0.000010 3.065700 0.000090 
#    z 0.351330 0.000090 3.832600 
# 
# 
# High freq. dielectric constant tensor:
#      x y z
#    x 1.721530 0.000000 0.009980 
#    y 0.000000 1.689220 0.000010 
#    z 0.009980 0.000010 1.730560 
# 
# From -- ./inp_files/60998.got.cif
#   From: 2010.06.25/outbox.cif.g09.slc.cpg/sg12_31_cif.got.tgz:60998.got - 2010.06.28 00:19:55.
