data_PCOD8079698
_publ_section_title
;
Structure prediction by ZEFSAII (Michael W. Deem and Ramdas Pophale) SiO2 
 PCOD8079698
Probable space group: C 2/M
;
_chemical_formula_sum "Si O2"
_cell_formula_units_Z 52
_cell_length_a 12.114162
_cell_length_b 18.786711
_cell_length_c 17.518458
_cell_angle_alpha 90.000000
_cell_angle_beta 41.847598
_cell_angle_gamma 90.000000
_cell_volume 2659.895040
_symmetry_space_group_name_H-M "C 2/M"
_symmetry_group_IT_number 12
_symmetry_cell_setting 'monoclinic'
loop_
_space_group_symop_operation_xyz
x,y,z
-x,y,-z
-x,-y,-z
x,-y,z
1/2+x,1/2+y,z
1/2-x,1/2+y,-z
1/2-x,1/2-y,-z
1/2+x,1/2-y,z
loop_
_atom_site_type_symbol
_atom_site_label
_atom_site_fract_x
_atom_site_fract_y
_atom_site_fract_z
Si Si1 0.846760 0.344786 0.740940
Si Si2 0.881454 0.729143 0.869541
Si Si3 0.425204 0.500000 0.305632
Si Si4 0.734490 0.211428 0.716260
Si Si5 0.664353 0.000000 0.307169
Si Si6 0.223536 0.346930 0.562498
Si Si7 0.979916 0.851117 0.706172
Si Si8 0.692295 0.000000 0.557954
O O1 0.793097 0.323601 0.854695
O O2 0.757236 0.294811 0.725062
O O3 0.792721 0.426970 0.759751
O O4 0.040507 0.324170 0.629784
O O5 0.958252 0.796259 0.785654
O O6 0.040236 0.691419 0.826646
O O7 0.750000 0.750000 0.000000
O O8 0.267837 0.500000 0.330856
O O9 0.533201 0.428008 0.244971
O O10 0.358945 0.500000 0.424913
O O11 0.789596 0.198934 0.599774
O O12 0.833946 0.158327 0.720043
O O13 0.465367 0.000000 0.419387
O O14 0.344092 0.339001 0.427601
O O15 0.199813 0.428673 0.604685
#
# Coordination Sequence:
#
# PCOD8079698 Si02
#       8
#     8   8   4   8   4   8   8   4
#     4   9  20  34  56  84 108 141 182 219 265 325
#     4  10  22  40  57  75 104 140 183 231 271 312
#     4  10  19  33  51  80 116 143 173 216 267 322
#     4  10  20  34  54  79 107 142 175 219 273 319
#     4  10  17  34  55  76 109 144 181 222 265 308
#     4   9  18  33  52  81 114 140 173 216 261 321
#     4  10  21  34  54  82 110 142 178 214 265 329
#     4   8  17  31  50  77 111 149 180 207 256 324
#
# _framework density 19.549644000000001
#
# number of rings (size 3 to 8) (size 9 to 14) (size 15 to 20)
#    0.000    2.462    0.000    1.615    0.000    9.846 
#    0.000   13.077    0.000    2.769    0.000    0.000 
#    0.000    0.000    0.000    0.000    0.000    0.000 
#
# Total GULP energy -322158.196664 kJ/mol
# GULP energy per Si atom -12390.699872 kJ/mol
# Density = 1.950515 g / cm^3
# Si number density = 19.549644 Si / 1000 Ang^3
#
#
#
# Elastic Constant Matrix: (Units=GPa)
#
#
# Indices 1 2 3 4 5 6 
#
# 1 97.5862 45.8466 26.5043 0.0071 4.0318 -0.0001
# 2 45.8466 124.9349 28.8249 0.0089 12.6703 -0.0028
# 3 26.5043 28.8249 101.4824 0.0347 12.4052 -0.0079
# 4 0.0071 0.0089 0.0347 15.5727 -0.0085 -1.5880
# 5 4.0318 12.6703 12.4052 -0.0085 17.1630 -0.0002
# 6 -0.0001 -0.0028 -0.0079 -1.5880 -0.0002 31.3438
#
#
#
# Elastic Compliance Matrix: (Units=1/GPa)
#
#
# Indices 1 2 3 4 5 6 
#
# 1 0.012860 -0.004370 -0.002350 0.000003 0.001904 -0.000001
# 2 -0.004370 0.010462 -0.001110 -0.000005 -0.005895 0.000000
# 3 -0.002350 -0.001110 0.011644 -0.000028 -0.007045 0.000001
# 4 0.000003 -0.000005 -0.000028 0.064549 0.000055 0.003270
# 5 0.001904 -0.005895 -0.007045 0.000055 0.067261 0.000001
# 6 -0.000001 0.000000 0.000001 0.003270 0.000001 0.032070
#
#
# Mechanical properties :
#
#
# Convention : Reuss Voigt Hill
#
# Bulk Modulus (GPa) = 51.79694 58.48391 55.14042
# Shear Modulus (GPa) = 22.63052 27.67107 25.15080
#
# Velocity S-wave (km/s) = 3.40603 3.76630 3.59069
# Velocity P-wave (km/s) = 6.48234 6.99241 6.74220
#
# Compressibility (1/GPa) = 0.01930616
#
# Stress axis : x y z
#
# Youngs Moduli (GPa) = 77.76012 95.58748 85.88053
#
# Poissons Ratio (x) = 0.41772 0.20183
# Poissons Ratio (y) = 0.33981 0.09530
# Poissons Ratio (z) = 0.18275 0.10607
#
# Static dielectric constant tensor:
#      x y z
#    x 3.660260 -0.000010 -0.077640 
#    y -0.000010 4.068800 0.000020 
#    z -0.077640 0.000020 3.173500 
# 
# 
# High freq. dielectric constant tensor:
#      x y z
#    x 1.769490 0.000000 -0.006880 
#    y 0.000000 1.771920 0.000000 
#    z -0.006880 0.000000 1.714660 
# 
# From -- ./inp_files/265036.got.cif
#   From: 2010.06.25/outbox.cif.g09.slc.cpg/sg12_133_cif.got.tgz:265036.got - 2010.06.28 00:19:55.
