data_PCOD8079281
_publ_section_title
;
Structure prediction by ZEFSAII (Michael W. Deem and Ramdas Pophale) SiO2 
 PCOD8079281
Probable space group: C 2/M
;
_chemical_formula_sum "Si O2"
_cell_formula_units_Z 48
_cell_length_a 23.560626
_cell_length_b 22.172499
_cell_length_c 11.241174
_cell_angle_alpha 90.000000
_cell_angle_beta 156.729331
_cell_angle_gamma 90.000000
_cell_volume 2320.026755
_symmetry_space_group_name_H-M "C 2/M"
_symmetry_group_IT_number 12
_symmetry_cell_setting 'monoclinic'
loop_
_space_group_symop_operation_xyz
x,y,z
-x,y,-z
-x,-y,-z
x,-y,z
1/2+x,1/2+y,z
1/2-x,1/2+y,-z
1/2-x,1/2-y,-z
1/2+x,1/2-y,z
loop_
_atom_site_type_symbol
_atom_site_label
_atom_site_fract_x
_atom_site_fract_y
_atom_site_fract_z
Si Si1 0.371901 0.000000 0.342677
Si Si2 0.829193 0.402428 0.791619
Si Si3 0.941490 0.500000 0.736340
Si Si4 0.557031 0.227717 0.370618
Si Si5 0.264291 0.819947 0.872039
Si Si6 0.655438 0.868368 0.738470
Si Si7 0.000000 0.693579 0.000000
Si Si8 0.335923 0.500000 0.647188
O O1 0.500000 0.000000 0.500000
O O2 0.456252 0.000000 0.626430
O O3 0.282611 0.063276 0.163122
O O4 0.799439 0.382126 0.869753
O O5 0.691144 0.439869 0.482269
O O6 0.973801 0.441559 0.055131
O O7 0.859262 0.343796 0.769441
O O8 0.775436 0.500000 0.456948
O O9 0.622113 0.289762 0.544687
O O10 0.643484 0.169355 0.591658
O O11 0.394889 0.226848 0.106368
O O12 0.556701 0.230180 0.225211
O O13 0.241094 0.834702 0.967232
O O14 0.500000 0.872430 0.500000
O O15 0.500000 0.500000 0.000000
#
# Coordination Sequence:
#
# PCOD8079281 Si02
#       8
#     4   8   4   8   8   8   4   4
#     4  10  17  29  57 100 113 144 194 261 299 347
#     4  10  19  36  58  83 113 154 197 246 296 351
#     4  11  18  35  64  84 120 160 194 243 304 359
#     4  10  21  35  56  82 117 153 200 242 296 353
#     4  10  21  38  56  84 114 160 200 249 294 352
#     4   9  18  33  55  85 118 147 194 247 296 358
#     4  10  18  35  58  84 108 149 198 246 290 354
#     4  11  23  38  56  90 120 160 197 244 305 375
#
# _framework density 20.689416999999999
#
# number of rings (size 3 to 8) (size 9 to 14) (size 15 to 20)
#    0.000    2.000    1.667    5.000    0.000    3.333 
#    4.500    0.000    0.000    0.000    0.000    9.333 
#    0.000    0.000    0.000    0.000    0.000    0.000 
#
# Total GULP energy -297379.826321 kJ/mol
# GULP energy per Si atom -12390.826097 kJ/mol
# Density = 2.064233 g / cm^3
# Si number density = 20.689417 Si / 1000 Ang^3
#
#
#
# Elastic Constant Matrix: (Units=GPa)
#
#
# Indices 1 2 3 4 5 6 
#
# 1 76.9731 18.4257 42.8255 0.0000 -34.1586 0.0000
# 2 18.4257 82.8809 43.9752 0.0000 -13.5771 0.0000
# 3 42.8255 43.9752 127.4502 0.0000 -18.2222 0.0000
# 4 0.0000 0.0000 0.0000 57.0380 0.0000 -3.4291
# 5 -34.1586 -13.5771 -18.2222 0.0000 42.7443 0.0000
# 6 0.0000 0.0000 0.0000 -3.4291 0.0000 22.9562
#
#
#
# Elastic Compliance Matrix: (Units=1/GPa)
#
#
# Indices 1 2 3 4 5 6 
#
# 1 0.023272 0.000506 -0.005657 0.000000 0.016347 0.000000
# 2 0.000506 0.015075 -0.004929 0.000000 0.003091 0.000000
# 3 -0.005657 -0.004929 0.011264 0.000000 -0.001285 0.000000
# 4 0.000000 0.000000 0.000000 0.017691 0.000000 0.002643
# 5 0.016347 0.003091 -0.001285 0.000000 0.036892 0.000000
# 6 0.000000 0.000000 0.000000 0.002643 0.000000 0.043956
#
#
# Mechanical properties :
#
#
# Convention : Reuss Voigt Hill
#
# Bulk Modulus (GPa) = 33.95631 55.30631 44.63131
# Shear Modulus (GPa) = 28.06952 36.68621 32.37786
#
# Velocity S-wave (km/s) = 3.68735 4.21549 3.96023
# Velocity P-wave (km/s) = 5.88020 7.10518 6.52151
#
# Compressibility (1/GPa) = 0.02944961
#
# Stress axis : x y z
#
# Youngs Moduli (GPa) = 42.96967 66.33541 88.77622
#
# Poissons Ratio (x) = -0.03354 0.50222
# Poissons Ratio (y) = -0.02173 0.43761
# Poissons Ratio (z) = 0.24309 0.32699
#
# Static dielectric constant tensor:
#      x y z
#    x 3.819440 0.000000 -0.147210 
#    y 0.000000 4.760920 0.000000 
#    z -0.147210 0.000000 4.547170 
# 
# 
# High freq. dielectric constant tensor:
#      x y z
#    x 1.803200 0.000000 -0.038290 
#    y 0.000000 1.806870 0.000000 
#    z -0.038290 0.000000 1.777220 
# 
# From -- ./inp_files/185059.got.cif
#   From: 2010.06.25/outbox.cif.g09.slc.cpg/sg12_93_cif.got.tgz:185059.got - 2010.06.28 00:19:55.
