data_PCOD8079066
_publ_section_title
;
Structure prediction by ZEFSAII (Michael W. Deem and Ramdas Pophale) SiO2 
 PCOD8079066
Probable space group: C 2/M
;
_chemical_formula_sum "Si O2"
_cell_formula_units_Z 48
_cell_length_a 24.630281
_cell_length_b 19.436566
_cell_length_c 12.805516
_cell_angle_alpha 90.000000
_cell_angle_beta 152.902664
_cell_angle_gamma 90.000000
_cell_volume 2792.400586
_symmetry_space_group_name_H-M "C 2/M"
_symmetry_group_IT_number 12
_symmetry_cell_setting 'monoclinic'
loop_
_space_group_symop_operation_xyz
x,y,z
-x,y,-z
-x,-y,-z
x,-y,z
1/2+x,1/2+y,z
1/2-x,1/2+y,-z
1/2-x,1/2-y,-z
1/2+x,1/2-y,z
loop_
_atom_site_type_symbol
_atom_site_label
_atom_site_fract_x
_atom_site_fract_y
_atom_site_fract_z
Si Si1 0.254887 0.819935 0.278746
Si Si2 0.767231 0.830327 0.356985
Si Si3 0.611201 0.173301 0.289798
Si Si4 0.508993 0.678817 0.135335
Si Si5 0.423190 0.078886 0.051884
Si Si6 0.936340 0.421284 0.499352
O O1 0.287341 0.738758 0.322469
O O2 0.285565 0.842090 0.449809
O O3 0.328069 0.867232 0.323435
O O4 0.115990 0.834752 0.020914
O O5 0.670616 0.812453 0.280761
O O6 0.887649 0.858719 0.619168
O O7 0.709279 0.888687 0.184869
O O8 0.536509 0.240614 0.190578
O O9 0.517105 0.110892 0.130075
O O10 0.500000 0.652612 0.000000
O O11 0.467674 0.091889 0.245472
O O12 0.411620 0.000000 0.002830
O O13 0.888218 0.500000 0.422265
O O14 0.000000 0.406068 0.500000
#
# Coordination Sequence:
#
# PCOD8079066 Si02
#       6
#     8   8   8   8   8   8
#     4  10  18  30  53  79 103 135 178 212 247 308
#     4  11  19  28  48  77 112 145 170 200 251 305
#     4  10  17  28  48  75 107 143 178 205 243 296
#     4  11  16  28  47  74 107 146 171 200 242 306
#     4  10  20  33  51  75 103 134 179 222 254 297
#     4   9  20  40  62  77  93 126 174 228 274 304
#
# _framework density 17.189509999999999
#
# number of rings (size 3 to 8) (size 9 to 14) (size 15 to 20)
#    0.000    1.833    5.000    1.500    0.000    1.333 
#    0.000    1.667    0.000    1.000    0.000    3.500 
#    0.000    0.000    0.000    0.000    0.000    0.000 
#
# Total GULP energy -297483.595525 kJ/mol
# GULP energy per Si atom -12395.149814 kJ/mol
# Density = 1.715039 g / cm^3
# Si number density = 17.189510 Si / 1000 Ang^3
#
#
#
# Elastic Constant Matrix: (Units=GPa)
#
#
# Indices 1 2 3 4 5 6 
#
# 1 76.9114 36.6139 33.5681 0.0000 8.6495 0.0000
# 2 36.6139 81.2919 42.2578 0.0000 13.3295 0.0000
# 3 33.5681 42.2578 130.6093 0.0000 23.5410 0.0000
# 4 0.0000 0.0000 0.0000 29.6979 0.0000 4.4890
# 5 8.6495 13.3295 23.5410 0.0000 15.7318 0.0000
# 6 0.0000 0.0000 0.0000 4.4890 0.0000 25.4874
#
#
#
# Elastic Compliance Matrix: (Units=1/GPa)
#
#
# Indices 1 2 3 4 5 6 
#
# 1 0.017106 -0.006459 -0.002188 0.000000 -0.000658 0.000000
# 2 -0.006459 0.017876 -0.002785 0.000000 -0.007428 0.000000
# 3 -0.002188 -0.002785 0.011609 0.000000 -0.013809 0.000000
# 4 0.000000 0.000000 0.000000 0.034593 0.000000 -0.006093
# 5 -0.000658 -0.007428 -0.013809 0.000000 0.090884 0.000000
# 6 0.000000 0.000000 0.000000 -0.006093 0.000000 0.040308
#
#
# Mechanical properties :
#
#
# Convention : Reuss Voigt Hill
#
# Bulk Modulus (GPa) = 42.14669 57.07691 49.61180
# Shear Modulus (GPa) = 20.56350 25.94161 23.25256
#
# Velocity S-wave (km/s) = 3.46248 3.88900 3.68192
# Velocity P-wave (km/s) = 6.36845 7.31043 6.85563
#
# Compressibility (1/GPa) = 0.02372665
#
# Stress axis : x y z
#
# Youngs Moduli (GPa) = 58.45959 55.94037 86.14300
#
# Poissons Ratio (x) = 0.36133 0.18848
# Poissons Ratio (y) = 0.37760 0.23989
# Poissons Ratio (z) = 0.12791 0.15578
#
# Static dielectric constant tensor:
#      x y z
#    x 2.845870 0.000000 0.020210 
#    y 0.000000 3.116070 0.000000 
#    z 0.020210 0.000000 3.632440 
# 
# 
# High freq. dielectric constant tensor:
#      x y z
#    x 1.619930 0.000000 0.002550 
#    y 0.000000 1.643400 0.000000 
#    z 0.002550 0.000000 1.682310 
# 
# From -- ./inp_files/177407.got.cif
#   From: 2010.06.25/outbox.cif.g09.slc.cpg/sg12_89_cif.got.tgz:177407.got - 2010.06.28 00:19:55.
