data_PCOD8079477
_publ_section_title
;
Structure prediction by ZEFSAII (Michael W. Deem and Ramdas Pophale) SiO2 
 PCOD8079477
Probable space group: C 2/M
;
_chemical_formula_sum "Si O2"
_cell_formula_units_Z 64
_cell_length_a 28.358803
_cell_length_b 8.938867
_cell_length_c 15.526882
_cell_angle_alpha 90.000000
_cell_angle_beta 57.817731
_cell_angle_gamma 90.000000
_cell_volume 3331.261639
_symmetry_space_group_name_H-M "C 2/M"
_symmetry_group_IT_number 12
_symmetry_cell_setting 'monoclinic'
loop_
_space_group_symop_operation_xyz
x,y,z
-x,y,-z
-x,-y,-z
x,-y,z
1/2+x,1/2+y,z
1/2-x,1/2+y,-z
1/2-x,1/2-y,-z
1/2+x,1/2-y,z
loop_
_atom_site_type_symbol
_atom_site_label
_atom_site_fract_x
_atom_site_fract_y
_atom_site_fract_z
Si Si1 0.364976 0.322560 0.975422
Si Si2 0.138528 0.175297 0.510927
Si Si3 0.867709 0.824021 0.292706
Si Si4 0.936046 0.824115 0.575786
Si Si5 0.128236 0.322383 0.207332
Si Si6 0.747129 0.822757 0.156050
Si Si7 0.749081 0.177667 0.348277
Si Si8 0.562204 0.321882 0.933105
O O1 0.367916 0.500000 0.960357
O O2 0.389898 0.243936 0.866749
O O3 0.301570 0.265719 0.052026
O O4 0.402058 0.269189 0.019735
O O5 0.112038 0.214977 0.630192
O O6 0.097028 0.231007 0.476807
O O7 0.197373 0.256459 0.449828
O O8 0.149404 0.000000 0.492237
O O9 0.805408 0.762134 0.337789
O O10 0.910196 0.755645 0.181087
O O11 0.865729 0.000000 0.279179
O O12 0.913800 0.736930 0.679935
O O13 0.000000 0.780812 0.500000
O O14 0.928469 0.000000 0.598865
O O15 0.124927 0.500000 0.208988
O O16 0.190976 0.264524 0.165342
O O17 0.748114 0.759980 0.251884
O O18 0.748488 0.000000 0.158318
O O19 0.744643 0.000000 0.354652
O O20 0.560541 0.500000 0.931412
O O21 0.500000 0.255818 0.000000
#
# Coordination Sequence:
#
# PCOD8079477 Si02
#       8
#     8   8   8   8   8   8   8   8
#     4  10  19  34  56  81 109 141 178 218 264 313
#     4  10  20  33  52  80 109 134 169 217 265 310
#     4   9  17  30  50  76 106 137 169 213 262 311
#     4  10  22  39  56  76 106 142 179 221 266 310
#     4  11  22  36  55  80 108 139 178 220 266 318
#     4   9  17  31  53  78 105 139 175 214 261 316
#     4  10  17  31  54  76 105 140 172 208 259 320
#     4   9  17  30  52  80 105 135 178 219 256 304
#
# _framework density 19.211939999999998
#
# number of rings (size 3 to 8) (size 9 to 14) (size 15 to 20)
#    0.000    2.250    2.500    1.125    0.000    1.250 
#    0.000    5.000    0.000    1.125    0.000    0.000 
#    0.000    0.000    0.000    0.000    0.000    0.000 
#
# Total GULP energy -396784.093565 kJ/mol
# GULP energy per Si atom -12399.502924 kJ/mol
# Density = 1.916821 g / cm^3
# Si number density = 19.211940 Si / 1000 Ang^3
#
#
#
# Elastic Constant Matrix: (Units=GPa)
#
#
# Indices 1 2 3 4 5 6 
#
# 1 97.4933 19.6198 85.1718 0.0000 -15.5336 0.0000
# 2 19.6198 25.8342 36.8853 0.0000 -1.1770 0.0000
# 3 85.1718 36.8853 177.4464 0.0000 6.4046 0.0000
# 4 0.0000 0.0000 0.0000 21.8236 0.0000 -2.8805
# 5 -15.5336 -1.1770 6.4046 0.0000 35.3895 0.0000
# 6 0.0000 0.0000 0.0000 -2.8805 0.0000 17.4170
#
#
#
# Elastic Compliance Matrix: (Units=1/GPa)
#
#
# Indices 1 2 3 4 5 6 
#
# 1 0.021393 -0.000699 -0.010530 0.000000 0.011272 0.000000
# 2 -0.000699 0.055615 -0.011355 0.000000 0.003598 0.000000
# 3 -0.010530 -0.011355 0.013317 0.000000 -0.007410 0.000000
# 4 0.000000 0.000000 0.000000 0.046845 0.000000 0.007747
# 5 0.011272 0.003598 -0.007410 0.000000 0.034665 0.000000
# 6 0.000000 0.000000 0.000000 0.007747 0.000000 0.058696
#
#
# Mechanical properties :
#
#
# Convention : Reuss Voigt Hill
#
# Bulk Modulus (GPa) = 22.14446 64.90306 43.52376
# Shear Modulus (GPa) = 17.19678 25.53249 21.36463
#
# Velocity S-wave (km/s) = 2.99508 3.64949 3.33836
# Velocity P-wave (km/s) = 4.84893 7.18431 6.12889
#
# Compressibility (1/GPa) = 0.04515802
#
# Stress axis : x y z
#
# Youngs Moduli (GPa) = 46.74467 17.98063 75.08981
#
# Poissons Ratio (x) = 0.01257 0.79068
# Poissons Ratio (y) = 0.03268 0.85264
# Poissons Ratio (z) = 0.49221 0.20417
#
# Static dielectric constant tensor:
#      x y z
#    x 3.665450 0.000000 0.023750 
#    y 0.000000 3.007140 0.000000 
#    z 0.023750 0.000000 3.680080 
# 
# 
# High freq. dielectric constant tensor:
#      x y z
#    x 1.750360 0.000000 0.006850 
#    y 0.000000 1.697760 0.000000 
#    z 0.006850 0.000000 1.762670 
# 
# From -- ./inp_files/249092.got.cif
#   From: 2010.06.25/outbox.cif.g09.slc.cpg/sg12_125_cif.got.tgz:249092.got - 2010.06.28 00:19:55.
