data_PCOD8079236
_publ_section_title
;
Structure prediction by ZEFSAII (Michael W. Deem and Ramdas Pophale) SiO2 
 PCOD8079236
Probable space group: C 2/M
;
_chemical_formula_sum "Si O2"
_cell_formula_units_Z 40
_cell_length_a 20.199590
_cell_length_b 12.986705
_cell_length_c 16.799326
_cell_angle_alpha 90.000000
_cell_angle_beta 150.995683
_cell_angle_gamma 90.000000
_cell_volume 2136.798864
_symmetry_space_group_name_H-M "C 2/M"
_symmetry_group_IT_number 12
_symmetry_cell_setting 'monoclinic'
loop_
_space_group_symop_operation_xyz
x,y,z
-x,y,-z
-x,-y,-z
x,-y,z
1/2+x,1/2+y,z
1/2-x,1/2+y,-z
1/2-x,1/2-y,-z
1/2+x,1/2-y,z
loop_
_atom_site_type_symbol
_atom_site_label
_atom_site_fract_x
_atom_site_fract_y
_atom_site_fract_z
Si Si1 0.667851 0.886039 0.468811
Si Si2 0.791794 0.804044 0.747774
Si Si3 0.563845 0.380123 0.960195
Si Si4 0.449244 0.322498 0.686790
Si Si5 0.103776 0.882106 0.540743
O O1 0.688219 0.871782 0.585491
O O2 0.561160 0.801762 0.324444
O O3 0.810888 0.873609 0.573922
O O4 0.608921 0.000000 0.390614
O O5 0.740771 0.686147 0.691443
O O6 0.940363 0.810927 0.863954
O O7 0.800281 0.846619 0.847854
O O8 0.533308 0.500000 0.942995
O O9 0.574621 0.355431 0.876972
O O10 0.474477 0.366124 0.625320
O O11 0.000000 0.847055 0.500000
O O12 0.148964 0.000000 0.599006
#
# Coordination Sequence:
#
# PCOD8079236 Si02
#       5
#     8   8   8   8   8
#     4   9  15  26  45  68  95 118 144 192 239 275
#     4   9  17  29  47  72  94 119 152 186 234 285
#     4  10  17  29  51  75  99 119 142 190 247 287
#     4   9  17  27  45  70  89 118 159 189 226 277
#     4  10  20  34  49  64  91 131 166 193 220 262
#
# _framework density 18.71959
#
# number of rings (size 3 to 8) (size 9 to 14) (size 15 to 20)
#    0.000    2.600    0.000    6.600    0.000    0.000 
#    0.000    4.000    0.000   21.600    0.000    0.000 
#    0.000    0.000    0.000    0.000    0.000    0.000 
#
# Total GULP energy -247847.359123 kJ/mol
# GULP energy per Si atom -12392.367956 kJ/mol
# Density = 1.867698 g / cm^3
# Si number density = 18.719590 Si / 1000 Ang^3
#
#
#
# Elastic Constant Matrix: (Units=GPa)
#
#
# Indices 1 2 3 4 5 6 
#
# 1 91.5253 37.2326 43.4437 0.0000 -35.4174 0.0000
# 2 37.2326 145.0361 37.6836 0.0000 -6.4867 0.0000
# 3 43.4437 37.6836 63.9967 0.0000 -36.1005 0.0000
# 4 0.0000 0.0000 0.0000 17.2260 0.0000 -3.8300
# 5 -35.4174 -6.4867 -36.1005 0.0000 34.7757 0.0000
# 6 0.0000 0.0000 0.0000 -3.8300 0.0000 18.6631
#
#
#
# Elastic Compliance Matrix: (Units=1/GPa)
#
#
# Indices 1 2 3 4 5 6 
#
# 1 0.020436 -0.004332 -0.000089 0.000000 0.019913 0.000000
# 2 -0.004332 0.010203 -0.010816 0.000000 -0.013737 0.000000
# 3 -0.000089 -0.010816 0.050350 0.000000 0.050160 0.000000
# 4 0.000000 0.000000 0.000000 0.060827 0.000000 0.012483
# 5 0.019913 -0.013737 0.050160 0.000000 0.098544 0.000000
# 6 0.000000 0.000000 0.000000 0.012483 0.000000 0.056143
#
#
# Mechanical properties :
#
#
# Convention : Reuss Voigt Hill
#
# Bulk Modulus (GPa) = 19.79632 59.69754 39.74693
# Shear Modulus (GPa) = 14.54259 26.27950 20.41104
#
# Velocity S-wave (km/s) = 2.79025 3.75086 3.30564
# Velocity P-wave (km/s) = 4.58027 7.12168 5.98737
#
# Compressibility (1/GPa) = 0.05051443
#
# Stress axis : x y z
#
# Youngs Moduli (GPa) = 48.93255 98.01188 19.86079
#
# Poissons Ratio (x) = 0.42463 0.00177
# Poissons Ratio (y) = 0.21200 0.21481
# Poissons Ratio (z) = 0.00437 1.06008
#
# Static dielectric constant tensor:
#      x y z
#    x 3.518530 0.000000 -0.747030 
#    y 0.000000 3.471390 0.000000 
#    z -0.747030 0.000000 3.497320 
# 
# 
# High freq. dielectric constant tensor:
#      x y z
#    x 1.704900 0.000000 -0.053180 
#    y 0.000000 1.732980 0.000000 
#    z -0.053180 0.000000 1.687970 
# 
# From -- ./inp_files/163879.got.cif
#   From: 2010.06.25/outbox.cif.g09.slc.cpg/sg12_82_cif.got.tgz:163879.got - 2010.06.28 00:19:55.
