data_PCOD8079711
_publ_section_title
;
Structure prediction by ZEFSAII (Michael W. Deem and Ramdas Pophale) SiO2 
 PCOD8079711
Probable space group: C 2/M
;
_chemical_formula_sum "Si O2"
_cell_formula_units_Z 44
_cell_length_a 18.025430
_cell_length_b 12.370563
_cell_length_c 10.967188
_cell_angle_alpha 90.000000
_cell_angle_beta 65.383344
_cell_angle_gamma 90.000000
_cell_volume 2223.254797
_symmetry_space_group_name_H-M "C 2/M"
_symmetry_group_IT_number 12
_symmetry_cell_setting 'monoclinic'
loop_
_space_group_symop_operation_xyz
x,y,z
-x,y,-z
-x,-y,-z
x,-y,z
1/2+x,1/2+y,z
1/2-x,1/2+y,-z
1/2-x,1/2-y,-z
1/2+x,1/2-y,z
loop_
_atom_site_type_symbol
_atom_site_label
_atom_site_fract_x
_atom_site_fract_y
_atom_site_fract_z
Si Si1 0.013858 0.874222 0.132995
Si Si2 0.838032 0.268495 0.884069
Si Si3 0.806315 0.500000 0.635671
Si Si4 0.288348 0.768423 0.640743
Si Si5 0.879117 0.500000 0.828542
Si Si6 0.557709 0.000000 0.640225
Si Si7 0.877680 0.274776 0.338553
O O1 0.100359 0.822276 0.110842
O O2 0.939689 0.815772 0.250920
O O3 0.015505 0.000000 0.169714
O O4 0.000000 0.859981 0.000000
O O5 0.833179 0.259583 0.739967
O O6 0.869730 0.387162 0.908739
O O7 0.750000 0.250000 0.000000
O O8 0.761116 0.391908 0.624489
O O9 0.805760 0.500000 0.782167
O O10 0.899286 0.500000 0.520486
O O11 0.202027 0.707705 0.693294
O O12 0.351908 0.734122 0.491872
O O13 0.961221 0.500000 0.693577
O O14 0.581134 0.108119 0.697422
#
# Coordination Sequence:
#
# PCOD8079711 Si02
#       7
#     8   8   4   8   4   4   8
#     4  11  25  43  63  84 114 158 204 247 295 360
#     4  11  23  41  62  87 119 156 201 244 292 349
#     4   8  17  30  60  87 115 151 193 235 276 345
#     4   9  20  37  61  91 120 157 195 240 290 348
#     4  10  19  36  60  87 112 150 193 239 293 342
#     4  10  17  34  58  88 121 146 185 240 294 347
#     4  10  20  39  61  91 122 154 195 239 295 352
#
# _framework density 19.790804999999999
#
# number of rings (size 3 to 8) (size 9 to 14) (size 15 to 20)
#    0.000    2.000    1.818    1.364    2.545    0.727 
#    3.273    4.545    0.000    0.000    0.000    0.000 
#    0.000    0.000    0.000    0.000    0.000    0.000 
#
# Total GULP energy -272609.025670 kJ/mol
# GULP energy per Si atom -12391.319349 kJ/mol
# Density = 1.974576 g / cm^3
# Si number density = 19.790805 Si / 1000 Ang^3
#
#
#
# Elastic Constant Matrix: (Units=GPa)
#
#
# Indices 1 2 3 4 5 6 
#
# 1 100.8521 55.8494 45.0016 0.0000 -4.4692 0.0000
# 2 55.8494 151.8320 57.7895 0.0000 -3.1701 0.0000
# 3 45.0016 57.7895 92.4871 0.0000 -10.9266 0.0000
# 4 0.0000 0.0000 0.0000 28.3498 0.0000 -5.8754
# 5 -4.4692 -3.1701 -10.9266 0.0000 30.9260 0.0000
# 6 0.0000 0.0000 0.0000 -5.8754 0.0000 30.6481
#
#
#
# Elastic Compliance Matrix: (Units=1/GPa)
#
#
# Indices 1 2 3 4 5 6 
#
# 1 0.013829 -0.003314 -0.004656 0.000000 0.000014 0.000000
# 2 -0.003314 0.009469 -0.004431 0.000000 -0.001074 0.000000
# 3 -0.004656 -0.004431 0.016398 0.000000 0.004667 0.000000
# 4 0.000000 0.000000 0.000000 0.036733 0.000000 0.007042
# 5 0.000014 -0.001074 0.004667 0.000000 0.033876 0.000000
# 6 0.000000 0.000000 0.000000 0.007042 0.000000 0.033978
#
#
# Mechanical properties :
#
#
# Convention : Reuss Voigt Hill
#
# Bulk Modulus (GPa) = 67.14522 73.60580 70.37551
# Shear Modulus (GPa) = 28.72702 30.42016 29.57359
#
# Velocity S-wave (km/s) = 3.81403 3.92482 3.86982
# Velocity P-wave (km/s) = 7.30732 7.60340 7.45683
#
# Compressibility (1/GPa) = 0.01489309
#
# Stress axis : x y z
#
# Youngs Moduli (GPa) = 72.31046 105.60250 60.98298
#
# Poissons Ratio (x) = 0.35000 0.28396
# Poissons Ratio (y) = 0.23966 0.27022
# Poissons Ratio (z) = 0.33671 0.46793
#
# Static dielectric constant tensor:
#      x y z
#    x 3.482530 0.000000 -0.048020 
#    y 0.000000 3.899960 0.000000 
#    z -0.048020 0.000000 3.530020 
# 
# 
# High freq. dielectric constant tensor:
#      x y z
#    x 1.766240 0.000000 -0.011890 
#    y 0.000000 1.778730 0.000000 
#    z -0.011890 0.000000 1.767050 
# 
# From -- ./inp_files/153463.got.cif
#   From: 2010.06.25/outbox.cif.g09.slc.cpg/sg12_77_cif.got.tgz:153463.got - 2010.06.28 00:19:55.
