data_PCOD8079129
_publ_section_title
;
Structure prediction by ZEFSAII (Michael W. Deem and Ramdas Pophale) SiO2 
 PCOD8079129
Probable space group: C 2/M
;
_chemical_formula_sum "Si O2"
_cell_formula_units_Z 64
_cell_length_a 13.868335
_cell_length_b 23.458483
_cell_length_c 12.048556
_cell_angle_alpha 90.000000
_cell_angle_beta 102.864289
_cell_angle_gamma 90.000000
_cell_volume 3821.372606
_symmetry_space_group_name_H-M "C 2/M"
_symmetry_group_IT_number 12
_symmetry_cell_setting 'monoclinic'
loop_
_space_group_symop_operation_xyz
x,y,z
-x,y,-z
-x,-y,-z
x,-y,z
1/2+x,1/2+y,z
1/2-x,1/2+y,-z
1/2-x,1/2-y,-z
1/2+x,1/2-y,z
loop_
_atom_site_type_symbol
_atom_site_label
_atom_site_fract_x
_atom_site_fract_y
_atom_site_fract_z
Si Si1 0.325977 0.885789 0.816613
Si Si2 0.382777 0.784268 0.978553
Si Si3 0.230488 0.824791 0.109022
Si Si4 0.516933 0.846251 0.624691
Si Si5 0.466434 0.064620 0.187929
Si Si6 0.701448 0.176530 0.395182
Si Si7 0.235136 0.436457 0.987691
Si Si8 0.715640 0.202788 0.640484
O O1 0.334552 0.822312 0.869654
O O2 0.431345 0.916478 0.840314
O O3 0.275373 0.877145 0.681289
O O4 0.256769 0.924329 0.877995
O O5 0.353297 0.718424 0.955057
O O6 0.500000 0.790678 0.000000
O O7 0.338169 0.806284 0.085406
O O8 0.201945 0.888904 0.062520
O O9 0.229543 0.826427 0.242269
O O10 0.500000 0.874981 0.500000
O O11 0.559053 0.895911 0.713774
O O12 0.417525 0.816330 0.643650
O O13 0.598330 0.796545 0.634179
O O14 0.380190 0.070164 0.074918
O O15 0.475452 0.000000 0.233009
O O16 0.737225 0.167110 0.531758
O O17 0.752453 0.232455 0.361553
O O18 0.275403 0.500000 0.971652
#
# Coordination Sequence:
#
# PCOD8079129 Si02
#       8
#     8   8   8   8   8   8   8   8
#     4  10  17  29  44  65  92 122 153 186 233 278
#     4  10  20  30  47  71  97 121 148 193 238 283
#     4  10  19  31  48  70  93 125 157 187 234 282
#     4   9  18  30  44  63  92 128 158 190 230 270
#     4  10  18  27  42  64  89 123 162 191 223 268
#     4   9  19  29  45  67  91 126 157 189 236 274
#     4  10  19  30  45  64  91 123 158 196 229 269
#     4  10  17  31  46  64  94 125 158 192 226 285
#
# _framework density 16.747907999999999
#
# number of rings (size 3 to 8) (size 9 to 14) (size 15 to 20)
#    0.000    2.250    2.500    2.250    1.750    1.250 
#    0.000    0.000    0.000    1.125    0.000    0.000 
#    0.000    0.000    0.000    1.125    0.000   13.625 
#
# Total GULP energy -396537.276661 kJ/mol
# GULP energy per Si atom -12391.789896 kJ/mol
# Density = 1.670979 g / cm^3
# Si number density = 16.747908 Si / 1000 Ang^3
#
#
#
# Elastic Constant Matrix: (Units=GPa)
#
#
# Indices 1 2 3 4 5 6 
#
# 1 29.1280 22.7736 15.0718 0.0000 -9.0111 0.0000
# 2 22.7736 106.7317 34.6315 0.0000 -5.2948 0.0000
# 3 15.0718 34.6315 105.8760 0.0000 -13.1327 0.0000
# 4 0.0000 0.0000 0.0000 16.5125 0.0000 2.0694
# 5 -9.0111 -5.2948 -13.1327 0.0000 15.2661 0.0000
# 6 0.0000 0.0000 0.0000 2.0694 0.0000 21.4851
#
#
#
# Elastic Compliance Matrix: (Units=1/GPa)
#
#
# Indices 1 2 3 4 5 6 
#
# 1 0.049762 -0.009041 -0.000976 0.000000 0.025398 0.000000
# 2 -0.009041 0.012132 -0.003158 0.000000 -0.003846 0.000000
# 3 -0.000976 -0.003158 0.011653 0.000000 0.008353 0.000000
# 4 0.000000 0.000000 0.000000 0.061300 0.000000 -0.005904
# 5 0.025398 -0.003846 0.008353 0.000000 0.086348 0.000000
# 6 0.000000 0.000000 0.000000 -0.005904 0.000000 0.047112
#
#
# Mechanical properties :
#
#
# Convention : Reuss Voigt Hill
#
# Bulk Modulus (GPa) = 21.18818 42.96551 32.07684
# Shear Modulus (GPa) = 16.10866 21.93667 19.02267
#
# Velocity S-wave (km/s) = 3.10470 3.62306 3.37385
# Velocity P-wave (km/s) = 5.05282 6.57359 5.86272
#
# Compressibility (1/GPa) = 0.04719613
#
# Stress axis : x y z
#
# Youngs Moduli (GPa) = 20.09556 82.42340 85.81348
#
# Poissons Ratio (x) = 0.74521 0.08377
# Poissons Ratio (y) = 0.18169 0.27104
# Poissons Ratio (z) = 0.01962 0.26033
#
# Static dielectric constant tensor:
#      x y z
#    x 2.879820 0.000000 -0.207510 
#    y 0.000000 3.158600 0.000000 
#    z -0.207510 0.000000 3.440840 
# 
# 
# High freq. dielectric constant tensor:
#      x y z
#    x 1.602090 0.000000 -0.020550 
#    y 0.000000 1.630700 0.000000 
#    z -0.020550 0.000000 1.659530 
# 
# From -- ./inp_files/135418.got.cif
#   From: 2010.06.25/outbox.cif.g09.slc.cpg/sg12_68_cif.got.tgz:135418.got - 2010.06.28 00:19:55.
