data_PCOD8079952
_publ_section_title
;
Structure prediction by ZEFSAII (Michael W. Deem and Ramdas Pophale) SiO2 
 PCOD8079952
Probable space group: C 2/M
;
_chemical_formula_sum "Si O2"
_cell_formula_units_Z 64
_cell_length_a 27.919858
_cell_length_b 8.837401
_cell_length_c 16.534426
_cell_angle_alpha 90.000000
_cell_angle_beta 94.780485
_cell_angle_gamma 90.000000
_cell_volume 4065.495423
_symmetry_space_group_name_H-M "C 2/M"
_symmetry_group_IT_number 12
_symmetry_cell_setting 'monoclinic'
loop_
_space_group_symop_operation_xyz
x,y,z
-x,y,-z
-x,-y,-z
x,-y,z
1/2+x,1/2+y,z
1/2-x,1/2+y,-z
1/2-x,1/2-y,-z
1/2+x,1/2-y,z
loop_
_atom_site_type_symbol
_atom_site_label
_atom_site_fract_x
_atom_site_fract_y
_atom_site_fract_z
Si Si1 0.984164 0.829098 0.090107
Si Si2 0.922579 0.322156 0.856750
Si Si3 0.343711 0.179419 0.717511
Si Si4 0.745278 0.822296 0.761997
Si Si5 0.108087 0.321355 0.970713
Si Si6 0.311107 0.677307 0.564426
Si Si7 0.712384 0.178515 0.934247
Si Si8 0.714502 0.674497 0.608793
O O1 0.025264 0.751908 0.150519
O O2 0.978200 0.000000 0.118478
O O3 0.932999 0.746816 0.093297
O O4 0.000000 0.815635 0.000000
O O5 0.930071 0.500000 0.859496
O O6 0.887921 0.270355 0.779753
O O7 0.899060 0.267150 0.937824
O O8 0.294730 0.234434 0.752958
O O9 0.352278 0.262440 0.631565
O O10 0.341880 0.000000 0.706027
O O11 0.724734 0.771433 0.845148
O O12 0.705614 0.774981 0.687955
O O13 0.754986 0.000000 0.759185
O O14 0.104881 0.500000 0.962789
O O15 0.159421 0.259941 0.947912
O O16 0.299993 0.500000 0.578648
O O17 0.323576 0.702633 0.470561
O O18 0.266149 0.781948 0.580517
O O19 0.714661 0.000000 0.945348
O O20 0.750000 0.250000 0.000000
O O21 0.714397 0.500000 0.634887
#
# Coordination Sequence:
#
# PCOD8079952 Si02
#       8
#     8   8   8   8   8   8   8   8
#     4   9  17  28  43  63  82 101 131 171 211 247
#     4   9  17  28  43  61  81 109 139 166 202 249
#     4  10  18  27  41  61  85 113 143 170 203 249
#     4  10  19  29  41  59  83 111 144 178 211 242
#     4   9  17  31  46  58  79 110 142 173 205 242
#     4   9  16  25  38  57  80 106 136 170 208 246
#     4  10  21  33  45  62  84 113 146 179 211 242
#     4   9  16  26  40  56  76 106 141 172 205 246
#
# _framework density 15.742239
#
# number of rings (size 3 to 8) (size 9 to 14) (size 15 to 20)
#    0.000    2.625    0.000    4.125    0.000    6.500 
#    0.000    2.500    0.000    0.000    0.000    0.000 
#    0.000    1.000    0.000   11.250    0.000    5.625 
#
# Total GULP energy -396577.981910 kJ/mol
# GULP energy per Si atom -12393.061935 kJ/mol
# Density = 1.570641 g / cm^3
# Si number density = 15.742239 Si / 1000 Ang^3
#
#
#
# Elastic Constant Matrix: (Units=GPa)
#
#
# Indices 1 2 3 4 5 6 
#
# 1 98.6474 28.5111 54.6054 0.0000 18.0652 0.0000
# 2 28.5111 40.3768 33.2365 0.0000 8.0403 0.0000
# 3 54.6054 33.2365 122.6564 0.0000 20.8878 0.0000
# 4 0.0000 0.0000 0.0000 24.1210 0.0000 6.5117
# 5 18.0652 8.0403 20.8878 0.0000 20.3490 0.0000
# 6 0.0000 0.0000 0.0000 6.5117 0.0000 20.3178
#
#
#
# Elastic Compliance Matrix: (Units=1/GPa)
#
#
# Indices 1 2 3 4 5 6 
#
# 1 0.015444 -0.006207 -0.003971 0.000000 -0.007183 0.000000
# 2 -0.006207 0.034718 -0.006358 0.000000 -0.001681 0.000000
# 3 -0.003971 -0.006358 0.012864 0.000000 -0.007167 0.000000
# 4 0.000000 0.000000 0.000000 0.045384 0.000000 -0.014545
# 5 -0.007183 -0.001681 -0.007167 0.000000 0.063540 0.000000
# 6 0.000000 0.000000 0.000000 -0.014545 0.000000 0.053880
#
#
# Mechanical properties :
#
#
# Convention : Reuss Voigt Hill
#
# Bulk Modulus (GPa) = 33.38318 54.93184 44.15751
# Shear Modulus (GPa) = 18.59519 22.64609 20.62064
#
# Velocity S-wave (km/s) = 3.44063 3.79694 3.62317
# Velocity P-wave (km/s) = 6.08573 7.36157 6.75384
#
# Compressibility (1/GPa) = 0.02995521
#
# Stress axis : x y z
#
# Youngs Moduli (GPa) = 64.74893 28.80345 77.73664
#
# Poissons Ratio (x) = 0.17878 0.30866
# Poissons Ratio (y) = 0.40189 0.49426
# Poissons Ratio (z) = 0.25709 0.18314
#
# Static dielectric constant tensor:
#      x y z
#    x 2.850280 0.000000 0.288000 
#    y 0.000000 3.013900 0.000000 
#    z 0.288000 0.000000 3.447680 
# 
# 
# High freq. dielectric constant tensor:
#      x y z
#    x 1.562570 0.000000 0.027930 
#    y 0.000000 1.614170 0.000000 
#    z 0.027930 0.000000 1.598380 
# 
# From -- ./inp_files/287660.got.cif
#   From: 2010.06.25/outbox.cif.g09.slc.cpg/sg12_144_cif.got.tgz:287660.got - 2010.06.28 00:19:55.
