data_PCOD8079285
_publ_section_title
;
Structure prediction by ZEFSAII (Michael W. Deem and Ramdas Pophale) SiO2 
 PCOD8079285
Probable space group: C 2/M
;
_chemical_formula_sum "Si O2"
_cell_formula_units_Z 56
_cell_length_a 23.392392
_cell_length_b 24.075900
_cell_length_c 16.823255
_cell_angle_alpha 90.000000
_cell_angle_beta 19.593150
_cell_angle_gamma 90.000000
_cell_volume 3177.248464
_symmetry_space_group_name_H-M "C 2/M"
_symmetry_group_IT_number 12
_symmetry_cell_setting 'monoclinic'
loop_
_space_group_symop_operation_xyz
x,y,z
-x,y,-z
-x,-y,-z
x,-y,z
1/2+x,1/2+y,z
1/2-x,1/2+y,-z
1/2-x,1/2-y,-z
1/2+x,1/2-y,z
loop_
_atom_site_type_symbol
_atom_site_label
_atom_site_fract_x
_atom_site_fract_y
_atom_site_fract_z
Si Si1 0.534977 0.164803 0.181708
Si Si2 0.287597 0.659391 0.497176
Si Si3 0.114298 0.716317 0.227966
Si Si4 0.727671 0.275145 0.329880
Si Si5 0.113708 0.784466 0.008773
Si Si6 0.191593 0.881311 0.276589
Si Si7 0.194949 0.562672 0.730786
O O1 0.350495 0.148870 0.390167
O O2 0.538050 0.165614 0.274196
O O3 0.571253 0.226886 0.106152
O O4 0.678795 0.119885 0.967574
O O5 0.245410 0.712857 0.610664
O O6 0.294926 0.602916 0.538801
O O7 0.466277 0.670392 0.218083
O O8 0.207345 0.693921 0.186112
O O9 0.963403 0.759001 0.444253
O O10 0.250000 0.750000 0.000000
O O11 0.855479 0.227870 0.126248
O O12 0.762512 0.332471 0.239839
O O13 0.211718 0.935941 0.304967
O O14 0.000000 0.873812 0.500000
O O15 0.203849 0.500000 0.685876
O O16 0.000000 0.582054 0.000000
#
# Coordination Sequence:
#
# PCOD8079285 Si02
#       7
#     8   8   8   8   8   8   8
#     4  10  19  30  44  70 100 136 165 196 243 294
#     4  11  20  34  48  73  99 138 168 209 247 298
#     4  10  17  30  44  66 102 143 170 200 232 288
#     4  10  19  30  49  70 106 144 173 195 244 293
#     4  10  20  29  48  68 100 137 175 197 239 297
#     4  10  19  30  50  71  96 131 170 199 244 298
#     4  10  21  37  53  69  95 130 171 211 259 305
#
# _framework density 17.625312999999998
#
# number of rings (size 3 to 8) (size 9 to 14) (size 15 to 20)
#    0.000    1.857    4.286    3.429    2.000    0.286 
#    0.000    0.000    0.000    0.000    0.000    0.000 
#    0.000    5.714    0.000    0.000    0.000    0.000 
#
# Total GULP energy -346876.686465 kJ/mol
# GULP energy per Si atom -12388.453088 kJ/mol
# Density = 1.758520 g / cm^3
# Si number density = 17.625313 Si / 1000 Ang^3
#
#
#
# Elastic Constant Matrix: (Units=GPa)
#
#
# Indices 1 2 3 4 5 6 
#
# 1 70.5067 17.7873 12.4041 -0.0182 -10.8600 -0.0030
# 2 17.7873 51.2196 32.1773 0.0042 3.3654 0.0045
# 3 12.4041 32.1773 77.7670 -0.0088 -4.0052 -0.0037
# 4 -0.0182 0.0042 -0.0088 12.5075 0.0014 1.1536
# 5 -10.8600 3.3654 -4.0052 0.0014 28.5977 0.0071
# 6 -0.0030 0.0045 -0.0037 1.1536 0.0071 13.3837
#
#
#
# Elastic Compliance Matrix: (Units=1/GPa)
#
#
# Indices 1 2 3 4 5 6 
#
# 1 0.016893 -0.006600 0.000410 0.000026 0.007249 0.000000
# 2 -0.006600 0.029593 -0.011584 -0.000026 -0.007611 -0.000008
# 3 0.000410 -0.011584 0.017793 0.000016 0.004011 0.000005
# 4 0.000026 -0.000026 0.000016 0.080593 0.000013 -0.006947
# 5 0.007249 -0.007611 0.004011 0.000013 0.039178 -0.000017
# 6 0.000000 -0.000008 0.000005 -0.006947 -0.000017 0.075316
#
#
# Mechanical properties :
#
#
# Convention : Reuss Voigt Hill
#
# Bulk Modulus (GPa) = 34.80620 36.02562 35.41591
# Shear Modulus (GPa) = 16.42082 20.03943 18.23013
#
# Velocity S-wave (km/s) = 3.05562 3.37556 3.21957
# Velocity P-wave (km/s) = 5.67801 5.97299 5.82737
#
# Compressibility (1/GPa) = 0.02873052
#
# Stress axis : x y z
#
# Youngs Moduli (GPa) = 59.19753 33.79151 56.20145
#
# Poissons Ratio (x) = 0.22303 -0.02303
# Poissons Ratio (y) = 0.39071 0.65103
# Poissons Ratio (z) = -0.02426 0.39144
#
# Static dielectric constant tensor:
#      x y z
#    x 4.894770 -0.000300 -0.173590 
#    y -0.000300 2.847130 0.000270 
#    z -0.173590 0.000270 3.394430 
# 
# 
# High freq. dielectric constant tensor:
#      x y z
#    x 1.688310 -0.000010 -0.015350 
#    y -0.000010 1.607310 0.000020 
#    z -0.015350 0.000020 1.683330 
# 
# From -- ./inp_files/99618.got.cif
#   From: 2010.06.25/outbox.cif.g09.slc.cpg/sg12_50_cif.got.tgz:99618.got - 2010.06.28 00:19:55.
