data_PCOD8079057
_publ_section_title
;
Structure prediction by ZEFSAII (Michael W. Deem and Ramdas Pophale) SiO2 
 PCOD8079057
Probable space group: C 2/M
;
_chemical_formula_sum "Si O2"
_cell_formula_units_Z 48
_cell_length_a 24.231053
_cell_length_b 8.671915
_cell_length_c 14.523808
_cell_angle_alpha 90.000000
_cell_angle_beta 110.626299
_cell_angle_gamma 90.000000
_cell_volume 2856.250480
_symmetry_space_group_name_H-M "C 2/M"
_symmetry_group_IT_number 12
_symmetry_cell_setting 'monoclinic'
loop_
_space_group_symop_operation_xyz
x,y,z
-x,y,-z
-x,-y,-z
x,-y,z
1/2+x,1/2+y,z
1/2-x,1/2+y,-z
1/2-x,1/2-y,-z
1/2+x,1/2-y,z
loop_
_atom_site_type_symbol
_atom_site_label
_atom_site_fract_x
_atom_site_fract_y
_atom_site_fract_z
Si Si1 0.024554 0.681105 0.145355
Si Si2 0.371379 0.181093 0.674374
Si Si3 0.738633 0.182230 0.272747
Si Si4 0.918985 0.179743 0.998886
Si Si5 0.215980 0.180429 0.065178
Si Si6 0.199509 0.681382 0.533401
O O1 0.010962 0.500000 0.142449
O O2 0.064142 0.739434 0.255410
O O3 0.962883 0.774661 0.108785
O O4 0.062458 0.716478 0.076541
O O5 0.319607 0.249676 0.709782
O O6 0.360751 0.219494 0.559550
O O7 0.368131 0.000000 0.688921
O O8 0.742565 0.248907 0.173335
O O9 0.796690 0.238214 0.364337
O O10 0.739276 0.000000 0.267601
O O11 0.926110 0.000000 0.978570
O O12 0.852742 0.221888 0.987633
O O13 0.226472 0.000000 0.074348
O O14 0.250000 0.250000 0.000000
O O15 0.207938 0.500000 0.550483
O O16 0.250000 0.750000 0.500000
#
# Coordination Sequence:
#
# PCOD8079057 Si02
#       6
#     8   8   8   8   8   8
#     4  10  17  28  48  70  94 129 160 188 231 283
#     4   8  15  26  43  68  96 125 156 189 227 277
#     4  10  18  31  47  66  95 126 159 199 238 283
#     4  10  20  32  44  67  96 123 156 198 241 280
#     4  11  23  36  51  69  93 127 165 203 242 284
#     4   9  16  27  42  65  95 126 159 193 234 283
#
# _framework density 16.805249
#
# number of rings (size 3 to 8) (size 9 to 14) (size 15 to 20)
#    0.000    2.333    1.667    4.500    0.000    2.000 
#    0.000    2.500    0.000    0.000    0.000    1.167 
#    0.000    9.333    0.000    0.000    0.000    0.000 
#
# Total GULP energy -297408.722017 kJ/mol
# GULP energy per Si atom -12392.030084 kJ/mol
# Density = 1.676700 g / cm^3
# Si number density = 16.805249 Si / 1000 Ang^3
#
#
#
# Elastic Constant Matrix: (Units=GPa)
#
#
# Indices 1 2 3 4 5 6 
#
# 1 64.4522 27.2657 58.1340 0.0000 9.2532 0.0000
# 2 27.2657 65.7110 41.6231 0.0000 3.8106 0.0000
# 3 58.1340 41.6231 165.5458 0.0000 23.3689 0.0000
# 4 0.0000 0.0000 0.0000 28.7195 0.0000 2.2668
# 5 9.2532 3.8106 23.3689 0.0000 26.2912 0.0000
# 6 0.0000 0.0000 0.0000 2.2668 0.0000 20.3239
#
#
#
# Elastic Compliance Matrix: (Units=1/GPa)
#
#
# Indices 1 2 3 4 5 6 
#
# 1 0.024366 -0.005639 -0.006911 0.000000 -0.001616 0.000000
# 2 -0.005639 0.019467 -0.003197 0.000000 0.002005 0.000000
# 3 -0.006911 -0.003197 0.010134 0.000000 -0.006112 0.000000
# 4 0.000000 0.000000 0.000000 0.035129 0.000000 -0.003918
# 5 -0.001616 0.002005 -0.006112 0.000000 0.043746 0.000000
# 6 0.000000 0.000000 0.000000 -0.003918 0.000000 0.049640
#
#
# Mechanical properties :
#
#
# Convention : Reuss Voigt Hill
#
# Bulk Modulus (GPa) = 44.49796 61.08384 52.79090
# Shear Modulus (GPa) = 22.57662 26.31265 24.44463
#
# Velocity S-wave (km/s) = 3.66925 3.96124 3.81804
# Velocity P-wave (km/s) = 6.66988 7.57290 7.13569
#
# Compressibility (1/GPa) = 0.02247294
#
# Stress axis : x y z
#
# Youngs Moduli (GPa) = 41.04058 51.36879 98.67687
#
# Poissons Ratio (x) = 0.28968 0.68191
# Poissons Ratio (y) = 0.23144 0.31550
# Poissons Ratio (z) = 0.28361 0.16424
#
# Static dielectric constant tensor:
#      x y z
#    x 2.927750 0.000000 0.540020 
#    y 0.000000 3.207640 0.000000 
#    z 0.540020 0.000000 3.773750 
# 
# 
# High freq. dielectric constant tensor:
#      x y z
#    x 1.593170 0.000000 0.036210 
#    y 0.000000 1.652480 0.000000 
#    z 0.036210 0.000000 1.657550 
# 
# From -- ./inp_files/242744.got.cif
#   From: 2010.06.25/outbox.cif.g09.slc.cpg/sg12_122_cif.got.tgz:242744.got - 2010.06.28 00:19:55.
