data_PCOD8079157
_publ_section_title
;
Structure prediction by ZEFSAII (Michael W. Deem and Ramdas Pophale) SiO2 
 PCOD8079157
Probable space group: C 2/M
;
_chemical_formula_sum "Si O2"
_cell_formula_units_Z 56
_cell_length_a 30.052036
_cell_length_b 14.106183
_cell_length_c 13.104432
_cell_angle_alpha 90.000000
_cell_angle_beta 141.056454
_cell_angle_gamma 90.000000
_cell_volume 3491.760575
_symmetry_space_group_name_H-M "C 2/M"
_symmetry_group_IT_number 12
_symmetry_cell_setting 'monoclinic'
loop_
_space_group_symop_operation_xyz
x,y,z
-x,y,-z
-x,-y,-z
x,-y,z
1/2+x,1/2+y,z
1/2-x,1/2+y,-z
1/2-x,1/2-y,-z
1/2+x,1/2-y,z
loop_
_atom_site_type_symbol
_atom_site_label
_atom_site_fract_x
_atom_site_fract_y
_atom_site_fract_z
Si Si1 0.703810 0.108098 0.343609
Si Si2 0.364772 0.390981 0.936037
Si Si3 0.577233 0.612559 0.750486
Si Si4 0.210401 0.602775 0.588914
Si Si5 0.843596 0.797066 0.517420
Si Si6 0.081411 0.111891 0.536402
Si Si7 0.917205 0.242590 0.855593
O O1 0.731720 0.106019 0.508521
O O2 0.763474 0.166389 0.389795
O O3 0.628766 0.162886 0.202784
O O4 0.694946 0.000000 0.286132
O O5 0.389610 0.500000 0.969360
O O6 0.281196 0.381064 0.778078
O O7 0.407614 0.332733 0.928406
O O8 0.380152 0.348506 0.076141
O O9 0.577079 0.500000 0.752112
O O10 0.609940 0.646070 0.699314
O O11 0.497582 0.651622 0.618326
O O12 0.176144 0.500000 0.554671
O O13 0.155808 0.686600 0.515532
O O14 0.871682 0.854342 0.472658
O O15 0.891888 0.807102 0.704663
O O16 0.080997 0.000000 0.531929
O O17 0.000000 0.271083 0.000000
#
# Coordination Sequence:
#
# PCOD8079157 Si02
#       7
#     8   8   8   8   8   8   8
#     4  10  19  33  49  66  96 133 161 188 228 280
#     4  10  17  29  47  67  94 123 149 189 239 278
#     4   8  16  30  45  66  95 125 151 182 232 287
#     4   9  17  30  47  65  92 124 154 189 229 279
#     4  11  18  31  49  74  92 121 161 194 237 273
#     4   9  17  29  46  68  95 123 153 186 226 284
#     4  11  21  31  46  73 101 123 156 196 236 283
#
# _framework density 16.037755000000001
#
# number of rings (size 3 to 8) (size 9 to 14) (size 15 to 20)
#    0.000    2.286    2.857    3.000    0.000    1.143 
#    0.000    0.714    0.000    0.000    0.000    2.000 
#    0.000    0.000    0.000    0.000    0.000    0.000 
#
# Total GULP energy -346975.982870 kJ/mol
# GULP energy per Si atom -12391.999388 kJ/mol
# Density = 1.600125 g / cm^3
# Si number density = 16.037755 Si / 1000 Ang^3
#
#
#
# Elastic Constant Matrix: (Units=GPa)
#
#
# Indices 1 2 3 4 5 6 
#
# 1 71.2760 16.9451 50.9022 0.0000 -9.9361 0.0000
# 2 16.9451 55.9431 34.1114 0.0000 -6.7798 0.0000
# 3 50.9022 34.1114 103.3549 0.0000 -13.1136 0.0000
# 4 0.0000 0.0000 0.0000 15.4376 0.0000 3.3723
# 5 -9.9361 -6.7798 -13.1136 0.0000 26.0889 0.0000
# 6 0.0000 0.0000 0.0000 3.3723 0.0000 16.6955
#
#
#
# Elastic Compliance Matrix: (Units=1/GPa)
#
#
# Indices 1 2 3 4 5 6 
#
# 1 0.021877 0.000100 -0.010411 0.000000 0.003125 0.000000
# 2 0.000100 0.022503 -0.007188 0.000000 0.002273 0.000000
# 3 -0.010411 -0.007188 0.017555 0.000000 0.002991 0.000000
# 4 0.000000 0.000000 0.000000 0.067767 0.000000 -0.013688
# 5 0.003125 0.002273 0.002991 0.000000 0.041615 0.000000
# 6 0.000000 0.000000 0.000000 -0.013688 0.000000 0.062661
#
#
# Mechanical properties :
#
#
# Convention : Reuss Voigt Hill
#
# Bulk Modulus (GPa) = 37.12308 48.27683 42.69995
# Shear Modulus (GPa) = 17.98860 20.21877 19.10368
#
# Velocity S-wave (km/s) = 3.35272 3.55448 3.45508
# Velocity P-wave (km/s) = 6.17942 6.85661 6.52680
#
# Compressibility (1/GPa) = 0.02693742
#
# Stress axis : x y z
#
# Youngs Moduli (GPa) = 45.71066 44.43796 56.96523
#
# Poissons Ratio (x) = -0.00446 0.59306
# Poissons Ratio (y) = -0.00459 0.40947
# Poissons Ratio (z) = 0.47589 0.31942
#
# Static dielectric constant tensor:
#      x y z
#    x 2.972220 0.000000 -0.222870 
#    y 0.000000 3.120490 0.000000 
#    z -0.222870 0.000000 3.195850 
# 
# 
# High freq. dielectric constant tensor:
#      x y z
#    x 1.596160 0.000000 -0.009340 
#    y 0.000000 1.602100 0.000000 
#    z -0.009340 0.000000 1.615700 
# 
# From -- ./inp_files/166768.got.cif
#   From: 2010.06.25/outbox.cif.g09.slc.cpg/sg12_84_cif.got.tgz:166768.got - 2010.06.28 00:19:55.
