data_PCOD8079683
_publ_section_title
;
Structure prediction by ZEFSAII (Michael W. Deem and Ramdas Pophale) SiO2 
 PCOD8079683
Probable space group: C 2/M
;
_chemical_formula_sum "Si O2"
_cell_formula_units_Z 52
_cell_length_a 31.473492
_cell_length_b 17.184010
_cell_length_c 5.311057
_cell_angle_alpha 90.000000
_cell_angle_beta 105.225746
_cell_angle_gamma 90.000000
_cell_volume 2771.609734
_symmetry_space_group_name_H-M "C 2/M"
_symmetry_group_IT_number 12
_symmetry_cell_setting 'monoclinic'
loop_
_space_group_symop_operation_xyz
x,y,z
-x,y,-z
-x,-y,-z
x,-y,z
1/2+x,1/2+y,z
1/2-x,1/2+y,-z
1/2-x,1/2-y,-z
1/2+x,1/2-y,z
loop_
_atom_site_type_symbol
_atom_site_label
_atom_site_fract_x
_atom_site_fract_y
_atom_site_fract_z
Si Si1 0.152734 0.181739 0.824658
Si Si2 0.257422 0.590303 0.026026
Si Si3 0.546940 0.276927 0.194599
Si Si4 0.577296 0.413480 0.915005
Si Si5 0.203233 0.410000 0.440847
Si Si6 0.363689 0.777633 0.701341
Si Si7 0.000000 0.865756 0.500000
O O1 0.199365 0.141140 0.926116
O O2 0.114693 0.115858 0.779625
O O3 0.151174 0.221939 0.549898
O O4 0.148553 0.243256 0.045247
O O5 0.270599 0.500000 0.044590
O O6 0.232761 0.612206 0.246009
O O7 0.228010 0.611014 0.737705
O O8 0.582915 0.208019 0.237314
O O9 0.536704 0.305334 0.457131
O O10 0.500000 0.254009 0.000000
O O11 0.573388 0.351532 0.129562
O O12 0.589854 0.500000 0.032138
O O13 0.527440 0.420235 0.728105
O O14 0.189608 0.500000 0.411743
O O15 0.158310 0.361462 0.361338
#
# Coordination Sequence:
#
# PCOD8079683 Si02
#       7
#     8   8   8   8   8   8   4
#     4  11  22  36  55  82 114 148 185 222 266 312
#     4  10  21  38  56  82 116 150 182 219 266 319
#     4   9  20  35  52  75 107 143 184 223 278 321
#     4  10  20  32  48  74 107 146 186 223 256 306
#     4  10  22  39  60  82 108 142 180 224 280 332
#     4  11  22  38  57  83 110 140 185 229 269 327
#     4  10  17  34  50  70 101 142 184 222 263 316
#
# _framework density 18.761659000000002
#
# number of rings (size 3 to 8) (size 9 to 14) (size 15 to 20)
#    0.000    1.846    1.538    2.538    0.000    7.077 
#    0.000    1.538    0.000    0.462    0.000    0.538 
#    0.000    0.000    0.000    0.000    0.000    0.000 
#
# Total GULP energy -322155.207374 kJ/mol
# GULP energy per Si atom -12390.584899 kJ/mol
# Density = 1.871896 g / cm^3
# Si number density = 18.761659 Si / 1000 Ang^3
#
#
#
# Elastic Constant Matrix: (Units=GPa)
#
#
# Indices 1 2 3 4 5 6 
#
# 1 116.3798 53.9480 26.3968 0.0000 13.8842 0.0000
# 2 53.9480 52.7612 15.6832 0.0000 15.9126 0.0000
# 3 26.3968 15.6832 87.4199 0.0000 -2.8016 0.0000
# 4 0.0000 0.0000 0.0000 15.4001 0.0000 3.2258
# 5 13.8842 15.9126 -2.8016 0.0000 33.3121 0.0000
# 6 0.0000 0.0000 0.0000 3.2258 0.0000 15.2042
#
#
#
# Elastic Compliance Matrix: (Units=1/GPa)
#
#
# Indices 1 2 3 4 5 6 
#
# 1 0.016709 -0.016748 -0.002013 0.000000 0.000867 0.000000
# 2 -0.016748 0.040690 -0.002649 0.000000 -0.012679 0.000000
# 3 -0.002013 -0.002649 0.012624 0.000000 0.003166 0.000000
# 4 0.000000 0.000000 0.000000 0.067955 0.000000 -0.014418
# 5 0.000867 -0.012679 0.003166 0.000000 0.035981 0.000000
# 6 0.000000 0.000000 0.000000 -0.014418 0.000000 0.068830
#
#
# Mechanical properties :
#
#
# Convention : Reuss Voigt Hill
#
# Bulk Modulus (GPa) = 36.76168 49.84631 43.30399
# Shear Modulus (GPa) = 16.96776 23.48547 20.22661
#
# Velocity S-wave (km/s) = 3.01056 3.54189 3.28698
# Velocity P-wave (km/s) = 5.63216 6.58426 6.12673
#
# Compressibility (1/GPa) = 0.02720224
#
# Stress axis : x y z
#
# Youngs Moduli (GPa) = 59.84631 24.57620 79.21696
#
# Poissons Ratio (x) = 0.41161 0.15947
# Poissons Ratio (y) = 1.00233 0.20984
# Poissons Ratio (z) = 0.12047 0.06510
#
# Static dielectric constant tensor:
#      x y z
#    x 3.831460 0.000000 0.035920 
#    y 0.000000 3.205240 0.000000 
#    z 0.035920 0.000000 3.673390 
# 
# 
# High freq. dielectric constant tensor:
#      x y z
#    x 1.743730 0.000000 -0.003710 
#    y 0.000000 1.691640 0.000000 
#    z -0.003710 0.000000 1.740020 
# 
# From -- ./inp_files/28833.got.cif
#   From: 2010.06.25/outbox.cif.g09.slc.cpg/sg12_15_cif.got.tgz:28833.got - 2010.06.28 00:19:55.
