data_PCOD8079378
_publ_section_title
;
Structure prediction by ZEFSAII (Michael W. Deem and Ramdas Pophale) SiO2 
 PCOD8079378
Probable space group: C 2/M
;
_chemical_formula_sum "Si O2"
_cell_formula_units_Z 64
_cell_length_a 21.782392
_cell_length_b 18.284384
_cell_length_c 16.458275
_cell_angle_alpha 90.000000
_cell_angle_beta 34.206110
_cell_angle_gamma 90.000000
_cell_volume 3685.013640
_symmetry_space_group_name_H-M "C 2/M"
_symmetry_group_IT_number 12
_symmetry_cell_setting 'monoclinic'
loop_
_space_group_symop_operation_xyz
x,y,z
-x,y,-z
-x,-y,-z
x,-y,z
1/2+x,1/2+y,z
1/2-x,1/2+y,-z
1/2-x,1/2-y,-z
1/2+x,1/2-y,z
loop_
_atom_site_type_symbol
_atom_site_label
_atom_site_fract_x
_atom_site_fract_y
_atom_site_fract_z
Si Si1 0.902835 0.083204 0.429298
Si Si2 0.299269 0.804307 0.620264
Si Si3 0.379872 0.917114 0.646378
Si Si4 0.657878 0.915202 0.123787
Si Si5 0.653845 0.299094 0.636534
Si Si6 0.374271 0.666962 0.621983
Si Si7 0.991359 0.285146 0.724803
Si Si8 0.366971 0.645497 0.808377
O O1 0.846410 0.128301 0.418624
O O2 0.864111 0.107791 0.561253
O O3 0.032657 0.092506 0.281306
O O4 0.868483 0.000000 0.453955
O O5 0.297434 0.875596 0.678039
O O6 0.185564 0.814326 0.695240
O O7 0.297820 0.734668 0.681016
O O8 0.407585 0.796427 0.446661
O O9 0.500000 0.883169 0.500000
O O10 0.342158 0.908599 0.779605
O O11 0.379425 0.000000 0.617248
O O12 0.560519 0.863734 0.195797
O O13 0.641131 0.000000 0.114662
O O14 0.770903 0.881527 0.970866
O O15 0.750000 0.250000 0.500000
O O16 0.539323 0.254751 0.753211
O O17 0.500000 0.691049 0.500000
O O18 0.328627 0.635022 0.756767
O O19 0.900299 0.230794 0.785908
#
# Coordination Sequence:
#
# PCOD8079378 Si02
#       8
#     8   8   8   8   8   8   8   8
#     4  10  19  32  51  78 107 135 171 215 258 303
#     4  11  17  32  57  77 104 134 173 220 257 297
#     4  10  20  32  50  78 108 136 168 211 262 312
#     4  11  22  34  51  78 110 139 167 209 265 314
#     4   9  18  33  51  76 102 134 173 217 252 295
#     4  10  17  30  52  79 101 135 169 211 262 304
#     4  10  18  33  53  75 104 135 176 211 252 305
#     4  10  20  33  52  77 106 139 169 209 263 315
#
# _framework density 17.367643000000001
#
# number of rings (size 3 to 8) (size 9 to 14) (size 15 to 20)
#    0.000    1.875    6.250    1.875    0.000    3.250 
#    0.000    1.875    0.000    6.750    0.000    8.750 
#    0.000    0.000    0.000    0.000    0.000    0.000 
#
# Total GULP energy -396599.231560 kJ/mol
# GULP energy per Si atom -12393.725986 kJ/mol
# Density = 1.732811 g / cm^3
# Si number density = 17.367643 Si / 1000 Ang^3
#
#
#
# Elastic Constant Matrix: (Units=GPa)
#
#
# Indices 1 2 3 4 5 6 
#
# 1 124.3316 63.6960 24.5800 0.0000 1.1280 0.0000
# 2 63.6960 127.0652 26.0169 0.0000 -5.5298 0.0000
# 3 24.5800 26.0169 66.6284 0.0000 7.5132 0.0000
# 4 0.0000 0.0000 0.0000 16.7412 0.0000 2.2784
# 5 1.1280 -5.5298 7.5132 0.0000 14.5140 0.0000
# 6 0.0000 0.0000 0.0000 2.2784 0.0000 24.4212
#
#
#
# Elastic Compliance Matrix: (Units=1/GPa)
#
#
# Indices 1 2 3 4 5 6 
#
# 1 0.011132 -0.005291 -0.001822 0.000000 -0.001938 0.000000
# 2 -0.005291 0.011471 -0.003256 0.000000 0.006467 0.000000
# 3 -0.001822 -0.003256 0.018135 0.000000 -0.010486 0.000000
# 4 0.000000 0.000000 0.000000 0.060501 0.000000 -0.005644
# 5 -0.001938 0.006467 -0.010486 0.000000 0.076942 0.000000
# 6 0.000000 0.000000 0.000000 -0.005644 0.000000 0.041475
#
#
# Mechanical properties :
#
#
# Convention : Reuss Voigt Hill
#
# Bulk Modulus (GPa) = 50.00512 60.73455 55.36983
# Shear Modulus (GPa) = 20.23806 24.71744 22.47775
#
# Velocity S-wave (km/s) = 3.41731 3.77661 3.60145
# Velocity P-wave (km/s) = 6.66523 7.35275 7.01742
#
# Compressibility (1/GPa) = 0.01999795
#
# Stress axis : x y z
#
# Youngs Moduli (GPa) = 89.83427 87.17895 55.14293
#
# Poissons Ratio (x) = 0.46130 0.10046
# Poissons Ratio (y) = 0.47535 0.17956
# Poissons Ratio (z) = 0.16366 0.28387
#
# Static dielectric constant tensor:
#      x y z
#    x 0.120300 0.000000 0.418610 
#    y 0.000000 3.333750 0.000000 
#    z 0.418610 0.000000 2.932570 
# 
# 
# High freq. dielectric constant tensor:
#      x y z
#    x 1.665920 0.000000 0.007700 
#    y 0.000000 1.676440 0.000000 
#    z 0.007700 0.000000 1.636440 
# 
# From -- ./inp_files/290442.got.cif
#   From: 2010.06.25/outbox.cif.g09.slc.cpg/sg12_146_cif.got.tgz:290442.got - 2010.06.28 00:19:55.
