data_PCOD8079318
_publ_section_title
;
Structure prediction by ZEFSAII (Michael W. Deem and Ramdas Pophale) SiO2 
 PCOD8079318
Probable space group: C 2/M
;
_chemical_formula_sum "Si O2"
_cell_formula_units_Z 56
_cell_length_a 25.296681
_cell_length_b 8.838574
_cell_length_c 22.288184
_cell_angle_alpha 90.000000
_cell_angle_beta 138.531815
_cell_angle_gamma 90.000000
_cell_volume 3299.987355
_symmetry_space_group_name_H-M "C 2/M"
_symmetry_group_IT_number 12
_symmetry_cell_setting 'monoclinic'
loop_
_space_group_symop_operation_xyz
x,y,z
-x,y,-z
-x,-y,-z
x,-y,z
1/2+x,1/2+y,z
1/2-x,1/2+y,-z
1/2-x,1/2-y,-z
1/2+x,1/2-y,z
loop_
_atom_site_type_symbol
_atom_site_label
_atom_site_fract_x
_atom_site_fract_y
_atom_site_fract_z
Si Si1 0.766145 0.319992 0.396566
Si Si2 0.375479 0.679890 0.904196
Si Si3 0.093047 0.179257 0.288708
Si Si4 0.288768 0.820319 0.280877
Si Si5 0.964484 0.322103 0.405312
Si Si6 0.083233 0.821340 0.414740
Si Si7 0.008380 0.820026 0.101368
O O1 0.772590 0.500000 0.404460
O O2 0.681420 0.259580 0.348654
O O3 0.779096 0.258710 0.340162
O O4 0.833889 0.252083 0.496065
O O5 0.374018 0.500000 0.902810
O O6 0.284428 0.741402 0.822653
O O7 0.423376 0.736492 0.886396
O O8 0.421477 0.737864 0.003528
O O9 0.065815 0.230574 0.331536
O O10 0.029301 0.243389 0.185482
O O11 0.095821 0.000000 0.285985
O O12 0.372671 0.766672 0.324454
O O13 0.287336 0.000000 0.282592
O O14 0.973968 0.500000 0.401867
O O15 0.000000 0.278272 0.500000
O O16 0.009996 0.233868 0.392322
O O17 0.091399 0.000000 0.426970
O O18 0.008057 0.000000 0.101855
#
# Coordination Sequence:
#
# PCOD8079318 Si02
#       7
#     8   8   8   8   8   8   8
#     4  10  17  30  49  67  91 123 152 182 221 268
#     4   8  12  19  37  66  92 113 139 181 228 267
#     4   9  17  28  43  64  94 127 150 176 223 277
#     4   9  15  25  44  67  89 112 147 188 227 263
#     4  10  19  33  50  65  83 119 161 193 225 262
#     4  11  22  32  43  65  95 125 155 185 222 268
#     4   8  12  20  37  63  94 118 138 172 227 276
#
# _framework density 16.969760999999998
#
# number of rings (size 3 to 8) (size 9 to 14) (size 15 to 20)
#    0.000    2.714    2.857    1.714    0.000    0.286 
#    0.000    0.714    0.000    0.857    0.000    0.000 
#    0.000    6.857    0.000    0.000    0.000    0.143 
#
# Total GULP energy -346982.791248 kJ/mol
# GULP energy per Si atom -12392.242545 kJ/mol
# Density = 1.693114 g / cm^3
# Si number density = 16.969761 Si / 1000 Ang^3
#
#
#
# Elastic Constant Matrix: (Units=GPa)
#
#
# Indices 1 2 3 4 5 6 
#
# 1 107.8688 17.3145 73.9122 0.0000 -8.3118 0.0000
# 2 17.3145 16.2151 17.1147 0.0000 -2.3321 -0.0001
# 3 73.9122 17.1147 179.7873 0.0000 -3.9685 0.0000
# 4 0.0000 0.0000 0.0000 9.5586 0.0000 -0.3754
# 5 -8.3118 -2.3321 -3.9685 0.0000 26.3458 0.0000
# 6 0.0000 -0.0001 0.0000 -0.3754 0.0000 14.7955
#
#
#
# Elastic Compliance Matrix: (Units=1/GPa)
#
#
# Indices 1 2 3 4 5 6 
#
# 1 0.014460 -0.009794 -0.004947 0.000000 0.002950 0.000000
# 2 -0.009794 0.075884 -0.003128 0.000000 0.003156 0.000000
# 3 -0.004947 -0.003128 0.007879 0.000000 -0.000651 0.000000
# 4 0.000000 0.000000 0.000000 0.104722 0.000000 0.002657
# 5 0.002950 0.003156 -0.000651 0.000000 0.039069 0.000000
# 6 0.000000 0.000000 0.000000 0.002657 0.000000 0.067656
#
#
# Mechanical properties :
#
#
# Convention : Reuss Voigt Hill
#
# Bulk Modulus (GPa) = 16.00372 57.83933 36.92152
# Shear Modulus (GPa) = 13.65242 23.17531 18.41387
#
# Velocity S-wave (km/s) = 2.83947 3.69952 3.29766
# Velocity P-wave (km/s) = 4.49459 7.23923 6.02527
#
# Compressibility (1/GPa) = 0.06248548
#
# Stress axis : x y z
#
# Youngs Moduli (GPa) = 69.15799 13.17795 126.91553
#
# Poissons Ratio (x) = 0.12907 0.62785
# Poissons Ratio (y) = 0.67735 0.39694
# Poissons Ratio (z) = 0.34213 0.04121
#
# Static dielectric constant tensor:
#      x y z
#    x 3.187700 0.000000 -0.004750 
#    y 0.000000 2.637340 0.000000 
#    z -0.004750 0.000000 3.732860 
# 
# 
# High freq. dielectric constant tensor:
#      x y z
#    x 1.636950 0.000000 0.000800 
#    y 0.000000 1.597850 0.000000 
#    z 0.000800 0.000000 1.669100 
# 
# From -- ./inp_files/291682.got.cif
#   From: 2010.06.25/outbox.cif.g09.slc.cpg/sg12_146_cif.got.tgz:291682.got - 2010.06.28 00:19:55.
