data_PCOD8079494
_publ_section_title
;
Structure prediction by ZEFSAII (Michael W. Deem and Ramdas Pophale) SiO2 
 PCOD8079494
Probable space group: C 2/M
;
_chemical_formula_sum "Si O2"
_cell_formula_units_Z 44
_cell_length_a 13.632284
_cell_length_b 18.134620
_cell_length_c 14.549179
_cell_angle_alpha 90.000000
_cell_angle_beta 42.900183
_cell_angle_gamma 90.000000
_cell_volume 2448.421191
_symmetry_space_group_name_H-M "C 2/M"
_symmetry_group_IT_number 12
_symmetry_cell_setting 'monoclinic'
loop_
_space_group_symop_operation_xyz
x,y,z
-x,y,-z
-x,-y,-z
x,-y,z
1/2+x,1/2+y,z
1/2-x,1/2+y,-z
1/2-x,1/2-y,-z
1/2+x,1/2-y,z
loop_
_atom_site_type_symbol
_atom_site_label
_atom_site_fract_x
_atom_site_fract_y
_atom_site_fract_z
Si Si1 0.712356 0.083903 0.022044
Si Si2 0.000000 0.293835 0.500000
Si Si3 0.974053 0.847157 0.915335
Si Si4 0.312647 0.757009 0.293299
Si Si5 0.207017 0.713561 0.896458
Si Si6 0.036091 0.681880 0.274730
O O1 0.619571 0.114064 0.171322
O O2 0.669628 0.000000 0.031151
O O3 0.882927 0.089619 0.927478
O O4 0.684425 0.132043 0.950886
O O5 0.140712 0.243380 0.423460
O O6 0.015785 0.342010 0.395879
O O7 0.121447 0.826868 0.759120
O O8 0.882183 0.770865 0.979716
O O9 0.000000 0.876444 0.000000
O O10 0.351745 0.792257 0.167110
O O11 0.384265 0.803297 0.327125
O O12 0.372579 0.741771 0.787017
#
# Coordination Sequence:
#
# PCOD8079494 Si02
#       6
#     8   4   8   8   8   8
#     4  11  20  32  52  82 112 138 166 207 266 331
#     4  10  22  30  51  86  95 132 190 228 244 296
#     4   9  16  30  54  76 104 135 165 214 270 305
#     4  10  17  31  56  77 106 131 172 219 265 295
#     4   9  17  31  53  81 104 132 166 216 269 313
#     4  10  18  35  52  75 109 138 172 219 262 295
#
# _framework density 17.970763000000002
#
# number of rings (size 3 to 8) (size 9 to 14) (size 15 to 20)
#    0.000    2.182    3.636    2.727    0.000    0.364 
#    0.000    2.273    0.000    1.091    0.000   10.818 
#    0.000    0.000    0.000    0.000    0.000    0.000 
#
# Total GULP energy -272631.026305 kJ/mol
# GULP energy per Si atom -12392.319378 kJ/mol
# Density = 1.792986 g / cm^3
# Si number density = 17.970763 Si / 1000 Ang^3
#
#
#
# Elastic Constant Matrix: (Units=GPa)
#
#
# Indices 1 2 3 4 5 6 
#
# 1 100.3414 18.3788 26.4710 0.0002 -2.9481 -0.0002
# 2 18.3788 81.8650 22.5500 0.0002 6.7571 -0.0002
# 3 26.4710 22.5500 80.9913 -0.0002 1.4296 0.0000
# 4 0.0002 0.0002 -0.0002 11.1439 -0.0002 0.1530
# 5 -2.9481 6.7571 1.4296 -0.0002 35.4938 0.0003
# 6 -0.0002 -0.0002 0.0000 0.1530 0.0003 15.7371
#
#
#
# Elastic Compliance Matrix: (Units=1/GPa)
#
#
# Indices 1 2 3 4 5 6 
#
# 1 0.011167 -0.001743 -0.003189 0.000000 0.001388 0.000000
# 2 -0.001743 0.013705 -0.003200 0.000000 -0.002625 0.000000
# 3 -0.003189 -0.003200 0.014284 0.000000 -0.000231 0.000000
# 4 0.000000 0.000000 0.000000 0.089747 0.000001 -0.000873
# 5 0.001388 -0.002625 -0.000231 0.000001 0.028798 -0.000001
# 6 0.000000 0.000000 0.000000 -0.000873 -0.000001 0.063553
#
#
# Mechanical properties :
#
#
# Convention : Reuss Voigt Hill
#
# Bulk Modulus (GPa) = 43.68261 44.22194 43.95227
# Shear Modulus (GPa) = 20.39579 25.52815 22.96197
#
# Velocity S-wave (km/s) = 3.37255 3.77309 3.57843
# Velocity P-wave (km/s) = 6.28695 6.60627 6.44859
#
# Compressibility (1/GPa) = 0.02289241
#
# Stress axis : x y z
#
# Youngs Moduli (GPa) = 89.54680 72.96831 70.00719
#
# Poissons Ratio (x) = 0.12720 0.22326
# Poissons Ratio (y) = 0.15610 0.22400
# Poissons Ratio (z) = 0.28557 0.23347
#
# Static dielectric constant tensor:
#      x y z
#    x 3.626820 0.000000 -0.014560 
#    y 0.000000 2.698480 0.000000 
#    z -0.014560 0.000000 3.477610 
# 
# 
# High freq. dielectric constant tensor:
#      x y z
#    x 1.726460 0.000000 -0.000590 
#    y 0.000000 1.618250 0.000000 
#    z -0.000590 0.000000 1.688550 
# 
# From -- ./inp_files/215769.got.cif
#   From: 2010.06.25/outbox.cif.g09.slc.cpg/sg12_108_cif.got.tgz:215769.got - 2010.06.28 00:19:55.
