data_PCOD8079702
_publ_section_title
;
Structure prediction by ZEFSAII (Michael W. Deem and Ramdas Pophale) SiO2 
 PCOD8079702
Probable space group: C 2/M
;
_chemical_formula_sum "Si O2"
_cell_formula_units_Z 60
_cell_length_a 9.168795
_cell_length_b 26.690980
_cell_length_c 19.494644
_cell_angle_alpha 90.000000
_cell_angle_beta 40.481418
_cell_angle_gamma 90.000000
_cell_volume 3097.216327
_symmetry_space_group_name_H-M "C 2/M"
_symmetry_group_IT_number 12
_symmetry_cell_setting 'monoclinic'
loop_
_space_group_symop_operation_xyz
x,y,z
-x,y,-z
-x,-y,-z
x,-y,z
1/2+x,1/2+y,z
1/2-x,1/2+y,-z
1/2-x,1/2-y,-z
1/2+x,1/2-y,z
loop_
_atom_site_type_symbol
_atom_site_label
_atom_site_fract_x
_atom_site_fract_y
_atom_site_fract_z
Si Si1 0.161527 0.872032 0.504454
Si Si2 0.406711 0.876259 0.177411
Si Si3 0.667486 0.290066 0.334152
Si Si4 0.521084 0.559225 0.669400
Si Si5 0.000000 0.590066 0.000000
Si Si6 0.491719 0.443977 0.833707
Si Si7 0.519657 0.192201 0.317452
Si Si8 0.181226 0.130296 0.879151
O O1 0.185049 0.914254 0.555347
O O2 0.415609 0.858141 0.390042
O O3 0.000000 0.891508 0.500000
O O4 0.058934 0.820791 0.571182
O O5 0.311484 0.820670 0.226171
O O6 0.487684 0.873923 0.070235
O O7 0.607353 0.892503 0.156029
O O8 0.226427 0.919488 0.256426
O O9 0.608980 0.233548 0.336976
O O10 0.816093 0.283574 0.348429
O O11 0.523630 0.500000 0.655979
O O12 0.589743 0.572294 0.723742
O O13 0.220860 0.555885 0.926345
O O14 0.570221 0.500000 0.822783
O O15 0.579227 0.409731 0.863397
O O16 0.734159 0.177833 0.194439
O O17 0.000000 0.148303 0.000000
#
# Coordination Sequence:
#
# PCOD8079702 Si02
#       8
#     8   8   8   8   4   8   8   8
#     4   9  18  36  60  86 116 147 187 238 283 341
#     4   9  19  35  55  82 114 148 188 234 279 333
#     4   9  19  36  56  84 112 143 188 235 282 342
#     4   9  19  36  59  88 117 147 188 236 285 340
#     4  10  17  34  56  80 110 144 188 234 277 320
#     4  10  21  36  57  82 112 149 192 234 279 337
#     4  10  21  37  59  83 113 148 191 236 285 342
#     4  11  22  40  54  80 120 153 191 238 284 334
#
# _framework density 19.372235
#
# number of rings (size 3 to 8) (size 9 to 14) (size 15 to 20)
#    0.000    2.400    1.333    1.400    0.000    4.800 
#    1.200    4.000    0.000    1.600    0.000    0.000 
#    0.000    0.000    0.000    0.000    0.000    0.000 
#
# Total GULP energy -371856.327177 kJ/mol
# GULP energy per Si atom -12395.210906 kJ/mol
# Density = 1.932814 g / cm^3
# Si number density = 19.372235 Si / 1000 Ang^3
#
#
#
# Elastic Constant Matrix: (Units=GPa)
#
#
# Indices 1 2 3 4 5 6 
#
# 1 84.1149 37.1437 35.0379 0.0000 9.8947 0.0000
# 2 37.1437 68.1237 41.8837 0.0000 6.5153 0.0000
# 3 35.0379 41.8837 106.0837 0.0002 18.8674 0.0000
# 4 0.0000 0.0000 0.0002 16.7683 0.0000 6.6029
# 5 9.8947 6.5153 18.8674 0.0000 30.8595 0.0000
# 6 0.0000 0.0000 0.0000 6.6029 0.0000 26.7531
#
#
#
# Elastic Compliance Matrix: (Units=1/GPa)
#
#
# Indices 1 2 3 4 5 6 
#
# 1 0.016286 -0.007403 -0.002026 0.000000 -0.002420 0.000000
# 2 -0.007403 0.022761 -0.006854 0.000000 0.001759 0.000000
# 3 -0.002026 -0.006854 0.013945 0.000000 -0.006429 0.000000
# 4 0.000000 0.000000 0.000000 0.066056 0.000000 -0.016303
# 5 -0.002420 0.001759 -0.006429 0.000000 0.036741 0.000000
# 6 0.000000 0.000000 0.000000 -0.016303 0.000000 0.041403
#
#
# Mechanical properties :
#
#
# Convention : Reuss Voigt Hill
#
# Bulk Modulus (GPa) = 48.95519 54.05034 51.50276
# Shear Modulus (GPa) = 21.13567 24.49333 22.81450
#
# Velocity S-wave (km/s) = 3.30666 3.55963 3.43547
# Velocity P-wave (km/s) = 6.31698 6.69747 6.51001
#
# Compressibility (1/GPa) = 0.02042684
#
# Stress axis : x y z
#
# Youngs Moduli (GPa) = 61.40239 43.93390 71.70856
#
# Poissons Ratio (x) = 0.32523 0.14527
# Poissons Ratio (y) = 0.45455 0.49152
# Poissons Ratio (z) = 0.12439 0.30114
#
# Static dielectric constant tensor:
#      x y z
#    x 3.553170 0.000000 0.208920 
#    y 0.000000 3.194700 0.000000 
#    z 0.208920 0.000000 3.840880 
# 
# 
# High freq. dielectric constant tensor:
#      x y z
#    x 1.754870 0.000000 0.013050 
#    y 0.000000 1.727880 0.000000 
#    z 0.013050 0.000000 1.762780 
# 
# From -- ./inp_files/302743.got.cif
#   From: 2010.06.25/outbox.cif.g09.slc.cpg/sg12_152_cif.got.tgz:302743.got - 2010.06.28 00:19:55.
