data_PCOD8079253
_publ_section_title
;
Structure prediction by ZEFSAII (Michael W. Deem and Ramdas Pophale) SiO2 
 PCOD8079253
Probable space group: C 2/M
;
_chemical_formula_sum "Si O2"
_cell_formula_units_Z 64
_cell_length_a 17.465524
_cell_length_b 14.308425
_cell_length_c 14.395337
_cell_angle_alpha 90.000000
_cell_angle_beta 83.524652
_cell_angle_gamma 90.000000
_cell_volume 3574.504250
_symmetry_space_group_name_H-M "C 2/M"
_symmetry_group_IT_number 12
_symmetry_cell_setting 'monoclinic'
loop_
_space_group_symop_operation_xyz
x,y,z
-x,y,-z
-x,-y,-z
x,-y,z
1/2+x,1/2+y,z
1/2-x,1/2+y,-z
1/2-x,1/2-y,-z
1/2+x,1/2-y,z
loop_
_atom_site_type_symbol
_atom_site_label
_atom_site_fract_x
_atom_site_fract_y
_atom_site_fract_z
Si Si1 0.392790 0.106461 0.262888
Si Si2 0.456954 0.211398 0.776809
Si Si3 0.920238 0.388786 0.961469
Si Si4 0.371456 0.394356 0.801306
Si Si5 0.649778 0.604184 0.409056
Si Si6 0.073735 0.288189 0.430881
Si Si7 0.686888 0.893165 0.535074
Si Si8 0.712325 0.107847 0.889074
O O1 0.453977 0.184816 0.224646
O O2 0.370687 0.122243 0.371697
O O3 0.318669 0.124326 0.210303
O O4 0.424546 0.000000 0.242327
O O5 0.410699 0.151413 0.859130
O O6 0.442783 0.322001 0.798579
O O7 0.431798 0.183456 0.676213
O O8 0.918837 0.500000 0.957466
O O9 0.846706 0.346935 0.028408
O O10 0.000000 0.355677 0.000000
O O11 0.399089 0.500000 0.824236
O O12 0.336025 0.396002 0.702961
O O13 0.301486 0.357337 0.877624
O O14 0.626065 0.500000 0.445742
O O15 0.581674 0.676248 0.443410
O O16 0.727209 0.638722 0.450112
O O17 0.152838 0.335087 0.454343
O O18 0.000000 0.322957 0.500000
O O19 0.688398 0.000000 0.503978
O O20 0.715459 0.000000 0.913040
#
# Coordination Sequence:
#
# PCOD8079253 Si02
#       8
#     8   8   8   8   8   8   8   8
#     4  10  17  29  52  77 100 126 162 205 245 293
#     4  11  21  32  48  75 106 131 159 203 254 294
#     4  10  19  31  51  78 104 127 157 201 250 299
#     4   9  18  33  52  74  99 130 168 206 242 282
#     4   9  18  34  54  71  93 132 175 210 238 275
#     4  11  22  33  46  74 106 131 164 203 250 296
#     4  10  19  32  51  73  99 134 169 198 239 299
#     4   9  16  30  53  77  98 124 163 206 242 285
#
# _framework density 17.904581
#
# number of rings (size 3 to 8) (size 9 to 14) (size 15 to 20)
#    0.000    2.125    3.750    0.750    0.000    2.000 
#    0.000    0.000    0.000    0.375    0.000    1.750 
#    0.000    0.000    0.000    0.000    0.000    0.000 
#
# Total GULP energy -396518.767666 kJ/mol
# GULP energy per Si atom -12391.211490 kJ/mol
# Density = 1.786383 g / cm^3
# Si number density = 17.904581 Si / 1000 Ang^3
#
#
#
# Elastic Constant Matrix: (Units=GPa)
#
#
# Indices 1 2 3 4 5 6 
#
# 1 54.3216 29.2300 15.7936 0.0000 -5.5142 0.0000
# 2 29.2300 50.0556 25.9502 0.0000 -1.1255 0.0000
# 3 15.7936 25.9502 75.7264 0.0000 -2.6625 0.0000
# 4 0.0000 0.0000 0.0000 21.9358 0.0000 -0.1669
# 5 -5.5142 -1.1255 -2.6625 0.0000 14.7008 0.0000
# 6 0.0000 0.0000 0.0000 -0.1669 0.0000 25.7848
#
#
#
# Elastic Compliance Matrix: (Units=1/GPa)
#
#
# Indices 1 2 3 4 5 6 
#
# 1 0.028054 -0.016185 0.000022 0.000000 0.009288 0.000000
# 2 -0.016185 0.033633 -0.008326 0.000000 -0.005004 0.000000
# 3 0.000022 -0.008326 0.016135 0.000000 0.002293 0.000000
# 4 0.000000 0.000000 0.000000 0.045590 0.000000 0.000295
# 5 0.009288 -0.005004 0.002293 0.000000 0.071539 0.000000
# 6 0.000000 0.000000 0.000000 0.000295 0.000000 0.038784
#
#
# Mechanical properties :
#
#
# Convention : Reuss Voigt Hill
#
# Bulk Modulus (GPa) = 34.66925 35.78349 35.22637
# Shear Modulus (GPa) = 17.10412 19.75962 18.43187
#
# Velocity S-wave (km/s) = 3.09413 3.32566 3.21199
# Velocity P-wave (km/s) = 5.67188 5.89710 5.78559
#
# Compressibility (1/GPa) = 0.02884401
#
# Stress axis : x y z
#
# Youngs Moduli (GPa) = 35.64525 29.73299 61.97848
#
# Poissons Ratio (x) = 0.48122 -0.00135
# Poissons Ratio (y) = 0.57691 0.51602
# Poissons Ratio (z) = -0.00078 0.24755
#
# Static dielectric constant tensor:
#      x y z
#    x 3.257510 0.000000 -0.179810 
#    y 0.000000 3.228050 0.000000 
#    z -0.179810 0.000000 3.363210 
# 
# 
# High freq. dielectric constant tensor:
#      x y z
#    x 1.681320 0.000000 -0.009940 
#    y 0.000000 1.673340 0.000000 
#    z -0.009940 0.000000 1.684800 
# 
# From -- ./inp_files/224792.got.cif
#   From: 2010.06.25/outbox.cif.g09.slc.cpg/sg12_113_cif.got.tgz:224792.got - 2010.06.28 00:19:55.
