data_PCOD8080681
_publ_section_title
;
Structure prediction by ZEFSAII (Michael W. Deem and Ramdas Pophale) SiO2 
 PCOD8080681
Probable space group: C 2/M
;
_chemical_formula_sum "Si O2"
_cell_formula_units_Z 64
_cell_length_a 19.109177
_cell_length_b 14.302442
_cell_length_c 28.653656
_cell_angle_alpha 90.000000
_cell_angle_beta 28.946349
_cell_angle_gamma 90.000000
_cell_volume 3790.259907
_symmetry_space_group_name_H-M "C 2/M"
_symmetry_group_IT_number 12
_symmetry_cell_setting 'monoclinic'
loop_
_space_group_symop_operation_xyz
x,y,z
-x,y,-z
-x,-y,-z
x,-y,z
1/2+x,1/2+y,z
1/2-x,1/2+y,-z
1/2-x,1/2-y,-z
1/2+x,1/2-y,z
loop_
_atom_site_type_symbol
_atom_site_label
_atom_site_fract_x
_atom_site_fract_y
_atom_site_fract_z
Si Si1 0.844209 0.284089 0.089574
Si Si2 0.284308 0.391374 0.919219
Si Si3 0.778200 0.394261 0.604759
Si Si4 0.870256 0.604337 0.900361
Si Si5 0.051581 0.225089 0.781323
Si Si6 0.411847 0.605374 0.993205
Si Si7 0.939974 0.396667 0.607843
Si Si8 0.308185 0.703787 0.204406
O O1 0.738795 0.339877 0.116761
O O2 0.787722 0.281935 0.175930
O O3 0.866469 0.176314 0.060610
O O4 0.000000 0.335450 0.000000
O O5 0.310071 0.500000 0.894569
O O6 0.425315 0.350446 0.862494
O O7 0.146407 0.374877 0.034098
O O8 0.723527 0.500000 0.623549
O O9 0.650919 0.316545 0.681382
O O10 0.846558 0.400827 0.615702
O O11 0.898736 0.357638 0.497486
O O12 0.930445 0.500000 0.856543
O O13 0.978830 0.675262 0.810922
O O14 0.707485 0.615017 0.977227
O O15 0.142900 0.246553 0.774707
O O16 0.413537 0.500000 0.012426
O O17 0.569861 0.628095 0.880334
O O18 0.958652 0.500000 0.617506
O O19 0.853275 0.337863 0.696811
#
# Coordination Sequence:
#
# PCOD8080681 Si02
#       8
#     8   8   8   8   8   8   8   8
#     4  10  21  33  43  67 100 136 164 192 236 290
#     4  11  21  33  50  69  95 131 170 205 238 281
#     4   8  15  26  44  73 101 122 152 199 251 293
#     4  10  19  30  47  70  95 125 162 204 241 277
#     4  11  18  31  51  72  93 125 162 205 244 283
#     4  10  18  29  44  67  98 128 159 193 235 287
#     4   8  14  26  43  69 102 126 151 196 249 297
#     4  10  19  28  48  70  99 130 162 195 239 293
#
# _framework density 16.885386
#
# number of rings (size 3 to 8) (size 9 to 14) (size 15 to 20)
#    0.000    2.250    2.500    3.375    0.000    4.000 
#    0.000    0.625    0.000    0.750    0.000    7.875 
#    0.000    0.000    0.000    0.000    0.000    0.000 
#
# Total GULP energy -396451.073440 kJ/mol
# GULP energy per Si atom -12389.096045 kJ/mol
# Density = 1.684695 g / cm^3
# Si number density = 16.885386 Si / 1000 Ang^3
#
#
#
# Elastic Constant Matrix: (Units=GPa)
#
#
# Indices 1 2 3 4 5 6 
#
# 1 54.9669 20.9273 18.5434 -0.0007 2.9485 0.0000
# 2 20.9273 90.8736 54.1061 -0.0008 -3.5884 0.0001
# 3 18.5434 54.1061 116.5010 -0.0071 5.5291 0.0002
# 4 -0.0007 -0.0008 -0.0071 21.1828 0.0006 -4.5741
# 5 2.9485 -3.5884 5.5291 0.0006 13.8127 0.0001
# 6 0.0000 0.0001 0.0002 -4.5741 0.0001 12.6753
#
#
#
# Elastic Compliance Matrix: (Units=1/GPa)
#
#
# Indices 1 2 3 4 5 6 
#
# 1 0.020446 -0.004305 -0.001014 0.000000 -0.005077 0.000000
# 2 -0.004305 0.016793 -0.007507 -0.000002 0.008286 -0.000001
# 3 -0.001014 -0.007507 0.012552 0.000004 -0.006758 0.000002
# 4 0.000000 -0.000002 0.000004 0.051198 -0.000005 0.018476
# 5 -0.005077 0.008286 -0.006758 -0.000005 0.078339 -0.000002
# 6 0.000000 -0.000001 0.000002 0.018476 -0.000002 0.085561
#
#
# Mechanical properties :
#
#
# Convention : Reuss Voigt Hill
#
# Bulk Modulus (GPa) = 41.42736 49.94390 45.68563
# Shear Modulus (GPa) = 16.74556 20.78515 18.76536
#
# Velocity S-wave (km/s) = 3.15257 3.51230 3.33729
# Velocity P-wave (km/s) = 6.15137 6.78902 6.47804
#
# Compressibility (1/GPa) = 0.02413864
#
# Stress axis : x y z
#
# Youngs Moduli (GPa) = 48.90850 59.54996 79.66748
#
# Poissons Ratio (x) = 0.25638 0.08078
# Poissons Ratio (y) = 0.21057 0.59806
# Poissons Ratio (z) = 0.04959 0.44704
#
# Static dielectric constant tensor:
#      x y z
#    x 3.049440 0.000000 -0.013520 
#    y 0.000000 3.061520 0.000000 
#    z -0.013520 0.000000 3.231660 
# 
# 
# High freq. dielectric constant tensor:
#      x y z
#    x 1.630300 0.000000 -0.002300 
#    y 0.000000 1.631600 0.000000 
#    z -0.002300 0.000000 1.631500 
# 
# From -- ./inp_files/379337.got.cif
#   From: 2010.06.25/outbox.cif.g09.slc.cpg/sg12_190_cif.got.tgz:379337.got - 2010.06.28 00:19:55.
