data_PCOD8080891
_publ_section_title
;
Structure prediction by ZEFSAII (Michael W. Deem and Ramdas Pophale) SiO2 
 PCOD8080891
Probable space group: C 2/M
;
_chemical_formula_sum "Si O2"
_cell_formula_units_Z 64
_cell_length_a 20.183326
_cell_length_b 9.204381
_cell_length_c 21.676731
_cell_angle_alpha 90.000000
_cell_angle_beta 117.854229
_cell_angle_gamma 90.000000
_cell_volume 3560.424125
_symmetry_space_group_name_H-M "C 2/M"
_symmetry_group_IT_number 12
_symmetry_cell_setting 'monoclinic'
loop_
_space_group_symop_operation_xyz
x,y,z
-x,y,-z
-x,-y,-z
x,-y,z
1/2+x,1/2+y,z
1/2-x,1/2+y,-z
1/2-x,1/2-y,-z
1/2+x,1/2-y,z
loop_
_atom_site_type_symbol
_atom_site_label
_atom_site_fract_x
_atom_site_fract_y
_atom_site_fract_z
Si Si1 0.726911 0.668386 0.928279
Si Si2 0.520578 0.830331 0.075916
Si Si3 0.862391 0.336125 0.566280
Si Si4 0.224830 0.170078 0.294755
Si Si5 0.306844 0.829885 0.839125
Si Si6 0.205192 0.164532 0.567352
Si Si7 0.928006 0.168162 0.702047
Si Si8 0.444594 0.332230 0.150792
O O1 0.740372 0.500000 0.947623
O O2 0.777852 0.721030 0.893431
O O3 0.641566 0.699890 0.871377
O O4 0.750000 0.750000 0.000000
O O5 0.605919 0.793116 0.128067
O O6 0.465433 0.756108 0.099575
O O7 0.504091 0.000000 0.071899
O O8 0.500000 0.768408 0.000000
O O9 0.888167 0.500000 0.562483
O O10 0.857908 0.244762 0.501034
O O11 0.782423 0.336227 0.564125
O O12 0.922862 0.262388 0.637717
O O13 0.235150 0.238251 0.231611
O O14 0.285238 0.247278 0.365138
O O15 0.140968 0.201277 0.282258
O O16 0.242795 0.000000 0.300444
O O17 0.290418 0.000000 0.821558
O O18 0.179144 0.000000 0.570150
O O19 0.004576 0.215655 0.769078
O O20 0.927982 0.000000 0.682598
O O21 0.459938 0.500000 0.142868
#
# Coordination Sequence:
#
# PCOD8080891 Si02
#       8
#     8   8   8   8   8   8   8   8
#     4  10  22  39  57  75 100 133 171 214 258 308
#     4  10  20  33  51  74 100 129 163 205 254 308
#     4   9  16  25  40  65  97 133 170 203 243 294
#     4  10  18  29  47  71 100 132 168 210 252 297
#     4  10  20  34  51  73 101 133 168 207 256 308
#     4   9  16  26  41  64  98 136 169 203 247 295
#     4   9  17  29  45  68  99 130 164 206 252 297
#     4  10  20  35  53  75 100 131 169 211 256 302
#
# _framework density 17.975387000000001
#
# number of rings (size 3 to 8) (size 9 to 14) (size 15 to 20)
#    0.000    2.375    1.250    1.875    0.000    6.250 
#    0.000    0.000    0.000    0.000    0.000    0.875 
#    0.000    7.000    0.000    0.000    0.000    0.000 
#
# Total GULP energy -396851.950787 kJ/mol
# GULP energy per Si atom -12401.623462 kJ/mol
# Density = 1.793447 g / cm^3
# Si number density = 17.975387 Si / 1000 Ang^3
#
#
#
# Elastic Constant Matrix: (Units=GPa)
#
#
# Indices 1 2 3 4 5 6 
#
# 1 25.1351 18.8311 6.2677 0.0000 -3.6280 0.0000
# 2 18.8311 90.9659 66.7313 0.0000 -6.0890 0.0000
# 3 6.2677 66.7313 137.6863 0.0000 -3.7421 0.0000
# 4 0.0000 0.0000 0.0000 37.8334 0.0000 -3.3138
# 5 -3.6280 -6.0890 -3.7421 0.0000 20.4756 0.0000
# 6 0.0000 0.0000 0.0000 -3.3138 0.0000 17.4864
#
#
#
# Elastic Compliance Matrix: (Units=1/GPa)
#
#
# Indices 1 2 3 4 5 6 
#
# 1 0.049189 -0.012839 0.004137 0.000000 0.005654 0.000000
# 2 -0.012839 0.020674 -0.009377 0.000000 0.002159 0.000000
# 3 0.004137 -0.009377 0.011621 0.000000 0.000068 0.000000
# 4 0.000000 0.000000 0.000000 0.026878 0.000000 0.005093
# 5 0.005654 0.002159 0.000068 0.000000 0.050495 0.000000
# 6 0.000000 0.000000 0.000000 0.005093 0.000000 0.058152
#
#
# Mechanical properties :
#
#
# Convention : Reuss Voigt Hill
#
# Bulk Modulus (GPa) = 22.06234 48.60527 35.33381
# Shear Modulus (GPa) = 18.63753 25.95623 22.29688
#
# Velocity S-wave (km/s) = 3.22349 3.80411 3.52577
# Velocity P-wave (km/s) = 5.11417 6.81128 6.02280
#
# Compressibility (1/GPa) = 0.04532610
#
# Stress axis : x y z
#
# Youngs Moduli (GPa) = 20.32992 48.36917 86.05077
#
# Poissons Ratio (x) = 0.62102 -0.35601
# Poissons Ratio (y) = 0.26102 0.80689
# Poissons Ratio (z) = -0.08411 0.45355
#
# Static dielectric constant tensor:
#      x y z
#    x 2.955530 0.000000 0.041890 
#    y 0.000000 3.357560 0.000000 
#    z 0.041890 0.000000 3.483810 
# 
# 
# High freq. dielectric constant tensor:
#      x y z
#    x 1.646030 0.000000 0.001730 
#    y 0.000000 1.698970 0.000000 
#    z 0.001730 0.000000 1.712350 
# 
# From -- ./inp_files/320112.got.cif
#   From: 2010.06.25/outbox.cif.g09.slc.cpg/sg12_161_cif.got.tgz:320112.got - 2010.06.28 00:19:55.
