data_PCOD8080798
_publ_section_title
;
Structure prediction by ZEFSAII (Michael W. Deem and Ramdas Pophale) SiO2 
 PCOD8080798
Probable space group: C 2/M
;
_chemical_formula_sum "Si O2"
_cell_formula_units_Z 64
_cell_length_a 24.913619
_cell_length_b 8.961610
_cell_length_c 19.151488
_cell_angle_alpha 90.000000
_cell_angle_beta 64.262064
_cell_angle_gamma 90.000000
_cell_volume 3851.667511
_symmetry_space_group_name_H-M "C 2/M"
_symmetry_group_IT_number 12
_symmetry_cell_setting 'monoclinic'
loop_
_space_group_symop_operation_xyz
x,y,z
-x,y,-z
-x,-y,-z
x,-y,z
1/2+x,1/2+y,z
1/2-x,1/2+y,-z
1/2-x,1/2-y,-z
1/2+x,1/2-y,z
loop_
_atom_site_type_symbol
_atom_site_label
_atom_site_fract_x
_atom_site_fract_y
_atom_site_fract_z
Si Si1 0.384674 0.827736 0.596123
Si Si2 0.746528 0.672965 0.165126
Si Si3 0.806648 0.671979 0.998347
Si Si4 0.075120 0.672984 0.581226
Si Si5 0.738126 0.328745 0.325955
Si Si6 0.301361 0.172507 0.427953
Si Si7 0.631109 0.175620 0.168322
Si Si8 0.953747 0.176320 0.682102
O O1 0.419934 0.803720 0.504428
O O2 0.316977 0.776508 0.623961
O O3 0.416002 0.732176 0.637769
O O4 0.385620 0.000000 0.618274
O O5 0.727217 0.500000 0.167857
O O6 0.764358 0.709204 0.234632
O O7 0.690547 0.774274 0.175748
O O8 0.805333 0.706136 0.082763
O O9 0.796556 0.500000 0.989803
O O10 0.863606 0.718289 0.918227
O O11 0.750000 0.750000 0.000000
O O12 0.063502 0.500000 0.605586
O O13 0.134068 0.734866 0.586786
O O14 0.021305 0.770301 0.640262
O O15 0.716135 0.500000 0.342381
O O16 0.790976 0.299771 0.351395
O O17 0.250000 0.250000 0.500000
O O18 0.298901 0.000000 0.449866
O O19 0.574192 0.261409 0.230466
O O20 0.622160 0.000000 0.185233
O O21 0.951476 0.000000 0.684460
#
# Coordination Sequence:
#
# PCOD8080798 Si02
#       8
#     8   8   8   8   8   8   8   8
#     4  11  21  34  52  72  98 130 163 199 241 293
#     4   9  16  28  45  70 101 129 158 195 238 286
#     4   8  15  26  42  65  95 128 159 190 231 286
#     4  10  22  38  52  69  95 130 168 206 244 285
#     4  10  19  30  50  76 102 130 161 198 242 286
#     4  10  20  35  53  73  97 128 165 204 245 286
#     4  10  18  29  46  68  96 131 163 194 237 291
#     4  12  24  35  49  71  98 129 165 207 247 291
#
# _framework density 16.61618
#
# number of rings (size 3 to 8) (size 9 to 14) (size 15 to 20)
#    0.000    2.000    2.500    2.250    0.000    3.500 
#    0.000    0.000    0.000    0.000    0.000    0.875 
#    0.000    7.000    0.000    0.000    0.000    0.000 
#
# Total GULP energy -396590.551584 kJ/mol
# GULP energy per Si atom -12393.454737 kJ/mol
# Density = 1.657836 g / cm^3
# Si number density = 16.616180 Si / 1000 Ang^3
#
#
#
# Elastic Constant Matrix: (Units=GPa)
#
#
# Indices 1 2 3 4 5 6 
#
# 1 64.6670 30.3950 40.8724 0.0000 -8.3724 0.0003
# 2 30.3950 77.4341 53.4994 0.0001 -8.5477 0.0005
# 3 40.8724 53.4994 141.3389 0.0000 -4.9922 0.0001
# 4 0.0000 0.0001 0.0000 22.1299 0.0000 -4.1376
# 5 -8.3724 -8.5477 -4.9922 0.0000 18.9912 0.0000
# 6 0.0003 0.0005 0.0001 -4.1376 0.0000 20.6928
#
#
#
# Elastic Compliance Matrix: (Units=1/GPa)
#
#
# Indices 1 2 3 4 5 6 
#
# 1 0.021071 -0.004793 -0.004065 0.000000 0.006063 0.000000
# 2 -0.004793 0.019329 -0.005751 0.000000 0.005075 0.000000
# 3 -0.004065 -0.005751 0.010369 0.000000 -0.001655 0.000000
# 4 0.000000 0.000000 0.000000 0.046943 0.000000 0.009386
# 5 0.006063 0.005075 -0.001655 0.000000 0.057178 0.000000
# 6 0.000000 0.000000 0.000000 0.009386 0.000000 0.050203
#
#
# Mechanical properties :
#
#
# Convention : Reuss Voigt Hill
#
# Bulk Modulus (GPa) = 46.40149 59.21929 52.81039
# Shear Modulus (GPa) = 20.70435 22.94100 21.82267
#
# Velocity S-wave (km/s) = 3.53375 3.71973 3.62793
# Velocity P-wave (km/s) = 6.68102 7.35972 7.02856
#
# Compressibility (1/GPa) = 0.02155103
#
# Stress axis : x y z
#
# Youngs Moduli (GPa) = 47.45875 51.73469 96.44015
#
# Poissons Ratio (x) = 0.24798 0.39201
# Poissons Ratio (y) = 0.22748 0.55464
# Poissons Ratio (z) = 0.19291 0.29753
#
# Static dielectric constant tensor:
#      x y z
#    x 2.966280 0.000000 0.136110 
#    y 0.000000 3.202530 0.000000 
#    z 0.136110 0.000000 3.763130 
# 
# 
# High freq. dielectric constant tensor:
#      x y z
#    x 1.596060 0.000000 0.006070 
#    y 0.000000 1.645680 0.000000 
#    z 0.006070 0.000000 1.656050 
# 
# From -- ./inp_files/323694.got.cif
#   From: 2010.06.25/outbox.cif.g09.slc.cpg/sg12_162_cif.got.tgz:323694.got - 2010.06.28 00:19:55.
