data_PCOD8080872
_publ_section_title
;
Structure prediction by ZEFSAII (Michael W. Deem and Ramdas Pophale) SiO2 
 PCOD8080872
Probable space group: C 2/M
;
_chemical_formula_sum "Si O2"
_cell_formula_units_Z 64
_cell_length_a 28.009232
_cell_length_b 8.823957
_cell_length_c 14.573153
_cell_angle_alpha 90.000000
_cell_angle_beta 90.922773
_cell_angle_gamma 90.000000
_cell_volume 3601.320567
_symmetry_space_group_name_H-M "C 2/M"
_symmetry_group_IT_number 12
_symmetry_cell_setting 'monoclinic'
loop_
_space_group_symop_operation_xyz
x,y,z
-x,y,-z
-x,-y,-z
x,-y,z
1/2+x,1/2+y,z
1/2-x,1/2+y,-z
1/2-x,1/2-y,-z
1/2+x,1/2-y,z
loop_
_atom_site_type_symbol
_atom_site_label
_atom_site_fract_x
_atom_site_fract_y
_atom_site_fract_z
Si Si1 0.995947 0.323585 0.100220
Si Si2 0.163720 0.328420 0.658533
Si Si3 0.935454 0.678023 0.738381
Si Si4 0.255089 0.177568 0.599965
Si Si5 0.993452 0.173860 0.387084
Si Si6 0.097397 0.830757 0.518698
Si Si7 0.349292 0.670104 0.668803
Si Si8 0.074665 0.674015 0.754906
O O1 0.006472 0.500000 0.088416
O O2 0.943332 0.293114 0.141837
O O3 0.034753 0.259132 0.173568
O O4 0.000000 0.244355 0.000000
O O5 0.182301 0.500000 0.647434
O O6 0.209016 0.217943 0.659937
O O7 0.127223 0.294051 0.574600
O O8 0.132433 0.307974 0.750861
O O9 0.928806 0.500000 0.739798
O O10 0.882909 0.752561 0.746185
O O11 0.962752 0.719939 0.643670
O O12 0.250000 0.250000 0.500000
O O13 0.301360 0.235318 0.654195
O O14 0.258444 0.000000 0.586405
O O15 0.961650 0.200415 0.483257
O O16 0.949370 0.208759 0.316234
O O17 0.010230 0.000000 0.377982
O O18 0.117362 0.827526 0.418329
O O19 0.104968 0.000000 0.560842
O O20 0.335108 0.500000 0.696976
O O21 0.059992 0.500000 0.728054
#
# Coordination Sequence:
#
# PCOD8080872 Si02
#       8
#     8   8   8   8   8   8   8   8
#     4   8  14  28  52  78 102 128 158 193 234 288
#     4  10  18  29  47  69  96 128 162 206 249 284
#     4  10  20  33  47  68  97 127 160 199 242 291
#     4  12  23  35  50  70  94 126 169 212 249 284
#     4   9  16  28  45  64  89 124 162 198 236 278
#     4   9  18  30  45  64  88 123 166 205 239 280
#     4  11  22  35  49  66  92 127 166 206 247 287
#     4   8  15  27  45  72 100 125 158 197 239 287
#
# _framework density 17.771258
#
# number of rings (size 3 to 8) (size 9 to 14) (size 15 to 20)
#    0.000    2.375    1.250    3.375    0.000    2.000 
#    0.000    2.500    0.000    9.375    0.000    0.875 
#    0.000    0.000    0.000    0.000    0.000    0.000 
#
# Total GULP energy -396530.087057 kJ/mol
# GULP energy per Si atom -12391.565221 kJ/mol
# Density = 1.773081 g / cm^3
# Si number density = 17.771258 Si / 1000 Ang^3
#
#
#
# Elastic Constant Matrix: (Units=GPa)
#
#
# Indices 1 2 3 4 5 6 
#
# 1 134.5156 43.9459 32.4883 0.0000 6.1378 0.0000
# 2 43.9459 90.4682 24.8654 0.0000 1.6330 0.0000
# 3 32.4883 24.8654 55.2795 0.0000 -2.2838 0.0000
# 4 0.0000 0.0000 0.0000 10.5012 0.0000 2.3440
# 5 6.1378 1.6330 -2.2838 0.0000 16.7510 0.0000
# 6 0.0000 0.0000 0.0000 2.3440 0.0000 31.5583
#
#
#
# Elastic Compliance Matrix: (Units=1/GPa)
#
#
# Indices 1 2 3 4 5 6 
#
# 1 0.009802 -0.003497 -0.004346 0.000000 -0.003843 0.000000
# 2 -0.003497 0.013929 -0.004237 0.000000 -0.000654 0.000000
# 3 -0.004346 -0.004237 0.022761 0.000000 0.005109 0.000000
# 4 0.000000 0.000000 0.000000 0.096832 0.000000 -0.007192
# 5 -0.003843 -0.000654 0.005109 0.000000 0.061866 0.000000
# 6 0.000000 0.000000 0.000000 -0.007192 0.000000 0.032222
#
#
# Mechanical properties :
#
#
# Convention : Reuss Voigt Hill
#
# Bulk Modulus (GPa) = 44.78154 53.65141 49.21647
# Shear Modulus (GPa) = 18.58622 23.69301 21.13962
#
# Velocity S-wave (km/s) = 3.23748 3.65529 3.45271
# Velocity P-wave (km/s) = 6.26328 6.93328 6.60678
#
# Compressibility (1/GPa) = 0.02233063
#
# Stress axis : x y z
#
# Youngs Moduli (GPa) = 102.02298 71.79349 43.93467
#
# Poissons Ratio (x) = 0.25109 0.19095
# Poissons Ratio (y) = 0.35681 0.18615
# Poissons Ratio (z) = 0.44341 0.30419
#
# Static dielectric constant tensor:
#      x y z
#    x 3.626090 0.000000 -0.093940 
#    y 0.000000 3.335490 0.000000 
#    z -0.093940 0.000000 3.235350 
# 
# 
# High freq. dielectric constant tensor:
#      x y z
#    x 1.700640 0.000000 -0.005200 
#    y 0.000000 1.685360 0.000000 
#    z -0.005200 0.000000 1.636410 
# 
# From -- ./inp_files/244119.got.cif
#   From: 2010.06.25/outbox.cif.g09.slc.cpg/sg12_123_cif.got.tgz:244119.got - 2010.06.28 00:19:55.
