data_PCOD8080794
_publ_section_title
;
Structure prediction by ZEFSAII (Michael W. Deem and Ramdas Pophale) SiO2 
 PCOD8080794
Probable space group: C 2/M
;
_chemical_formula_sum "Si O2"
_cell_formula_units_Z 64
_cell_length_a 25.707305
_cell_length_b 13.425073
_cell_length_c 11.232377
_cell_angle_alpha 90.000000
_cell_angle_beta 111.356755
_cell_angle_gamma 90.000000
_cell_volume 3610.346727
_symmetry_space_group_name_H-M "C 2/M"
_symmetry_group_IT_number 12
_symmetry_cell_setting 'monoclinic'
loop_
_space_group_symop_operation_xyz
x,y,z
-x,y,-z
-x,-y,-z
x,-y,z
1/2+x,1/2+y,z
1/2-x,1/2+y,-z
1/2-x,1/2-y,-z
1/2+x,1/2-y,z
loop_
_atom_site_type_symbol
_atom_site_label
_atom_site_fract_x
_atom_site_fract_y
_atom_site_fract_z
Si Si1 0.447133 0.112331 0.372511
Si Si2 0.768485 0.885672 0.291853
Si Si3 0.486066 0.111415 0.150949
Si Si4 0.278200 0.116408 0.130626
Si Si5 0.590290 0.161551 0.115363
Si Si6 0.187187 0.268364 0.055644
Si Si7 0.173176 0.391924 0.385839
Si Si8 0.342181 0.208541 0.386762
O O1 0.500000 0.110217 0.500000
O O2 0.463851 0.152999 0.256853
O O3 0.403994 0.190185 0.390846
O O4 0.421654 0.000000 0.341555
O O5 0.730701 0.842504 0.155313
O O6 0.735419 0.873975 0.388731
O O7 0.825808 0.823498 0.351028
O O8 0.783495 0.000000 0.276275
O O9 0.534530 0.189229 0.145982
O O10 0.512074 0.000000 0.189614
O O11 0.435026 0.098326 0.015338
O O12 0.215111 0.159622 0.063945
O O13 0.298830 0.135391 0.282804
O O14 0.277650 0.000000 0.099939
O O15 0.320976 0.177410 0.079427
O O16 0.628968 0.245502 0.081411
O O17 0.631104 0.104731 0.238710
O O18 0.169117 0.500000 0.444154
O O19 0.158815 0.310271 0.472361
#
# Coordination Sequence:
#
# PCOD8080794 Si02
#       8
#     8   8   8   8   8   8   8   8
#     4  10  20  32  46  68  98 127 154 189 236 286
#     4   9  19  33  49  69  93 123 158 195 230 271
#     4  10  19  29  44  68  93 122 162 197 230 274
#     4  10  19  31  48  72 100 125 154 192 233 281
#     4  10  18  30  46  65  93 125 157 193 227 270
#     4   9  19  32  48  71  96 126 159 191 232 279
#     4  10  18  29  46  68  95 124 153 188 234 282
#     4  11  20  31  48  70  96 126 156 187 233 285
#
# _framework density 17.726828999999999
#
# number of rings (size 3 to 8) (size 9 to 14) (size 15 to 20)
#    0.000    2.125    0.000    4.875    0.000    4.500 
#    0.000    0.000    0.000    0.375    0.000    2.625 
#    0.000    0.000    0.000    0.000    0.000    0.000 
#
# Total GULP energy -396418.416774 kJ/mol
# GULP energy per Si atom -12388.075524 kJ/mol
# Density = 1.768648 g / cm^3
# Si number density = 17.726829 Si / 1000 Ang^3
#
#
#
# Elastic Constant Matrix: (Units=GPa)
#
#
# Indices 1 2 3 4 5 6 
#
# 1 103.8364 33.2379 27.8933 0.0000 -5.1516 0.0000
# 2 33.2379 69.1951 22.4471 0.0000 4.1397 0.0000
# 3 27.8933 22.4471 78.5150 0.0000 -10.9275 0.0000
# 4 0.0000 0.0000 0.0000 15.4128 0.0000 -2.7387
# 5 -5.1516 4.1397 -10.9275 0.0000 25.1825 0.0000
# 6 0.0000 0.0000 0.0000 -2.7387 0.0000 12.8922
#
#
#
# Elastic Compliance Matrix: (Units=1/GPa)
#
#
# Indices 1 2 3 4 5 6 
#
# 1 0.012050 -0.005105 -0.002513 0.000000 0.002214 0.000000
# 2 -0.005105 0.018679 -0.004363 0.000000 -0.006008 0.000000
# 3 -0.002513 -0.004363 0.015863 0.000000 0.007086 0.000000
# 4 0.000000 0.000000 0.000000 0.067426 0.000000 0.014323
# 5 0.002214 -0.006008 0.007086 0.000000 0.044226 0.000000
# 6 0.000000 0.000000 0.000000 0.014323 0.000000 0.080609
#
#
# Mechanical properties :
#
#
# Convention : Reuss Voigt Hill
#
# Bulk Modulus (GPa) = 44.19067 46.52258 45.35662
# Shear Modulus (GPa) = 18.49402 21.89537 20.19470
#
# Velocity S-wave (km/s) = 3.23349 3.51829 3.37889
# Velocity P-wave (km/s) = 6.23886 6.54260 6.39253
#
# Compressibility (1/GPa) = 0.02262921
#
# Stress axis : x y z
#
# Youngs Moduli (GPa) = 82.99008 53.53635 63.04065
#
# Poissons Ratio (x) = 0.27331 0.15843
# Poissons Ratio (y) = 0.42368 0.27503
# Poissons Ratio (z) = 0.20856 0.23356
#
# Static dielectric constant tensor:
#      x y z
#    x 3.436690 0.000000 -0.132660 
#    y 0.000000 2.956350 0.000000 
#    z -0.132660 0.000000 3.391710 
# 
# 
# High freq. dielectric constant tensor:
#      x y z
#    x 1.684170 0.000000 -0.014980 
#    y 0.000000 1.628890 0.000000 
#    z -0.014980 0.000000 1.702420 
# 
# From -- ./inp_files/175305.got.cif
#   From: 2010.06.25/outbox.cif.g09.slc.cpg/sg12_88_cif.got.tgz:175305.got - 2010.06.28 00:19:55.
