data_PCOD8080013
_publ_section_title
;
Structure prediction by ZEFSAII (Michael W. Deem and Ramdas Pophale) SiO2 
 PCOD8080013
Probable space group: C 2/M
;
_chemical_formula_sum "Si O2"
_cell_formula_units_Z 64
_cell_length_a 24.758823
_cell_length_b 9.317304
_cell_length_c 23.566819
_cell_angle_alpha 90.000000
_cell_angle_beta 46.243943
_cell_angle_gamma 90.000000
_cell_volume 3926.750822
_symmetry_space_group_name_H-M "C 2/M"
_symmetry_group_IT_number 12
_symmetry_cell_setting 'monoclinic'
loop_
_space_group_symop_operation_xyz
x,y,z
-x,y,-z
-x,-y,-z
x,-y,z
1/2+x,1/2+y,z
1/2-x,1/2+y,-z
1/2-x,1/2-y,-z
1/2+x,1/2-y,z
loop_
_atom_site_type_symbol
_atom_site_label
_atom_site_fract_x
_atom_site_fract_y
_atom_site_fract_z
Si Si1 0.320398 0.666564 0.680527
Si Si2 0.581181 0.664874 0.580431
Si Si3 0.122579 0.164198 0.674779
Si Si4 0.443798 0.841242 0.988229
Si Si5 0.269927 0.665758 0.593884
Si Si6 0.664014 0.166136 0.841976
Si Si7 0.446002 0.333290 0.157591
Si Si8 0.469302 0.169645 0.583878
O O1 0.344676 0.500000 0.660123
O O2 0.295370 0.722798 0.636925
O O3 0.252645 0.691421 0.773880
O O4 0.388721 0.760899 0.652840
O O5 0.558513 0.500000 0.584038
O O6 0.578538 0.700148 0.649081
O O7 0.664697 0.695464 0.498267
O O8 0.524278 0.771105 0.591594
O O9 0.196998 0.255699 0.625075
O O10 0.065160 0.195024 0.767622
O O11 0.149182 0.000000 0.655744
O O12 0.473535 0.732691 0.918710
O O13 0.438455 0.000000 0.964973
O O14 0.500000 0.840498 0.000000
O O15 0.363825 0.794280 0.073749
O O16 0.248831 0.500000 0.614195
O O17 0.622887 0.261011 0.824836
O O18 0.643902 0.000000 0.843420
O O19 0.446798 0.500000 0.141425
O O20 0.500000 0.214849 0.500000
O O21 0.462715 0.000000 0.595094
#
# Coordination Sequence:
#
# PCOD8080013 Si02
#       8
#     8   8   8   8   8   8   8   8
#     4  10  19  32  52  74  95 126 164 198 236 286
#     4  10  21  37  52  68  93 129 169 202 236 283
#     4  10  21  33  47  70 101 132 161 197 240 283
#     4   8  15  27  43  63  91 126 158 190 228 278
#     4  10  19  31  51  73  94 126 166 200 233 281
#     4   9  17  30  46  67  95 125 159 194 232 280
#     4  10  18  27  42  67  98 129 157 189 234 282
#     4  11  23  36  51  72  96 123 159 205 250 284
#
# _framework density 16.298462000000001
#
# number of rings (size 3 to 8) (size 9 to 14) (size 15 to 20)
#    0.000    2.250    2.500    1.875    0.000    5.250 
#    0.000    0.000    0.000    0.000    0.000    0.875 
#    0.000    0.000    0.000    0.000    0.000    0.000 
#
# Total GULP energy -396787.312150 kJ/mol
# GULP energy per Si atom -12399.603505 kJ/mol
# Density = 1.626137 g / cm^3
# Si number density = 16.298462 Si / 1000 Ang^3
#
#
#
# Elastic Constant Matrix: (Units=GPa)
#
#
# Indices 1 2 3 4 5 6 
#
# 1 73.9578 46.3261 48.3402 -0.0002 2.8619 -0.0001
# 2 46.3261 77.7908 54.8929 -0.0001 -0.7181 -0.0003
# 3 48.3402 54.8929 122.8479 0.0001 -0.9980 -0.0001
# 4 -0.0002 -0.0001 0.0001 21.2252 0.0000 -2.6697
# 5 2.8619 -0.7181 -0.9980 0.0000 15.9148 0.0001
# 6 -0.0001 -0.0003 -0.0001 -2.6697 0.0001 24.3017
#
#
#
# Elastic Compliance Matrix: (Units=1/GPa)
#
#
# Indices 1 2 3 4 5 6 
#
# 1 0.023398 -0.010887 -0.004383 0.000000 -0.004974 0.000000
# 2 -0.010887 0.023843 -0.006348 0.000000 0.002635 0.000000
# 3 -0.004383 -0.006348 0.012712 0.000000 0.001299 0.000000
# 4 0.000000 0.000000 0.000000 0.047774 0.000000 0.005248
# 5 -0.004974 0.002635 0.001299 0.000000 0.063929 0.000000
# 6 0.000000 0.000000 0.000000 0.005248 0.000000 0.041726
#
#
# Mechanical properties :
#
#
# Convention : Reuss Voigt Hill
#
# Bulk Modulus (GPa) = 59.82240 63.74608 61.78424
# Shear Modulus (GPa) = 19.07020 20.62418 19.84719
#
# Velocity S-wave (km/s) = 3.42433 3.56111 3.49339
# Velocity P-wave (km/s) = 7.24008 7.49035 7.36628
#
# Compressibility (1/GPa) = 0.01671615
#
# Stress axis : x y z
#
# Youngs Moduli (GPa) = 42.73900 41.94186 78.66708
#
# Poissons Ratio (x) = 0.45663 0.34476
# Poissons Ratio (y) = 0.46531 0.49939
# Poissons Ratio (z) = 0.18730 0.26625
#
# Static dielectric constant tensor:
#      x y z
#    x 2.737960 0.000000 -0.003790 
#    y 0.000000 3.096220 0.000000 
#    z -0.003790 0.000000 3.489170 
# 
# 
# High freq. dielectric constant tensor:
#      x y z
#    x 1.584740 0.000000 -0.003300 
#    y 0.000000 1.629790 0.000000 
#    z -0.003300 0.000000 1.638500 
# 
# From -- ./inp_files/348532.got.cif
#   From: 2010.06.25/outbox.cif.g09.slc.cpg/sg12_175_cif.got.tgz:348532.got - 2010.06.28 00:19:55.
