data_PCOD8080710
_publ_section_title
;
Structure prediction by ZEFSAII (Michael W. Deem and Ramdas Pophale) SiO2 
 PCOD8080710
Probable space group: C 2/M
;
_chemical_formula_sum "Si O2"
_cell_formula_units_Z 40
_cell_length_a 26.983931
_cell_length_b 13.582984
_cell_length_c 26.954949
_cell_angle_alpha 90.000000
_cell_angle_beta 164.628537
_cell_angle_gamma 90.000000
_cell_volume 2618.841234
_symmetry_space_group_name_H-M "C 2/M"
_symmetry_group_IT_number 12
_symmetry_cell_setting 'monoclinic'
loop_
_space_group_symop_operation_xyz
x,y,z
-x,y,-z
-x,-y,-z
x,-y,z
1/2+x,1/2+y,z
1/2-x,1/2+y,-z
1/2-x,1/2-y,-z
1/2+x,1/2-y,z
loop_
_atom_site_type_symbol
_atom_site_label
_atom_site_fract_x
_atom_site_fract_y
_atom_site_fract_z
Si Si1 0.337631 0.383827 0.701858
Si Si2 0.981878 0.614140 0.536852
Si Si3 0.747700 0.114349 0.879233
Si Si4 0.781398 0.115009 0.533528
Si Si5 0.434599 0.229815 0.209847
O O1 0.325211 0.500000 0.694121
O O2 0.185810 0.336659 0.592928
O O3 0.297174 0.354075 0.606473
O O4 0.541495 0.346183 0.914805
O O5 0.933684 0.500000 0.482707
O O6 0.000000 0.664641 0.500000
O O7 0.176172 0.627362 0.753980
O O8 0.618371 0.179063 0.789809
O O9 0.731983 0.000000 0.881092
O O10 0.580131 0.157068 0.321242
O O11 0.955381 0.167542 0.673607
O O12 0.795946 0.000000 0.536884
O O13 0.250000 0.250000 0.000000
#
# Coordination Sequence:
#
# PCOD8080710 Si02
#       5
#     8   8   8   8   8
#     4   9  16  27  43  60  85 120 152 182 218 261
#     4   9  17  28  42  60  85 120 157 189 220 259
#     4  10  18  29  45  65  93 124 153 185 223 265
#     4  10  20  32  45  65  93 124 156 189 226 270
#     4  11  20  29  47  69  88 122 161 189 222 274
#
# _framework density 15.273932
#
# number of rings (size 3 to 8) (size 9 to 14) (size 15 to 20)
#    0.000    2.200    4.000    0.600    0.000    1.600 
#    0.000    4.000    0.000    0.000    0.000    0.000 
#    0.000    0.800    0.000    3.800    0.000    0.200 
#
# Total GULP energy -247861.122602 kJ/mol
# GULP energy per Si atom -12393.056130 kJ/mol
# Density = 1.523917 g / cm^3
# Si number density = 15.273932 Si / 1000 Ang^3
#
#
#
# Elastic Constant Matrix: (Units=GPa)
#
#
# Indices 1 2 3 4 5 6 
#
# 1 56.4041 19.1739 27.5826 0.0180 1.4484 -0.0396
# 2 19.1739 67.2964 30.3478 0.1247 1.6714 0.0458
# 3 27.5826 30.3478 116.1620 0.0185 7.7711 -0.0016
# 4 0.0180 0.1247 0.0185 19.6921 0.0494 4.6111
# 5 1.4484 1.6714 7.7711 0.0494 20.8057 0.0094
# 6 -0.0396 0.0458 -0.0016 4.6111 0.0094 14.2895
#
#
#
# Elastic Compliance Matrix: (Units=1/GPa)
#
#
# Indices 1 2 3 4 5 6 
#
# 1 0.021081 -0.004248 -0.003918 -0.000007 0.000337 0.000074
# 2 -0.004248 0.017702 -0.003632 -0.000096 0.000230 -0.000038
# 3 -0.003918 -0.003632 0.010718 0.000026 -0.003439 -0.000004
# 4 -0.000007 -0.000096 0.000026 0.054933 -0.000124 -0.017726
# 5 0.000337 0.000230 -0.003439 -0.000124 0.049306 0.000007
# 6 0.000074 -0.000038 -0.000004 -0.017726 0.000007 0.075702
#
#
# Mechanical properties :
#
#
# Convention : Reuss Voigt Hill
#
# Bulk Modulus (GPa) = 38.60196 43.78568 41.19382
# Shear Modulus (GPa) = 19.10784 21.80801 20.45793
#
# Velocity S-wave (km/s) = 3.54080 3.78271 3.66375
# Velocity P-wave (km/s) = 6.48416 6.91431 6.70269
#
# Compressibility (1/GPa) = 0.02590542
#
# Stress axis : x y z
#
# Youngs Moduli (GPa) = 47.43674 56.49079 93.30194
#
# Poissons Ratio (x) = 0.23995 0.36560
# Poissons Ratio (y) = 0.20149 0.33883
# Poissons Ratio (z) = 0.18588 0.20515
#
# Static dielectric constant tensor:
#      x y z
#    x 3.028300 -0.000090 0.173330 
#    y -0.000090 2.661670 -0.000160 
#    z 0.173330 -0.000160 3.286940 
# 
# 
# High freq. dielectric constant tensor:
#      x y z
#    x 1.565180 -0.000010 0.010400 
#    y -0.000010 1.535770 -0.000010 
#    z 0.010400 -0.000010 1.609410 
# 
# From -- ./inp_files/349220.got.cif
#   From: 2010.06.25/outbox.cif.g09.slc.cpg/sg12_175_cif.got.tgz:349220.got - 2010.06.28 00:19:55.
