data_PCOD8080918
_publ_section_title
;
Structure prediction by ZEFSAII (Michael W. Deem and Ramdas Pophale) SiO2 
 PCOD8080918
Probable space group: C 2/M
;
_chemical_formula_sum "Si O2"
_cell_formula_units_Z 64
_cell_length_a 18.637337
_cell_length_b 18.861766
_cell_length_c 20.144780
_cell_angle_alpha 90.000000
_cell_angle_beta 150.175434
_cell_angle_gamma 90.000000
_cell_volume 3521.983755
_symmetry_space_group_name_H-M "C 2/M"
_symmetry_group_IT_number 12
_symmetry_cell_setting 'monoclinic'
loop_
_space_group_symop_operation_xyz
x,y,z
-x,y,-z
-x,-y,-z
x,-y,z
1/2+x,1/2+y,z
1/2-x,1/2+y,-z
1/2-x,1/2-y,-z
1/2+x,1/2-y,z
loop_
_atom_site_type_symbol
_atom_site_label
_atom_site_fract_x
_atom_site_fract_y
_atom_site_fract_z
Si Si1 0.329272 0.816465 0.595623
Si Si2 0.835692 0.321492 0.133963
Si Si3 0.173891 0.683452 0.254871
Si Si4 0.170944 0.420218 0.137769
Si Si5 0.335192 0.077549 0.246887
Si Si6 0.674512 0.078689 0.519057
Si Si7 0.171745 0.671656 0.638773
Si Si8 0.834975 0.316016 0.982991
O O1 0.250000 0.750000 0.500000
O O2 0.498071 0.799387 0.725536
O O3 0.283527 0.831799 0.634654
O O4 0.287816 0.887282 0.521902
O O5 0.798532 0.391672 0.145277
O O6 0.744139 0.258155 0.092630
O O7 0.796291 0.340615 0.026622
O O8 0.222453 0.617721 0.247294
O O9 0.257777 0.752011 0.297590
O O10 0.004415 0.697052 0.110159
O O11 0.236726 0.500000 0.187449
O O12 0.222663 0.374880 0.115157
O O13 0.000000 0.425529 0.000000
O O14 0.505162 0.071185 0.393575
O O15 0.272149 0.127297 0.253452
O O16 0.263732 0.000000 0.194890
O O17 0.732896 0.131017 0.623110
O O18 0.744988 0.000000 0.579993
O O19 0.000000 0.681028 0.500000
#
# Coordination Sequence:
#
# PCOD8080918 Si02
#       8
#     8   8   8   8   8   8   8   8
#     4  10  18  31  49  75  99 124 160 201 243 289
#     4   9  18  31  51  74  96 125 160 199 245 287
#     4  10  19  31  51  74  97 126 163 203 240 286
#     4   9  18  32  50  73  99 126 163 208 248 285
#     4   9  17  28  45  71  98 122 157 198 236 282
#     4   9  17  29  46  69  98 127 157 197 240 282
#     4  10  18  29  47  72  96 129 161 193 237 285
#     4   9  18  33  51  74  95 124 164 202 243 287
#
# _framework density 18.171578
#
# number of rings (size 3 to 8) (size 9 to 14) (size 15 to 20)
#    0.000    2.625    1.250    1.125    0.000    2.500 
#    0.000    5.000    0.000    3.375    0.000    0.000 
#    0.000    0.000    0.000    0.000    0.000    0.000 
#
# Total GULP energy -396703.953172 kJ/mol
# GULP energy per Si atom -12396.998537 kJ/mol
# Density = 1.813022 g / cm^3
# Si number density = 18.171578 Si / 1000 Ang^3
#
#
#
# Elastic Constant Matrix: (Units=GPa)
#
#
# Indices 1 2 3 4 5 6 
#
# 1 97.1887 68.6961 32.3501 0.0007 -32.7129 -0.0009
# 2 68.6961 151.2756 38.2770 0.0043 -23.0707 0.0018
# 3 32.3501 38.2770 43.0416 0.0042 -22.8051 0.0032
# 4 0.0007 0.0043 0.0042 24.3687 0.0029 -3.5802
# 5 -32.7129 -23.0707 -22.8051 0.0029 28.0013 0.0012
# 6 -0.0009 0.0018 0.0032 -3.5802 0.0012 27.8963
#
#
#
# Elastic Compliance Matrix: (Units=1/GPa)
#
#
# Indices 1 2 3 4 5 6 
#
# 1 0.021840 -0.006959 0.000447 -0.000002 0.020146 0.000000
# 2 -0.006959 0.010783 -0.006964 0.000000 -0.004917 0.000000
# 3 0.000447 -0.006964 0.046311 -0.000012 0.032502 -0.000008
# 4 -0.000002 0.000000 -0.000012 0.041825 -0.000016 0.005368
# 5 0.020146 -0.004917 0.032502 -0.000016 0.081667 -0.000008
# 6 0.000000 0.000000 -0.000008 0.005368 -0.000008 0.036536
#
#
# Mechanical properties :
#
#
# Convention : Reuss Voigt Hill
#
# Bulk Modulus (GPa) = 19.23720 63.35025 41.29372
# Shear Modulus (GPa) = 17.65286 26.19876 21.92581
#
# Velocity S-wave (km/s) = 3.12020 3.80115 3.47738
# Velocity P-wave (km/s) = 4.85698 7.36226 6.23671
#
# Compressibility (1/GPa) = 0.05198263
#
# Stress axis : x y z
#
# Youngs Moduli (GPa) = 45.78809 92.74150 21.59300
#
# Poissons Ratio (x) = 0.64535 -0.00966
# Poissons Ratio (y) = 0.31862 0.15038
# Poissons Ratio (z) = -0.02049 0.64590
#
# Static dielectric constant tensor:
#      x y z
#    x 3.413300 -0.000010 -0.316040 
#    y -0.000010 3.558530 -0.000010 
#    z -0.316040 -0.000010 3.162130 
# 
# 
# High freq. dielectric constant tensor:
#      x y z
#    x 1.701350 0.000000 -0.032390 
#    y 0.000000 1.706280 0.000000 
#    z -0.032390 0.000000 1.674340 
# 
# From -- ./inp_files/322468.got.cif
#   From: 2010.06.25/outbox.cif.g09.slc.cpg/sg12_162_cif.got.tgz:322468.got - 2010.06.28 00:19:55.
