data_PCOD8080240
_publ_section_title
;
Structure prediction by ZEFSAII (Michael W. Deem and Ramdas Pophale) SiO2 
 PCOD8080240
Probable space group: C 2/M
;
_chemical_formula_sum "Si O2"
_cell_formula_units_Z 48
_cell_length_a 27.448811
_cell_length_b 10.776286
_cell_length_c 26.594402
_cell_angle_alpha 90.000000
_cell_angle_beta 21.145830
_cell_angle_gamma 90.000000
_cell_volume 2837.793077
_symmetry_space_group_name_H-M "C 2/M"
_symmetry_group_IT_number 12
_symmetry_cell_setting 'monoclinic'
loop_
_space_group_symop_operation_xyz
x,y,z
-x,y,-z
-x,-y,-z
x,-y,z
1/2+x,1/2+y,z
1/2-x,1/2+y,-z
1/2-x,1/2-y,-z
1/2+x,1/2-y,z
loop_
_atom_site_type_symbol
_atom_site_label
_atom_site_fract_x
_atom_site_fract_y
_atom_site_fract_z
Si Si1 0.866486 0.145946 0.775732
Si Si2 0.782744 0.358561 0.343329
Si Si3 0.922195 0.357851 0.916934
Si Si4 0.239939 0.634044 0.458190
Si Si5 0.018082 0.242380 0.725881
Si Si6 0.966296 0.856830 0.478757
O O1 0.944374 0.203371 0.652380
O O2 0.921466 0.200542 0.774505
O O3 0.890931 0.000000 0.753267
O O4 0.707774 0.182239 0.924989
O O5 0.758308 0.500000 0.387583
O O6 0.729778 0.255121 0.432792
O O7 0.693998 0.341037 0.378265
O O8 0.942296 0.337262 0.179809
O O9 0.906033 0.500000 0.916580
O O10 0.926676 0.280172 0.861296
O O11 0.233122 0.500000 0.436462
O O12 0.111540 0.641297 0.619082
O O13 0.378855 0.634049 0.356164
O O14 0.000000 0.792052 0.500000
O O15 0.008265 0.000000 0.442198
#
# Coordination Sequence:
#
# PCOD8080240 Si02
#       6
#     8   8   8   8   8   8
#     4  10  18  29  45  67  94 125 157 193 233 279
#     4   9  17  32  50  69  95 126 156 195 240 279
#     4   9  18  29  43  66  97 127 155 186 230 280
#     4  10  19  28  45  72  97 125 162 196 227 275
#     4  10  18  28  43  64  97 132 157 188 226 278
#     4   9  17  30  49  70  90 118 158 201 242 281
#
# _framework density 16.914553000000002
#
# number of rings (size 3 to 8) (size 9 to 14) (size 15 to 20)
#    0.000    2.500    1.667    1.500    0.000    4.000 
#    0.000    0.833    0.000    6.500    0.000    0.000 
#    0.000    5.333    0.000    0.000    0.000    0.000 
#
# Total GULP energy -297316.635593 kJ/mol
# GULP energy per Si atom -12388.193150 kJ/mol
# Density = 1.687605 g / cm^3
# Si number density = 16.914553 Si / 1000 Ang^3
#
#
#
# Elastic Constant Matrix: (Units=GPa)
#
#
# Indices 1 2 3 4 5 6 
#
# 1 119.4441 23.6624 59.8455 -0.0001 -10.1823 0.0001
# 2 23.6624 64.2981 14.6360 -0.0023 -5.0058 0.0003
# 3 59.8455 14.6360 117.7520 -0.0010 -9.1006 0.0002
# 4 -0.0001 -0.0023 -0.0010 2.9269 0.0004 0.7512
# 5 -10.1823 -5.0058 -9.1006 0.0004 16.0876 -0.0001
# 6 0.0001 0.0003 0.0002 0.7512 -0.0001 13.5611
#
#
#
# Elastic Compliance Matrix: (Units=1/GPa)
#
#
# Indices 1 2 3 4 5 6 
#
# 1 0.011983 -0.002888 -0.005453 -0.000004 0.003601 0.000000
# 2 -0.002888 0.016956 -0.000390 0.000013 0.003227 -0.000001
# 3 -0.005453 -0.000390 0.011541 0.000003 0.002956 0.000000
# 4 -0.000004 0.000013 0.000003 0.346588 -0.000005 -0.019198
# 5 0.003601 0.003227 0.002956 -0.000005 0.067115 0.000001
# 6 0.000000 -0.000001 0.000000 -0.019198 0.000001 0.074804
#
#
# Mechanical properties :
#
#
# Convention : Reuss Voigt Hill
#
# Bulk Modulus (GPa) = 43.44683 55.30910 49.37796
# Shear Modulus (GPa) = 9.02328 20.07180 14.54754
#
# Velocity S-wave (km/s) = 2.31219 3.44853 2.93586
# Velocity P-wave (km/s) = 5.73325 6.97328 6.38344
#
# Compressibility (1/GPa) = 0.02301664
#
# Stress axis : x y z
#
# Youngs Moduli (GPa) = 83.44815 58.97776 86.64932
#
# Poissons Ratio (x) = 0.17035 0.47250
# Poissons Ratio (y) = 0.24103 0.03380
# Poissons Ratio (z) = 0.45505 0.02301
#
# Static dielectric constant tensor:
#      x y z
#    x 3.119280 0.000000 -0.116610 
#    y 0.000000 2.873490 0.000000 
#    z -0.116610 0.000000 3.438910 
# 
# 
# High freq. dielectric constant tensor:
#      x y z
#    x 1.627370 0.000000 -0.019150 
#    y 0.000000 1.617780 0.000000 
#    z -0.019150 0.000000 1.658510 
# 
# From -- ./inp_files/101956.got.cif
#   From: 2010.06.25/outbox.cif.g09.slc.cpg/sg12_51_cif.got.tgz:101956.got - 2010.06.28 00:19:55.
