data_PCOD8080555
_publ_section_title
;
Structure prediction by ZEFSAII (Michael W. Deem and Ramdas Pophale) SiO2 
 PCOD8080555
Probable space group: C 2/M
;
_chemical_formula_sum "Si O2"
_cell_formula_units_Z 56
_cell_length_a 28.085160
_cell_length_b 8.843844
_cell_length_c 12.825216
_cell_angle_alpha 90.000000
_cell_angle_beta 75.488371
_cell_angle_gamma 90.000000
_cell_volume 3083.908254
_symmetry_space_group_name_H-M "C 2/M"
_symmetry_group_IT_number 12
_symmetry_cell_setting 'monoclinic'
loop_
_space_group_symop_operation_xyz
x,y,z
-x,y,-z
-x,-y,-z
x,-y,z
1/2+x,1/2+y,z
1/2-x,1/2+y,-z
1/2-x,1/2-y,-z
1/2+x,1/2-y,z
loop_
_atom_site_type_symbol
_atom_site_label
_atom_site_fract_x
_atom_site_fract_y
_atom_site_fract_z
Si Si1 0.888818 0.820833 0.672063
Si Si2 0.368114 0.320164 0.235024
Si Si3 0.813869 0.678140 0.874299
Si Si4 0.599886 0.320791 0.563643
Si Si5 0.026598 0.178339 0.886295
Si Si6 0.797466 0.821525 0.096533
Si Si7 0.005802 0.177524 0.319009
O O1 0.851412 0.740986 0.769442
O O2 0.875248 0.776097 0.559942
O O3 0.943888 0.756470 0.661010
O O4 0.885781 0.000000 0.692376
O O5 0.367981 0.500000 0.235587
O O6 0.366847 0.261853 0.356686
O O7 0.418224 0.257699 0.155518
O O8 0.322568 0.261402 0.190059
O O9 0.819541 0.500000 0.878094
O O10 0.759371 0.726842 0.867323
O O11 0.824451 0.746788 0.982489
O O12 0.595159 0.500000 0.575806
O O13 0.543884 0.255163 0.600899
O O14 0.994299 0.218088 0.803109
O O15 0.030272 0.000000 0.899825
O O16 0.000000 0.254693 0.000000
O O17 0.803843 0.000000 0.080637
O O18 0.006177 0.000000 0.338307
#
# Coordination Sequence:
#
# PCOD8080555 Si02
#       7
#     8   8   8   8   8   8   8
#     4  10  18  28  48  72  96 125 158 189 224 274
#     4   8  14  25  44  67  93 120 147 186 236 277
#     4  10  21  34  47  68  96 120 151 197 238 273
#     4   8  14  26  43  70 100 122 150 193 233 265
#     4   8  13  19  31  60  97 119 138 180 230 270
#     4   9  18  34  54  70  87 118 157 193 234 282
#     4   8  14  23  38  65  98 125 149 184 229 268
#
# _framework density 18.158777000000001
#
# number of rings (size 3 to 8) (size 9 to 14) (size 15 to 20)
#    0.000    3.286    0.000    2.571    2.000    2.286 
#    0.000    0.714    0.000    2.571    0.000    7.000 
#    0.000    0.000    0.000    0.000    0.000    0.000 
#
# Total GULP energy -346923.656183 kJ/mol
# GULP energy per Si atom -12390.130578 kJ/mol
# Density = 1.811745 g / cm^3
# Si number density = 18.158777 Si / 1000 Ang^3
#
#
#
# Elastic Constant Matrix: (Units=GPa)
#
#
# Indices 1 2 3 4 5 6 
#
# 1 97.7179 16.3892 68.8848 0.0000 19.5920 0.0000
# 2 16.3892 17.9520 20.8312 0.0000 0.7015 0.0000
# 3 68.8848 20.8312 137.2510 0.0000 7.2713 0.0000
# 4 0.0000 0.0000 0.0000 13.3555 0.0000 -3.5430
# 5 19.5920 0.7015 7.2713 0.0000 29.7753 0.0000
# 6 0.0000 0.0000 0.0000 -3.5430 0.0000 12.8566
#
#
#
# Elastic Compliance Matrix: (Units=1/GPa)
#
#
# Indices 1 2 3 4 5 6 
#
# 1 0.019254 -0.008012 -0.007888 0.000000 -0.010554 0.000000
# 2 -0.008012 0.070971 -0.007032 0.000000 0.005317 0.000000
# 3 -0.007888 -0.007032 0.012186 0.000000 0.002380 0.000000
# 4 0.000000 0.000000 0.000000 0.080781 0.000000 0.022261
# 5 -0.010554 0.005317 0.002380 0.000000 0.039823 0.000000
# 6 0.000000 0.000000 0.000000 0.022261 0.000000 0.083916
#
#
# Mechanical properties :
#
#
# Convention : Reuss Voigt Hill
#
# Bulk Modulus (GPa) = 17.68464 51.68125 34.68294
# Shear Modulus (GPa) = 13.45373 20.98520 17.21946
#
# Velocity S-wave (km/s) = 2.72489 3.40317 3.08274
# Velocity P-wave (km/s) = 4.43397 6.63059 5.64025
#
# Compressibility (1/GPa) = 0.05654624
#
# Stress axis : x y z
#
# Youngs Moduli (GPa) = 51.93712 14.09029 82.06045
#
# Poissons Ratio (x) = 0.11289 0.64731
# Poissons Ratio (y) = 0.41613 0.57705
# Poissons Ratio (z) = 0.40969 0.09908
#
# Static dielectric constant tensor:
#      x y z
#    x 3.616310 0.000000 0.190880 
#    y 0.000000 2.732780 0.000000 
#    z 0.190880 0.000000 3.687820 
# 
# 
# High freq. dielectric constant tensor:
#      x y z
#    x 1.697050 0.000000 0.011190 
#    y 0.000000 1.635660 0.000000 
#    z 0.011190 0.000000 1.715980 
# 
# From -- ./inp_files/181565.got.cif
#   From: 2010.06.25/outbox.cif.g09.slc.cpg/sg12_91_cif.got.tgz:181565.got - 2010.06.28 00:19:55.
