data_PCOD8080981
_publ_section_title
;
Structure prediction by ZEFSAII (Michael W. Deem and Ramdas Pophale) SiO2 
 PCOD8080981
Probable space group: C 2/M
;
_chemical_formula_sum "Si O2"
_cell_formula_units_Z 64
_cell_length_a 28.916574
_cell_length_b 9.385556
_cell_length_c 15.726288
_cell_angle_alpha 90.000000
_cell_angle_beta 118.143257
_cell_angle_gamma 90.000000
_cell_volume 3763.473689
_symmetry_space_group_name_H-M "C 2/M"
_symmetry_group_IT_number 12
_symmetry_cell_setting 'monoclinic'
loop_
_space_group_symop_operation_xyz
x,y,z
-x,y,-z
-x,-y,-z
x,-y,z
1/2+x,1/2+y,z
1/2-x,1/2+y,-z
1/2-x,1/2-y,-z
1/2+x,1/2-y,z
loop_
_atom_site_type_symbol
_atom_site_label
_atom_site_fract_x
_atom_site_fract_y
_atom_site_fract_z
Si Si1 0.530129 0.835740 0.836143
Si Si2 0.931872 0.831682 0.786958
Si Si3 0.192903 0.663838 0.067460
Si Si4 0.288741 0.833049 0.226213
Si Si5 0.825928 0.834589 0.600897
Si Si6 0.864184 0.667141 0.146324
Si Si7 0.283948 0.166129 0.413940
Si Si8 0.415214 0.840296 0.937761
O O1 0.479191 0.739420 0.775155
O O2 0.576326 0.776232 0.813826
O O3 0.516402 0.000000 0.804354
O O4 0.548655 0.816924 0.949045
O O5 0.877868 0.786974 0.695085
O O6 0.931939 0.774105 0.882711
O O7 0.939664 0.000000 0.796037
O O8 0.211001 0.500000 0.076513
O O9 0.240742 0.756167 0.140794
O O10 0.145520 0.681045 0.092462
O O11 0.175005 0.726905 0.960290
O O12 0.341985 0.796593 0.220432
O O13 0.296271 0.781116 0.329238
O O14 0.276230 0.000000 0.212759
O O15 0.776475 0.797141 0.617763
O O16 0.822834 0.749196 0.510132
O O17 0.827006 0.000000 0.578456
O O18 0.867514 0.500000 0.130293
O O19 0.295531 0.000000 0.435000
O O20 0.424266 0.000000 0.909527
#
# Coordination Sequence:
#
# PCOD8080981 Si02
#       8
#     8   8   8   8   8   8   8   8
#     4   9  18  33  49  65  91 128 164 191 220 265
#     4  11  21  31  47  71  95 119 152 194 238 277
#     4   9  17  29  45  68  97 128 160 186 217 271
#     4  10  18  29  48  72  96 121 152 193 237 272
#     4   9  19  34  48  66  95 122 143 179 232 282
#     4   8  16  31  48  66  93 128 160 191 225 264
#     4   9  18  32  50  71  92 116 148 184 225 276
#     4   9  18  31  46  66  95 129 160 188 220 267
#
# _framework density 17.005566000000002
#
# number of rings (size 3 to 8) (size 9 to 14) (size 15 to 20)
#    0.000    2.750    0.000    3.375    0.000    5.000 
#    0.000    5.000    0.000    0.750    0.000    5.250 
#    0.000    0.000    0.000    0.000    0.000    0.000 
#
# Total GULP energy -396769.217056 kJ/mol
# GULP energy per Si atom -12399.038033 kJ/mol
# Density = 1.696686 g / cm^3
# Si number density = 17.005566 Si / 1000 Ang^3
#
#
#
# Elastic Constant Matrix: (Units=GPa)
#
#
# Indices 1 2 3 4 5 6 
#
# 1 103.2665 43.0689 59.4437 0.0000 -4.6954 0.0000
# 2 43.0689 51.2630 34.7205 0.0000 1.7164 0.0000
# 3 59.4437 34.7205 72.7475 0.0000 -8.6027 0.0000
# 4 0.0000 0.0000 0.0000 26.0644 0.0000 5.5367
# 5 -4.6954 1.7164 -8.6027 0.0000 28.4786 0.0000
# 6 0.0000 0.0000 0.0000 5.5367 0.0000 22.4999
#
#
#
# Elastic Compliance Matrix: (Units=1/GPa)
#
#
# Indices 1 2 3 4 5 6 
#
# 1 0.020633 -0.008759 -0.012667 0.000000 0.000103 0.000000
# 2 -0.008759 0.033607 -0.009637 0.000000 -0.006381 0.000000
# 3 -0.012667 -0.009637 0.029574 0.000000 0.007426 0.000000
# 4 0.000000 0.000000 0.000000 0.040483 0.000000 -0.009962
# 5 0.000103 -0.006381 0.007426 0.000000 0.037759 0.000000
# 6 0.000000 0.000000 0.000000 -0.009962 0.000000 0.046896
#
#
# Mechanical properties :
#
#
# Convention : Reuss Voigt Hill
#
# Bulk Modulus (GPa) = 46.10815 55.74923 50.92869
# Shear Modulus (GPa) = 17.96569 21.41150 19.68860
#
# Velocity S-wave (km/s) = 3.25385 3.55221 3.40630
# Velocity P-wave (km/s) = 6.42566 7.04829 6.74416
#
# Compressibility (1/GPa) = 0.02168814
#
# Stress axis : x y z
#
# Youngs Moduli (GPa) = 48.46577 29.75562 33.81292
#
# Poissons Ratio (x) = 0.26063 0.42831
# Poissons Ratio (y) = 0.42451 0.32586
# Poissons Ratio (z) = 0.61392 0.28676
#
# Static dielectric constant tensor:
#      x y z
#    x 3.395410 0.000000 -0.051890 
#    y 0.000000 3.028020 0.000000 
#    z -0.051890 0.000000 3.033120 
# 
# 
# High freq. dielectric constant tensor:
#      x y z
#    x 1.660980 0.000000 -0.000430 
#    y 0.000000 1.642020 0.000000 
#    z -0.000430 0.000000 1.634180 
# 
# From -- ./inp_files/249226.got.cif
#   From: 2010.06.25/outbox.cif.g09.slc.cpg/sg12_125_cif.got.tgz:249226.got - 2010.06.28 00:19:55.
