data_PCOD8080437
_publ_section_title
;
Structure prediction by ZEFSAII (Michael W. Deem and Ramdas Pophale) SiO2 
 PCOD8080437
Probable space group: C 2/M
;
_chemical_formula_sum "Si O2"
_cell_formula_units_Z 64
_cell_length_a 28.308672
_cell_length_b 8.884087
_cell_length_c 15.774702
_cell_angle_alpha 90.000000
_cell_angle_beta 89.924036
_cell_angle_gamma 90.000000
_cell_volume 3967.282087
_symmetry_space_group_name_H-M "C 2/M"
_symmetry_group_IT_number 12
_symmetry_cell_setting 'monoclinic'
loop_
_space_group_symop_operation_xyz
x,y,z
-x,y,-z
-x,-y,-z
x,-y,z
1/2+x,1/2+y,z
1/2-x,1/2+y,-z
1/2-x,1/2-y,-z
1/2+x,1/2-y,z
loop_
_atom_site_type_symbol
_atom_site_label
_atom_site_fract_x
_atom_site_fract_y
_atom_site_fract_z
Si Si1 0.608708 0.822618 0.163120
Si Si2 0.696769 0.175024 0.912893
Si Si3 0.051841 0.821995 0.683446
Si Si4 0.110818 0.177230 0.840410
Si Si5 0.696192 0.325351 0.092280
Si Si6 0.447771 0.678056 0.498451
Si Si7 0.057434 0.822469 0.317490
Si Si8 0.946079 0.175793 0.990339
O O1 0.662035 0.760383 0.156943
O O2 0.588436 0.770641 0.252574
O O3 0.576573 0.764267 0.086980
O O4 0.610229 0.000000 0.159514
O O5 0.660882 0.236813 0.842387
O O6 0.749883 0.203503 0.879520
O O7 0.688089 0.000000 0.931718
O O8 0.686950 0.266690 0.998043
O O9 0.082771 0.754606 0.759828
O O10 0.074489 0.768519 0.592022
O O11 0.997222 0.772463 0.691817
O O12 0.053778 0.000000 0.691214
O O13 0.120041 0.000000 0.832212
O O14 0.080810 0.216696 0.923572
O O15 0.682909 0.500000 0.092745
O O16 0.500000 0.747802 0.500000
O O17 0.452034 0.500000 0.495617
O O18 0.422860 0.721954 0.587651
O O19 0.063109 0.000000 0.300007
O O20 0.942986 0.000000 0.968865
O O21 0.000000 0.227831 0.000000
#
# Coordination Sequence:
#
# PCOD8080437 Si02
#       8
#     8   8   8   8   8   8   8   8
#     4  12  23  32  45  68  96 125 156 195 236 275
#     4  10  20  33  50  70  91 115 149 197 242 280
#     4   8  14  26  46  73  97 122 159 195 226 268
#     4  10  18  28  46  69  95 127 156 187 227 276
#     4  10  20  35  52  67  86 117 156 195 238 283
#     4   7  11  22  44  71  93 115 154 202 233 258
#     4   9  16  29  49  69  93 127 162 196 230 269
#     4  10  20  33  47  64  91 130 167 190 216 265
#
# _framework density 16.131951000000001
#
# number of rings (size 3 to 8) (size 9 to 14) (size 15 to 20)
#    0.000    2.500    1.250    4.125    0.000    3.750 
#    0.000    1.875    0.000    4.125    0.000    0.875 
#    0.000    0.000    0.000    0.000    0.000    0.000 
#
# Total GULP energy -396566.351263 kJ/mol
# GULP energy per Si atom -12392.698477 kJ/mol
# Density = 1.609523 g / cm^3
# Si number density = 16.131951 Si / 1000 Ang^3
#
#
#
# Elastic Constant Matrix: (Units=GPa)
#
#
# Indices 1 2 3 4 5 6 
#
# 1 99.9949 38.5100 57.9327 0.0000 -2.6564 0.0000
# 2 38.5100 59.4325 38.9751 0.0000 -8.9792 0.0000
# 3 57.9327 38.9751 123.1824 0.0000 -13.1410 0.0000
# 4 0.0000 0.0000 0.0000 9.3493 0.0000 0.7222
# 5 -2.6564 -8.9792 -13.1410 0.0000 11.8472 0.0000
# 6 0.0000 0.0000 0.0000 0.7222 0.0000 22.2556
#
#
#
# Elastic Compliance Matrix: (Units=1/GPa)
#
#
# Indices 1 2 3 4 5 6 
#
# 1 0.016403 -0.007971 -0.006175 0.000000 -0.009213 0.000000
# 2 -0.007971 0.026157 -0.002953 0.000000 0.014763 0.000000
# 3 -0.006175 -0.002953 0.013123 0.000000 0.010933 0.000000
# 4 0.000000 0.000000 0.000000 0.107229 0.000000 -0.003480
# 5 -0.009213 0.014763 0.010933 0.000000 0.105659 0.000000
# 6 0.000000 0.000000 0.000000 -0.003480 0.000000 0.045045
#
#
# Mechanical properties :
#
#
# Convention : Reuss Voigt Hill
#
# Bulk Modulus (GPa) = 46.54225 61.49394 54.01810
# Shear Modulus (GPa) = 14.08546 18.50322 16.29434
#
# Velocity S-wave (km/s) = 2.95810 3.39040 3.18160
# Velocity P-wave (km/s) = 6.37030 7.31632 6.85964
#
# Compressibility (1/GPa) = 0.02148585
#
# Stress axis : x y z
#
# Youngs Moduli (GPa) = 60.96374 38.23012 76.20296
#
# Poissons Ratio (x) = 0.30473 0.47057
# Poissons Ratio (y) = 0.48594 0.22500
# Poissons Ratio (z) = 0.37647 0.11288
#
# Static dielectric constant tensor:
#      x y z
#    x 3.079790 0.000000 0.052930 
#    y 0.000000 2.832510 0.000000 
#    z 0.052930 0.000000 3.379050 
# 
# 
# High freq. dielectric constant tensor:
#      x y z
#    x 1.602410 0.000000 -0.001150 
#    y 0.000000 1.600360 0.000000 
#    z -0.001150 0.000000 1.616700 
# 
# From -- ./inp_files/248455.got.cif
#   From: 2010.06.25/outbox.cif.g09.slc.cpg/sg12_125_cif.got.tgz:248455.got - 2010.06.28 00:19:55.
