data_PCOD8080045
_publ_section_title
;
Structure prediction by ZEFSAII (Michael W. Deem and Ramdas Pophale) SiO2 
 PCOD8080045
Probable space group: C 2/M
;
_chemical_formula_sum "Si O2"
_cell_formula_units_Z 64
_cell_length_a 23.742468
_cell_length_b 9.137559
_cell_length_c 20.094439
_cell_angle_alpha 90.000000
_cell_angle_beta 57.502858
_cell_angle_gamma 90.000000
_cell_volume 3676.841709
_symmetry_space_group_name_H-M "C 2/M"
_symmetry_group_IT_number 12
_symmetry_cell_setting 'monoclinic'
loop_
_space_group_symop_operation_xyz
x,y,z
-x,y,-z
-x,-y,-z
x,-y,z
1/2+x,1/2+y,z
1/2-x,1/2+y,-z
1/2-x,1/2-y,-z
1/2+x,1/2-y,z
loop_
_atom_site_type_symbol
_atom_site_label
_atom_site_fract_x
_atom_site_fract_y
_atom_site_fract_z
Si Si1 0.063931 0.662310 0.156982
Si Si2 0.688513 0.327782 0.233419
Si Si3 0.428087 0.669663 0.390895
Si Si4 0.286877 0.669062 0.535346
Si Si5 0.193313 0.828622 0.077216
Si Si6 0.081149 0.672411 0.741395
Si Si7 0.218509 0.672456 0.710862
Si Si8 0.442785 0.835579 0.680614
O O1 0.083136 0.500000 0.118867
O O2 0.120815 0.774590 0.097245
O O3 0.057424 0.662299 0.240022
O O4 0.990042 0.709413 0.177800
O O5 0.675541 0.500000 0.247882
O O6 0.703789 0.285266 0.147553
O O7 0.750717 0.271629 0.238776
O O8 0.622975 0.247323 0.303110
O O9 0.445770 0.500000 0.368200
O O10 0.366481 0.690394 0.480337
O O11 0.408268 0.738854 0.332903
O O12 0.491269 0.749258 0.384874
O O13 0.266885 0.500000 0.541840
O O14 0.250000 0.750000 0.500000
O O15 0.261408 0.734979 0.621697
O O16 0.198050 0.000000 0.061854
O O17 0.250000 0.750000 0.000000
O O18 0.083763 0.500000 0.721984
O O19 0.140693 0.718501 0.753898
O O20 0.225107 0.500000 0.706014
O O21 0.443918 0.000000 0.650916
#
# Coordination Sequence:
#
# PCOD8080045 Si02
#       8
#     8   8   8   8   8   8   8   8
#     4   8  15  27  45  71  96 119 153 192 229 274
#     4   9  18  33  52  73  96 124 160 199 236 285
#     4  10  18  27  43  69  95 122 162 208 245 281
#     4  10  19  30  46  68  96 128 164 205 245 284
#     4  10  19  31  51  76  98 121 150 190 237 283
#     4   9  16  28  48  70  95 129 162 196 238 280
#     4   9  17  31  50  70  96 130 164 198 242 287
#     4   9  17  30  48  67  91 126 161 200 247 288
#
# _framework density 17.406243
#
# number of rings (size 3 to 8) (size 9 to 14) (size 15 to 20)
#    0.000    2.750    1.250    1.875    0.000    4.000 
#    0.000    1.875    0.000    4.500    0.000    5.250 
#    0.000    0.000    0.000    0.000    0.000    0.000 
#
# Total GULP energy -396654.763038 kJ/mol
# GULP energy per Si atom -12395.461345 kJ/mol
# Density = 1.736663 g / cm^3
# Si number density = 17.406243 Si / 1000 Ang^3
#
#
#
# Elastic Constant Matrix: (Units=GPa)
#
#
# Indices 1 2 3 4 5 6 
#
# 1 135.3457 41.8096 59.8066 0.0000 -25.0434 0.0002
# 2 41.8096 72.6669 43.3276 -0.0002 -13.3596 0.0019
# 3 59.8066 43.3276 88.3608 -0.0001 -25.2282 0.0001
# 4 0.0000 -0.0002 -0.0001 22.7644 0.0001 -7.3047
# 5 -25.0434 -13.3596 -25.2282 0.0001 26.6893 0.0000
# 6 0.0002 0.0019 0.0001 -7.3047 0.0000 22.4811
#
#
#
# Elastic Compliance Matrix: (Units=1/GPa)
#
#
# Indices 1 2 3 4 5 6 
#
# 1 0.011265 -0.002649 -0.005049 0.000000 0.004472 0.000000
# 2 -0.002649 0.020089 -0.008076 0.000000 -0.000063 -0.000002
# 3 -0.005049 -0.008076 0.022172 0.000000 0.012177 0.000001
# 4 0.000000 0.000000 0.000000 0.049042 0.000000 0.015935
# 5 0.004472 -0.000063 0.012177 0.000000 0.053143 0.000000
# 6 0.000000 -0.000002 0.000001 0.015935 0.000000 0.049659
#
#
# Mechanical properties :
#
#
# Convention : Reuss Voigt Hill
#
# Bulk Modulus (GPa) = 45.50003 65.14011 55.32007
# Shear Modulus (GPa) = 20.47131 24.48225 22.47678
#
# Velocity S-wave (km/s) = 3.43314 3.75443 3.59737
# Velocity P-wave (km/s) = 6.47395 7.50327 7.00753
#
# Compressibility (1/GPa) = 0.02197801
#
# Stress axis : x y z
#
# Youngs Moduli (GPa) = 88.76760 49.77835 45.10272
#
# Poissons Ratio (x) = 0.13186 0.22774
# Poissons Ratio (y) = 0.23513 0.36424
# Poissons Ratio (z) = 0.44821 0.40200
#
# Static dielectric constant tensor:
#      x y z
#    x 3.570040 0.000000 -0.316660 
#    y 0.000000 3.251730 0.000000 
#    z -0.316660 0.000000 3.131730 
# 
# 
# High freq. dielectric constant tensor:
#      x y z
#    x 1.666430 0.000000 -0.032320 
#    y 0.000000 1.665300 0.000000 
#    z -0.032320 0.000000 1.645660 
# 
# From -- ./inp_files/324252.got.cif
#   From: 2010.06.25/outbox.cif.g09.slc.cpg/sg12_163_cif.got.tgz:324252.got - 2010.06.28 00:19:55.
