data_PCOD8080663
_publ_section_title
;
Structure prediction by ZEFSAII (Michael W. Deem and Ramdas Pophale) SiO2 
 PCOD8080663
Probable space group: C 2/M
;
_chemical_formula_sum "Si O2"
_cell_formula_units_Z 56
_cell_length_a 33.567469
_cell_length_b 9.189381
_cell_length_c 14.367060
_cell_angle_alpha 90.000000
_cell_angle_beta 129.300600
_cell_angle_gamma 90.000000
_cell_volume 3429.417267
_symmetry_space_group_name_H-M "C 2/M"
_symmetry_group_IT_number 12
_symmetry_cell_setting 'monoclinic'
loop_
_space_group_symop_operation_xyz
x,y,z
-x,y,-z
-x,-y,-z
x,-y,z
1/2+x,1/2+y,z
1/2-x,1/2+y,-z
1/2-x,1/2-y,-z
1/2+x,1/2-y,z
loop_
_atom_site_type_symbol
_atom_site_label
_atom_site_fract_x
_atom_site_fract_y
_atom_site_fract_z
Si Si1 0.311511 0.168842 0.908945
Si Si2 0.714287 0.837170 0.821501
Si Si3 0.939373 0.167872 0.406622
Si Si4 0.874278 0.331007 0.171813
Si Si5 0.821582 0.830925 0.538499
Si Si6 0.128403 0.333198 0.547086
Si Si7 0.296067 0.168814 0.680597
O O1 0.263550 0.236243 0.891577
O O2 0.317453 0.225545 0.812024
O O3 0.298705 0.000000 0.885557
O O4 0.363574 0.198588 0.046101
O O5 0.677775 0.786762 0.851471
O O6 0.682863 0.825949 0.679329
O O7 0.734165 0.000000 0.867409
O O8 0.920574 0.232871 0.279496
O O9 0.915547 0.255586 0.457478
O O10 0.000000 0.186035 0.500000
O O11 0.922420 0.000000 0.388390
O O12 0.887633 0.500000 0.211063
O O13 0.864369 0.750040 0.539662
O O14 0.765043 0.804861 0.412540
O O15 0.824917 0.764865 0.646674
O O16 0.835721 0.000000 0.563883
O O17 0.111649 0.500000 0.504383
O O18 0.309095 0.000000 0.681678
#
# Coordination Sequence:
#
# PCOD8080663 Si02
#       7
#     8   8   8   8   8   8   8
#     4  10  18  29  44  64  93 128 163 194 229 271
#     4   9  17  27  40  63  93 124 158 191 226 271
#     4  10  21  36  53  73  95 119 152 195 239 285
#     4   9  19  32  46  67  93 123 157 193 233 281
#     4  10  18  29  45  66  93 128 166 201 235 272
#     4  10  19  31  49  71  96 125 158 196 237 283
#     4   9  18  29  42  63  94 131 166 200 232 267
#
# _framework density 16.329304
#
# number of rings (size 3 to 8) (size 9 to 14) (size 15 to 20)
#    0.000    2.429    1.429    2.571    0.000    5.143 
#    0.000    0.000    0.000    0.000    0.000    1.000 
#    0.000    8.000    0.000    0.000    0.000    0.000 
#
# Total GULP energy -347153.184327 kJ/mol
# GULP energy per Si atom -12398.328012 kJ/mol
# Density = 1.629214 g / cm^3
# Si number density = 16.329304 Si / 1000 Ang^3
#
#
#
# Elastic Constant Matrix: (Units=GPa)
#
#
# Indices 1 2 3 4 5 6 
#
# 1 60.4093 46.1098 45.1505 0.0000 -12.8956 0.0000
# 2 46.1098 92.9783 48.1973 0.0000 -6.4547 0.0000
# 3 45.1505 48.1973 91.3285 0.0000 -18.2975 0.0000
# 4 0.0000 0.0000 0.0000 20.5561 0.0000 -1.8695
# 5 -12.8956 -6.4547 -18.2975 0.0000 24.2331 0.0000
# 6 0.0000 0.0000 0.0000 -1.8695 0.0000 26.3363
#
#
#
# Elastic Compliance Matrix: (Units=1/GPa)
#
#
# Indices 1 2 3 4 5 6 
#
# 1 0.033832 -0.011546 -0.009003 0.000000 0.008130 0.000000
# 2 -0.011546 0.018856 -0.005264 0.000000 -0.005096 0.000000
# 3 -0.009003 -0.005264 0.019957 0.000000 0.008875 0.000000
# 4 0.000000 0.000000 0.000000 0.048963 0.000000 0.003476
# 5 0.008130 -0.005096 0.008875 0.000000 0.050936 0.000000
# 6 0.000000 0.000000 0.000000 0.003476 0.000000 0.038217
#
#
# Mechanical properties :
#
#
# Convention : Reuss Voigt Hill
#
# Bulk Modulus (GPa) = 47.57987 58.18126 52.88057
# Shear Modulus (GPa) = 18.56021 21.24233 19.90127
#
# Velocity S-wave (km/s) = 3.37504 3.61067 3.49484
# Velocity P-wave (km/s) = 6.66249 7.28628 6.98136
#
# Compressibility (1/GPa) = 0.02101729
#
# Stress axis : x y z
#
# Youngs Moduli (GPa) = 29.55822 53.03332 50.10890
#
# Poissons Ratio (x) = 0.61234 0.45114
# Poissons Ratio (y) = 0.34129 0.26377
# Poissons Ratio (z) = 0.26612 0.27916
#
# Static dielectric constant tensor:
#      x y z
#    x 2.833570 0.000000 -0.289280 
#    y 0.000000 3.161280 0.000000 
#    z -0.289280 0.000000 3.072360 
# 
# 
# High freq. dielectric constant tensor:
#      x y z
#    x 1.600150 0.000000 -0.027720 
#    y 0.000000 1.637680 0.000000 
#    z -0.027720 0.000000 1.608040 
# 
# From -- ./inp_files/237823.got.cif
#   From: 2010.06.25/outbox.cif.g09.slc.cpg/sg12_119_cif.got.tgz:237823.got - 2010.06.28 00:19:55.
