data_PCOD8081930
_publ_section_title
;
Structure prediction by ZEFSAII (Michael W. Deem and Ramdas Pophale) SiO2 
 PCOD8081930
Probable space group: C 2/M
;
_chemical_formula_sum "Si O2"
_cell_formula_units_Z 64
_cell_length_a 23.742810
_cell_length_b 8.785836
_cell_length_c 28.966686
_cell_angle_alpha 90.000000
_cell_angle_beta 31.264132
_cell_angle_gamma 90.000000
_cell_volume 3135.942413
_symmetry_space_group_name_H-M "C 2/M"
_symmetry_group_IT_number 12
_symmetry_cell_setting 'monoclinic'
loop_
_space_group_symop_operation_xyz
x,y,z
-x,y,-z
-x,-y,-z
x,-y,z
1/2+x,1/2+y,z
1/2-x,1/2+y,-z
1/2-x,1/2-y,-z
1/2+x,1/2-y,z
loop_
_atom_site_type_symbol
_atom_site_label
_atom_site_fract_x
_atom_site_fract_y
_atom_site_fract_z
Si Si1 0.829147 0.321257 0.834397
Si Si2 0.317952 0.318842 0.494526
Si Si3 0.630046 0.170237 0.015038
Si Si4 0.065537 0.328635 0.912180
Si Si5 0.701978 0.819463 0.669048
Si Si6 0.278964 0.317915 0.714643
Si Si7 0.446732 0.819467 0.660665
Si Si8 0.960493 0.318087 0.828263
O O1 0.834318 0.500000 0.834463
O O2 0.706280 0.270479 0.929168
O O3 0.867506 0.267199 0.757520
O O4 0.909282 0.252240 0.817128
O O5 0.316778 0.500000 0.490849
O O6 0.250000 0.250000 0.500000
O O7 0.267961 0.263551 0.578147
O O8 0.439347 0.257412 0.408562
O O9 0.677871 0.000000 0.981688
O O10 0.507936 0.171615 0.081678
O O11 0.618989 0.236181 0.074596
O O12 0.090515 0.500000 0.911786
O O13 0.180641 0.255271 0.816403
O O14 0.000000 0.243900 0.000000
O O15 0.759539 0.761735 0.675706
O O16 0.580981 0.750138 0.749849
O O17 0.695832 0.000000 0.674395
O O18 0.285886 0.500000 0.711900
O O19 0.392081 0.244548 0.652230
O O20 0.461728 0.000000 0.646964
O O21 0.966830 0.500000 0.824095
#
# Coordination Sequence:
#
# PCOD8081930 Si02
#       8
#     8   8   8   8   8   8   8   8
#     4  10  21  35  52  75 111 155 191 231 288 347
#     4  11  23  41  66  93 119 150 191 237 288 347
#     4  10  18  30  52  81 109 140 186 238 283 335
#     4   9  16  27  48  79 111 143 184 234 280 326
#     4   9  18  35  61  88 114 149 192 238 290 349
#     4  10  19  36  61  86 113 148 195 242 285 342
#     4  11  24  41  58  82 118 156 193 237 292 345
#     4   9  16  31  54  80 109 143 185 232 283 342
#
# _framework density 20.408538
#
# number of rings (size 3 to 8) (size 9 to 14) (size 15 to 20)
#    0.000    2.125    1.250    2.625    0.000    4.500 
#    0.000    4.375    0.000    4.500    0.000    0.000 
#    0.000    0.000    0.000    0.000    0.000    0.000 
#
# Total GULP energy -396705.100166 kJ/mol
# GULP energy per Si atom -12397.034380 kJ/mol
# Density = 2.036209 g / cm^3
# Si number density = 20.408538 Si / 1000 Ang^3
#
#
#
# Elastic Constant Matrix: (Units=GPa)
#
#
# Indices 1 2 3 4 5 6 
#
# 1 126.7340 28.3717 53.3008 -0.0137 -2.4630 0.0202
# 2 28.3717 29.3163 31.8942 -0.0220 1.8028 0.0929
# 3 53.3008 31.8942 120.2779 -0.0031 -0.5359 -0.0012
# 4 -0.0137 -0.0220 -0.0031 19.5992 0.0028 -3.1170
# 5 -2.4630 1.8028 -0.5359 0.0028 40.6836 -0.0175
# 6 0.0202 0.0929 -0.0012 -3.1170 -0.0175 25.5775
#
#
#
# Elastic Compliance Matrix: (Units=1/GPa)
#
#
# Indices 1 2 3 4 5 6 
#
# 1 0.010743 -0.007421 -0.002789 0.000002 0.000942 0.000019
# 2 -0.007421 0.053283 -0.010854 0.000023 -0.002953 -0.000187
# 3 -0.002789 -0.010854 0.012430 -0.000006 0.000476 0.000042
# 4 0.000002 0.000023 -0.000006 0.052031 -0.000002 0.006341
# 5 0.000942 -0.002953 0.000476 -0.000002 0.024774 0.000027
# 6 0.000019 -0.000187 0.000042 0.006341 0.000027 0.039870
#
#
# Mechanical properties :
#
#
# Convention : Reuss Voigt Hill
#
# Bulk Modulus (GPa) = 29.12966 55.94018 42.53492
# Shear Modulus (GPa) = 20.26746 28.02284 24.14515
#
# Velocity S-wave (km/s) = 3.15475 3.70955 3.44334
# Velocity P-wave (km/s) = 5.25111 6.76885 6.05770
#
# Compressibility (1/GPa) = 0.03432927
#
# Stress axis : x y z
#
# Youngs Moduli (GPa) = 93.08363 18.76780 80.45002
#
# Poissons Ratio (x) = 0.13927 0.22435
# Poissons Ratio (y) = 0.69077 0.87317
# Poissons Ratio (z) = 0.25958 0.20370
#
# Static dielectric constant tensor:
#      x y z
#    x 3.924410 -0.000060 0.145200 
#    y -0.000060 3.199310 0.000020 
#    z 0.145200 0.000020 3.823310 
# 
# 
# High freq. dielectric constant tensor:
#      x y z
#    x 1.815780 0.000000 0.003060 
#    y 0.000000 1.744980 0.000000 
#    z 0.003060 0.000000 1.804370 
# 
# From -- ./inp_files/382361.got.cif
#   From: 2010.06.25/outbox.cif.g09.slc.cpg/sg12_192_cif.got.tgz:382361.got - 2010.06.28 00:19:55.
