data_PCOD8081654
_publ_section_title
;
Structure prediction by ZEFSAII (Michael W. Deem and Ramdas Pophale) SiO2 
 PCOD8081654
Probable space group: C 2/M
;
_chemical_formula_sum "Si O2"
_cell_formula_units_Z 64
_cell_length_a 19.560826
_cell_length_b 13.577723
_cell_length_c 26.403096
_cell_angle_alpha 90.000000
_cell_angle_beta 146.860243
_cell_angle_gamma 90.000000
_cell_volume 3833.581046
_symmetry_space_group_name_H-M "C 2/M"
_symmetry_group_IT_number 12
_symmetry_cell_setting 'monoclinic'
loop_
_space_group_symop_operation_xyz
x,y,z
-x,y,-z
-x,-y,-z
x,-y,z
1/2+x,1/2+y,z
1/2-x,1/2+y,-z
1/2-x,1/2-y,-z
1/2+x,1/2-y,z
loop_
_atom_site_type_symbol
_atom_site_label
_atom_site_fract_x
_atom_site_fract_y
_atom_site_fract_z
Si Si1 0.164962 0.384986 0.799485
Si Si2 0.168828 0.108587 0.441482
Si Si3 0.097865 0.606710 0.518708
Si Si4 0.134977 0.110590 0.303566
Si Si5 0.438768 0.199377 0.601887
Si Si6 0.416421 0.386038 0.899069
Si Si7 0.451166 0.703923 0.114286
Si Si8 0.190783 0.614476 0.933434
O O1 0.137040 0.500000 0.777092
O O2 0.277477 0.355896 0.831143
O O3 0.192491 0.357620 0.874897
O O4 0.043282 0.324923 0.707749
O O5 0.117822 0.112643 0.352850
O O6 0.311329 0.142964 0.536997
O O7 0.079447 0.183791 0.415138
O O8 0.153337 0.000000 0.455318
O O9 0.140686 0.500000 0.521834
O O10 0.225003 0.654777 0.619716
O O11 0.022711 0.667706 0.430368
O O12 0.000000 0.585862 0.500000
O O13 0.034914 0.180235 0.214992
O O14 0.120604 0.000000 0.272443
O O15 0.421524 0.500000 0.883501
O O16 0.465793 0.313825 0.885043
O O17 0.500000 0.372063 0.000000
O O18 0.405239 0.817353 0.093597
O O19 0.331371 0.632453 0.040101
O O20 0.154562 0.500000 0.919724
#
# Coordination Sequence:
#
# PCOD8081654 Si02
#       8
#     8   8   8   8   8   8   8   8
#     4  10  19  31  51  78 104 126 159 206 254 298
#     4   9  18  32  48  70  99 127 159 201 237 279
#     4   9  18  30  44  69 100 123 150 193 239 283
#     4   9  17  29  47  70  96 122 154 192 236 290
#     4  10  18  30  50  72  96 128 161 193 241 293
#     4  10  19  32  50  75 105 129 157 205 254 296
#     4  11  20  32  53  75  97 135 166 197 248 302
#     4  10  21  35  50  74 103 129 164 209 244 287
#
# _framework density 16.694572999999998
#
# number of rings (size 3 to 8) (size 9 to 14) (size 15 to 20)
#    0.000    2.250    1.250    3.750    1.750    0.000 
#    0.000    0.000    0.000    1.500    0.000    0.000 
#    0.000    0.000    0.000    0.000    0.000    0.000 
#
# Total GULP energy -396542.331754 kJ/mol
# GULP energy per Si atom -12391.947867 kJ/mol
# Density = 1.665658 g / cm^3
# Si number density = 16.694573 Si / 1000 Ang^3
#
#
#
# Elastic Constant Matrix: (Units=GPa)
#
#
# Indices 1 2 3 4 5 6 
#
# 1 77.3358 45.3261 20.2699 0.0000 -0.5516 0.0000
# 2 45.3261 99.1911 34.6342 -0.0001 0.6405 -0.0001
# 3 20.2699 34.6342 102.7222 -0.0008 -1.7259 -0.0003
# 4 0.0000 -0.0001 -0.0008 22.0355 -0.0004 1.5743
# 5 -0.5516 0.6405 -1.7259 -0.0004 10.3219 -0.0002
# 6 0.0000 -0.0001 -0.0003 1.5743 -0.0002 23.6138
#
#
#
# Elastic Compliance Matrix: (Units=1/GPa)
#
#
# Indices 1 2 3 4 5 6 
#
# 1 0.017746 -0.007823 -0.000842 0.000000 0.001293 0.000000
# 2 -0.007823 0.014895 -0.003511 0.000000 -0.001929 0.000000
# 3 -0.000842 -0.003511 0.011119 0.000000 0.002032 0.000000
# 4 0.000000 0.000000 0.000000 0.045598 0.000002 -0.003040
# 5 0.001293 -0.001929 0.002032 0.000002 0.097410 0.000001
# 6 0.000000 0.000000 0.000000 -0.003040 0.000001 0.042551
#
#
# Mechanical properties :
#
#
# Convention : Reuss Voigt Hill
#
# Bulk Modulus (GPa) = 51.52757 53.30107 52.41432
# Shear Modulus (GPa) = 19.22038 23.12883 21.17460
#
# Velocity S-wave (km/s) = 3.39675 3.72615 3.56526
# Velocity P-wave (km/s) = 6.80557 7.10695 6.95789
#
# Compressibility (1/GPa) = 0.01940709
#
# Stress axis : x y z
#
# Youngs Moduli (GPa) = 56.35131 67.13783 89.93622
#
# Poissons Ratio (x) = 0.52524 0.07575
# Poissons Ratio (y) = 0.44086 0.31573
# Poissons Ratio (z) = 0.04746 0.23570
#
# Static dielectric constant tensor:
#      x y z
#    x 3.055920 0.000000 -0.005900 
#    y 0.000000 3.185580 0.000000 
#    z -0.005900 0.000000 3.220350 
# 
# 
# High freq. dielectric constant tensor:
#      x y z
#    x 1.622800 0.000000 -0.001050 
#    y 0.000000 1.622760 0.000000 
#    z -0.001050 0.000000 1.658540 
# 
# From -- ./inp_files/366073.got.cif
#   From: 2010.06.25/outbox.cif.g09.slc.cpg/sg12_184_cif.got.tgz:366073.got - 2010.06.28 00:19:55.
