data_PCOD8081428
_publ_section_title
;
Structure prediction by ZEFSAII (Michael W. Deem and Ramdas Pophale) SiO2 
 PCOD8081428
Probable space group: C 2/M
;
_chemical_formula_sum "Si O2"
_cell_formula_units_Z 48
_cell_length_a 34.034043
_cell_length_b 7.586786
_cell_length_c 10.672536
_cell_angle_alpha 90.000000
_cell_angle_beta 81.760167
_cell_angle_gamma 90.000000
_cell_volume 2727.296846
_symmetry_space_group_name_H-M "C 2/M"
_symmetry_group_IT_number 12
_symmetry_cell_setting 'monoclinic'
loop_
_space_group_symop_operation_xyz
x,y,z
-x,y,-z
-x,-y,-z
x,-y,z
1/2+x,1/2+y,z
1/2-x,1/2+y,-z
1/2-x,1/2-y,-z
1/2+x,1/2-y,z
loop_
_atom_site_type_symbol
_atom_site_label
_atom_site_fract_x
_atom_site_fract_y
_atom_site_fract_z
Si Si1 0.647973 0.500000 0.549127
Si Si2 0.102197 0.000000 0.950530
Si Si3 0.461715 0.799189 0.438114
Si Si4 0.121465 0.299219 0.395530
Si Si5 0.128794 0.700963 0.103891
Si Si6 0.063467 0.000000 0.718145
Si Si7 0.186700 0.000000 0.781524
Si Si8 0.711949 0.799367 0.937796
O O1 0.650579 0.674839 0.462508
O O2 0.607256 0.500000 0.642843
O O3 0.684392 0.500000 0.631218
O O4 0.065773 0.000000 0.868442
O O5 0.142912 0.000000 0.856714
O O6 0.099577 0.174899 0.037091
O O7 0.500000 0.745209 0.500000
O O8 0.424021 0.769944 0.544674
O O9 0.459486 0.674868 0.317303
O O10 0.464414 0.000000 0.388759
O O11 0.135153 0.500000 0.412245
O O12 0.125126 0.245348 0.249739
O O13 0.115271 0.500000 0.087010
O O14 0.174213 0.731708 0.043979
O O15 0.209825 0.825408 0.816878
O O16 0.714130 0.000000 0.888857
O O17 0.750000 0.750000 0.000000
#
# Coordination Sequence:
#
# PCOD8081428 Si02
#       8
#     4   4   8   8   8   4   4   8
#     4   9  17  29  46  68  94 120 148 186 228 266
#     4   9  17  29  45  67  95 118 151 187 228 265
#     4   9  17  29  47  69  92 119 153 188 225 266
#     4   9  17  30  48  70  91 118 153 187 225 264
#     4   9  18  30  47  70  90 116 150 189 224 265
#     4   9  17  28  44  68  94 121 149 189 226 267
#     4   9  18  30  45  69  95 117 148 188 225 266
#     4  10  18  30  48  70  89 115 149 185 226 265
#
# _framework density 17.599843
#
# number of rings (size 3 to 8) (size 9 to 14) (size 15 to 20)
#    0.000    2.833    0.833    0.750    0.000    1.333 
#    0.000    6.667    0.000    3.000    0.000    4.667 
#    0.000    0.000    0.000    0.000    0.000    0.000 
#
# Total GULP energy -297568.557797 kJ/mol
# GULP energy per Si atom -12398.689908 kJ/mol
# Density = 1.755979 g / cm^3
# Si number density = 17.599843 Si / 1000 Ang^3
#
#
#
# Elastic Constant Matrix: (Units=GPa)
#
#
# Indices 1 2 3 4 5 6 
#
# 1 55.3146 46.4809 45.5179 0.0000 29.0788 0.0000
# 2 46.4809 146.7857 87.6422 0.0000 34.2992 0.0000
# 3 45.5179 87.6422 135.2169 0.0000 40.5356 0.0000
# 4 0.0000 0.0000 0.0000 26.8359 0.0000 4.7189
# 5 29.0788 34.2992 40.5356 0.0000 32.0314 0.0000
# 6 0.0000 0.0000 0.0000 4.7189 0.0000 18.0603
#
#
#
# Elastic Compliance Matrix: (Units=1/GPa)
#
#
# Indices 1 2 3 4 5 6 
#
# 1 0.037483 -0.004644 -0.001446 0.000000 -0.027225 0.000000
# 2 -0.004644 0.012104 -0.005898 0.000000 -0.001281 0.000000
# 3 -0.001446 -0.005898 0.015176 0.000000 -0.011576 0.000000
# 4 0.000000 0.000000 0.000000 0.039058 0.000000 -0.010205
# 5 -0.027225 -0.001281 -0.011576 0.000000 0.071956 0.000000
# 6 0.000000 0.000000 0.000000 -0.010205 0.000000 0.058037
#
#
# Mechanical properties :
#
#
# Convention : Reuss Voigt Hill
#
# Bulk Modulus (GPa) = 24.51836 77.39991 50.95914
# Shear Modulus (GPa) = 18.42398 25.89725 22.16062
#
# Velocity S-wave (km/s) = 3.23898 3.84011 3.55228
# Velocity P-wave (km/s) = 5.28670 7.98342 6.77068
#
# Compressibility (1/GPa) = 0.04078576
#
# Stress axis : x y z
#
# Youngs Moduli (GPa) = 26.67878 82.61575 65.89559
#
# Poissons Ratio (x) = 0.38369 0.09530
# Poissons Ratio (y) = 0.12390 0.38865
# Poissons Ratio (z) = 0.03858 0.48727
#
# Static dielectric constant tensor:
#      x y z
#    x 3.064700 0.000000 0.235770 
#    y 0.000000 3.549250 0.000000 
#    z 0.235770 0.000000 3.387280 
# 
# 
# High freq. dielectric constant tensor:
#      x y z
#    x 1.647790 0.000000 0.016910 
#    y 0.000000 1.699460 0.000000 
#    z 0.016910 0.000000 1.666700 
# 
# From -- ./inp_files/108880.got.cif
#   From: 2010.06.25/outbox.cif.g09.slc.cpg/sg12_55_cif.got.tgz:108880.got - 2010.06.28 00:19:55.
