data_PCOD8081557
_publ_section_title
;
Structure prediction by ZEFSAII (Michael W. Deem and Ramdas Pophale) SiO2 
 PCOD8081557
Probable space group: C 2/M
;
_chemical_formula_sum "Si O2"
_cell_formula_units_Z 56
_cell_length_a 19.317261
_cell_length_b 9.138437
_cell_length_c 28.978500
_cell_angle_alpha 90.000000
_cell_angle_beta 142.042047
_cell_angle_gamma 90.000000
_cell_volume 3146.495466
_symmetry_space_group_name_H-M "C 2/M"
_symmetry_group_IT_number 12
_symmetry_cell_setting 'monoclinic'
loop_
_space_group_symop_operation_xyz
x,y,z
-x,y,-z
-x,-y,-z
x,-y,z
1/2+x,1/2+y,z
1/2-x,1/2+y,-z
1/2-x,1/2-y,-z
1/2+x,1/2-y,z
loop_
_atom_site_type_symbol
_atom_site_label
_atom_site_fract_x
_atom_site_fract_y
_atom_site_fract_z
Si Si1 0.048906 0.168593 0.253405
Si Si2 0.678441 0.169925 0.397747
Si Si3 0.623819 0.669965 0.193563
Si Si4 0.622511 0.170947 0.683063
Si Si5 0.587779 0.330811 0.439208
Si Si6 0.655846 0.332552 0.792437
Si Si7 0.090677 0.670573 0.083497
O O1 0.137188 0.268286 0.327317
O O2 0.053903 0.212933 0.202315
O O3 0.920633 0.194066 0.202616
O O4 0.085861 0.000000 0.279174
O O5 0.619861 0.258913 0.407532
O O6 0.813526 0.191552 0.471530
O O7 0.646074 0.000000 0.385703
O O8 0.614235 0.500000 0.176314
O O9 0.754334 0.712281 0.271205
O O10 0.572620 0.756471 0.123690
O O11 0.526699 0.253737 0.602615
O O12 0.610611 0.224818 0.729459
O O13 0.598465 0.000000 0.668156
O O14 0.563762 0.500000 0.417142
O O15 0.645299 0.500000 0.769428
O O16 0.785573 0.296068 0.872217
O O17 0.069642 0.500000 0.079728
O O18 0.000000 0.735939 0.000000
#
# Coordination Sequence:
#
# PCOD8081557 Si02
#       7
#     8   8   8   8   8   8   8
#     4  10  19  33  51  72 101 134 168 206 251 300
#     4  10  20  31  47  72 100 130 167 212 253 291
#     4   9  20  35  51  74 103 134 165 203 252 298
#     4  10  18  30  49  72  97 127 170 215 248 291
#     4  10  19  31  47  70  99 131 168 209 255 298
#     4   9  17  30  51  74  96 129 168 204 246 296
#     4   9  18  34  55  78 102 129 164 205 248 296
#
# _framework density 17.797578000000001
#
# number of rings (size 3 to 8) (size 9 to 14) (size 15 to 20)
#    0.000    2.429    1.429    1.286    0.000    3.143 
#    0.000    1.429    0.000    4.286    0.000    0.000 
#    0.000    0.000    0.000    0.000    0.000    0.000 
#
# Total GULP energy -347179.349129 kJ/mol
# GULP energy per Si atom -12399.262469 kJ/mol
# Density = 1.775707 g / cm^3
# Si number density = 17.797578 Si / 1000 Ang^3
#
#
#
# Elastic Constant Matrix: (Units=GPa)
#
#
# Indices 1 2 3 4 5 6 
#
# 1 103.3141 31.5485 43.4962 0.0000 -2.0167 0.0000
# 2 31.5485 74.9555 44.0031 0.0001 -0.8964 -0.0003
# 3 43.4962 44.0031 114.8562 0.0000 2.4822 0.0000
# 4 0.0000 0.0001 0.0000 27.2544 0.0000 -1.6089
# 5 -2.0167 -0.8964 2.4822 0.0000 19.5990 0.0000
# 6 0.0000 -0.0003 0.0000 -1.6089 0.0000 22.0609
#
#
#
# Elastic Compliance Matrix: (Units=1/GPa)
#
#
# Indices 1 2 3 4 5 6 
#
# 1 0.012090 -0.003048 -0.003444 0.000000 0.001541 0.000000
# 2 -0.003048 0.018033 -0.005781 0.000000 0.001243 0.000000
# 3 -0.003444 -0.005781 0.012273 0.000000 -0.002173 0.000000
# 4 0.000000 0.000000 0.000000 0.036850 0.000000 0.002688
# 5 0.001541 0.001243 -0.002173 0.000000 0.051514 0.000000
# 6 0.000000 0.000000 0.000000 0.002688 0.000000 0.045525
#
#
# Mechanical properties :
#
#
# Convention : Reuss Voigt Hill
#
# Bulk Modulus (GPa) = 56.02662 59.02460 57.52561
# Shear Modulus (GPa) = 24.18016 25.38805 24.78411
#
# Velocity S-wave (km/s) = 3.68995 3.78099 3.73574
# Velocity P-wave (km/s) = 7.05000 7.23170 7.14143
#
# Compressibility (1/GPa) = 0.01784866
#
# Stress axis : x y z
#
# Youngs Moduli (GPa) = 82.71218 55.45362 81.48256
#
# Poissons Ratio (x) = 0.16905 0.28062
# Poissons Ratio (y) = 0.25215 0.47106
# Poissons Ratio (z) = 0.28485 0.32059
#
# Static dielectric constant tensor:
#      x y z
#    x 3.181950 0.000000 0.255920 
#    y 0.000000 3.349360 0.000000 
#    z 0.255920 0.000000 3.417560 
# 
# 
# High freq. dielectric constant tensor:
#      x y z
#    x 1.667450 0.000000 0.018770 
#    y 0.000000 1.692990 0.000000 
#    z 0.018770 0.000000 1.681170 
# 
# From -- ./inp_files/280373.got.cif
#   From: 2010.06.25/outbox.cif.g09.slc.cpg/sg12_141_cif.got.tgz:280373.got - 2010.06.28 00:19:55.
