data_PCOD8081447
_publ_section_title
;
Structure prediction by ZEFSAII (Michael W. Deem and Ramdas Pophale) SiO2 
 PCOD8081447
Probable space group: C 2/M
;
_chemical_formula_sum "Si O2"
_cell_formula_units_Z 48
_cell_length_a 20.613995
_cell_length_b 8.781476
_cell_length_c 31.462818
_cell_angle_alpha 90.000000
_cell_angle_beta 151.340434
_cell_angle_gamma 90.000000
_cell_volume 2731.558054
_symmetry_space_group_name_H-M "C 2/M"
_symmetry_group_IT_number 12
_symmetry_cell_setting 'monoclinic'
loop_
_space_group_symop_operation_xyz
x,y,z
-x,y,-z
-x,-y,-z
x,-y,z
1/2+x,1/2+y,z
1/2-x,1/2+y,-z
1/2-x,1/2-y,-z
1/2+x,1/2-y,z
loop_
_atom_site_type_symbol
_atom_site_label
_atom_site_fract_x
_atom_site_fract_y
_atom_site_fract_z
Si Si1 0.548165 0.817813 0.727267
Si Si2 0.000399 0.677138 0.451233
Si Si3 0.929923 0.827668 0.893772
Si Si4 0.807931 0.829718 0.917080
Si Si5 0.271519 0.678347 0.558167
Si Si6 0.675938 0.321935 0.718051
O O1 0.657629 0.756415 0.825709
O O2 0.403533 0.749665 0.656469
O O3 0.589440 0.765628 0.703838
O O4 0.543576 0.000000 0.724386
O O5 0.965952 0.500000 0.424868
O O6 0.146481 0.718162 0.516336
O O7 0.000000 0.723625 0.500000
O O8 0.885031 0.776921 0.362430
O O9 0.865529 0.832067 0.902985
O O10 0.835004 0.724677 0.809344
O O11 0.936573 0.000000 0.879307
O O12 0.082442 0.753953 0.987279
O O13 0.791572 0.000000 0.924835
O O14 0.292715 0.500000 0.564604
O O15 0.250000 0.750000 0.500000
O O16 0.663120 0.500000 0.718983
#
# Coordination Sequence:
#
# PCOD8081447 Si02
#       6
#     8   8   8   8   8   8
#     4  10  18  30  48  70  99 132 166 201 241 292
#     4  10  22  39  55  70  94 132 173 207 243 295
#     4   8  13  25  43  62  90 127 164 197 237 290
#     4   7  12  23  41  64  90 125 163 197 234 285
#     4  11  21  33  52  76 100 128 164 205 251 298
#     4  11  20  29  45  71 100 129 163 203 251 295
#
# _framework density 17.572389000000001
#
# number of rings (size 3 to 8) (size 9 to 14) (size 15 to 20)
#    0.000    2.500    1.667    4.500    0.000    1.000 
#    0.000    7.500    0.000    0.000    0.000    1.167 
#    0.000    0.000    0.000    0.000    0.000    0.000 
#
# Total GULP energy -297340.028789 kJ/mol
# GULP energy per Si atom -12389.167866 kJ/mol
# Density = 1.753239 g / cm^3
# Si number density = 17.572389 Si / 1000 Ang^3
#
#
#
# Elastic Constant Matrix: (Units=GPa)
#
#
# Indices 1 2 3 4 5 6 
#
# 1 61.9625 26.4648 48.9742 0.0000 2.2261 0.0000
# 2 26.4648 74.9790 55.9350 0.0000 3.6174 0.0002
# 3 48.9742 55.9350 187.5816 0.0004 20.5723 -0.0001
# 4 0.0000 0.0000 0.0004 25.2060 0.0001 5.4475
# 5 2.2261 3.6174 20.5723 0.0001 15.9199 0.0000
# 6 0.0000 0.0002 -0.0001 5.4475 0.0000 14.2927
#
#
#
# Elastic Compliance Matrix: (Units=1/GPa)
#
#
# Indices 1 2 3 4 5 6 
#
# 1 0.021621 -0.004218 -0.004848 0.000000 0.004200 0.000000
# 2 -0.004218 0.018113 -0.004559 0.000000 0.002366 0.000000
# 3 -0.004848 -0.004559 0.009051 0.000000 -0.009982 0.000000
# 4 0.000000 0.000000 0.000000 0.043234 0.000000 -0.016478
# 5 0.004200 0.002366 -0.009982 0.000000 0.074589 0.000000
# 6 0.000000 0.000000 0.000000 -0.016478 0.000000 0.076246
#
#
# Mechanical properties :
#
#
# Convention : Reuss Voigt Hill
#
# Bulk Modulus (GPa) = 46.43526 65.25236 55.84381
# Shear Modulus (GPa) = 18.03216 23.96033 20.99625
#
# Velocity S-wave (km/s) = 3.20686 3.69659 3.46040
# Velocity P-wave (km/s) = 6.33990 7.44539 6.91477
#
# Compressibility (1/GPa) = 0.02153536
#
# Stress axis : x y z
#
# Youngs Moduli (GPa) = 46.25157 55.20917 110.48462
#
# Poissons Ratio (x) = 0.23284 0.53561
# Poissons Ratio (y) = 0.19507 0.50375
# Poissons Ratio (z) = 0.22422 0.25172
#
# Static dielectric constant tensor:
#      x y z
#    x 2.780500 0.000000 0.362220 
#    y 0.000000 3.135890 0.000000 
#    z 0.362220 0.000000 4.094710 
# 
# 
# High freq. dielectric constant tensor:
#      x y z
#    x 1.609140 0.000000 0.018790 
#    y 0.000000 1.663790 0.000000 
#    z 0.018790 0.000000 1.710980 
# 
# From -- ./inp_files/380138.got.cif
#   From: 2010.06.25/outbox.cif.g09.slc.cpg/sg12_191_cif.got.tgz:380138.got - 2010.06.28 00:19:55.
