data_PCOD8081541
_publ_section_title
;
Structure prediction by ZEFSAII (Michael W. Deem and Ramdas Pophale) SiO2 
 PCOD8081541
Probable space group: C 2/M
;
_chemical_formula_sum "Si O2"
_cell_formula_units_Z 56
_cell_length_a 23.267192
_cell_length_b 14.627885
_cell_length_c 9.411309
_cell_angle_alpha 90.000000
_cell_angle_beta 111.963980
_cell_angle_gamma 90.000000
_cell_volume 2970.650875
_symmetry_space_group_name_H-M "C 2/M"
_symmetry_group_IT_number 12
_symmetry_cell_setting 'monoclinic'
loop_
_space_group_symop_operation_xyz
x,y,z
-x,y,-z
-x,-y,-z
x,-y,z
1/2+x,1/2+y,z
1/2-x,1/2+y,-z
1/2-x,1/2-y,-z
1/2+x,1/2-y,z
loop_
_atom_site_type_symbol
_atom_site_label
_atom_site_fract_x
_atom_site_fract_y
_atom_site_fract_z
Si Si1 0.335243 0.900869 0.742997
Si Si2 0.476361 0.901136 0.818851
Si Si3 0.107396 0.894921 0.554658
Si Si4 0.407145 0.393381 0.133465
Si Si5 0.147848 0.209680 0.164920
Si Si6 0.718777 0.603387 0.455409
Si Si7 0.530802 0.707187 0.263397
O O1 0.402731 0.908447 0.738713
O O2 0.334984 0.815992 0.852781
O O3 0.288820 0.878559 0.570303
O O4 0.317395 0.000000 0.797406
O O5 0.495274 0.811859 0.744103
O O6 0.503677 0.000000 0.789605
O O7 0.500000 0.884022 0.000000
O O8 0.112148 0.870282 0.724007
O O9 0.174155 0.876465 0.547859
O O10 0.055998 0.829446 0.436816
O O11 0.085973 0.000000 0.513055
O O12 0.404770 0.500000 0.097317
O O13 0.475518 0.357420 0.161304
O O14 0.357344 0.342959 0.987749
O O15 0.203721 0.167946 0.308838
O O16 0.083737 0.202262 0.192656
O O17 0.709250 0.500000 0.393845
#
# Coordination Sequence:
#
# PCOD8081541 Si02
#       7
#     8   8   8   8   8   8   8
#     4   9  17  30  50  72  95 125 157 190 234 285
#     4   9  17  30  49  75 101 121 150 196 243 280
#     4   9  19  33  48  68  97 131 161 191 231 282
#     4  11  21  32  47  69  98 129 158 193 240 284
#     4  10  19  30  47  73  98 120 157 203 238 271
#     4   9  17  31  50  71  95 125 160 194 230 277
#     4  10  18  30  49  71  95 126 161 193 231 282
#
# _framework density 18.851089000000002
#
# number of rings (size 3 to 8) (size 9 to 14) (size 15 to 20)
#    0.000    2.429    0.000    3.857    0.000    3.429 
#    0.000    0.714    0.000    2.571    0.000    0.000 
#    0.000    0.000    0.000    0.000    0.000    0.000 
#
# Total GULP energy -347014.013196 kJ/mol
# GULP energy per Si atom -12393.357614 kJ/mol
# Density = 1.880818 g / cm^3
# Si number density = 18.851089 Si / 1000 Ang^3
#
#
#
# Elastic Constant Matrix: (Units=GPa)
#
#
# Indices 1 2 3 4 5 6 
#
# 1 38.6823 17.1143 35.6563 0.0000 19.3216 0.0000
# 2 17.1143 164.1636 84.5446 0.0000 2.3584 0.0000
# 3 35.6563 84.5446 125.3370 0.0000 13.1145 0.0000
# 4 0.0000 0.0000 0.0000 37.4730 0.0000 14.6261
# 5 19.3216 2.3584 13.1145 0.0000 24.2238 0.0000
# 6 0.0000 0.0000 0.0000 14.6261 0.0000 28.0344
#
#
#
# Elastic Compliance Matrix: (Units=1/GPa)
#
#
# Indices 1 2 3 4 5 6 
#
# 1 0.056048 0.001337 -0.012885 0.000000 -0.037860 0.000000
# 2 0.001337 0.009529 -0.006996 0.000000 0.001794 0.000000
# 3 -0.012885 -0.006996 0.016130 0.000000 0.002226 0.000000
# 4 0.000000 0.000000 0.000000 0.033509 0.000000 -0.017483
# 5 -0.037860 0.001794 0.002226 0.000000 0.070100 0.000000
# 6 0.000000 0.000000 0.000000 -0.017483 0.000000 0.044791
#
#
# Mechanical properties :
#
#
# Convention : Reuss Voigt Hill
#
# Bulk Modulus (GPa) = 22.41183 66.97925 44.69554
# Shear Modulus (GPa) = 17.72612 30.67078 24.19845
#
# Velocity S-wave (km/s) = 3.06980 4.03799 3.58671
# Velocity P-wave (km/s) = 4.94768 7.57287 6.39640
#
# Compressibility (1/GPa) = 0.04461929
#
# Stress axis : x y z
#
# Youngs Moduli (GPa) = 17.84178 104.94090 61.99630
#
# Poissons Ratio (x) = -0.14026 0.79882
# Poissons Ratio (y) = -0.02385 0.43371
# Poissons Ratio (z) = 0.22989 0.73413
#
# Static dielectric constant tensor:
#      x y z
#    x 3.166930 0.000000 0.311650 
#    y 0.000000 4.141220 0.000000 
#    z 0.311650 0.000000 3.342730 
# 
# 
# High freq. dielectric constant tensor:
#      x y z
#    x 1.693020 0.000000 0.040150 
#    y 0.000000 1.757430 0.000000 
#    z 0.040150 0.000000 1.715670 
# 
# From -- ./inp_files/96470.got.cif
#   From: 2010.06.25/outbox.cif.g09.slc.cpg/sg12_49_cif.got.tgz:96470.got - 2010.06.28 00:19:55.
