data_PCOD8081796
_publ_section_title
;
Structure prediction by ZEFSAII (Michael W. Deem and Ramdas Pophale) SiO2 
 PCOD8081796
Probable space group: C 2/M
;
_chemical_formula_sum "Si O2"
_cell_formula_units_Z 56
_cell_length_a 25.513611
_cell_length_b 9.007365
_cell_length_c 14.748667
_cell_angle_alpha 90.000000
_cell_angle_beta 59.959438
_cell_angle_gamma 90.000000
_cell_volume 2934.103565
_symmetry_space_group_name_H-M "C 2/M"
_symmetry_group_IT_number 12
_symmetry_cell_setting 'monoclinic'
loop_
_space_group_symop_operation_xyz
x,y,z
-x,y,-z
-x,-y,-z
x,-y,z
1/2+x,1/2+y,z
1/2-x,1/2+y,-z
1/2-x,1/2-y,-z
1/2+x,1/2-y,z
loop_
_atom_site_type_symbol
_atom_site_label
_atom_site_fract_x
_atom_site_fract_y
_atom_site_fract_z
Si Si1 0.178558 0.324108 0.807699
Si Si2 0.955244 0.323978 0.118826
Si Si3 0.732566 0.324267 0.423117
Si Si4 0.737054 0.676460 0.105869
Si Si5 0.893353 0.175523 0.716918
Si Si6 0.598668 0.324216 0.490131
Si Si7 0.509608 0.675961 0.722906
O O1 0.177542 0.500000 0.805848
O O2 0.110752 0.262471 0.853115
O O3 0.220568 0.262623 0.691302
O O4 0.208189 0.271435 0.876341
O O5 0.955225 0.500000 0.132160
O O6 0.975710 0.252188 0.195021
O O7 0.000000 0.274612 0.000000
O O8 0.736001 0.500000 0.429031
O O9 0.750000 0.250000 0.500000
O O10 0.665957 0.271170 0.454593
O O11 0.735023 0.500000 0.097375
O O12 0.672923 0.737311 0.199656
O O13 0.750000 0.750000 0.000000
O O14 0.915560 0.236339 0.599145
O O15 0.941482 0.220453 0.752505
O O16 0.888583 0.000000 0.712135
O O17 0.592306 0.500000 0.496895
O O18 0.553513 0.260517 0.605743
O O19 0.517001 0.500000 0.728217
#
# Coordination Sequence:
#
# PCOD8081796 Si02
#       7
#     8   8   8   8   8   8   8
#     4   9  18  35  55  73  99 137 175 208 249 305
#     4  10  22  38  54  72  99 141 183 211 247 305
#     4  10  18  30  51  75 101 133 168 206 250 300
#     4  10  20  35  56  79 103 134 173 214 256 302
#     4   9  17  32  54  80 107 135 167 206 256 312
#     4   9  16  30  52  78 104 133 168 203 249 313
#     4  10  20  33  54  82 107 131 166 215 261 298
#
# _framework density 19.085896000000002
#
# number of rings (size 3 to 8) (size 9 to 14) (size 15 to 20)
#    0.000    2.429    1.429    1.286    2.000    2.000 
#    0.000    1.429    0.000    3.429    0.000    0.000 
#    0.000    0.000    0.000    0.000    0.000    0.000 
#
# Total GULP energy -347108.785413 kJ/mol
# GULP energy per Si atom -12396.742336 kJ/mol
# Density = 1.904246 g / cm^3
# Si number density = 19.085896 Si / 1000 Ang^3
#
#
#
# Elastic Constant Matrix: (Units=GPa)
#
#
# Indices 1 2 3 4 5 6 
#
# 1 175.0925 27.7728 94.4631 0.0000 10.8108 0.0000
# 2 27.7728 15.7527 24.4660 0.0000 4.0635 0.0000
# 3 94.4631 24.4660 163.9152 0.0000 15.3887 0.0000
# 4 0.0000 0.0000 0.0000 21.3643 0.0000 10.9163
# 5 10.8108 4.0635 15.3887 0.0000 40.6880 0.0000
# 6 0.0000 0.0000 0.0000 10.9163 0.0000 21.7742
#
#
#
# Elastic Compliance Matrix: (Units=1/GPa)
#
#
# Indices 1 2 3 4 5 6 
#
# 1 0.009505 -0.010742 -0.003876 0.000000 0.000013 0.000000
# 2 -0.010742 0.095325 -0.007685 0.000000 -0.003759 0.000000
# 3 -0.003876 -0.007685 0.009655 0.000000 -0.001855 0.000000
# 4 0.000000 0.000000 0.000000 0.062926 0.000000 -0.031548
# 5 0.000013 -0.003759 -0.001855 0.000000 0.025651 0.000000
# 6 0.000000 0.000000 0.000000 -0.031548 0.000000 0.061742
#
#
# Mechanical properties :
#
#
# Convention : Reuss Voigt Hill
#
# Bulk Modulus (GPa) = 14.31006 72.01826 43.16416
# Shear Modulus (GPa) = 15.02837 30.63587 22.83212
#
# Velocity S-wave (km/s) = 2.80912 4.01079 3.46248
# Velocity P-wave (km/s) = 4.24683 7.69833 6.21690
#
# Compressibility (1/GPa) = 0.06988089
#
# Stress axis : x y z
#
# Youngs Moduli (GPa) = 105.20421 10.49038 103.56948
#
# Poissons Ratio (x) = 0.11269 0.40140
# Poissons Ratio (y) = 1.13014 0.79589
# Poissons Ratio (z) = 0.40774 0.08061
#
# Static dielectric constant tensor:
#      x y z
#    x 3.830020 0.000000 -0.157940 
#    y 0.000000 2.946850 0.000000 
#    z -0.157940 0.000000 3.722740 
# 
# 
# High freq. dielectric constant tensor:
#      x y z
#    x 1.762630 0.000000 0.000180 
#    y 0.000000 1.682140 0.000000 
#    z 0.000180 0.000000 1.757470 
# 
# From -- ./inp_files/174468.got.cif
#   From: 2010.06.25/outbox.cif.g09.slc.cpg/sg12_88_cif.got.tgz:174468.got - 2010.06.28 00:19:55.
