data_PCOD8081461
_publ_section_title
;
Structure prediction by ZEFSAII (Michael W. Deem and Ramdas Pophale) SiO2 
 PCOD8081461
Probable space group: C 2/M
;
_chemical_formula_sum "Si O2"
_cell_formula_units_Z 48
_cell_length_a 23.041661
_cell_length_b 8.899119
_cell_length_c 17.313879
_cell_angle_alpha 90.000000
_cell_angle_beta 59.865598
_cell_angle_gamma 90.000000
_cell_volume 3070.407632
_symmetry_space_group_name_H-M "C 2/M"
_symmetry_group_IT_number 12
_symmetry_cell_setting 'monoclinic'
loop_
_space_group_symop_operation_xyz
x,y,z
-x,y,-z
-x,-y,-z
x,-y,z
1/2+x,1/2+y,z
1/2-x,1/2+y,-z
1/2-x,1/2-y,-z
1/2+x,1/2-y,z
loop_
_atom_site_type_symbol
_atom_site_label
_atom_site_fract_x
_atom_site_fract_y
_atom_site_fract_z
Si Si1 0.016084 0.176502 0.576871
Si Si2 0.350921 0.176213 0.451355
Si Si3 0.778544 0.823648 0.365405
Si Si4 0.382487 0.330902 0.749232
Si Si5 0.274046 0.177239 0.905429
Si Si6 0.746754 0.169577 0.774365
O O1 0.078916 0.271871 0.561725
O O2 0.000000 0.218395 0.500000
O O3 0.953303 0.229061 0.671115
O O4 0.030649 0.000000 0.576388
O O5 0.293255 0.220698 0.550755
O O6 0.337729 0.259137 0.379212
O O7 0.351683 0.000000 0.435054
O O8 0.785686 0.751993 0.276511
O O9 0.787911 0.000000 0.351471
O O10 0.390061 0.500000 0.777015
O O11 0.352200 0.224516 0.837258
O O12 0.328536 0.331449 0.714157
O O13 0.227675 0.242112 0.866435
O O14 0.267114 0.000000 0.914796
O O15 0.250000 0.250000 0.000000
O O16 0.718467 0.000000 0.797207
#
# Coordination Sequence:
#
# PCOD8081461 Si02
#       6
#     8   8   8   8   8   8
#     4  10  19  32  48  68  95 131 165 196 238 286
#     4  10  21  32  45  66  93 126 165 205 241 279
#     4  10  19  32  47  66  91 125 165 204 242 283
#     4   8  17  30  45  68  97 127 158 192 236 286
#     4  10  18  30  48  72 100 126 157 196 243 291
#     4   9  17  30  48  69  95 123 153 194 240 285
#
# _framework density 15.633103999999999
#
# number of rings (size 3 to 8) (size 9 to 14) (size 15 to 20)
#    1.000    1.500    0.000    3.500    0.000    4.333 
#    0.000    0.000    0.000    0.000    0.000    1.167 
#    0.000    9.333    0.000    0.000    0.000    0.000 
#
# Total GULP energy -297439.916141 kJ/mol
# GULP energy per Si atom -12393.329839 kJ/mol
# Density = 1.559752 g / cm^3
# Si number density = 15.633104 Si / 1000 Ang^3
#
#
#
# Elastic Constant Matrix: (Units=GPa)
#
#
# Indices 1 2 3 4 5 6 
#
# 1 66.7673 36.9061 38.4623 0.0000 11.9414 0.0001
# 2 36.9061 104.8949 55.3498 0.0001 14.5233 0.0002
# 3 38.4623 55.3498 104.1311 0.0000 17.4097 0.0000
# 4 0.0000 0.0001 0.0000 26.2282 0.0000 3.8504
# 5 11.9414 14.5233 17.4097 0.0000 25.7007 0.0000
# 6 0.0001 0.0002 0.0000 3.8504 0.0000 28.6193
#
#
#
# Elastic Compliance Matrix: (Units=1/GPa)
#
#
# Indices 1 2 3 4 5 6 
#
# 1 0.020781 -0.004250 -0.004741 0.000000 -0.004042 0.000000
# 2 -0.004250 0.014336 -0.005668 0.000000 -0.002287 0.000000
# 3 -0.004741 -0.005668 0.015183 0.000000 -0.004879 0.000000
# 4 0.000000 0.000000 0.000000 0.038895 0.000000 -0.005233
# 5 -0.004042 -0.002287 -0.004879 0.000000 0.045385 0.000000
# 6 0.000000 0.000000 0.000000 -0.005233 0.000000 0.035645
#
#
# Mechanical properties :
#
#
# Convention : Reuss Voigt Hill
#
# Bulk Modulus (GPa) = 47.66015 59.69220 53.67617
# Shear Modulus (GPa) = 24.20871 25.78132 24.99501
#
# Velocity S-wave (km/s) = 3.93944 4.06538 4.00290
# Velocity P-wave (km/s) = 7.15857 7.76547 7.46818
#
# Compressibility (1/GPa) = 0.02098189
#
# Stress axis : x y z
#
# Youngs Moduli (GPa) = 48.12171 69.75317 65.86382
#
# Poissons Ratio (x) = 0.29647 0.31223
# Poissons Ratio (y) = 0.20453 0.37332
# Poissons Ratio (z) = 0.22813 0.39536
#
# Static dielectric constant tensor:
#      x y z
#    x 2.780050 0.000000 0.061700 
#    y 0.000000 3.021010 0.000000 
#    z 0.061700 0.000000 2.820780 
# 
# 
# High freq. dielectric constant tensor:
#      x y z
#    x 1.575320 0.000000 0.012220 
#    y 0.000000 1.612650 0.000000 
#    z 0.012220 0.000000 1.580430 
# 
# From -- ./inp_files/286979.got.cif
#   From: 2010.06.25/outbox.cif.g09.slc.cpg/sg12_144_cif.got.tgz:286979.got - 2010.06.28 00:19:55.
