data_PCOD8081063
_publ_section_title
;
Structure prediction by ZEFSAII (Michael W. Deem and Ramdas Pophale) SiO2 
 PCOD8081063
Probable space group: C 2/M
;
_chemical_formula_sum "Si O2"
_cell_formula_units_Z 56
_cell_length_a 27.345269
_cell_length_b 8.491743
_cell_length_c 14.482308
_cell_angle_alpha 90.000000
_cell_angle_beta 103.647616
_cell_angle_gamma 90.000000
_cell_volume 3267.970937
_symmetry_space_group_name_H-M "C 2/M"
_symmetry_group_IT_number 12
_symmetry_cell_setting 'monoclinic'
loop_
_space_group_symop_operation_xyz
x,y,z
-x,y,-z
-x,-y,-z
x,-y,z
1/2+x,1/2+y,z
1/2-x,1/2+y,-z
1/2-x,1/2-y,-z
1/2+x,1/2-y,z
loop_
_atom_site_type_symbol
_atom_site_label
_atom_site_fract_x
_atom_site_fract_y
_atom_site_fract_z
Si Si1 0.055893 0.312884 0.032241
Si Si2 0.206588 0.183929 0.110563
Si Si3 0.689809 0.316783 0.789071
Si Si4 0.817187 0.817308 0.593622
Si Si5 0.869057 0.316582 0.781846
Si Si6 0.639540 0.187112 0.928615
Si Si7 0.206150 0.682754 0.604471
O O1 0.053581 0.500000 0.030700
O O2 0.089146 0.256006 0.959732
O O3 0.081529 0.257481 0.140047
O O4 0.000000 0.239429 0.000000
O O5 0.265459 0.212364 0.148843
O O6 0.179338 0.284659 0.177204
O O7 0.194342 0.000000 0.117702
O O8 0.188402 0.245447 0.003333
O O9 0.700512 0.500000 0.807624
O O10 0.640656 0.262477 0.826287
O O11 0.681800 0.279819 0.677651
O O12 0.863172 0.775760 0.682621
O O13 0.824667 0.722374 0.501994
O O14 0.764476 0.767462 0.617723
O O15 0.817277 0.000000 0.569218
O O16 0.872402 0.500000 0.760554
O O17 0.642147 0.000000 0.925293
O O18 0.201366 0.500000 0.625686
#
# Coordination Sequence:
#
# PCOD8081063 Si02
#       7
#     8   8   8   8   8   8   8
#     4   8  16  32  53  76  98 122 157 201 244 286
#     4  11  20  31  45  65  95 129 165 200 235 280
#     4  12  22  32  46  66  96 131 165 198 236 283
#     4  10  19  31  47  68  97 131 165 203 239 280
#     4  10  18  29  49  73  98 129 163 200 241 287
#     4  10  20  33  49  69  94 125 161 199 240 288
#     4  10  20  32  47  67  95 131 168 204 236 277
#
# _framework density 17.136016000000001
#
# number of rings (size 3 to 8) (size 9 to 14) (size 15 to 20)
#    0.000    1.857    1.429    5.571    0.000    1.143 
#    0.000    0.000    0.000   15.429    0.000    1.000 
#    0.000    8.000    0.000    0.000    0.000    0.000 
#
# Total GULP energy -347186.662187 kJ/mol
# GULP energy per Si atom -12399.523650 kJ/mol
# Density = 1.709701 g / cm^3
# Si number density = 17.136016 Si / 1000 Ang^3
#
#
#
# Elastic Constant Matrix: (Units=GPa)
#
#
# Indices 1 2 3 4 5 6 
#
# 1 68.5913 14.0120 55.3413 0.0000 -2.0210 0.0000
# 2 14.0120 56.4801 22.3775 0.0000 -1.8332 0.0000
# 3 55.3413 22.3775 117.4690 0.0000 -8.3059 0.0000
# 4 0.0000 0.0000 0.0000 29.1887 0.0000 -6.2380
# 5 -2.0210 -1.8332 -8.3059 0.0000 19.1337 0.0000
# 6 0.0000 0.0000 0.0000 -6.2380 0.0000 14.9079
#
#
#
# Elastic Compliance Matrix: (Units=1/GPa)
#
#
# Indices 1 2 3 4 5 6 
#
# 1 0.023757 -0.001590 -0.011062 0.000000 -0.002445 0.000000
# 2 -0.001590 0.019258 -0.002890 0.000000 0.000423 0.000000
# 3 -0.011062 -0.002890 0.014622 0.000000 0.004902 0.000000
# 4 0.000000 0.000000 0.000000 0.037624 0.000000 0.015743
# 5 -0.002445 0.000423 0.004902 0.000000 0.054174 0.000000
# 6 0.000000 0.000000 0.000000 0.015743 0.000000 0.073666
#
#
# Mechanical properties :
#
#
# Convention : Reuss Voigt Hill
#
# Bulk Modulus (GPa) = 37.66070 47.33356 42.49713
# Shear Modulus (GPa) = 19.00871 22.70002 20.85437
#
# Velocity S-wave (km/s) = 3.33421 3.64359 3.49232
# Velocity P-wave (km/s) = 6.07024 6.73671 6.41214
#
# Compressibility (1/GPa) = 0.02655288
#
# Stress axis : x y z
#
# Youngs Moduli (GPa) = 42.09220 51.92516 68.39208
#
# Poissons Ratio (x) = 0.08258 0.75658
# Poissons Ratio (y) = 0.06694 0.19762
# Poissons Ratio (z) = 0.46564 0.15004
#
# Static dielectric constant tensor:
#      x y z
#    x 3.093790 0.000000 -0.083570 
#    y 0.000000 3.095940 0.000000 
#    z -0.083570 0.000000 3.352440 
# 
# 
# High freq. dielectric constant tensor:
#      x y z
#    x 1.613170 0.000000 -0.020490 
#    y 0.000000 1.665530 0.000000 
#    z -0.020490 0.000000 1.660440 
# 
# From -- ./inp_files/243006.got.cif
#   From: 2010.06.25/outbox.cif.g09.slc.cpg/sg12_122_cif.got.tgz:243006.got - 2010.06.28 00:19:55.
