data_PCOD8081910
_publ_section_title
;
Structure prediction by ZEFSAII (Michael W. Deem and Ramdas Pophale) SiO2 
 PCOD8081910
Probable space group: C 2/M
;
_chemical_formula_sum "Si O2"
_cell_formula_units_Z 64
_cell_length_a 24.419850
_cell_length_b 23.097701
_cell_length_c 12.613363
_cell_angle_alpha 90.000000
_cell_angle_beta 32.166070
_cell_angle_gamma 90.000000
_cell_volume 3787.567280
_symmetry_space_group_name_H-M "C 2/M"
_symmetry_group_IT_number 12
_symmetry_cell_setting 'monoclinic'
loop_
_space_group_symop_operation_xyz
x,y,z
-x,y,-z
-x,-y,-z
x,-y,z
1/2+x,1/2+y,z
1/2-x,1/2+y,-z
1/2-x,1/2-y,-z
1/2+x,1/2-y,z
loop_
_atom_site_type_symbol
_atom_site_label
_atom_site_fract_x
_atom_site_fract_y
_atom_site_fract_z
Si Si1 0.138964 0.064998 0.495693
Si Si2 0.097145 0.935553 0.100453
Si Si3 0.643731 0.211140 0.569456
Si Si4 0.218128 0.314290 0.034664
Si Si5 0.268960 0.666423 0.175729
Si Si6 0.597908 0.217238 0.045501
Si Si7 0.615495 0.397560 0.303310
Si Si8 0.731007 0.827358 0.642915
O O1 0.145773 0.065014 0.356374
O O2 0.212955 0.111238 0.431389
O O3 0.022510 0.079658 0.720455
O O4 0.169957 0.000000 0.481605
O O5 0.127407 0.933832 0.175538
O O6 0.121120 0.000000 0.019919
O O7 0.163002 0.891317 0.921040
O O8 0.685011 0.172564 0.404870
O O9 0.676129 0.175027 0.619414
O O10 0.687585 0.275506 0.487616
O O11 0.522915 0.221127 0.768969
O O12 0.117803 0.316346 0.124244
O O13 0.311269 0.342351 0.816758
O O14 0.250000 0.250000 0.000000
O O15 0.203064 0.342103 0.175234
O O16 0.349286 0.719598 0.039781
O O17 0.644038 0.179902 0.874233
O O18 0.500000 0.373230 0.500000
#
# Coordination Sequence:
#
# PCOD8081910 Si02
#       8
#     8   8   8   8   8   8   8   8
#     4  10  18  30  52  79 103 130 166 214 264 300
#     4   9  17  30  50  76 106 136 164 199 253 313
#     4  10  21  34  53  72  97 141 172 207 249 305
#     4   9  17  30  44  76 106 131 159 199 253 302
#     4   9  19  33  48  76 106 129 167 201 251 306
#     4  10  18  33  53  74 102 130 168 211 253 298
#     4   9  16  28  48  75 106 135 163 202 251 309
#     4  10  20  35  52  75 101 129 175 214 254 295
#
# _framework density 16.897390000000001
#
# number of rings (size 3 to 8) (size 9 to 14) (size 15 to 20)
#    0.000    2.500    1.250    1.500    0.000    3.000 
#    0.000    2.500    0.000    3.750    0.000    1.750 
#    0.000    0.000    0.000    0.000    0.000    0.000 
#
# Total GULP energy -396580.418352 kJ/mol
# GULP energy per Si atom -12393.138073 kJ/mol
# Density = 1.685893 g / cm^3
# Si number density = 16.897390 Si / 1000 Ang^3
#
#
#
# Elastic Constant Matrix: (Units=GPa)
#
#
# Indices 1 2 3 4 5 6 
#
# 1 96.7403 27.3420 52.3368 0.0000 -0.0389 0.0000
# 2 27.3420 85.0710 36.6118 0.0000 -1.4576 0.0000
# 3 52.3368 36.6118 84.2640 0.0000 -2.1869 0.0000
# 4 0.0000 0.0000 0.0000 25.7499 0.0000 -3.1123
# 5 -0.0389 -1.4576 -2.1869 0.0000 23.6830 0.0000
# 6 0.0000 0.0000 0.0000 -3.1123 0.0000 19.8953
#
#
#
# Elastic Compliance Matrix: (Units=1/GPa)
#
#
# Indices 1 2 3 4 5 6 
#
# 1 0.015662 -0.001049 -0.009295 0.000000 -0.000897 0.000000
# 2 -0.001049 0.014531 -0.005653 0.000000 0.000371 0.000000
# 3 -0.009295 -0.005653 0.020136 0.000000 0.001496 0.000000
# 4 0.000000 0.000000 0.000000 0.039583 0.000000 0.006192
# 5 -0.000897 0.000371 0.001496 0.000000 0.042384 0.000000
# 6 0.000000 0.000000 0.000000 0.006192 0.000000 0.051232
#
#
# Mechanical properties :
#
#
# Convention : Reuss Voigt Hill
#
# Bulk Modulus (GPa) = 54.53962 55.40626 54.97294
# Shear Modulus (GPa) = 22.55991 23.85130 23.20561
#
# Velocity S-wave (km/s) = 3.65788 3.76112 3.70986
# Velocity P-wave (km/s) = 7.08429 7.19183 7.13826
#
# Compressibility (1/GPa) = 0.01833530
#
# Stress axis : x y z
#
# Youngs Moduli (GPa) = 63.84995 68.81847 49.66343
#
# Poissons Ratio (x) = 0.07217 0.46163
# Poissons Ratio (y) = 0.06696 0.28073
# Poissons Ratio (z) = 0.59350 0.38900
#
# Static dielectric constant tensor:
#      x y z
#    x 3.485280 0.000000 0.121960 
#    y 0.000000 3.027080 0.000000 
#    z 0.121960 0.000000 3.037470 
# 
# 
# High freq. dielectric constant tensor:
#      x y z
#    x 1.651130 0.000000 0.006440 
#    y 0.000000 1.636380 0.000000 
#    z 0.006440 0.000000 1.638180 
# 
# From -- ./inp_files/135407.got.cif
#   From: 2010.06.25/outbox.cif.g09.slc.cpg/sg12_68_cif.got.tgz:135407.got - 2010.06.28 00:19:55.
