data_PCOD8081201
_publ_section_title
;
Structure prediction by ZEFSAII (Michael W. Deem and Ramdas Pophale) SiO2 
 PCOD8081201
Probable space group: C 2/M
;
_chemical_formula_sum "Si O2"
_cell_formula_units_Z 56
_cell_length_a 30.555863
_cell_length_b 8.721154
_cell_length_c 11.760829
_cell_angle_alpha 90.000000
_cell_angle_beta 63.879777
_cell_angle_gamma 90.000000
_cell_volume 2813.979890
_symmetry_space_group_name_H-M "C 2/M"
_symmetry_group_IT_number 12
_symmetry_cell_setting 'monoclinic'
loop_
_space_group_symop_operation_xyz
x,y,z
-x,y,-z
-x,-y,-z
x,-y,z
1/2+x,1/2+y,z
1/2-x,1/2+y,-z
1/2-x,1/2-y,-z
1/2+x,1/2-y,z
loop_
_atom_site_type_symbol
_atom_site_label
_atom_site_fract_x
_atom_site_fract_y
_atom_site_fract_z
Si Si1 0.582988 0.179229 0.165168
Si Si2 0.988762 0.317831 0.136674
Si Si3 0.553825 0.819559 0.445463
Si Si4 0.769280 0.179236 0.799474
Si Si5 0.817917 0.178786 0.979066
Si Si6 0.708905 0.818844 0.467073
Si Si7 0.899083 0.682425 0.381323
O O1 0.531695 0.234512 0.172001
O O2 0.583411 0.218002 0.297922
O O3 0.626603 0.274352 0.058715
O O4 0.591505 0.000000 0.131716
O O5 0.986875 0.500000 0.132746
O O6 0.936357 0.256259 0.241691
O O7 0.000000 0.247491 0.000000
O O8 0.500000 0.745559 0.500000
O O9 0.583219 0.749187 0.517867
O O10 0.547809 0.000000 0.470325
O O11 0.804116 0.223976 0.865295
O O12 0.786775 0.267596 0.668048
O O13 0.770102 0.000000 0.771879
O O14 0.714568 0.228667 0.893845
O O15 0.809683 0.000000 0.009913
O O16 0.750000 0.750000 0.500000
O O17 0.656397 0.763387 0.576665
O O18 0.713438 0.000000 0.465851
O O19 0.900952 0.500000 0.383422
#
# Coordination Sequence:
#
# PCOD8081201 Si02
#       7
#     8   8   8   8   8   8   8
#     4  10  18  29  51  80 107 141 183 226 274 330
#     4   9  17  29  46  73 108 141 178 225 271 319
#     4   9  14  24  46  76 106 133 174 231 278 315
#     4  10  21  39  60  82 110 145 190 240 288 340
#     4  10  21  36  57  84 116 148 180 229 292 354
#     4  11  23  38  58  83 115 154 197 241 287 340
#     4   9  17  30  48  74 106 142 183 232 281 324
#
# _framework density 19.900639999999999
#
# number of rings (size 3 to 8) (size 9 to 14) (size 15 to 20)
#    0.000    2.286    1.429    2.143    0.000    4.000 
#    0.000    2.857    0.000    2.571    0.000    0.000 
#    0.000    0.000    0.000    0.000    0.000    0.000 
#
# Total GULP energy -347151.356401 kJ/mol
# GULP energy per Si atom -12398.262729 kJ/mol
# Density = 1.985535 g / cm^3
# Si number density = 19.900640 Si / 1000 Ang^3
#
#
#
# Elastic Constant Matrix: (Units=GPa)
#
#
# Indices 1 2 3 4 5 6 
#
# 1 132.7315 26.9376 77.3956 0.0000 -24.5626 0.0000
# 2 26.9376 38.1357 24.3354 0.0000 -4.9780 0.0000
# 3 77.3956 24.3354 135.5977 0.0000 -11.8269 0.0000
# 4 0.0000 0.0000 0.0000 21.9134 0.0000 -1.7374
# 5 -24.5626 -4.9780 -11.8269 0.0000 38.0436 0.0000
# 6 0.0000 0.0000 0.0000 -1.7374 0.0000 21.0758
#
#
#
# Elastic Compliance Matrix: (Units=1/GPa)
#
#
# Indices 1 2 3 4 5 6 
#
# 1 0.013171 -0.004583 -0.006173 0.000000 0.005985 0.000000
# 2 -0.004583 0.031403 -0.003001 0.000000 0.000217 0.000000
# 3 -0.006173 -0.003001 0.011363 0.000000 -0.000846 0.000000
# 4 0.000000 0.000000 0.000000 0.045934 0.000000 0.003787
# 5 0.005985 0.000217 -0.000846 0.000000 0.029915 0.000000
# 6 0.000000 0.000000 0.000000 0.003787 0.000000 0.047760
#
#
# Mechanical properties :
#
#
# Convention : Reuss Voigt Hill
#
# Bulk Modulus (GPa) = 35.18332 62.64467 48.91400
# Shear Modulus (GPa) = 23.09085 28.05965 25.57525
#
# Velocity S-wave (km/s) = 3.41002 3.75905 3.58878
# Velocity P-wave (km/s) = 5.76387 7.09843 6.46568
#
# Compressibility (1/GPa) = 0.02842256
#
# Stress axis : x y z
#
# Youngs Moduli (GPa) = 75.92210 31.84424 88.00407
#
# Poissons Ratio (x) = 0.14595 0.54328
# Poissons Ratio (y) = 0.34796 0.26409
# Poissons Ratio (z) = 0.46869 0.09556
#
# Static dielectric constant tensor:
#      x y z
#    x 3.760460 0.000000 -0.098540 
#    y 0.000000 3.111440 0.000000 
#    z -0.098540 0.000000 3.815640 
# 
# 
# High freq. dielectric constant tensor:
#      x y z
#    x 1.780890 0.000000 -0.011610 
#    y 0.000000 1.726690 0.000000 
#    z -0.011610 0.000000 1.784300 
# 
# From -- ./inp_files/187216.got.cif
#   From: 2010.06.25/outbox.cif.g09.slc.cpg/sg12_94_cif.got.tgz:187216.got - 2010.06.28 00:19:55.
