data_PCOD8081598
_publ_section_title
;
Structure prediction by ZEFSAII (Michael W. Deem and Ramdas Pophale) SiO2 
 PCOD8081598
Probable space group: C 2/M
;
_chemical_formula_sum "Si O2"
_cell_formula_units_Z 56
_cell_length_a 28.667237
_cell_length_b 9.411944
_cell_length_c 14.130609
_cell_angle_alpha 90.000000
_cell_angle_beta 120.109195
_cell_angle_gamma 90.000000
_cell_volume 3298.205919
_symmetry_space_group_name_H-M "C 2/M"
_symmetry_group_IT_number 12
_symmetry_cell_setting 'monoclinic'
loop_
_space_group_symop_operation_xyz
x,y,z
-x,y,-z
-x,-y,-z
x,-y,z
1/2+x,1/2+y,z
1/2-x,1/2+y,-z
1/2-x,1/2-y,-z
1/2+x,1/2-y,z
loop_
_atom_site_type_symbol
_atom_site_label
_atom_site_fract_x
_atom_site_fract_y
_atom_site_fract_z
Si Si1 0.108487 0.158502 0.792548
Si Si2 0.294703 0.669309 0.982814
Si Si3 0.801225 0.666932 0.593344
Si Si4 0.658657 0.344426 0.648217
Si Si5 0.510408 0.164887 0.617548
Si Si6 0.219081 0.337014 0.219561
Si Si7 0.605400 0.836633 0.446856
O O1 0.152111 0.164466 0.753510
O O2 0.058823 0.261061 0.722184
O O3 0.084727 0.000000 0.780341
O O4 0.144562 0.202557 0.919297
O O5 0.282605 0.500000 0.972493
O O6 0.296166 0.727000 0.877505
O O7 0.250000 0.750000 0.000000
O O8 0.790329 0.500000 0.565911
O O9 0.750000 0.750000 0.500000
O O10 0.813148 0.696683 0.716503
O O11 0.856304 0.721121 0.598138
O O12 0.642520 0.500000 0.593491
O O13 0.719872 0.310992 0.685969
O O14 0.619635 0.232264 0.561192
O O15 0.500000 0.224776 0.500000
O O16 0.458307 0.190996 0.632159
O O17 0.525164 0.000000 0.624364
O O18 0.210185 0.500000 0.175898
O O19 0.617448 0.000000 0.473248
#
# Coordination Sequence:
#
# PCOD8081598 Si02
#       7
#     8   8   8   8   8   8   8
#     4  10  21  35  50  73 104 135 170 208 252 305
#     4  11  22  36  54  78 106 137 173 214 259 310
#     4  10  20  33  52  76 106 139 172 213 257 307
#     4  10  18  30  49  74 106 137 168 207 247 304
#     4  10  20  33  50  75 104 134 171 212 254 304
#     4  10  20  35  51  75 108 140 174 211 255 308
#     4  10  20  33  49  75 107 137 172 211 254 303
#
# _framework density 16.978928
#
# number of rings (size 3 to 8) (size 9 to 14) (size 15 to 20)
#    0.000    1.857    4.286    0.429    0.000    3.143 
#    0.000    0.000    0.000    0.857    0.000    6.000 
#    0.000    0.000    0.000    0.000    0.000    0.000 
#
# Total GULP energy -347055.372288 kJ/mol
# GULP energy per Si atom -12394.834725 kJ/mol
# Density = 1.694028 g / cm^3
# Si number density = 16.978928 Si / 1000 Ang^3
#
#
#
# Elastic Constant Matrix: (Units=GPa)
#
#
# Indices 1 2 3 4 5 6 
#
# 1 92.8311 43.7317 44.6564 0.0000 4.9137 0.0000
# 2 43.7317 64.6965 52.4978 0.0000 4.3793 0.0000
# 3 44.6564 52.4978 92.5846 0.0000 -2.3639 0.0000
# 4 0.0000 0.0000 0.0000 32.5750 0.0000 2.5983
# 5 4.9137 4.3793 -2.3639 0.0000 19.6981 0.0000
# 6 0.0000 0.0000 0.0000 2.5983 0.0000 22.3500
#
#
#
# Elastic Compliance Matrix: (Units=1/GPa)
#
#
# Indices 1 2 3 4 5 6 
#
# 1 0.016368 -0.008192 -0.003318 0.000000 -0.002660 0.000000
# 2 -0.008192 0.034163 -0.015610 0.000000 -0.007425 0.000000
# 3 -0.003318 -0.015610 0.021428 0.000000 0.006870 0.000000
# 4 0.000000 0.000000 0.000000 0.030986 0.000000 -0.003602
# 5 -0.002660 -0.007425 0.006870 0.000000 0.053905 0.000000
# 6 0.000000 0.000000 0.000000 -0.003602 0.000000 0.045162
#
#
# Mechanical properties :
#
#
# Convention : Reuss Voigt Hill
#
# Bulk Modulus (GPa) = 56.43259 59.09822 57.76540
# Shear Modulus (GPa) = 19.07254 22.20637 20.63946
#
# Velocity S-wave (km/s) = 3.35521 3.62038 3.49032
# Velocity P-wave (km/s) = 6.95118 7.23592 7.09498
#
# Compressibility (1/GPa) = 0.01772026
#
# Stress axis : x y z
#
# Youngs Moduli (GPa) = 61.09429 29.27127 46.66832
#
# Poissons Ratio (x) = 0.23978 0.15484
# Poissons Ratio (y) = 0.50047 0.72849
# Poissons Ratio (z) = 0.20270 0.45692
#
# Static dielectric constant tensor:
#      x y z
#    x 3.373880 0.000000 -0.075750 
#    y 0.000000 3.205860 0.000000 
#    z -0.075750 0.000000 2.991340 
# 
# 
# High freq. dielectric constant tensor:
#      x y z
#    x 1.651530 0.000000 -0.001110 
#    y 0.000000 1.656450 0.000000 
#    z -0.001110 0.000000 1.635940 
# 
# From -- ./inp_files/243069.got.cif
#   From: 2010.06.25/outbox.cif.g09.slc.cpg/sg12_122_cif.got.tgz:243069.got - 2010.06.28 00:19:55.
