data_PCOD8081288
_publ_section_title
;
Structure prediction by ZEFSAII (Michael W. Deem and Ramdas Pophale) SiO2 
 PCOD8081288
Probable space group: C 2/M
;
_chemical_formula_sum "Si O2"
_cell_formula_units_Z 64
_cell_length_a 27.878850
_cell_length_b 9.081027
_cell_length_c 14.258702
_cell_angle_alpha 90.000000
_cell_angle_beta 93.326048
_cell_angle_gamma 90.000000
_cell_volume 3603.774830
_symmetry_space_group_name_H-M "C 2/M"
_symmetry_group_IT_number 12
_symmetry_cell_setting 'monoclinic'
loop_
_space_group_symop_operation_xyz
x,y,z
-x,y,-z
-x,-y,-z
x,-y,z
1/2+x,1/2+y,z
1/2-x,1/2+y,-z
1/2-x,1/2-y,-z
1/2+x,1/2-y,z
loop_
_atom_site_type_symbol
_atom_site_label
_atom_site_fract_x
_atom_site_fract_y
_atom_site_fract_z
Si Si1 0.301222 0.167846 0.274751
Si Si2 0.155350 0.163381 0.484217
Si Si3 0.505571 0.674821 0.607535
Si Si4 0.911206 0.836922 0.700563
Si Si5 0.762750 0.826641 0.905204
Si Si6 0.837349 0.665852 0.795022
Si Si7 0.268367 0.833427 0.608702
Si Si8 0.100759 0.331268 0.635540
O O1 0.279764 0.214753 0.172354
O O2 0.282073 0.269628 0.357880
O O3 0.359045 0.184803 0.278091
O O4 0.285930 0.000000 0.295838
O O5 0.128673 0.149104 0.383348
O O6 0.208937 0.231801 0.472343
O O7 0.122929 0.269385 0.542628
O O8 0.160755 0.000000 0.529691
O O9 0.500000 0.731499 0.500000
O O10 0.509705 0.500000 0.608759
O O11 0.460477 0.729442 0.663917
O O12 0.553342 0.742404 0.659340
O O13 0.890374 0.731159 0.779313
O O14 0.920795 0.000000 0.743469
O O15 0.813098 0.764234 0.872951
O O16 0.767719 0.000000 0.921084
O O17 0.750000 0.750000 0.000000
O O18 0.843416 0.500000 0.833313
O O19 0.805437 0.669412 0.698570
O O20 0.261382 0.000000 0.571479
O O21 0.086632 0.500000 0.616969
#
# Coordination Sequence:
#
# PCOD8081288 Si02
#       8
#     8   8   8   8   8   8   8   8
#     4   9  20  36  49  66  97 132 159 192 242 298
#     4  10  18  30  46  64  90 129 168 204 248 290
#     4  10  19  34  50  68  94 130 174 214 254 295
#     4   9  17  30  48  67  94 130 168 207 247 290
#     4  10  19  34  56  79 103 129 157 191 238 295
#     4   9  17  29  47  74 103 126 157 199 242 288
#     4   9  17  29  46  68  92 122 164 207 239 279
#     4  11  22  33  46  67  94 126 169 211 246 285
#
# _framework density 17.759156999999998
#
# number of rings (size 3 to 8) (size 9 to 14) (size 15 to 20)
#    0.000    2.375    1.250    1.875    0.000    6.250 
#    0.000    0.000    0.000    0.000    0.000    0.875 
#    0.000    7.000    0.000    0.000    0.000    0.000 
#
# Total GULP energy -396805.731454 kJ/mol
# GULP energy per Si atom -12400.179108 kJ/mol
# Density = 1.771874 g / cm^3
# Si number density = 17.759157 Si / 1000 Ang^3
#
#
#
# Elastic Constant Matrix: (Units=GPa)
#
#
# Indices 1 2 3 4 5 6 
#
# 1 141.9356 49.3698 33.1582 0.0000 -15.3393 0.0000
# 2 49.3698 85.2311 35.8959 0.0000 -11.3409 0.0000
# 3 33.1582 35.8959 63.5105 0.0000 -14.8629 0.0000
# 4 0.0000 0.0000 0.0000 23.7190 0.0000 -6.2844
# 5 -15.3393 -11.3409 -14.8629 0.0000 20.7626 0.0000
# 6 0.0000 0.0000 0.0000 -6.2844 0.0000 30.4635
#
#
#
# Elastic Compliance Matrix: (Units=1/GPa)
#
#
# Indices 1 2 3 4 5 6 
#
# 1 0.009264 -0.004218 -0.001670 0.000000 0.003345 0.000000
# 2 -0.004218 0.017438 -0.007392 0.000000 0.001117 0.000000
# 3 -0.001670 -0.007392 0.023498 0.000000 0.011550 0.000000
# 4 0.000000 0.000000 0.000000 0.044598 0.000000 0.009200
# 5 0.003345 0.001117 0.011550 0.000000 0.059513 0.000000
# 6 0.000000 0.000000 0.000000 0.009200 0.000000 0.034724
#
#
# Mechanical properties :
#
#
# Convention : Reuss Voigt Hill
#
# Bulk Modulus (GPa) = 42.30113 58.61389 50.45751
# Shear Modulus (GPa) = 22.37380 26.47258 24.42319
#
# Velocity S-wave (km/s) = 3.55328 3.86507 3.71245
# Velocity P-wave (km/s) = 6.38008 7.27976 6.84472
#
# Compressibility (1/GPa) = 0.02364003
#
# Stress axis : x y z
#
# Youngs Moduli (GPa) = 107.94260 57.34621 42.55608
#
# Poissons Ratio (x) = 0.24187 0.07107
# Poissons Ratio (y) = 0.45528 0.31459
# Poissons Ratio (z) = 0.18027 0.42393
#
# Static dielectric constant tensor:
#      x y z
#    x 3.411230 0.000000 -0.021190 
#    y 0.000000 3.498750 0.000000 
#    z -0.021190 0.000000 2.923610 
# 
# 
# High freq. dielectric constant tensor:
#      x y z
#    x 1.688630 0.000000 -0.003570 
#    y 0.000000 1.698990 0.000000 
#    z -0.003570 0.000000 1.638250 
# 
# From -- ./inp_files/244020.got.cif
#   From: 2010.06.25/outbox.cif.g09.slc.cpg/sg12_123_cif.got.tgz:244020.got - 2010.06.28 00:19:55.
