data_PCOD8081028
_publ_section_title
;
Structure prediction by ZEFSAII (Michael W. Deem and Ramdas Pophale) SiO2 
 PCOD8081028
Probable space group: C 2/M
;
_chemical_formula_sum "Si O2"
_cell_formula_units_Z 32
_cell_length_a 24.453809
_cell_length_b 7.890177
_cell_length_c 11.219814
_cell_angle_alpha 90.000000
_cell_angle_beta 121.929209
_cell_angle_gamma 90.000000
_cell_volume 1837.275307
_symmetry_space_group_name_H-M "C 2/M"
_symmetry_group_IT_number 12
_symmetry_cell_setting 'monoclinic'
loop_
_space_group_symop_operation_xyz
x,y,z
-x,y,-z
-x,-y,-z
x,-y,z
1/2+x,1/2+y,z
1/2-x,1/2+y,-z
1/2-x,1/2-y,-z
1/2+x,1/2-y,z
loop_
_atom_site_type_symbol
_atom_site_label
_atom_site_fract_x
_atom_site_fract_y
_atom_site_fract_z
Si Si1 0.681676 0.308331 0.038859
Si Si2 0.394608 0.000000 0.402026
Si Si3 0.550224 0.187630 0.966752
Si Si4 0.316234 0.307678 0.230290
Si Si5 0.507818 0.000000 0.703451
O O1 0.706330 0.500000 0.068633
O O2 0.668740 0.251165 0.888149
O O3 0.616147 0.292775 0.038464
O O4 0.738970 0.197567 0.162362
O O5 0.352038 0.171655 0.355175
O O6 0.435382 0.000000 0.570702
O O7 0.441333 0.000000 0.343578
O O8 0.567153 0.000000 0.037282
O O9 0.500000 0.277562 0.000000
O O10 0.518853 0.167936 0.798289
O O11 0.340278 0.500000 0.284945
#
# Coordination Sequence:
#
# PCOD8081028 Si02
#       5
#     8   4   8   8   4
#     4  10  18  29  48  77 106 125 167 215 253 295
#     4  11  18  34  52  76 107 134 166 198 254 312
#     4   9  17  32  51  73  97 135 170 206 250 292
#     4  10  19  30  50  77 106 131 161 211 255 301
#     4   9  19  32  52  72 105 137 161 205 248 304
#
# _framework density 17.417095
#
# number of rings (size 3 to 8) (size 9 to 14) (size 15 to 20)
#    0.750    1.500    3.750    0.750    1.750    0.500 
#    0.000    3.750    0.000    1.500    0.000    0.000 
#    0.000    0.000    0.000    0.000    0.000    0.000 
#
# Total GULP energy -198288.242864 kJ/mol
# GULP energy per Si atom -12393.015179 kJ/mol
# Density = 1.737745 g / cm^3
# Si number density = 17.417095 Si / 1000 Ang^3
#
#
#
# Elastic Constant Matrix: (Units=GPa)
#
#
# Indices 1 2 3 4 5 6 
#
# 1 113.8070 10.2820 33.0982 0.0000 15.1463 0.0000
# 2 10.2820 76.7818 31.5299 0.0000 15.6738 0.0000
# 3 33.0982 31.5299 75.1843 0.0000 17.4793 0.0000
# 4 0.0000 0.0000 0.0000 15.1215 0.0000 8.8123
# 5 15.1463 15.6738 17.4793 0.0000 22.2765 0.0000
# 6 0.0000 0.0000 0.0000 8.8123 0.0000 22.1957
#
#
#
# Elastic Compliance Matrix: (Units=1/GPa)
#
#
# Indices 1 2 3 4 5 6 
#
# 1 0.010486 0.001231 -0.004004 0.000000 -0.004854 0.000000
# 2 0.001231 0.016885 -0.005707 0.000000 -0.008239 0.000000
# 3 -0.004004 -0.005707 0.019436 0.000000 -0.008512 0.000000
# 4 0.000000 0.000000 0.000000 0.086038 0.000000 -0.034160
# 5 -0.004854 -0.008239 -0.008512 0.000000 0.060667 0.000000
# 6 0.000000 0.000000 0.000000 -0.034160 0.000000 0.058616
#
#
# Mechanical properties :
#
#
# Convention : Reuss Voigt Hill
#
# Bulk Modulus (GPa) = 33.50584 46.17704 39.84144
# Shear Modulus (GPa) = 17.91881 24.64295 21.28088
#
# Velocity S-wave (km/s) = 3.21098 3.76556 3.49927
# Velocity P-wave (km/s) = 5.74685 6.74359 6.26507
#
# Compressibility (1/GPa) = 0.02984554
#
# Stress axis : x y z
#
# Youngs Moduli (GPa) = 95.36460 59.22573 51.45150
#
# Poissons Ratio (x) = -0.07290 0.20601
# Poissons Ratio (y) = -0.11738 0.29365
# Poissons Ratio (z) = 0.38183 0.33802
#
# Static dielectric constant tensor:
#      x y z
#    x 3.125950 0.000000 0.129180 
#    y 0.000000 3.020110 0.000000 
#    z 0.129180 0.000000 3.014210 
# 
# 
# High freq. dielectric constant tensor:
#      x y z
#    x 1.665490 0.000000 0.024520 
#    y 0.000000 1.661790 0.000000 
#    z 0.024520 0.000000 1.634520 
# 
# From -- ./inp_files/171660.got.cif
#   From: 2010.06.25/outbox.cif.g09.slc.cpg/sg12_86_cif.got.tgz:171660.got - 2010.06.28 00:19:55.
