data_PCOD8081951
_publ_section_title
;
Structure prediction by ZEFSAII (Michael W. Deem and Ramdas Pophale) SiO2 
 PCOD8081951
Probable space group: C 2/M
;
_chemical_formula_sum "Si O2"
_cell_formula_units_Z 64
_cell_length_a 20.779114
_cell_length_b 8.873413
_cell_length_c 26.188062
_cell_angle_alpha 90.000000
_cell_angle_beta 134.283424
_cell_angle_gamma 90.000000
_cell_volume 3456.768255
_symmetry_space_group_name_H-M "C 2/M"
_symmetry_group_IT_number 12
_symmetry_cell_setting 'monoclinic'
loop_
_space_group_symop_operation_xyz
x,y,z
-x,y,-z
-x,-y,-z
x,-y,z
1/2+x,1/2+y,z
1/2-x,1/2+y,-z
1/2-x,1/2-y,-z
1/2+x,1/2-y,z
loop_
_atom_site_type_symbol
_atom_site_label
_atom_site_fract_x
_atom_site_fract_y
_atom_site_fract_z
Si Si1 0.928932 0.678436 0.784287
Si Si2 0.639563 0.321517 0.079296
Si Si3 0.822388 0.321079 0.224124
Si Si4 0.903958 0.320936 0.464108
Si Si5 0.345688 0.821030 0.542953
Si Si6 0.737443 0.821626 0.697573
Si Si7 0.507695 0.321696 0.921871
Si Si8 0.486322 0.179278 0.704883
O O1 0.924856 0.500000 0.783128
O O2 0.832767 0.743587 0.745249
O O3 0.003483 0.736332 0.865669
O O4 0.958097 0.738397 0.744857
O O5 0.639431 0.500000 0.082095
O O6 0.740170 0.257787 0.143692
O O7 0.575906 0.265628 0.089997
O O8 0.599583 0.272707 0.002092
O O9 0.825169 0.500000 0.222002
O O10 0.808285 0.271878 0.274781
O O11 0.915870 0.253025 0.255236
O O12 0.908093 0.500000 0.464604
O O13 0.882118 0.263392 0.508699
O O14 0.826781 0.262947 0.383184
O O15 0.000000 0.253789 0.500000
O O16 0.250000 0.750000 0.500000
O O17 0.414055 0.761643 0.623886
O O18 0.336651 0.000000 0.538924
O O19 0.752565 0.000000 0.703947
O O20 0.504335 0.500000 0.910494
O O21 0.489879 0.000000 0.705272
#
# Coordination Sequence:
#
# PCOD8081951 Si02
#       8
#     8   8   8   8   8   8   8   8
#     4  11  21  32  46  70 102 133 162 197 238 285
#     4   8  14  26  50  78  98 118 155 205 243 281
#     4   9  15  28  51  75  94 123 166 203 235 280
#     4   9  17  29  49  78 101 117 153 212 259 283
#     4  10  19  33  51  71  97 130 164 200 241 289
#     4  10  18  30  53  77  95 121 162 209 249 285
#     4   9  16  30  51  76  99 121 159 203 242 282
#     4   9  19  32  47  69 100 134 165 195 235 291
#
# _framework density 18.514402
#
# number of rings (size 3 to 8) (size 9 to 14) (size 15 to 20)
#    0.000    2.625    1.250    2.625    0.000    3.000 
#    0.000    2.500    0.000    5.250    0.000    0.000 
#    0.000    0.000    0.000    0.000    0.000    0.000 
#
# Total GULP energy -396715.195763 kJ/mol
# GULP energy per Si atom -12397.349868 kJ/mol
# Density = 1.847226 g / cm^3
# Si number density = 18.514402 Si / 1000 Ang^3
#
#
#
# Elastic Constant Matrix: (Units=GPa)
#
#
# Indices 1 2 3 4 5 6 
#
# 1 132.2272 23.0455 79.2598 0.0000 -3.0933 0.0000
# 2 23.0455 21.1404 23.0622 0.0000 -3.1636 0.0000
# 3 79.2598 23.0622 187.0978 0.0000 -4.2727 0.0000
# 4 0.0000 0.0000 0.0000 20.0485 0.0000 -1.4195
# 5 -3.0933 -3.1636 -4.2727 0.0000 34.2425 0.0000
# 6 0.0000 0.0000 0.0000 -1.4195 0.0000 17.6054
#
#
#
# Elastic Compliance Matrix: (Units=1/GPa)
#
#
# Indices 1 2 3 4 5 6 
#
# 1 0.011235 -0.008182 -0.003756 0.000000 -0.000210 0.000000
# 2 -0.008182 0.061225 -0.003980 0.000000 0.004421 0.000000
# 3 -0.003756 -0.003980 0.007431 0.000000 0.000220 0.000000
# 4 0.000000 0.000000 0.000000 0.050166 0.000000 0.004045
# 5 -0.000210 0.004421 0.000220 0.000000 0.029620 0.000000
# 6 0.000000 0.000000 0.000000 0.004045 0.000000 0.057127
#
#
# Mechanical properties :
#
#
# Convention : Reuss Voigt Hill
#
# Bulk Modulus (GPa) = 20.80870 65.68891 43.24881
# Shear Modulus (GPa) = 18.89234 28.71914 23.80574
#
# Velocity S-wave (km/s) = 3.19786 3.94277 3.58969
# Velocity P-wave (km/s) = 4.98985 7.50228 6.37114
#
# Compressibility (1/GPa) = 0.04805682
#
# Stress axis : x y z
#
# Youngs Moduli (GPa) = 89.00680 16.33325 134.56335
#
# Poissons Ratio (x) = 0.13363 0.50539
# Poissons Ratio (y) = 0.72823 0.53553
# Poissons Ratio (z) = 0.33429 0.06500
#
# Static dielectric constant tensor:
#      x y z
#    x 3.545820 0.000000 0.031480 
#    y 0.000000 2.850670 0.000000 
#    z 0.031480 0.000000 3.902910 
# 
# 
# High freq. dielectric constant tensor:
#      x y z
#    x 1.713150 0.000000 0.001060 
#    y 0.000000 1.659460 0.000000 
#    z 0.001060 0.000000 1.741910 
# 
# From -- ./inp_files/346275.got.cif
#   From: 2010.06.25/outbox.cif.g09.slc.cpg/sg12_174_cif.got.tgz:346275.got - 2010.06.28 00:19:55.
