data_PCOD8081729
_publ_section_title
;
Structure prediction by ZEFSAII (Michael W. Deem and Ramdas Pophale) SiO2 
 PCOD8081729
Probable space group: C 2/M
;
_chemical_formula_sum "Si O2"
_cell_formula_units_Z 56
_cell_length_a 25.178550
_cell_length_b 8.869830
_cell_length_c 22.170410
_cell_angle_alpha 90.000000
_cell_angle_beta 139.228764
_cell_angle_gamma 90.000000
_cell_volume 3233.403070
_symmetry_space_group_name_H-M "C 2/M"
_symmetry_group_IT_number 12
_symmetry_cell_setting 'monoclinic'
loop_
_space_group_symop_operation_xyz
x,y,z
-x,y,-z
-x,-y,-z
x,-y,z
1/2+x,1/2+y,z
1/2-x,1/2+y,-z
1/2-x,1/2-y,-z
1/2+x,1/2-y,z
loop_
_atom_site_type_symbol
_atom_site_label
_atom_site_fract_x
_atom_site_fract_y
_atom_site_fract_z
Si Si1 0.737555 0.677290 0.397197
Si Si2 0.843928 0.178257 0.790448
Si Si3 0.786643 0.822322 0.091351
Si Si4 0.487199 0.326663 0.118109
Si Si5 0.175725 0.173568 0.092941
Si Si6 0.451733 0.176075 0.212953
Si Si7 0.372490 0.824319 0.601044
O O1 0.728650 0.500000 0.393482
O O2 0.725984 0.728498 0.317676
O O3 0.663162 0.741702 0.371615
O O4 0.824887 0.729892 0.499344
O O5 0.820817 0.241516 0.836289
O O6 0.931121 0.238129 0.842298
O O7 0.850822 0.000000 0.802712
O O8 0.735122 0.775749 0.104849
O O9 0.878766 0.767900 0.180474
O O10 0.784980 0.000000 0.081520
O O11 0.750000 0.750000 0.000000
O O12 0.497762 0.500000 0.148563
O O13 0.464763 0.224496 0.155492
O O14 0.416504 0.312655 0.008289
O O15 0.205307 0.000000 0.114983
O O16 0.531989 0.212235 0.321936
O O17 0.430377 0.000000 0.195483
O O18 0.357845 0.000000 0.599189
#
# Coordination Sequence:
#
# PCOD8081729 Si02
#       7
#     8   8   8   8   8   8   8
#     4   9  16  29  50  75 104 136 171 206 249 305
#     4   9  17  30  51  78 106 139 173 205 247 304
#     4  12  24  38  55  75  99 132 173 215 257 301
#     4  10  18  30  50  76 105 138 170 203 247 302
#     4  10  20  34  52  75 105 138 173 210 250 299
#     4  11  21  33  51  75 106 137 170 212 258 299
#     4   9  18  30  47  75 106 134 167 213 257 295
#
# _framework density 17.319213999999999
#
# number of rings (size 3 to 8) (size 9 to 14) (size 15 to 20)
#    0.000    2.000    2.857    2.143    0.000    2.286 
#    0.000    1.429    0.000    2.571    0.000    6.000 
#    0.000    0.000    0.000    0.000    0.000    0.000 
#
# Total GULP energy -347148.681706 kJ/mol
# GULP energy per Si atom -12398.167204 kJ/mol
# Density = 1.727980 g / cm^3
# Si number density = 17.319214 Si / 1000 Ang^3
#
#
#
# Elastic Constant Matrix: (Units=GPa)
#
#
# Indices 1 2 3 4 5 6 
#
# 1 104.7613 32.5885 60.8178 0.0000 -3.3194 0.0000
# 2 32.5885 63.4797 37.9859 0.0000 4.0289 0.0000
# 3 60.8178 37.9859 125.0797 0.0000 -2.8303 0.0000
# 4 0.0000 0.0000 0.0000 17.8788 0.0000 2.9174
# 5 -3.3194 4.0289 -2.8303 0.0000 24.9578 0.0000
# 6 0.0000 0.0000 0.0000 2.9174 0.0000 25.3140
#
#
#
# Elastic Compliance Matrix: (Units=1/GPa)
#
#
# Indices 1 2 3 4 5 6 
#
# 1 0.014102 -0.004011 -0.005596 0.000000 0.001888 0.000000
# 2 -0.004011 0.020755 -0.004452 0.000000 -0.004389 0.000000
# 3 -0.005596 -0.004452 0.012098 0.000000 0.001346 0.000000
# 4 0.000000 0.000000 0.000000 0.057004 0.000000 -0.006570
# 5 0.001888 -0.004389 0.001346 0.000000 0.041180 0.000000
# 6 0.000000 0.000000 0.000000 -0.006570 0.000000 0.040261
#
#
# Mechanical properties :
#
#
# Convention : Reuss Voigt Hill
#
# Bulk Modulus (GPa) = 53.08670 61.78945 57.43807
# Shear Modulus (GPa) = 22.74831 24.42536 23.58683
#
# Velocity S-wave (km/s) = 3.62812 3.75948 3.69438
# Velocity P-wave (km/s) = 6.94762 7.38912 7.17177
#
# Compressibility (1/GPa) = 0.01883711
#
# Stress axis : x y z
#
# Youngs Moduli (GPa) = 70.91411 48.18164 82.65537
#
# Poissons Ratio (x) = 0.19324 0.46253
# Poissons Ratio (y) = 0.28441 0.36801
# Poissons Ratio (z) = 0.39683 0.21452
#
# Static dielectric constant tensor:
#      x y z
#    x 3.215350 0.000000 -0.044230 
#    y 0.000000 3.122470 0.000000 
#    z -0.044230 0.000000 3.698040 
# 
# 
# High freq. dielectric constant tensor:
#      x y z
#    x 1.647120 0.000000 0.001290 
#    y 0.000000 1.655170 0.000000 
#    z 0.001290 0.000000 1.679050 
# 
# From -- ./inp_files/237787.got.cif
#   From: 2010.06.25/outbox.cif.g09.slc.cpg/sg12_119_cif.got.tgz:237787.got - 2010.06.28 00:19:55.
