data_PCOD8081934
_publ_section_title
;
Structure prediction by ZEFSAII (Michael W. Deem and Ramdas Pophale) SiO2 
 PCOD8081934
Probable space group: C 2/M
;
_chemical_formula_sum "Si O2"
_cell_formula_units_Z 64
_cell_length_a 23.667158
_cell_length_b 8.940505
_cell_length_c 30.180281
_cell_angle_alpha 90.000000
_cell_angle_beta 146.355131
_cell_angle_gamma 90.000000
_cell_volume 3538.143322
_symmetry_space_group_name_H-M "C 2/M"
_symmetry_group_IT_number 12
_symmetry_cell_setting 'monoclinic'
loop_
_space_group_symop_operation_xyz
x,y,z
-x,y,-z
-x,-y,-z
x,-y,z
1/2+x,1/2+y,z
1/2-x,1/2+y,-z
1/2-x,1/2-y,-z
1/2+x,1/2-y,z
loop_
_atom_site_type_symbol
_atom_site_label
_atom_site_fract_x
_atom_site_fract_y
_atom_site_fract_z
Si Si1 0.205978 0.173879 0.408017
Si Si2 0.807342 0.325244 0.845109
Si Si3 0.098172 0.674691 0.713413
Si Si4 0.467109 0.825481 0.872726
Si Si5 0.946829 0.824905 0.769141
Si Si6 0.653355 0.674235 0.037994
Si Si7 0.883049 0.329288 0.172097
Si Si8 0.895057 0.825142 0.565517
O O1 0.141988 0.218309 0.323151
O O2 0.139833 0.217551 0.407735
O O3 0.310721 0.267366 0.475678
O O4 0.234328 0.000000 0.427560
O O5 0.790263 0.500000 0.841551
O O6 0.700446 0.250849 0.761934
O O7 0.885063 0.290467 0.856662
O O8 0.855322 0.257209 0.920820
O O9 0.105773 0.500000 0.708453
O O10 0.086762 0.708658 0.757934
O O11 0.001534 0.743321 0.624860
O O12 0.422140 0.765492 0.797373
O O13 0.491409 0.000000 0.884999
O O14 0.571390 0.738885 0.950645
O O15 0.056485 0.779498 0.821065
O O16 0.948822 0.000000 0.780601
O O17 0.634122 0.500000 0.034360
O O18 0.763183 0.700431 0.087262
O O19 0.911434 0.500000 0.179153
O O20 0.911211 0.000000 0.569635
#
# Coordination Sequence:
#
# PCOD8081934 Si02
#       8
#     8   8   8   8   8   8   8   8
#     4   9  19  33  49  77 111 142 177 215 260 315
#     4  10  21  37  57  80 107 138 178 225 270 316
#     4  10  19  32  54  82 111 141 175 220 269 315
#     4  11  24  39  55  77 105 143 183 221 268 320
#     4  11  22  36  55  77 107 145 181 220 262 315
#     4  10  21  37  58  83 107 136 176 225 273 316
#     4   9  19  34  52  77 108 140 174 214 265 319
#     4  10  18  30  52  81 111 142 176 215 263 315
#
# _framework density 18.088584000000001
#
# number of rings (size 3 to 8) (size 9 to 14) (size 15 to 20)
#    0.000    2.000    1.250    3.375    0.000    8.000 
#    0.000    0.000    0.000    0.750    0.000    5.250 
#    0.000    0.000    0.000    0.000    0.000    0.000 
#
# Total GULP energy -396947.985068 kJ/mol
# GULP energy per Si atom -12404.624533 kJ/mol
# Density = 1.804741 g / cm^3
# Si number density = 18.088584 Si / 1000 Ang^3
#
#
#
# Elastic Constant Matrix: (Units=GPa)
#
#
# Indices 1 2 3 4 5 6 
#
# 1 48.1024 31.6444 39.5487 0.0002 -5.9676 -0.0001
# 2 31.6444 83.0285 51.2294 0.0000 4.8621 -0.0032
# 3 39.5487 51.2294 125.3531 -0.0001 6.4854 -0.0003
# 4 0.0002 0.0000 -0.0001 35.4433 0.0002 2.1353
# 5 -5.9676 4.8621 6.4854 0.0002 19.1334 0.0004
# 6 -0.0001 -0.0032 -0.0003 2.1353 0.0004 28.4017
#
#
#
# Elastic Compliance Matrix: (Units=1/GPa)
#
#
# Indices 1 2 3 4 5 6 
#
# 1 0.035912 -0.009539 -0.008282 0.000000 0.016432 -0.000001
# 2 -0.009539 0.018707 -0.004311 0.000000 -0.006268 0.000002
# 3 -0.008282 -0.004311 0.012651 0.000000 -0.005776 0.000000
# 4 0.000000 0.000000 0.000000 0.028342 0.000000 -0.002131
# 5 0.016432 -0.006268 -0.005776 0.000000 0.060940 -0.000001
# 6 -0.000001 0.000002 0.000000 -0.002131 -0.000001 0.035369
#
#
# Mechanical properties :
#
#
# Convention : Reuss Voigt Hill
#
# Bulk Modulus (GPa) = 43.46821 55.70323 49.58572
# Shear Modulus (GPa) = 20.50395 25.53312 23.01853
#
# Velocity S-wave (km/s) = 3.37045 3.76115 3.57114
# Velocity P-wave (km/s) = 6.26334 7.05147 6.66906
#
# Compressibility (1/GPa) = 0.02300532
#
# Stress axis : x y z
#
# Youngs Moduli (GPa) = 27.84568 53.45640 79.04457
#
# Poissons Ratio (x) = 0.50994 0.65464
# Poissons Ratio (y) = 0.26563 0.34078
# Poissons Ratio (z) = 0.23061 0.23046
#
# Static dielectric constant tensor:
#      x y z
#    x 3.087760 0.000000 0.084080 
#    y 0.000000 3.402380 0.000000 
#    z 0.084080 0.000000 3.425010 
# 
# 
# High freq. dielectric constant tensor:
#      x y z
#    x 1.672740 0.000000 0.012500 
#    y 0.000000 1.714770 0.000000 
#    z 0.012500 0.000000 1.705490 
# 
# From -- ./inp_files/382412.got.cif
#   From: 2010.06.25/outbox.cif.g09.slc.cpg/sg12_192_cif.got.tgz:382412.got - 2010.06.28 00:19:55.
