data_PCOD8081876
_publ_section_title
;
Structure prediction by ZEFSAII (Michael W. Deem and Ramdas Pophale) SiO2 
 PCOD8081876
Probable space group: C 2/M
;
_chemical_formula_sum "Si O2"
_cell_formula_units_Z 64
_cell_length_a 23.895310
_cell_length_b 9.118496
_cell_length_c 21.276962
_cell_angle_alpha 90.000000
_cell_angle_beta 128.532658
_cell_angle_gamma 90.000000
_cell_volume 3626.543148
_symmetry_space_group_name_H-M "C 2/M"
_symmetry_group_IT_number 12
_symmetry_cell_setting 'monoclinic'
loop_
_space_group_symop_operation_xyz
x,y,z
-x,y,-z
-x,-y,-z
x,-y,z
1/2+x,1/2+y,z
1/2-x,1/2+y,-z
1/2-x,1/2-y,-z
1/2+x,1/2-y,z
loop_
_atom_site_type_symbol
_atom_site_label
_atom_site_fract_x
_atom_site_fract_y
_atom_site_fract_z
Si Si1 0.358585 0.333375 0.165996
Si Si2 0.859845 0.669878 0.559766
Si Si3 0.817575 0.668613 0.773613
Si Si4 0.521330 0.330368 0.292583
Si Si5 0.028146 0.329196 0.166971
Si Si6 0.749428 0.830940 0.405367
Si Si7 0.269848 0.672915 0.863174
Si Si8 0.111757 0.172311 0.955109
O O1 0.331959 0.500000 0.154882
O O2 0.437680 0.313725 0.249829
O O3 0.306848 0.228660 0.168175
O O4 0.358087 0.287806 0.092499
O O5 0.875863 0.500000 0.559530
O O6 0.934627 0.755458 0.620146
O O7 0.818237 0.732991 0.470288
O O8 0.814144 0.698917 0.590346
O O9 0.801013 0.500000 0.777846
O O10 0.902397 0.694104 0.827467
O O11 0.778252 0.715830 0.682167
O O12 0.786542 0.769039 0.806119
O O13 0.543020 0.500000 0.301188
O O14 0.540601 0.251190 0.241303
O O15 0.014705 0.500000 0.171510
O O16 0.961193 0.260626 0.082806
O O17 0.772687 0.000000 0.423958
O O18 0.266929 0.500000 0.858930
O O19 0.330760 0.726522 0.954036
O O20 0.094536 0.000000 0.947635
#
# Coordination Sequence:
#
# PCOD8081876 Si02
#       8
#     8   8   8   8   8   8   8   8
#     4   9  19  36  56  76 101 135 175 216 263 312
#     4  10  18  30  51  81 110 136 173 213 253 305
#     4  10  21  37  53  72 107 145 177 211 253 314
#     4  10  19  32  53  80 109 139 169 211 266 315
#     4  10  19  33  53  78 104 136 177 216 258 308
#     4   9  18  33  50  74 108 142 173 209 253 306
#     4  11  23  36  53  77 103 136 179 220 262 309
#     4   9  20  37  54  77 106 134 169 218 270 317
#
# _framework density 17.647660999999999
#
# number of rings (size 3 to 8) (size 9 to 14) (size 15 to 20)
#    0.000    2.250    1.250    2.625    0.000    6.000 
#    0.000    2.500    0.000    0.750    0.000    5.250 
#    0.000    0.000    0.000    0.000    0.000    0.000 
#
# Total GULP energy -396896.631342 kJ/mol
# GULP energy per Si atom -12403.019729 kJ/mol
# Density = 1.760749 g / cm^3
# Si number density = 17.647661 Si / 1000 Ang^3
#
#
#
# Elastic Constant Matrix: (Units=GPa)
#
#
# Indices 1 2 3 4 5 6 
#
# 1 74.7976 46.2849 61.4788 0.0000 -3.7633 0.0000
# 2 46.2849 91.1853 58.6785 0.0000 6.5323 0.0000
# 3 61.4788 58.6785 106.4508 0.0000 17.5593 0.0000
# 4 0.0000 0.0000 0.0000 33.7152 0.0000 3.3295
# 5 -3.7633 6.5323 17.5593 0.0000 13.6599 0.0000
# 6 0.0000 0.0000 0.0000 3.3295 0.0000 29.8951
#
#
#
# Elastic Compliance Matrix: (Units=1/GPa)
#
#
# Indices 1 2 3 4 5 6 
#
# 1 0.049674 -0.007145 -0.034990 0.000000 0.062080 0.000000
# 2 -0.007145 0.018293 -0.005317 0.000000 -0.003882 0.000000
# 3 -0.034990 -0.005317 0.042773 0.000000 -0.062080 0.000000
# 4 0.000000 0.000000 0.000000 0.029990 0.000000 -0.003340
# 5 0.062080 -0.003882 -0.062080 0.000000 0.171969 0.000000
# 6 0.000000 0.000000 0.000000 -0.003340 0.000000 0.033822
#
#
# Mechanical properties :
#
#
# Convention : Reuss Voigt Hill
#
# Bulk Modulus (GPa) = 63.14699 67.25757 65.20228
# Shear Modulus (GPa) = 11.19315 22.52014 16.85664
#
# Velocity S-wave (km/s) = 2.52118 3.57613 3.09395
# Velocity P-wave (km/s) = 6.65844 7.43274 7.05622
#
# Compressibility (1/GPa) = 0.01583607
#
# Stress axis : x y z
#
# Youngs Moduli (GPa) = 20.13145 54.66616 23.37931
#
# Poissons Ratio (x) = 0.39058 0.81804
# Poissons Ratio (y) = 0.14384 0.12430
# Poissons Ratio (z) = 0.70440 0.29065
#
# Static dielectric constant tensor:
#      x y z
#    x 3.012200 0.000000 0.169880 
#    y 0.000000 3.310820 0.000000 
#    z 0.169880 0.000000 3.390110 
# 
# 
# High freq. dielectric constant tensor:
#      x y z
#    x 1.655500 0.000000 0.016400 
#    y 0.000000 1.690840 0.000000 
#    z 0.016400 0.000000 1.686480 
# 
# From -- ./inp_files/324311.got.cif
#   From: 2010.06.25/outbox.cif.g09.slc.cpg/sg12_163_cif.got.tgz:324311.got - 2010.06.28 00:19:55.
