data_PCOD8081512
_publ_section_title
;
Structure prediction by ZEFSAII (Michael W. Deem and Ramdas Pophale) SiO2 
 PCOD8081512
Probable space group: C 2/M
;
_chemical_formula_sum "Si O2"
_cell_formula_units_Z 64
_cell_length_a 23.230696
_cell_length_b 18.064628
_cell_length_c 27.918522
_cell_angle_alpha 90.000000
_cell_angle_beta 19.740326
_cell_angle_gamma 90.000000
_cell_volume 3957.209630
_symmetry_space_group_name_H-M "C 2/M"
_symmetry_group_IT_number 12
_symmetry_cell_setting 'monoclinic'
loop_
_space_group_symop_operation_xyz
x,y,z
-x,y,-z
-x,-y,-z
x,-y,z
1/2+x,1/2+y,z
1/2-x,1/2+y,-z
1/2-x,1/2-y,-z
1/2+x,1/2-y,z
loop_
_atom_site_type_symbol
_atom_site_label
_atom_site_fract_x
_atom_site_fract_y
_atom_site_fract_z
Si Si1 0.611713 0.085412 0.640575
Si Si2 0.387230 0.302666 0.416405
Si Si3 0.114782 0.200371 0.953141
Si Si4 0.000286 0.085235 0.117077
Si Si5 0.378395 0.914145 0.553725
Si Si6 0.790857 0.791927 0.893820
Si Si7 0.314330 0.141328 0.930090
Si Si8 0.019266 0.336122 0.352294
O O1 0.792757 0.124717 0.511190
O O2 0.480386 0.092171 0.787924
O O3 0.528227 0.123931 0.659998
O O4 0.649317 0.000000 0.600500
O O5 0.250000 0.250000 0.500000
O O6 0.535768 0.327660 0.263011
O O7 0.471473 0.251346 0.391305
O O8 0.163212 0.267843 0.950976
O O9 0.277719 0.160018 0.802090
O O10 0.013928 0.136336 0.059936
O O11 0.000000 0.232523 0.000000
O O12 0.818047 0.102288 0.282772
O O13 0.015163 0.000000 0.089333
O O14 0.143795 0.103045 0.043951
O O15 0.500000 0.881585 0.500000
O O16 0.422070 0.875254 0.470472
O O17 0.417367 0.000000 0.516626
O O18 0.845761 0.720224 0.880880
O O19 0.700879 0.850094 0.000294
#
# Coordination Sequence:
#
# PCOD8081512 Si02
#       8
#     8   8   8   8   8   8   8   8
#     4  11  20  32  49  73 101 130 162 203 255 305
#     4   9  17  31  48  70  92 125 164 201 244 300
#     4  10  19  33  51  72  96 128 167 206 244 288
#     4  10  20  31  43  67  98 133 169 200 239 290
#     4  10  21  33  44  65  99 138 175 207 238 281
#     4   9  18  32  48  71  95 127 165 205 255 289
#     4  10  18  30  49  68  97 130 162 206 250 302
#     4  10  19  33  49  68  97 132 168 206 239 291
#
# _framework density 16.173012
#
# number of rings (size 3 to 8) (size 9 to 14) (size 15 to 20)
#    0.000    2.125    5.000    1.500    3.500    1.750 
#    0.000    0.625    0.000    0.000    0.000    0.000 
#    0.000   26.500    0.000    0.000    0.000    0.000 
#
# Total GULP energy -396674.195870 kJ/mol
# GULP energy per Si atom -12396.068621 kJ/mol
# Density = 1.613620 g / cm^3
# Si number density = 16.173012 Si / 1000 Ang^3
#
#
#
# Elastic Constant Matrix: (Units=GPa)
#
#
# Indices 1 2 3 4 5 6 
#
# 1 78.2260 25.7159 53.5916 0.0122 6.1227 0.0012
# 2 25.7159 54.4696 49.9931 0.0612 -5.9919 -0.0026
# 3 53.5916 49.9931 123.2818 0.0435 9.1638 -0.0153
# 4 0.0122 0.0612 0.0435 23.9369 -0.0270 4.1682
# 5 6.1227 -5.9919 9.1638 -0.0270 6.2786 0.0114
# 6 0.0012 -0.0026 -0.0153 4.1682 0.0114 15.8533
#
#
#
# Elastic Compliance Matrix: (Units=1/GPa)
#
#
# Indices 1 2 3 4 5 6 
#
# 1 0.019723 -0.008741 -0.003342 -0.000009 -0.022698 0.000013
# 2 -0.008741 0.061480 -0.029306 0.000043 0.109969 -0.000108
# 3 -0.003342 -0.029306 0.026118 -0.000056 -0.062829 0.000080
# 4 -0.000009 0.000043 -0.000056 0.043781 0.000341 -0.011511
# 5 -0.022698 0.109969 -0.062829 0.000341 0.378055 -0.000402
# 6 0.000013 -0.000108 0.000080 -0.011511 -0.000402 0.066105
#
#
# Mechanical properties :
#
#
# Convention : Reuss Voigt Hill
#
# Bulk Modulus (GPa) = 40.74303 57.17540 48.95921
# Shear Modulus (GPa) = 7.28628 17.65888 12.47258
#
# Velocity S-wave (km/s) = 2.12485 3.30794 2.78006
# Velocity P-wave (km/s) = 5.59166 7.07241 6.37517
#
# Compressibility (1/GPa) = 0.02454408
#
# Stress axis : x y z
#
# Youngs Moduli (GPa) = 50.70211 16.26549 38.28708
#
# Poissons Ratio (x) = 0.14218 0.12795
# Poissons Ratio (y) = 0.44319 1.12203
# Poissons Ratio (z) = 0.16944 0.47667
#
# Static dielectric constant tensor:
#      x y z
#    x 2.949470 -0.000220 -0.019650 
#    y -0.000220 3.070580 0.000070 
#    z -0.019650 0.000070 3.660410 
# 
# 
# High freq. dielectric constant tensor:
#      x y z
#    x 1.591970 -0.000010 0.002970 
#    y -0.000010 1.595040 0.000020 
#    z 0.002970 0.000020 1.644340 
# 
# From -- ./inp_files/352271.got.cif
#   From: 2010.06.25/outbox.cif.g09.slc.cpg/sg12_177_cif.got.tgz:352271.got - 2010.06.28 00:19:55.
