data_PCOD8081977
_publ_section_title
;
Structure prediction by ZEFSAII (Michael W. Deem and Ramdas Pophale) SiO2 
 PCOD8081977
Probable space group: C 2/M
;
_chemical_formula_sum "Si O2"
_cell_formula_units_Z 64
_cell_length_a 19.042674
_cell_length_b 16.113270
_cell_length_c 15.795855
_cell_angle_alpha 90.000000
_cell_angle_beta 41.273386
_cell_angle_gamma 90.000000
_cell_volume 3197.201851
_symmetry_space_group_name_H-M "C 2/M"
_symmetry_group_IT_number 12
_symmetry_cell_setting 'monoclinic'
loop_
_space_group_symop_operation_xyz
x,y,z
-x,y,-z
-x,-y,-z
x,-y,z
1/2+x,1/2+y,z
1/2-x,1/2+y,-z
1/2-x,1/2-y,-z
1/2+x,1/2-y,z
loop_
_atom_site_type_symbol
_atom_site_label
_atom_site_fract_x
_atom_site_fract_y
_atom_site_fract_z
Si Si1 0.334242 0.402361 0.773385
Si Si2 0.839508 0.401657 0.935883
Si Si3 0.868616 0.403082 0.547482
Si Si4 0.980498 0.406326 0.108234
Si Si5 0.599734 0.901103 0.297925
Si Si6 0.254797 0.151346 0.321176
Si Si7 0.698383 0.696470 0.619230
Si Si8 0.930153 0.902290 0.383445
O O1 0.322564 0.500000 0.763619
O O2 0.289146 0.351300 0.734554
O O3 0.456404 0.377982 0.679498
O O4 0.267177 0.376357 0.917281
O O5 0.847139 0.500000 0.921862
O O6 0.839822 0.364404 0.839774
O O7 0.944410 0.364784 0.888386
O O8 0.881437 0.500000 0.541136
O O9 0.846285 0.369643 0.663554
O O10 0.773595 0.380869 0.571728
O O11 0.978281 0.366923 0.409659
O O12 0.022437 0.500000 0.061672
O O13 0.856061 0.407813 0.244291
O O14 0.000000 0.361064 0.000000
O O15 0.600717 0.000000 0.292584
O O16 0.303978 0.243283 0.296687
O O17 0.160942 0.120970 0.467104
O O18 0.750000 0.750000 0.500000
O O19 0.589202 0.653344 0.684356
O O20 0.927401 0.000000 0.363827
#
# Coordination Sequence:
#
# PCOD8081977 Si02
#       8
#     8   8   8   8   8   8   8   8
#     4  10  19  35  58  84 115 149 188 230 275 336
#     4   9  17  29  52  86 115 139 178 230 281 330
#     4   9  17  35  58  81 109 140 184 234 275 326
#     4  10  18  30  53  83 114 149 182 224 282 339
#     4   8  16  30  55  87 107 130 176 232 284 322
#     4  11  21  35  53  82 119 147 181 228 293 345
#     4  10  23  37  50  81 111 149 184 227 288 336
#     4  10  21  37  59  82 109 150 199 239 269 326
#
# _framework density 20.017503999999999
#
# number of rings (size 3 to 8) (size 9 to 14) (size 15 to 20)
#    0.000    2.375    1.250    2.625    3.500    1.000 
#    9.000    0.000    2.750    1.500    0.000    4.375 
#    0.000    0.000    0.000    0.000    0.000    0.000 
#
# Total GULP energy -396446.757299 kJ/mol
# GULP energy per Si atom -12388.961166 kJ/mol
# Density = 1.997194 g / cm^3
# Si number density = 20.017504 Si / 1000 Ang^3
#
#
#
# Elastic Constant Matrix: (Units=GPa)
#
#
# Indices 1 2 3 4 5 6 
#
# 1 125.6772 33.1919 59.6716 0.0000 -1.5630 0.0000
# 2 33.1919 40.3512 17.6247 0.0000 5.2879 0.0000
# 3 59.6716 17.6247 121.1927 0.0000 6.9916 0.0000
# 4 0.0000 0.0000 0.0000 8.0550 0.0000 6.0263
# 5 -1.5630 5.2879 6.9916 0.0000 37.9808 0.0000
# 6 0.0000 0.0000 0.0000 6.0263 0.0000 29.3959
#
#
#
# Elastic Compliance Matrix: (Units=1/GPa)
#
#
# Indices 1 2 3 4 5 6 
#
# 1 0.012696 -0.008537 -0.005163 0.000000 0.002662 0.000000
# 2 -0.008537 0.032548 -0.000251 0.000000 -0.004837 0.000000
# 3 -0.005163 -0.000251 0.010957 0.000000 -0.002194 0.000000
# 4 0.000000 0.000000 0.000000 0.146637 0.000000 -0.030062
# 5 0.002662 -0.004837 -0.002194 0.000000 0.027516 0.000000
# 6 0.000000 0.000000 0.000000 -0.030062 0.000000 0.040181
#
#
# Mechanical properties :
#
#
# Convention : Reuss Voigt Hill
#
# Bulk Modulus (GPa) = 35.33759 56.46641 45.90200
# Shear Modulus (GPa) = 16.24056 26.86855 21.55456
#
# Velocity S-wave (km/s) = 2.85145 3.66765 3.28500
# Velocity P-wave (km/s) = 5.34160 6.79745 6.11302
#
# Compressibility (1/GPa) = 0.02829847
#
# Stress axis : x y z
#
# Youngs Moduli (GPa) = 78.76382 30.72359 91.26892
#
# Poissons Ratio (x) = 0.26229 0.47124
# Poissons Ratio (y) = 0.67242 0.02290
# Poissons Ratio (z) = 0.40668 0.00771
#
# Static dielectric constant tensor:
#      x y z
#    x 3.822950 0.000000 0.429730 
#    y 0.000000 3.460770 0.000000 
#    z 0.429730 0.000000 3.558620 
# 
# 
# High freq. dielectric constant tensor:
#      x y z
#    x 1.795760 0.000000 0.007820 
#    y 0.000000 1.743650 0.000000 
#    z 0.007820 0.000000 1.764870 
# 
# From -- ./inp_files/226818.got.cif
#   From: 2010.06.25/outbox.cif.g09.slc.cpg/sg12_114_cif.got.tgz:226818.got - 2010.06.28 00:19:55.
