data_PCOD8081649
_publ_section_title
;
Structure prediction by ZEFSAII (Michael W. Deem and Ramdas Pophale) SiO2 
 PCOD8081649
Probable space group: C 2/M
;
_chemical_formula_sum "Si O2"
_cell_formula_units_Z 64
_cell_length_a 17.751372
_cell_length_b 14.600547
_cell_length_c 13.298232
_cell_angle_alpha 90.000000
_cell_angle_beta 68.349724
_cell_angle_gamma 90.000000
_cell_volume 3203.483121
_symmetry_space_group_name_H-M "C 2/M"
_symmetry_group_IT_number 12
_symmetry_cell_setting 'monoclinic'
loop_
_space_group_symop_operation_xyz
x,y,z
-x,y,-z
-x,-y,-z
x,-y,z
1/2+x,1/2+y,z
1/2-x,1/2+y,-z
1/2-x,1/2-y,-z
1/2+x,1/2-y,z
loop_
_atom_site_type_symbol
_atom_site_label
_atom_site_fract_x
_atom_site_fract_y
_atom_site_fract_z
Si Si1 0.099442 0.104302 0.830424
Si Si2 0.868446 0.603537 0.886719
Si Si3 0.314938 0.604506 0.009762
Si Si4 0.954580 0.777380 0.866881
Si Si5 0.460039 0.763512 0.376433
Si Si6 0.672796 0.896161 0.527458
Si Si7 0.643117 0.395639 0.579997
Si Si8 0.409543 0.102749 0.637814
O O1 0.167649 0.121982 0.880588
O O2 0.137612 0.123511 0.702472
O O3 0.025562 0.173593 0.895852
O O4 0.066312 0.000000 0.851942
O O5 0.892516 0.500000 0.904706
O O6 0.778218 0.628290 0.967884
O O7 0.932481 0.672438 0.909210
O O8 0.868862 0.617097 0.766215
O O9 0.333015 0.500000 0.972872
O O10 0.371687 0.665264 0.910834
O O11 0.985961 0.776404 0.738510
O O12 0.385202 0.829705 0.378437
O O13 0.418271 0.673589 0.448307
O O14 0.517828 0.824878 0.418424
O O15 0.766438 0.872907 0.501690
O O16 0.656740 0.881673 0.416115
O O17 0.654089 0.000000 0.569440
O O18 0.619420 0.500000 0.565960
O O19 0.446362 0.000000 0.613391
#
# Coordination Sequence:
#
# PCOD8081649 Si02
#       8
#     8   8   8   8   8   8   8   8
#     4   9  17  30  49  73  96 117 147 190 236 274
#     4   9  18  31  47  69  96 124 152 184 225 273
#     4  10  18  30  50  72  93 118 151 192 234 273
#     4  10  19  29  43  67  98 126 151 183 226 275
#     4  10  19  29  43  67  98 126 151 183 226 275
#     4  10  18  30  50  72  93 118 151 192 234 273
#     4   9  18  31  47  69  96 124 152 184 225 273
#     4   9  17  30  49  73  96 117 147 190 236 274
#
# _framework density 19.978252999999999
#
# number of rings (size 3 to 8) (size 9 to 14) (size 15 to 20)
#    0.000    2.500    0.000    3.000    0.000    6.000 
#    0.000    0.000    0.000    3.000    0.000    0.000 
#    0.000   46.000    0.000    0.000    0.000    0.000 
#
# Total GULP energy -396500.614765 kJ/mol
# GULP energy per Si atom -12390.644211 kJ/mol
# Density = 1.993278 g / cm^3
# Si number density = 19.978253 Si / 1000 Ang^3
#
#
#
# Elastic Constant Matrix: (Units=GPa)
#
#
# Indices 1 2 3 4 5 6 
#
# 1 51.2049 39.8074 1.9484 0.0000 -18.1765 0.0000
# 2 39.8074 104.7862 17.3203 0.0000 -15.3105 0.0000
# 3 1.9484 17.3203 59.3594 0.0000 -17.3236 0.0000
# 4 0.0000 0.0000 0.0000 24.1030 0.0000 -17.9740
# 5 -18.1765 -15.3105 -17.3236 0.0000 25.1566 0.0000
# 6 0.0000 0.0000 0.0000 -17.9740 0.0000 31.9736
#
#
#
# Elastic Compliance Matrix: (Units=1/GPa)
#
#
# Indices 1 2 3 4 5 6 
#
# 1 0.038417 -0.012299 0.010318 0.000000 0.027377 0.000000
# 2 -0.012299 0.014520 -0.004815 0.000000 -0.003366 0.000000
# 3 0.010318 -0.004815 0.024071 0.000000 0.021100 0.000000
# 4 0.000000 0.000000 0.000000 0.071435 0.000000 0.040157
# 5 0.027377 -0.003366 0.021100 0.000000 0.072013 0.000000
# 6 0.000000 0.000000 0.000000 0.040157 0.000000 0.053850
#
#
# Mechanical properties :
#
#
# Convention : Reuss Voigt Hill
#
# Bulk Modulus (GPa) = 15.76966 37.05586 26.41276
# Shear Modulus (GPa) = 16.17927 26.66494 21.42211
#
# Velocity S-wave (km/s) = 2.84886 3.65732 3.27811
# Velocity P-wave (km/s) = 4.32804 6.03515 5.25142
#
# Compressibility (1/GPa) = 0.06341290
#
# Stress axis : x y z
#
# Youngs Moduli (GPa) = 26.03037 68.87120 41.54406
#
# Poissons Ratio (x) = 0.84708 -0.42863
# Poissons Ratio (y) = 0.32016 0.20005
# Poissons Ratio (z) = -0.26857 0.33164
#
# Static dielectric constant tensor:
#      x y z
#    x 3.529070 0.000000 -0.347290 
#    y 0.000000 4.064930 0.000000 
#    z -0.347290 0.000000 3.402770 
# 
# 
# High freq. dielectric constant tensor:
#      x y z
#    x 1.751030 0.000000 -0.038540 
#    y 0.000000 1.792650 0.000000 
#    z -0.038540 0.000000 1.762310 
# 
# From -- ./inp_files/225250.got.cif
#   From: 2010.06.25/outbox.cif.g09.slc.cpg/sg12_113_cif.got.tgz:225250.got - 2010.06.28 00:19:55.
