data_PCOD8081459
_publ_section_title
;
Structure prediction by ZEFSAII (Michael W. Deem and Ramdas Pophale) SiO2 
 PCOD8081459
Probable space group: C 2/M
;
_chemical_formula_sum "Si O2"
_cell_formula_units_Z 56
_cell_length_a 28.473724
_cell_length_b 9.183114
_cell_length_c 13.739667
_cell_angle_alpha 90.000000
_cell_angle_beta 75.593148
_cell_angle_gamma 90.000000
_cell_volume 3479.637719
_symmetry_space_group_name_H-M "C 2/M"
_symmetry_group_IT_number 12
_symmetry_cell_setting 'monoclinic'
loop_
_space_group_symop_operation_xyz
x,y,z
-x,y,-z
-x,-y,-z
x,-y,z
1/2+x,1/2+y,z
1/2-x,1/2+y,-z
1/2-x,1/2-y,-z
1/2+x,1/2-y,z
loop_
_atom_site_type_symbol
_atom_site_label
_atom_site_fract_x
_atom_site_fract_y
_atom_site_fract_z
Si Si1 0.297820 0.169924 0.088055
Si Si2 0.795577 0.332916 0.867013
Si Si3 0.541442 0.663747 0.767561
Si Si4 0.399286 0.172150 0.121622
Si Si5 0.900717 0.669940 0.762788
Si Si6 0.480438 0.670863 0.615516
Si Si7 0.442434 0.666445 0.922999
O O1 0.249422 0.245058 0.155111
O O2 0.343787 0.217358 0.129230
O O3 0.289412 0.000000 0.100394
O O4 0.306914 0.218748 0.971771
O O5 0.780054 0.500000 0.876018
O O6 0.843112 0.308276 0.775649
O O7 0.561994 0.500000 0.747357
O O8 0.584904 0.770177 0.779580
O O9 0.520727 0.717507 0.674141
O O10 0.499129 0.668843 0.869450
O O11 0.406746 0.000000 0.110338
O O12 0.434541 0.251269 0.027767
O O13 0.913926 0.500000 0.765232
O O14 0.930553 0.741407 0.658700
O O15 0.912923 0.749090 0.856346
O O16 0.500000 0.713055 0.500000
O O17 0.468805 0.500000 0.631968
O O18 0.423749 0.500000 0.939438
#
# Coordination Sequence:
#
# PCOD8081459 Si02
#       7
#     8   8   8   8   8   8   8
#     4   9  18  30  42  61  91 125 161 194 224 266
#     4   9  17  30  44  63  91 123 158 194 229 267
#     4   9  19  32  45  65  90 119 156 190 224 275
#     4  11  20  30  43  64  94 126 157 192 232 269
#     4  10  18  30  48  71  98 122 153 195 236 278
#     4   9  19  36  54  72  95 121 152 191 233 280
#     4  10  19  30  44  63  91 127 163 192 221 268
#
# _framework density 16.093630000000001
#
# number of rings (size 3 to 8) (size 9 to 14) (size 15 to 20)
#    0.000    2.429    1.429    2.571    0.000    7.143 
#    0.000    0.000    0.000    0.000    0.000    1.000 
#    0.000    0.000    0.000    0.000    0.000    0.000 
#
# Total GULP energy -347146.923304 kJ/mol
# GULP energy per Si atom -12398.104404 kJ/mol
# Density = 1.605700 g / cm^3
# Si number density = 16.093630 Si / 1000 Ang^3
#
#
#
# Elastic Constant Matrix: (Units=GPa)
#
#
# Indices 1 2 3 4 5 6 
#
# 1 111.7084 53.0454 50.2571 0.0000 4.0202 0.0000
# 2 53.0454 75.2416 37.3444 0.0000 0.4493 0.0000
# 3 50.2571 37.3444 75.3430 0.0000 0.7588 0.0000
# 4 0.0000 0.0000 0.0000 19.1291 0.0000 0.4719
# 5 4.0202 0.4493 0.7588 0.0000 13.7592 0.0000
# 6 0.0000 0.0000 0.0000 0.4719 0.0000 30.2475
#
#
#
# Elastic Compliance Matrix: (Units=1/GPa)
#
#
# Indices 1 2 3 4 5 6 
#
# 1 0.015785 -0.007823 -0.006611 0.000000 -0.003992 0.000000
# 2 -0.007823 0.021504 -0.005459 0.000000 0.001885 0.000000
# 3 -0.006611 -0.005459 0.020379 0.000000 0.000986 0.000000
# 4 0.000000 0.000000 0.000000 0.052296 0.000000 -0.000816
# 5 -0.003992 0.001885 0.000986 0.000000 0.073729 0.000000
# 6 0.000000 0.000000 0.000000 -0.000816 0.000000 0.033073
#
#
# Mechanical properties :
#
#
# Convention : Reuss Voigt Hill
#
# Bulk Modulus (GPa) = 55.92811 60.39854 58.16333
# Shear Modulus (GPa) = 19.04657 20.73689 19.89173
#
# Velocity S-wave (km/s) = 3.44391 3.59348 3.51949
# Velocity P-wave (km/s) = 7.11626 7.40462 7.26187
#
# Compressibility (1/GPa) = 0.01788010
#
# Stress axis : x y z
#
# Youngs Moduli (GPa) = 63.35195 46.50266 49.07063
#
# Poissons Ratio (x) = 0.36379 0.32443
# Poissons Ratio (y) = 0.49561 0.26789
# Poissons Ratio (z) = 0.41885 0.25387
#
# Static dielectric constant tensor:
#      x y z
#    x 3.089850 0.000000 -0.001740 
#    y 0.000000 3.103250 0.000000 
#    z -0.001740 0.000000 2.799500 
# 
# 
# High freq. dielectric constant tensor:
#      x y z
#    x 1.615930 0.000000 0.002220 
#    y 0.000000 1.627520 0.000000 
#    z 0.002220 0.000000 1.572110 
# 
# From -- ./inp_files/247738.got.cif
#   From: 2010.06.25/outbox.cif.g09.slc.cpg/sg12_124_cif.got.tgz:247738.got - 2010.06.28 00:19:55.
