data_PCOD8081944
_publ_section_title
;
Structure prediction by ZEFSAII (Michael W. Deem and Ramdas Pophale) SiO2 
 PCOD8081944
Probable space group: C 2/M
;
_chemical_formula_sum "Si O2"
_cell_formula_units_Z 40
_cell_length_a 21.500828
_cell_length_b 11.501646
_cell_length_c 17.548776
_cell_angle_alpha 90.000000
_cell_angle_beta 31.299001
_cell_angle_gamma 90.000000
_cell_volume 2254.504396
_symmetry_space_group_name_H-M "C 2/M"
_symmetry_group_IT_number 12
_symmetry_cell_setting 'monoclinic'
loop_
_space_group_symop_operation_xyz
x,y,z
-x,y,-z
-x,-y,-z
x,-y,z
1/2+x,1/2+y,z
1/2-x,1/2+y,-z
1/2-x,1/2-y,-z
1/2+x,1/2-y,z
loop_
_atom_site_type_symbol
_atom_site_label
_atom_site_fract_x
_atom_site_fract_y
_atom_site_fract_z
Si Si1 0.094003 0.135837 0.690004
Si Si2 0.479738 0.863078 0.434665
Si Si3 0.872598 0.779197 0.831508
Si Si4 0.237082 0.782797 0.399444
Si Si5 0.905389 0.000000 0.703875
Si Si6 0.675725 0.500000 0.382842
O O1 0.194162 0.150593 0.520285
O O2 0.140577 0.210954 0.714063
O O3 0.968593 0.191239 0.796310
O O4 0.079108 0.000000 0.727080
O O5 0.500000 0.818302 0.500000
O O6 0.587156 0.825803 0.266039
O O7 0.358733 0.808549 0.530427
O O8 0.467081 0.000000 0.445819
O O9 0.850522 0.888917 0.801402
O O10 0.750000 0.750000 0.000000
O O11 0.253969 0.885263 0.319572
O O12 0.860821 0.000000 0.665479
O O13 0.050255 0.000000 0.562156
#
# Coordination Sequence:
#
# PCOD8081944 Si02
#       6
#     8   8   8   8   4   4
#     4  10  18  33  51  77 115 144 181 222 280 331
#     4  10  20  34  53  80 109 142 185 230 274 323
#     4  11  22  36  56  81 111 147 187 228 278 329
#     4  10  18  30  52  83 109 143 178 231 279 324
#     4  11  20  36  59  83 110 149 189 227 279 329
#     4  11  18  34  61  85 113 140 186 236 277 329
#
# _framework density 17.742259000000001
#
# number of rings (size 3 to 8) (size 9 to 14) (size 15 to 20)
#    0.000    1.600    6.000    1.800    1.400    0.000 
#    1.800    0.000    0.000    6.000    0.000    8.400 
#    0.000    0.000    0.000    0.000    0.000    0.000 
#
# Total GULP energy -247972.081875 kJ/mol
# GULP energy per Si atom -12398.604094 kJ/mol
# Density = 1.770188 g / cm^3
# Si number density = 17.742259 Si / 1000 Ang^3
#
#
#
# Elastic Constant Matrix: (Units=GPa)
#
#
# Indices 1 2 3 4 5 6 
#
# 1 103.5341 62.8599 43.1408 0.0000 -9.5845 0.0000
# 2 62.8599 116.9252 41.5116 0.0000 -4.7072 0.0000
# 3 43.1408 41.5116 81.5796 0.0000 -5.7169 0.0000
# 4 0.0000 0.0000 0.0000 16.1636 0.0000 -3.5535
# 5 -9.5845 -4.7072 -5.7169 0.0000 16.5248 0.0000
# 6 0.0000 0.0000 0.0000 -3.5535 0.0000 41.5487
#
#
#
# Elastic Compliance Matrix: (Units=1/GPa)
#
#
# Indices 1 2 3 4 5 6 
#
# 1 0.016349 -0.006870 -0.004737 0.000000 0.005887 0.000000
# 2 -0.006870 0.013347 -0.003250 0.000000 -0.001307 0.000000
# 3 -0.004737 -0.003250 0.016561 0.000000 0.002056 0.000000
# 4 0.000000 0.000000 0.000000 0.063053 0.000000 0.005393
# 5 0.005887 -0.001307 0.002056 0.000000 0.064268 0.000000
# 6 0.000000 0.000000 0.000000 0.005393 0.000000 0.024529
#
#
# Mechanical properties :
#
#
# Convention : Reuss Voigt Hill
#
# Bulk Modulus (GPa) = 60.45297 66.34039 63.39668
# Shear Modulus (GPa) = 21.42827 25.14920 23.28873
#
# Velocity S-wave (km/s) = 3.47904 3.76902 3.62693
# Velocity P-wave (km/s) = 7.09120 7.51086 7.30405
#
# Compressibility (1/GPa) = 0.01654179
#
# Stress axis : x y z
#
# Youngs Moduli (GPa) = 61.16670 74.92115 60.38316
#
# Poissons Ratio (x) = 0.51474 0.28603
# Poissons Ratio (y) = 0.42024 0.19625
# Poissons Ratio (z) = 0.28975 0.24351
#
# Static dielectric constant tensor:
#      x y z
#    x 3.586300 0.000000 -0.050440 
#    y 0.000000 3.471970 0.000000 
#    z -0.050440 0.000000 2.873810 
# 
# 
# High freq. dielectric constant tensor:
#      x y z
#    x 1.701730 0.000000 -0.007510 
#    y 0.000000 1.707490 0.000000 
#    z -0.007510 0.000000 1.626550 
# 
# From -- ./inp_files/153341.got.cif
#   From: 2010.06.25/outbox.cif.g09.slc.cpg/sg12_77_cif.got.tgz:153341.got - 2010.06.28 00:19:55.
