data_PCOD8081199
_publ_section_title
;
Structure prediction by ZEFSAII (Michael W. Deem and Ramdas Pophale) SiO2 
 PCOD8081199
Probable space group: C 2/M
;
_chemical_formula_sum "Si O2"
_cell_formula_units_Z 48
_cell_length_a 20.941394
_cell_length_b 17.558686
_cell_length_c 8.756031
_cell_angle_alpha 90.000000
_cell_angle_beta 119.423012
_cell_angle_gamma 90.000000
_cell_volume 2804.344162
_symmetry_space_group_name_H-M "C 2/M"
_symmetry_group_IT_number 12
_symmetry_cell_setting 'monoclinic'
loop_
_space_group_symop_operation_xyz
x,y,z
-x,y,-z
-x,-y,-z
x,-y,z
1/2+x,1/2+y,z
1/2-x,1/2+y,-z
1/2-x,1/2-y,-z
1/2+x,1/2-y,z
loop_
_atom_site_type_symbol
_atom_site_label
_atom_site_fract_x
_atom_site_fract_y
_atom_site_fract_z
Si Si1 0.800852 0.185564 0.630828
Si Si2 0.279115 0.840015 0.177452
Si Si3 0.359566 0.702459 0.181486
Si Si4 0.166934 0.584329 0.040737
Si Si5 0.175831 0.913013 0.626707
Si Si6 0.079902 0.268156 0.026597
O O1 0.750000 0.250000 0.500000
O O2 0.750079 0.136337 0.689317
O O3 0.833570 0.126724 0.547458
O O4 0.869398 0.224870 0.793295
O O5 0.340545 0.773784 0.269638
O O6 0.313586 0.908130 0.117340
O O7 0.209911 0.806338 0.008591
O O8 0.375185 0.628959 0.305755
O O9 0.425663 0.722089 0.141893
O O10 0.133721 0.500000 0.026470
O O11 0.239971 0.594745 0.225844
O O12 0.109649 0.647038 0.028525
O O13 0.149358 0.000000 0.585564
O O14 0.000000 0.276357 0.000000
#
# Coordination Sequence:
#
# PCOD8081199 Si02
#       6
#     8   8   8   8   8   8
#     4  11  17  30  52  76 102 128 163 212 247 281
#     4   8  14  25  47  69  93 128 162 197 240 280
#     4   8  14  29  46  66  93 126 166 202 233 287
#     4   9  17  30  49  76 105 131 162 199 243 298
#     4  10  18  29  51  80 101 123 162 213 259 286
#     4  10  20  33  51  73  99 137 172 196 240 302
#
# _framework density 17.116301
#
# number of rings (size 3 to 8) (size 9 to 14) (size 15 to 20)
#    0.000    2.667    3.333    2.000    0.000    1.000 
#    0.000    3.333    0.000    3.000    0.000    1.167 
#    0.000    0.000    0.000    0.000    0.000    0.000 
#
# Total GULP energy -297347.318503 kJ/mol
# GULP energy per Si atom -12389.471604 kJ/mol
# Density = 1.707734 g / cm^3
# Si number density = 17.116301 Si / 1000 Ang^3
#
#
#
# Elastic Constant Matrix: (Units=GPa)
#
#
# Indices 1 2 3 4 5 6 
#
# 1 114.9689 58.5057 41.3614 0.0000 -23.6636 0.0000
# 2 58.5057 121.6468 43.5161 0.0000 -21.1188 0.0000
# 3 41.3614 43.5161 64.4306 0.0000 -23.6486 0.0000
# 4 0.0000 0.0000 0.0000 20.0823 0.0000 -7.4787
# 5 -23.6636 -21.1188 -23.6486 0.0000 25.9367 0.0000
# 6 0.0000 0.0000 0.0000 -7.4787 0.0000 18.5619
#
#
#
# Elastic Compliance Matrix: (Units=1/GPa)
#
#
# Indices 1 2 3 4 5 6 
#
# 1 0.013231 -0.004089 -0.003792 0.000000 0.005284 0.000000
# 2 -0.004089 0.012287 -0.005066 0.000000 0.001654 0.000000
# 3 -0.003792 -0.005066 0.027945 0.000000 0.017894 0.000000
# 4 0.000000 0.000000 0.000000 0.058585 0.000000 0.023604
# 5 0.005284 0.001654 0.017894 0.000000 0.061039 0.000000
# 6 0.000000 0.000000 0.000000 0.023604 0.000000 0.063384
#
#
# Mechanical properties :
#
#
# Convention : Reuss Voigt Hill
#
# Bulk Modulus (GPa) = 36.27546 65.31253 50.79400
# Shear Modulus (GPa) = 18.41246 23.42704 20.91975
#
# Velocity S-wave (km/s) = 3.28338 3.70360 3.49981
# Velocity P-wave (km/s) = 5.96772 7.51863 6.78762
#
# Compressibility (1/GPa) = 0.02756684
#
# Stress axis : x y z
#
# Youngs Moduli (GPa) = 75.58044 81.38826 35.78515
#
# Poissons Ratio (x) = 0.33284 0.13571
# Poissons Ratio (y) = 0.30909 0.18129
# Poissons Ratio (z) = 0.28662 0.41231
#
# Static dielectric constant tensor:
#      x y z
#    x 3.203170 0.000000 -0.437790 
#    y 0.000000 3.202330 0.000000 
#    z -0.437790 0.000000 3.095990 
# 
# 
# High freq. dielectric constant tensor:
#      x y z
#    x 1.641760 0.000000 -0.037230 
#    y 0.000000 1.651720 0.000000 
#    z -0.037230 0.000000 1.638350 
# 
# From -- ./inp_files/74502.got.cif
#   From: 2010.06.25/outbox.cif.g09.slc.cpg/sg12_38_cif.got.tgz:74502.got - 2010.06.28 00:19:55.
