data_PCOD8081068
_publ_section_title
;
Structure prediction by ZEFSAII (Michael W. Deem and Ramdas Pophale) SiO2 
 PCOD8081068
Probable space group: C 2/M
;
_chemical_formula_sum "Si O2"
_cell_formula_units_Z 56
_cell_length_a 19.693638
_cell_length_b 12.991002
_cell_length_c 12.586978
_cell_angle_alpha 90.000000
_cell_angle_beta 80.508675
_cell_angle_gamma 90.000000
_cell_volume 3176.170187
_symmetry_space_group_name_H-M "C 2/M"
_symmetry_group_IT_number 12
_symmetry_cell_setting 'monoclinic'
loop_
_space_group_symop_operation_xyz
x,y,z
-x,y,-z
-x,-y,-z
x,-y,z
1/2+x,1/2+y,z
1/2-x,1/2+y,-z
1/2-x,1/2-y,-z
1/2+x,1/2-y,z
loop_
_atom_site_type_symbol
_atom_site_label
_atom_site_fract_x
_atom_site_fract_y
_atom_site_fract_z
Si Si1 0.279122 0.881821 0.382305
Si Si2 0.860262 0.305830 0.160595
Si Si3 0.494988 0.881530 0.830231
Si Si4 0.312448 0.192950 0.600535
Si Si5 0.153015 0.619626 0.062907
Si Si6 0.770205 0.117433 0.190615
Si Si7 0.545284 0.117832 0.392164
O O1 0.330272 0.864071 0.270686
O O2 0.318407 0.852008 0.480401
O O3 0.210754 0.812117 0.391303
O O4 0.255679 0.000000 0.390278
O O5 0.942972 0.314762 0.137122
O O6 0.839135 0.185848 0.164362
O O7 0.828666 0.359067 0.063891
O O8 0.422384 0.834319 0.889307
O O9 0.499365 0.873100 0.702290
O O10 0.504353 0.000000 0.865235
O O11 0.258746 0.125143 0.682283
O O12 0.386908 0.187296 0.635523
O O13 0.149014 0.500000 0.090473
O O14 0.213278 0.663631 0.123301
O O15 0.790406 0.000000 0.159303
O O16 0.500000 0.160766 0.500000
O O17 0.568282 0.000000 0.406771
#
# Coordination Sequence:
#
# PCOD8081068 Si02
#       7
#     8   8   8   8   8   8   8
#     4  10  20  32  50  75 104 132 165 207 253 299
#     4  11  21  32  50  79 106 132 165 210 258 302
#     4  10  19  31  50  76 103 132 164 208 262 305
#     4  10  19  33  52  73 100 134 167 205 252 301
#     4  10  19  33  53  75 102 133 167 208 258 308
#     4  10  20  35  54  74  99 136 176 208 245 300
#     4  10  18  29  49  74 101 129 162 207 254 300
#
# _framework density 17.631297
#
# number of rings (size 3 to 8) (size 9 to 14) (size 15 to 20)
#    0.000    1.857    1.429    4.286    0.000    2.286 
#    0.000    0.000    0.000    3.000    0.000    0.000 
#    0.000    0.000    0.000    0.000    0.000    0.000 
#
# Total GULP energy -347229.088554 kJ/mol
# GULP energy per Si atom -12401.038877 kJ/mol
# Density = 1.759117 g / cm^3
# Si number density = 17.631297 Si / 1000 Ang^3
#
#
#
# Elastic Constant Matrix: (Units=GPa)
#
#
# Indices 1 2 3 4 5 6 
#
# 1 90.2225 48.6505 11.8582 0.0000 5.0692 0.0000
# 2 48.6505 83.7815 13.2392 0.0000 3.8890 0.0000
# 3 11.8582 13.2392 96.7565 0.0000 6.7901 0.0000
# 4 0.0000 0.0000 0.0000 18.9649 0.0000 2.0189
# 5 5.0692 3.8890 6.7901 0.0000 20.9695 0.0000
# 6 0.0000 0.0000 0.0000 2.0189 0.0000 27.6977
#
#
#
# Elastic Compliance Matrix: (Units=1/GPa)
#
#
# Indices 1 2 3 4 5 6 
#
# 1 0.016268 -0.009260 -0.000584 0.000000 -0.002026 0.000000
# 2 -0.009260 0.017535 -0.001221 0.000000 -0.000618 0.000000
# 3 -0.000584 -0.001221 0.010793 0.000000 -0.003127 0.000000
# 4 0.000000 0.000000 0.000000 0.053141 0.000000 -0.003874
# 5 -0.002026 -0.000618 -0.003127 0.000000 0.049305 0.000000
# 6 0.000000 0.000000 0.000000 -0.003874 0.000000 0.036386
#
#
# Mechanical properties :
#
#
# Convention : Reuss Voigt Hill
#
# Bulk Modulus (GPa) = 44.51436 46.47290 45.49363
# Shear Modulus (GPa) = 23.46894 26.66060 25.06477
#
# Velocity S-wave (km/s) = 3.65238 3.89281 3.77451
# Velocity P-wave (km/s) = 6.56419 6.82794 6.69736
#
# Compressibility (1/GPa) = 0.02246466
#
# Stress axis : x y z
#
# Youngs Moduli (GPa) = 61.47202 57.03039 92.64930
#
# Poissons Ratio (x) = 0.52810 0.05415
# Poissons Ratio (y) = 0.56922 0.11313
# Poissons Ratio (z) = 0.03593 0.06963
#
# Static dielectric constant tensor:
#      x y z
#    x 3.209330 0.000000 0.048440 
#    y 0.000000 3.034110 0.000000 
#    z 0.048440 0.000000 3.457380 
# 
# 
# High freq. dielectric constant tensor:
#      x y z
#    x 1.671700 0.000000 0.006460 
#    y 0.000000 1.644830 0.000000 
#    z 0.006460 0.000000 1.704870 
# 
# From -- ./inp_files/164863.got.cif
#   From: 2010.06.25/outbox.cif.g09.slc.cpg/sg12_83_cif.got.tgz:164863.got - 2010.06.28 00:19:55.
