data_PCOD8081635
_publ_section_title
;
Structure prediction by ZEFSAII (Michael W. Deem and Ramdas Pophale) SiO2 
 PCOD8081635
Probable space group: C 2/M
;
_chemical_formula_sum "Si O2"
_cell_formula_units_Z 56
_cell_length_a 19.758849
_cell_length_b 9.259491
_cell_length_c 21.397964
_cell_angle_alpha 90.000000
_cell_angle_beta 54.311494
_cell_angle_gamma 90.000000
_cell_volume 3179.687947
_symmetry_space_group_name_H-M "C 2/M"
_symmetry_group_IT_number 12
_symmetry_cell_setting 'monoclinic'
loop_
_space_group_symop_operation_xyz
x,y,z
-x,y,-z
-x,-y,-z
x,-y,z
1/2+x,1/2+y,z
1/2-x,1/2+y,-z
1/2-x,1/2-y,-z
1/2+x,1/2-y,z
loop_
_atom_site_type_symbol
_atom_site_label
_atom_site_fract_x
_atom_site_fract_y
_atom_site_fract_z
Si Si1 0.506205 0.328087 0.370094
Si Si2 0.178478 0.827388 0.498367
Si Si3 0.770221 0.330305 0.193752
Si Si4 0.339872 0.670382 0.632676
Si Si5 0.613489 0.670042 0.201410
Si Si6 0.835393 0.830599 0.957514
Si Si7 0.406173 0.330562 0.051145
O O1 0.505673 0.500000 0.373109
O O2 0.412147 0.272608 0.429446
O O3 0.570907 0.270607 0.388796
O O4 0.538537 0.268934 0.285004
O O5 0.250000 0.750000 0.500000
O O6 0.182926 0.772912 0.424058
O O7 0.189169 0.000000 0.498710
O O8 0.787214 0.500000 0.180529
O O9 0.735856 0.285618 0.280595
O O10 0.702909 0.276889 0.178899
O O11 0.856005 0.248159 0.133341
O O12 0.348922 0.500000 0.625191
O O13 0.611260 0.500000 0.211237
O O14 0.605563 0.715977 0.133063
O O15 0.877034 0.782507 0.998717
O O16 0.817838 0.000000 0.963757
O O17 0.750000 0.750000 0.000000
O O18 0.397999 0.500000 0.067684
O O19 0.500000 0.276720 0.000000
#
# Coordination Sequence:
#
# PCOD8081635 Si02
#       7
#     8   8   8   8   8   8   8
#     4   8  14  27  50  75  93 118 162 203 231 270
#     4  10  19  32  50  74 103 129 155 190 237 288
#     4   9  16  30  52  73  92 120 161 205 242 276
#     4   8  15  29  52  76  94 118 160 208 239 267
#     4   8  14  26  47  74  93 111 154 208 240 264
#     4  10  18  30  50  70  94 125 159 199 239 278
#     4  10  21  34  45  67 102 134 158 191 242 291
#
# _framework density 17.611789999999999
#
# number of rings (size 3 to 8) (size 9 to 14) (size 15 to 20)
#    0.000    3.000    1.429    2.143    0.000    2.000 
#    2.571    0.714    0.000    6.000    0.000    0.000 
#    0.000    0.000    0.000    0.000    0.000    0.000 
#
# Total GULP energy -346930.581152 kJ/mol
# GULP energy per Si atom -12390.377898 kJ/mol
# Density = 1.757170 g / cm^3
# Si number density = 17.611790 Si / 1000 Ang^3
#
#
#
# Elastic Constant Matrix: (Units=GPa)
#
#
# Indices 1 2 3 4 5 6 
#
# 1 125.5550 30.0804 87.4670 0.0000 -6.9297 0.0000
# 2 30.0804 20.7202 32.8896 0.0000 -3.4739 -0.0001
# 3 87.4670 32.8896 166.5260 0.0000 -6.8641 0.0000
# 4 0.0000 0.0000 0.0000 19.7661 0.0000 -2.6560
# 5 -6.9297 -3.4739 -6.8641 0.0000 29.9782 0.0000
# 6 0.0000 -0.0001 0.0000 -2.6560 0.0000 22.4157
#
#
#
# Elastic Compliance Matrix: (Units=1/GPa)
#
#
# Indices 1 2 3 4 5 6 
#
# 1 0.014702 -0.013130 -0.005100 0.000000 0.000709 0.000000
# 2 -0.013130 0.082783 -0.009271 0.000000 0.004435 0.000000
# 3 -0.005100 -0.009271 0.010521 0.000000 0.000156 0.000000
# 4 0.000000 0.000000 0.000000 0.051410 0.000000 0.006092
# 5 0.000709 0.004435 0.000156 0.000000 0.034071 0.000000
# 6 0.000000 0.000000 0.000000 0.006092 0.000000 0.045333
#
#
# Mechanical properties :
#
#
# Convention : Reuss Voigt Hill
#
# Bulk Modulus (GPa) = 18.86608 68.18612 43.52610
# Shear Modulus (GPa) = 16.05188 25.25627 20.65408
#
# Velocity S-wave (km/s) = 3.02226 3.79100 3.42825
# Velocity P-wave (km/s) = 4.78688 7.61331 6.35911
#
# Compressibility (1/GPa) = 0.05300519
#
# Stress axis : x y z
#
# Youngs Moduli (GPa) = 68.01717 12.07983 95.04661
#
# Poissons Ratio (x) = 0.15861 0.48472
# Poissons Ratio (y) = 0.89305 0.88115
# Poissons Ratio (z) = 0.34687 0.11199
#
# Static dielectric constant tensor:
#      x y z
#    x 3.233300 0.000000 0.113330 
#    y 0.000000 2.774080 0.000000 
#    z 0.113330 0.000000 3.531580 
# 
# 
# High freq. dielectric constant tensor:
#      x y z
#    x 1.667790 0.000000 0.006070 
#    y 0.000000 1.627760 0.000000 
#    z 0.006070 0.000000 1.701840 
# 
# From -- ./inp_files/315271.got.cif
#   From: 2010.06.25/outbox.cif.g09.slc.cpg/sg12_158_cif.got.tgz:315271.got - 2010.06.28 00:19:55.
