data_PCOD8081217
_publ_section_title
;
Structure prediction by ZEFSAII (Michael W. Deem and Ramdas Pophale) SiO2 
 PCOD8081217
Probable space group: C 2/M
;
_chemical_formula_sum "Si O2"
_cell_formula_units_Z 64
_cell_length_a 29.827956
_cell_length_b 9.022904
_cell_length_c 14.227818
_cell_angle_alpha 90.000000
_cell_angle_beta 121.289135
_cell_angle_gamma 90.000000
_cell_volume 3272.271545
_symmetry_space_group_name_H-M "C 2/M"
_symmetry_group_IT_number 12
_symmetry_cell_setting 'monoclinic'
loop_
_space_group_symop_operation_xyz
x,y,z
-x,y,-z
-x,-y,-z
x,-y,z
1/2+x,1/2+y,z
1/2-x,1/2+y,-z
1/2-x,1/2-y,-z
1/2+x,1/2-y,z
loop_
_atom_site_type_symbol
_atom_site_label
_atom_site_fract_x
_atom_site_fract_y
_atom_site_fract_z
Si Si1 0.767155 0.171129 0.290043
Si Si2 0.870474 0.825434 0.297078
Si Si3 0.107008 0.831081 0.233006
Si Si4 0.487241 0.672744 0.733220
Si Si5 0.845729 0.675504 0.884108
Si Si6 0.394240 0.327519 0.111477
Si Si7 0.073192 0.326048 0.484318
Si Si8 0.337909 0.330870 0.526910
O O1 0.814668 0.233233 0.277273
O O2 0.711448 0.245360 0.204240
O O3 0.780920 0.195250 0.416678
O O4 0.760666 0.000000 0.259150
O O5 0.873543 0.782999 0.191596
O O6 0.918539 0.746017 0.403856
O O7 0.876898 0.000000 0.319848
O O8 0.112454 0.730087 0.147519
O O9 0.158647 0.810065 0.356707
O O10 0.054802 0.782711 0.232505
O O11 0.102069 0.000000 0.193427
O O12 0.483017 0.500000 0.704433
O O13 0.544675 0.713913 0.833269
O O14 0.477238 0.760176 0.624961
O O15 0.845983 0.500000 0.883575
O O16 0.860921 0.731724 0.002947
O O17 0.384790 0.500000 0.080553
O O18 0.065797 0.500000 0.488082
O O19 0.123591 0.287808 0.476756
O O20 0.356773 0.500000 0.523163
#
# Coordination Sequence:
#
# PCOD8081217 Si02
#       8
#     8   8   8   8   8   8   8   8
#     4   8  16  33  55  78 106 140 171 205 259 315
#     4   9  18  36  59  78 102 138 177 214 254 307
#     4   9  18  34  56  78 102 135 174 217 259 305
#     4   9  19  37  58  78 103 137 175 216 261 306
#     4  11  23  36  51  75 109 142 173 216 266 313
#     4  10  22  39  58  77  97 133 187 229 253 298
#     4  10  18  29  51  84 115 137 163 206 261 318
#     4   8  15  32  56  78 104 139 176 212 253 307
#
# _framework density 19.558278999999999
#
# number of rings (size 3 to 8) (size 9 to 14) (size 15 to 20)
#    0.000    2.750    0.000    3.000    0.000    5.000 
#    0.000   10.000    0.000    0.000    0.000    0.000 
#    0.000    0.000    0.000    0.000    0.000    0.000 
#
# Total GULP energy -396597.708200 kJ/mol
# GULP energy per Si atom -12393.678381 kJ/mol
# Density = 1.951376 g / cm^3
# Si number density = 19.558279 Si / 1000 Ang^3
#
#
#
# Elastic Constant Matrix: (Units=GPa)
#
#
# Indices 1 2 3 4 5 6 
#
# 1 51.1741 12.4872 13.9318 0.0000 -8.8304 0.0000
# 2 12.4872 56.2252 23.4632 0.0000 -8.8220 0.0000
# 3 13.9318 23.4632 80.2358 0.0000 -11.3607 0.0000
# 4 0.0000 0.0000 0.0000 32.7888 0.0000 -2.4445
# 5 -8.8304 -8.8220 -11.3607 0.0000 32.7578 0.0000
# 6 0.0000 0.0000 0.0000 -2.4445 0.0000 14.5985
#
#
#
# Elastic Compliance Matrix: (Units=1/GPa)
#
#
# Indices 1 2 3 4 5 6 
#
# 1 0.021658 -0.003223 -0.002223 0.000000 0.004199 0.000000
# 2 -0.003223 0.021144 -0.005195 0.000000 0.003024 0.000000
# 3 -0.002223 -0.005195 0.014813 0.000000 0.003139 0.000000
# 4 0.000000 0.000000 0.000000 0.030884 0.000000 0.005171
# 5 0.004199 0.003024 0.003139 0.000000 0.033562 0.000000
# 6 0.000000 0.000000 0.000000 0.005171 0.000000 0.069366
#
#
# Mechanical properties :
#
#
# Convention : Reuss Voigt Hill
#
# Bulk Modulus (GPa) = 27.52507 31.93328 29.72917
# Shear Modulus (GPa) = 22.23995 25.21252 23.72624
#
# Velocity S-wave (km/s) = 3.37577 3.59430 3.48674
# Velocity P-wave (km/s) = 5.41279 5.79551 5.60742
#
# Compressibility (1/GPa) = 0.03633051
#
# Stress axis : x y z
#
# Youngs Moduli (GPa) = 46.17331 47.29484 67.50835
#
# Poissons Ratio (x) = 0.15245 0.15010
# Poissons Ratio (y) = 0.14883 0.35073
# Poissons Ratio (z) = 0.10266 0.24571
#
# Static dielectric constant tensor:
#      x y z
#    x 3.478260 0.000000 0.101290 
#    y 0.000000 3.249740 0.000000 
#    z 0.101290 0.000000 3.785560 
# 
# 
# High freq. dielectric constant tensor:
#      x y z
#    x 1.743170 0.000000 -0.000990 
#    y 0.000000 1.736310 0.000000 
#    z -0.000990 0.000000 1.771010 
# 
# From -- ./inp_files/250056.got.cif
#   From: 2010.06.25/outbox.cif.g09.slc.cpg/sg12_126_cif.got.tgz:250056.got - 2010.06.28 00:19:55.
