data_PCOD8082175
_publ_section_title
;
Structure prediction by ZEFSAII (Michael W. Deem and Ramdas Pophale) SiO2 
 PCOD8082175
Probable space group: C 2/M
;
_chemical_formula_sum "Si O2"
_cell_formula_units_Z 64
_cell_length_a 25.147346
_cell_length_b 9.060672
_cell_length_c 20.982346
_cell_angle_alpha 90.000000
_cell_angle_beta 126.095381
_cell_angle_gamma 90.000000
_cell_volume 3863.118788
_symmetry_space_group_name_H-M "C 2/M"
_symmetry_group_IT_number 12
_symmetry_cell_setting 'monoclinic'
loop_
_space_group_symop_operation_xyz
x,y,z
-x,y,-z
-x,-y,-z
x,-y,z
1/2+x,1/2+y,z
1/2-x,1/2+y,-z
1/2-x,1/2-y,-z
1/2+x,1/2-y,z
loop_
_atom_site_type_symbol
_atom_site_label
_atom_site_fract_x
_atom_site_fract_y
_atom_site_fract_z
Si Si1 0.045837 0.175223 0.588196
Si Si2 0.308488 0.670598 0.005675
Si Si3 0.304727 0.325538 0.314753
Si Si4 0.347486 0.330085 0.573629
Si Si5 0.775983 0.331924 0.168763
Si Si6 0.002398 0.827242 0.308934
Si Si7 0.231189 0.328062 0.585322
Si Si8 0.105850 0.327052 0.843490
O O1 0.120016 0.231091 0.630226
O O2 0.000000 0.241856 0.500000
O O3 0.019190 0.232315 0.637016
O O4 0.042855 0.000000 0.584240
O O5 0.310775 0.500000 0.027609
O O6 0.292498 0.685816 0.919026
O O7 0.250000 0.750000 0.000000
O O8 0.375714 0.750271 0.075668
O O9 0.299967 0.500000 0.317121
O O10 0.271319 0.275896 0.225389
O O11 0.265232 0.253180 0.344744
O O12 0.341300 0.500000 0.547777
O O13 0.420987 0.292670 0.647417
O O14 0.300025 0.293881 0.599109
O O15 0.329032 0.233036 0.499317
O O16 0.784109 0.500000 0.198132
O O17 0.838612 0.287998 0.169594
O O18 0.963654 0.737711 0.227801
O O19 0.986461 0.000000 0.290521
O O20 0.219897 0.500000 0.588541
O O21 0.099624 0.500000 0.850815
#
# Coordination Sequence:
#
# PCOD8082175 Si02
#       8
#     8   8   8   8   8   8   8   8
#     4   9  17  28  43  65  92 122 157 194 232 278
#     4   9  17  29  46  67  94 129 164 196 237 283
#     4  11  20  30  48  71  95 128 164 196 236 288
#     4   9  19  35  54  72  91 123 167 207 245 289
#     4   9  18  31  45  66  98 129 157 196 236 279
#     4  10  18  31  50  70  95 126 162 202 239 284
#     4  10  20  34  51  71  96 125 160 207 252 285
#     4  10  19  30  45  69 101 131 160 195 237 288
#
# _framework density 16.566925000000001
#
# number of rings (size 3 to 8) (size 9 to 14) (size 15 to 20)
#    0.000    2.375    1.250    3.000    0.000    5.500 
#    0.000    0.000    0.000    1.875    0.000    0.875 
#    0.000    7.000    0.000    0.000    0.000    0.000 
#
# Total GULP energy -396797.134575 kJ/mol
# GULP energy per Si atom -12399.910455 kJ/mol
# Density = 1.652922 g / cm^3
# Si number density = 16.566925 Si / 1000 Ang^3
#
#
#
# Elastic Constant Matrix: (Units=GPa)
#
#
# Indices 1 2 3 4 5 6 
#
# 1 61.4223 34.6441 43.4741 0.0000 0.3887 0.0000
# 2 34.6441 85.6520 59.5834 0.0000 -1.8559 0.0000
# 3 43.4741 59.5834 133.5518 0.0000 4.9846 0.0000
# 4 0.0000 0.0000 0.0000 32.6661 0.0000 -1.2858
# 5 0.3887 -1.8559 4.9846 0.0000 19.4066 0.0000
# 6 0.0000 0.0000 0.0000 -1.2858 0.0000 20.2019
#
#
#
# Elastic Compliance Matrix: (Units=1/GPa)
#
#
# Indices 1 2 3 4 5 6 
#
# 1 0.023077 -0.005942 -0.004869 0.000000 0.000220 0.000000
# 2 -0.005942 0.018711 -0.006548 0.000000 0.003590 0.000000
# 3 -0.004869 -0.006548 0.012130 0.000000 -0.003644 0.000000
# 4 0.000000 0.000000 0.000000 0.030690 0.000000 0.001953
# 5 0.000220 0.003590 -0.003644 0.000000 0.052804 0.000000
# 6 0.000000 0.000000 0.000000 0.001953 0.000000 0.049625
#
#
# Mechanical properties :
#
#
# Convention : Reuss Voigt Hill
#
# Bulk Modulus (GPa) = 52.08223 61.78105 56.93164
# Shear Modulus (GPa) = 21.91494 23.98322 22.94908
#
# Velocity S-wave (km/s) = 3.64100 3.80894 3.72591
# Velocity P-wave (km/s) = 7.01295 7.53105 7.27662
#
# Compressibility (1/GPa) = 0.01920041
#
# Stress axis : x y z
#
# Youngs Moduli (GPa) = 43.33257 53.44405 82.44007
#
# Poissons Ratio (x) = 0.31757 0.40143
# Poissons Ratio (y) = 0.25748 0.53979
# Poissons Ratio (z) = 0.21100 0.34993
#
# Static dielectric constant tensor:
#      x y z
#    x 2.881670 0.000000 0.023980 
#    y 0.000000 3.101780 0.000000 
#    z 0.023980 0.000000 3.299970 
# 
# 
# High freq. dielectric constant tensor:
#      x y z
#    x 1.598950 0.000000 0.001880 
#    y 0.000000 1.637900 0.000000 
#    z 0.001880 0.000000 1.645110 
# 
# From -- ./inp_files/324121.got.cif
#   From: 2010.06.25/outbox.cif.g09.slc.cpg/sg12_163_cif.got.tgz:324121.got - 2010.06.28 00:19:55.
