data_PCOD8082241
_publ_section_title
;
Structure prediction by ZEFSAII (Michael W. Deem and Ramdas Pophale) SiO2 
 PCOD8082241
Probable space group: C 2/M
;
_chemical_formula_sum "Si O2"
_cell_formula_units_Z 56
_cell_length_a 20.637714
_cell_length_b 8.963055
_cell_length_c 17.481260
_cell_angle_alpha 90.000000
_cell_angle_beta 73.711544
_cell_angle_gamma 90.000000
_cell_volume 3103.838395
_symmetry_space_group_name_H-M "C 2/M"
_symmetry_group_IT_number 12
_symmetry_cell_setting 'monoclinic'
loop_
_space_group_symop_operation_xyz
x,y,z
-x,y,-z
-x,-y,-z
x,-y,z
1/2+x,1/2+y,z
1/2-x,1/2+y,-z
1/2-x,1/2-y,-z
1/2+x,1/2-y,z
loop_
_atom_site_type_symbol
_atom_site_label
_atom_site_fract_x
_atom_site_fract_y
_atom_site_fract_z
Si Si1 0.881629 0.173847 0.656844
Si Si2 0.804693 0.677186 0.813410
Si Si3 0.576544 0.831880 0.502069
Si Si4 0.458823 0.676906 0.171535
Si Si5 0.467412 0.326109 0.339870
Si Si6 0.654991 0.323003 0.902854
Si Si7 0.108398 0.176728 0.083774
O O1 0.825306 0.258948 0.724352
O O2 0.878387 0.236776 0.571672
O O3 0.954012 0.205487 0.670784
O O4 0.864575 0.000000 0.660622
O O5 0.809939 0.500000 0.810426
O O6 0.728901 0.732740 0.855154
O O7 0.852877 0.740410 0.862230
O O8 0.500000 0.827252 0.500000
O O9 0.580669 0.760565 0.584984
O O10 0.604422 0.000000 0.495911
O O11 0.454788 0.500000 0.174580
O O12 0.450633 0.735716 0.260984
O O13 0.399359 0.744765 0.138791
O O14 0.530330 0.725460 0.112434
O O15 0.451484 0.500000 0.354259
O O16 0.649941 0.500000 0.902928
O O17 0.638279 0.266659 0.993549
O O18 0.116835 0.000000 0.093033
#
# Coordination Sequence:
#
# PCOD8082241 Si02
#       7
#     8   8   8   8   8   8   8
#     4  10  18  31  50  74  99 130 170 209 246 291
#     4  11  21  32  48  74 106 137 165 205 258 305
#     4   9  17  28  45  73 105 133 157 196 253 304
#     4   9  16  30  52  77 100 128 171 216 251 289
#     4   9  16  28  48  74  99 126 164 208 249 290
#     4   9  19  32  50  75 102 132 170 213 255 298
#     4  10  18  33  55  76  96 129 175 217 252 293
#
# _framework density 18.042176000000001
#
# number of rings (size 3 to 8) (size 9 to 14) (size 15 to 20)
#    0.000    2.429    1.429    2.143    0.000    4.000 
#    0.000    0.714    0.000    6.857    0.000    0.000 
#    0.000    0.000    0.000    0.000    0.000    0.000 
#
# Total GULP energy -347206.895930 kJ/mol
# GULP energy per Si atom -12400.246283 kJ/mol
# Density = 1.800111 g / cm^3
# Si number density = 18.042176 Si / 1000 Ang^3
#
#
#
# Elastic Constant Matrix: (Units=GPa)
#
#
# Indices 1 2 3 4 5 6 
#
# 1 57.8285 25.8304 40.7359 0.0000 -16.1453 0.0000
# 2 25.8304 57.9377 43.7523 0.0000 -4.3329 0.0000
# 3 40.7359 43.7523 163.6061 0.0000 -6.7703 0.0000
# 4 0.0000 0.0000 0.0000 29.4361 0.0000 -1.9137
# 5 -16.1453 -4.3329 -6.7703 0.0000 13.5680 0.0000
# 6 0.0000 0.0000 0.0000 -1.9137 0.0000 12.1068
#
#
#
# Elastic Compliance Matrix: (Units=1/GPa)
#
#
# Indices 1 2 3 4 5 6 
#
# 1 0.034840 -0.009283 -0.004696 0.000000 0.036150 0.000000
# 2 -0.009283 0.024327 -0.004421 0.000000 -0.005483 0.000000
# 3 -0.004696 -0.004421 0.008347 0.000000 -0.002835 0.000000
# 4 0.000000 0.000000 0.000000 0.034325 0.000000 0.005426
# 5 0.036150 -0.005483 -0.002835 0.000000 0.113554 0.000000
# 6 0.000000 0.000000 0.000000 0.005426 0.000000 0.083456
#
#
# Mechanical properties :
#
#
# Convention : Reuss Voigt Hill
#
# Bulk Modulus (GPa) = 32.55958 55.55662 44.05810
# Shear Modulus (GPa) = 14.45561 22.29241 18.37401
#
# Velocity S-wave (km/s) = 2.83364 3.51888 3.19469
# Velocity P-wave (km/s) = 5.36578 6.88255 6.17094
#
# Compressibility (1/GPa) = 0.03071293
#
# Stress axis : x y z
#
# Youngs Moduli (GPa) = 28.70273 41.10631 119.80927
#
# Poissons Ratio (x) = 0.38158 0.56266
# Poissons Ratio (y) = 0.26644 0.52972
# Poissons Ratio (z) = 0.13480 0.18174
#
# Static dielectric constant tensor:
#      x y z
#    x 3.217120 0.000000 0.029660 
#    y 0.000000 3.122640 0.000000 
#    z 0.029660 0.000000 3.653260 
# 
# 
# High freq. dielectric constant tensor:
#      x y z
#    x 1.666100 0.000000 0.003460 
#    y 0.000000 1.674230 0.000000 
#    z 0.003460 0.000000 1.720180 
# 
# From -- ./inp_files/280228.got.cif
#   From: 2010.06.25/outbox.cif.g09.slc.cpg/sg12_141_cif.got.tgz:280228.got - 2010.06.28 00:19:55.
