data_PCOD8082022
_publ_section_title
;
Structure prediction by ZEFSAII (Michael W. Deem and Ramdas Pophale) SiO2 
 PCOD8082022
Probable space group: C 2/M
;
_chemical_formula_sum "Si O2"
_cell_formula_units_Z 52
_cell_length_a 18.196574
_cell_length_b 21.700698
_cell_length_c 11.084024
_cell_angle_alpha 90.000000
_cell_angle_beta 142.626210
_cell_angle_gamma 90.000000
_cell_volume 2656.796744
_symmetry_space_group_name_H-M "C 2/M"
_symmetry_group_IT_number 12
_symmetry_cell_setting 'monoclinic'
loop_
_space_group_symop_operation_xyz
x,y,z
-x,y,-z
-x,-y,-z
x,-y,z
1/2+x,1/2+y,z
1/2-x,1/2+y,-z
1/2-x,1/2-y,-z
1/2+x,1/2-y,z
loop_
_atom_site_type_symbol
_atom_site_label
_atom_site_fract_x
_atom_site_fract_y
_atom_site_fract_z
Si Si1 0.359923 0.500000 0.619734
Si Si2 0.900135 0.500000 0.768100
Si Si3 0.577676 0.319651 0.944556
Si Si4 0.644122 0.815989 0.079790
Si Si5 0.837024 0.129381 0.717041
Si Si6 0.620120 0.633508 0.738738
Si Si7 0.403212 0.865693 0.715312
Si Si8 0.574936 0.500000 0.717394
O O1 0.242566 0.500000 0.375995
O O2 0.355363 0.560083 0.696386
O O3 0.484031 0.500000 0.710473
O O4 0.919988 0.438757 0.716443
O O5 0.000000 0.500000 0.000000
O O6 0.433568 0.324524 0.779256
O O7 0.603357 0.326488 0.837181
O O8 0.635720 0.257367 0.074190
O O9 0.643431 0.371693 0.112755
O O10 0.770443 0.837471 0.191176
O O11 0.630897 0.848593 0.191705
O O12 0.531257 0.835594 0.846520
O O13 0.704585 0.156564 0.512370
O O14 0.500000 0.636331 0.500000
O O15 0.652912 0.563038 0.820034
O O16 0.500000 0.500000 0.500000
#
# Coordination Sequence:
#
# PCOD8082022 Si02
#       8
#     4   4   8   8   8   8   8   4
#     4  10  20  36  58  95 119 150 200 241 309 355
#     4  10  18  30  58  84 121 145 182 240 294 343
#     4  11  23  39  57  86 117 159 201 239 295 359
#     4  11  23  37  58  85 119 155 206 240 291 361
#     4  10  21  37  62  86 123 152 195 250 295 358
#     4  11  24  40  61  87 118 153 196 254 303 350
#     4  10  21  36  58  90 115 155 195 246 300 346
#     4  10  22  35  61  91 116 149 195 241 305 355
#
# _framework density 19.572441999999999
#
# number of rings (size 3 to 8) (size 9 to 14) (size 15 to 20)
#    0.000    1.538    3.077    3.231    6.462    6.154 
#    0.000    0.769    0.000    0.000    0.000    4.308 
#    0.000    0.000    0.000    0.000    0.000    0.000 
#
# Total GULP energy -322218.935832 kJ/mol
# GULP energy per Si atom -12393.035994 kJ/mol
# Density = 1.952789 g / cm^3
# Si number density = 19.572442 Si / 1000 Ang^3
#
#
#
# Elastic Constant Matrix: (Units=GPa)
#
#
# Indices 1 2 3 4 5 6 
#
# 1 84.7805 30.2800 44.1322 0.0000 7.4732 0.0000
# 2 30.2800 106.8539 29.9169 0.0000 6.8263 0.0000
# 3 44.1322 29.9169 136.5775 0.0000 15.6265 0.0000
# 4 0.0000 0.0000 0.0000 29.4252 0.0000 10.5756
# 5 7.4732 6.8263 15.6265 0.0000 34.6138 0.0000
# 6 0.0000 0.0000 0.0000 10.5756 0.0000 21.7186
#
#
#
# Elastic Compliance Matrix: (Units=1/GPa)
#
#
# Indices 1 2 3 4 5 6 
#
# 1 0.015107 -0.003078 -0.004116 0.000000 -0.000796 0.000000
# 2 -0.003078 0.010632 -0.001234 0.000000 -0.000875 0.000000
# 3 -0.004116 -0.001234 0.009272 0.000000 -0.003054 0.000000
# 4 0.000000 0.000000 0.000000 0.041194 0.000000 -0.020059
# 5 -0.000796 -0.000875 -0.003054 0.000000 0.030613 0.000000
# 6 0.000000 0.000000 0.000000 -0.020059 0.000000 0.055811
#
#
# Mechanical properties :
#
#
# Convention : Reuss Voigt Hill
#
# Bulk Modulus (GPa) = 55.08276 59.65222 57.36749
# Shear Modulus (GPa) = 26.94878 32.07705 29.51291
#
# Velocity S-wave (km/s) = 3.71465 4.05271 3.88736
# Velocity P-wave (km/s) = 6.82659 7.24176 7.03724
#
# Compressibility (1/GPa) = 0.01815450
#
# Stress axis : x y z
#
# Youngs Moduli (GPa) = 66.19296 94.05368 107.85492
#
# Poissons Ratio (x) = 0.28947 0.44397
# Poissons Ratio (y) = 0.20372 0.13313
# Poissons Ratio (z) = 0.27247 0.11609
#
# Static dielectric constant tensor:
#      x y z
#    x 3.312890 0.000000 0.146420 
#    y 0.000000 4.092680 0.000000 
#    z 0.146420 0.000000 3.879100 
# 
# 
# High freq. dielectric constant tensor:
#      x y z
#    x 1.730110 0.000000 0.009330 
#    y 0.000000 1.777020 0.000000 
#    z 0.009330 0.000000 1.769210 
# 
# From -- ./inp_files/159662.got.cif
#   From: 2010.06.25/outbox.cif.g09.slc.cpg/sg12_80_cif.got.tgz:159662.got - 2010.06.28 00:19:55.
