data_PCOD8082284
_publ_section_title
;
Structure prediction by ZEFSAII (Michael W. Deem and Ramdas Pophale) SiO2 
 PCOD8082284
Probable space group: C 2/M
;
_chemical_formula_sum "Si O2"
_cell_formula_units_Z 64
_cell_length_a 14.687511
_cell_length_b 9.106986
_cell_length_c 27.517081
_cell_angle_alpha 90.000000
_cell_angle_beta 73.119727
_cell_angle_gamma 90.000000
_cell_volume 3522.069897
_symmetry_space_group_name_H-M "C 2/M"
_symmetry_group_IT_number 12
_symmetry_cell_setting 'monoclinic'
loop_
_space_group_symop_operation_xyz
x,y,z
-x,y,-z
-x,-y,-z
x,-y,z
1/2+x,1/2+y,z
1/2-x,1/2+y,-z
1/2-x,1/2-y,-z
1/2+x,1/2-y,z
loop_
_atom_site_type_symbol
_atom_site_label
_atom_site_fract_x
_atom_site_fract_y
_atom_site_fract_z
Si Si1 0.655779 0.170133 0.898764
Si Si2 0.035375 0.330030 0.116709
Si Si3 0.969924 0.825836 0.556602
Si Si4 0.113940 0.174052 0.288686
Si Si5 0.775901 0.825957 0.634516
Si Si6 0.348069 0.173642 0.993797
Si Si7 0.419993 0.673854 0.366061
Si Si8 0.152571 0.825006 0.175453
O O1 0.576832 0.196937 0.870306
O O2 0.752899 0.243586 0.864268
O O3 0.678047 0.000000 0.901613
O O4 0.619858 0.226567 0.957209
O O5 0.060494 0.500000 0.122279
O O6 0.079852 0.273651 0.058986
O O7 0.064835 0.232523 0.157631
O O8 0.862251 0.775290 0.585778
O O9 0.000000 0.757604 0.500000
O O10 0.047501 0.776211 0.584844
O O11 0.970332 0.000000 0.554849
O O12 0.191888 0.226101 0.316387
O O13 0.143846 0.236808 0.231509
O O14 0.006239 0.225760 0.317448
O O15 0.113614 0.000000 0.289298
O O16 0.677941 0.750409 0.634032
O O17 0.760329 0.000000 0.634796
O O18 0.336969 0.000000 0.992968
O O19 0.250000 0.250000 0.000000
O O20 0.404046 0.500000 0.365714
O O21 0.151823 0.000000 0.176119
#
# Coordination Sequence:
#
# PCOD8082284 Si02
#       8
#     8   8   8   8   8   8   8   8
#     4   9  18  32  50  70  93 124 155 183 228 287
#     4  10  20  33  50  73  99 123 151 193 240 285
#     4   8  15  29  48  70 100 137 168 194 234 292
#     4   8  17  33  50  67  92 128 161 193 237 291
#     4   9  17  31  51  73  96 126 167 204 236 282
#     4  10  18  31  51  71  94 124 156 188 229 281
#     4   9  17  31  50  71  96 127 164 201 242 286
#     4  10  19  34  53  70  92 123 161 197 232 283
#
# _framework density 18.171133000000001
#
# number of rings (size 3 to 8) (size 9 to 14) (size 15 to 20)
#    0.000    2.875    1.250    1.875    0.000    3.000 
#    0.000    6.250    0.000    2.250    0.000    0.000 
#    0.000    0.000    0.000    0.000    0.000    0.000 
#
# Total GULP energy -396531.629213 kJ/mol
# GULP energy per Si atom -12391.613413 kJ/mol
# Density = 1.812977 g / cm^3
# Si number density = 18.171133 Si / 1000 Ang^3
#
#
#
# Elastic Constant Matrix: (Units=GPa)
#
#
# Indices 1 2 3 4 5 6 
#
# 1 127.8115 23.4910 58.2359 0.0000 14.6377 0.0000
# 2 23.4910 18.0019 22.3371 0.0000 2.5196 0.0000
# 3 58.2359 22.3371 146.4050 0.0000 16.0587 0.0000
# 4 0.0000 0.0000 0.0000 16.0007 0.0000 3.6067
# 5 14.6377 2.5196 16.0587 0.0000 18.0625 0.0000
# 6 0.0000 0.0000 0.0000 3.6067 0.0000 32.4662
#
#
#
# Elastic Compliance Matrix: (Units=1/GPa)
#
#
# Indices 1 2 3 4 5 6 
#
# 1 0.011638 -0.011620 -0.002216 0.000000 -0.005841 0.000000
# 2 -0.011620 0.080125 -0.008210 0.000000 0.005539 0.000000
# 3 -0.002216 -0.008210 0.009576 0.000000 -0.005572 0.000000
# 4 0.000000 0.000000 0.000000 0.064102 0.000000 -0.007121
# 5 -0.005841 0.005539 -0.005572 0.000000 0.064278 0.000000
# 6 0.000000 0.000000 0.000000 -0.007121 0.000000 0.031592
#
#
# Mechanical properties :
#
#
# Convention : Reuss Voigt Hill
#
# Bulk Modulus (GPa) = 17.46822 55.59402 36.53112
# Shear Modulus (GPa) = 15.40898 25.84951 20.62925
#
# Velocity S-wave (km/s) = 2.91519 3.77577 3.37304
# Velocity P-wave (km/s) = 4.57877 7.04768 5.94285
#
# Compressibility (1/GPa) = 0.05724682
#
# Stress axis : x y z
#
# Youngs Moduli (GPa) = 85.92361 12.48048 104.43191
#
# Poissons Ratio (x) = 0.14502 0.23141
# Poissons Ratio (y) = 0.99843 0.85741
# Poissons Ratio (z) = 0.19040 0.10247
#
# Static dielectric constant tensor:
#      x y z
#    x 3.378580 0.000000 -0.151740 
#    y 0.000000 2.844270 0.000000 
#    z -0.151740 0.000000 4.156320 
# 
# 
# High freq. dielectric constant tensor:
#      x y z
#    x 1.710840 0.000000 0.002390 
#    y 0.000000 1.654080 0.000000 
#    z 0.002390 0.000000 1.711860 
# 
# From -- ./inp_files/359831.got.cif
#   From: 2010.06.25/outbox.cif.g09.slc.cpg/sg12_180_cif.got.tgz:359831.got - 2010.06.28 00:19:55.
