data_PCOD8082490
_publ_section_title
;
Structure prediction by ZEFSAII (Michael W. Deem and Ramdas Pophale) SiO2 
 PCOD8082490
Probable space group: C 2/M
;
_chemical_formula_sum "Si O2"
_cell_formula_units_Z 40
_cell_length_a 27.745558
_cell_length_b 8.554956
_cell_length_c 9.150191
_cell_angle_alpha 90.000000
_cell_angle_beta 109.946932
_cell_angle_gamma 90.000000
_cell_volume 2041.612966
_symmetry_space_group_name_H-M "C 2/M"
_symmetry_group_IT_number 12
_symmetry_cell_setting 'monoclinic'
loop_
_space_group_symop_operation_xyz
x,y,z
-x,y,-z
-x,-y,-z
x,-y,z
1/2+x,1/2+y,z
1/2-x,1/2+y,-z
1/2-x,1/2-y,-z
1/2+x,1/2-y,z
loop_
_atom_site_type_symbol
_atom_site_label
_atom_site_fract_x
_atom_site_fract_y
_atom_site_fract_z
Si Si1 0.647721 0.315526 0.566389
Si Si2 0.947338 0.817902 0.027381
Si Si3 0.855517 0.317893 0.757297
Si Si4 0.049041 0.185503 0.635603
Si Si5 0.247596 0.815387 0.334904
O O1 0.653011 0.500000 0.584587
O O2 0.637481 0.272249 0.387823
O O3 0.600745 0.250496 0.614130
O O4 0.699663 0.239267 0.687416
O O5 0.903351 0.715019 0.909708
O O6 0.932333 0.000000 0.002029
O O7 0.953316 0.760236 0.199511
O O8 0.000000 0.783354 0.000000
O O9 0.850658 0.500000 0.718087
O O10 0.803999 0.258259 0.788387
O O11 0.000000 0.256349 0.500000
O O12 0.047680 0.000000 0.622950
O O13 0.250000 0.750000 0.500000
O O14 0.243209 0.000000 0.327549
#
# Coordination Sequence:
#
# PCOD8082490 Si02
#       5
#     8   8   8   8   8
#     4  10  18  32  55  81 109 140 177 219 264 312
#     4  10  20  36  58  81 106 138 177 219 265 316
#     4  11  21  34  53  79 110 142 179 218 261 311
#     4   9  18  33  55  82 107 135 174 218 264 316
#     4  10  18  31  52  78 107 139 178 218 262 312
#
# _framework density 19.592352000000002
#
# number of rings (size 3 to 8) (size 9 to 14) (size 15 to 20)
#    0.000    2.000    0.000    7.800    0.000    3.600 
#    0.000    3.000    0.000    4.200    0.000    0.000 
#    0.000    0.000    0.000    0.000    0.000    0.000 
#
# Total GULP energy -247983.429383 kJ/mol
# GULP energy per Si atom -12399.171469 kJ/mol
# Density = 1.954776 g / cm^3
# Si number density = 19.592352 Si / 1000 Ang^3
#
#
#
# Elastic Constant Matrix: (Units=GPa)
#
#
# Indices 1 2 3 4 5 6 
#
# 1 179.6794 35.5134 60.3121 0.0000 2.4030 0.0000
# 2 35.5134 75.8255 9.4103 0.0000 8.2036 0.0000
# 3 60.3121 9.4103 86.0042 0.0000 0.5814 0.0000
# 4 0.0000 0.0000 0.0000 17.3248 0.0000 8.9603
# 5 2.4030 8.2036 0.5814 0.0000 31.4260 0.0000
# 6 0.0000 0.0000 0.0000 8.9603 0.0000 29.5410
#
#
#
# Elastic Compliance Matrix: (Units=1/GPa)
#
#
# Indices 1 2 3 4 5 6 
#
# 1 0.007926 -0.003097 -0.005222 0.000000 0.000299 0.000000
# 2 -0.003097 0.014967 0.000559 0.000000 -0.003681 0.000000
# 3 -0.005222 0.000559 0.015228 0.000000 -0.000028 0.000000
# 4 0.000000 0.000000 0.000000 0.068461 0.000000 -0.020765
# 5 0.000299 -0.003681 -0.000028 0.000000 0.032759 0.000000
# 6 0.000000 0.000000 0.000000 -0.020765 0.000000 0.040150
#
#
# Mechanical properties :
#
#
# Convention : Reuss Voigt Hill
#
# Bulk Modulus (GPa) = 44.24233 61.33120 52.78677
# Shear Modulus (GPa) = 24.68592 31.40991 28.04791
#
# Velocity S-wave (km/s) = 3.55347 4.00831 3.78772
# Velocity P-wave (km/s) = 6.28225 7.26592 6.79192
#
# Compressibility (1/GPa) = 0.02260279
#
# Stress axis : x y z
#
# Youngs Moduli (GPa) = 126.16350 66.81205 65.66788
#
# Poissons Ratio (x) = 0.20689 0.34289
# Poissons Ratio (y) = 0.39068 -0.03669
# Poissons Ratio (z) = 0.65878 -0.03733
#
# Static dielectric constant tensor:
#      x y z
#    x 4.338040 0.000000 0.175670 
#    y 0.000000 3.354930 0.000000 
#    z 0.175670 0.000000 3.363340 
# 
# 
# High freq. dielectric constant tensor:
#      x y z
#    x 1.788790 0.000000 0.013400 
#    y 0.000000 1.749320 0.000000 
#    z 0.013400 0.000000 1.733390 
# 
# From -- ./inp_files/101186.got.cif
#   From: 2010.06.25/outbox.cif.g09.slc.cpg/sg12_51_cif.got.tgz:101186.got - 2010.06.28 00:19:55.
