data_PCOD8082320
_publ_section_title
;
Structure prediction by ZEFSAII (Michael W. Deem and Ramdas Pophale) SiO2 
 PCOD8082320
Probable space group: C 2/M
;
_chemical_formula_sum "Si O2"
_cell_formula_units_Z 56
_cell_length_a 21.051057
_cell_length_b 29.482761
_cell_length_c 9.373953
_cell_angle_alpha 90.000000
_cell_angle_beta 34.690303
_cell_angle_gamma 90.000000
_cell_volume 3311.190932
_symmetry_space_group_name_H-M "C 2/M"
_symmetry_group_IT_number 12
_symmetry_cell_setting 'monoclinic'
loop_
_space_group_symop_operation_xyz
x,y,z
-x,y,-z
-x,-y,-z
x,-y,z
1/2+x,1/2+y,z
1/2-x,1/2+y,-z
1/2-x,1/2-y,-z
1/2+x,1/2-y,z
loop_
_atom_site_type_symbol
_atom_site_label
_atom_site_fract_x
_atom_site_fract_y
_atom_site_fract_z
Si Si1 0.851130 0.000000 0.646238
Si Si2 0.608658 0.239087 0.385881
Si Si3 0.214745 0.313706 0.944601
Si Si4 0.798025 0.449744 0.720675
Si Si5 0.194701 0.582305 0.980258
Si Si6 0.022176 0.409170 0.800948
Si Si7 0.996497 0.696072 0.848427
Si Si8 0.093523 0.000000 0.127152
O O1 0.893367 0.000000 0.727828
O O2 0.779051 0.045674 0.754381
O O3 0.960688 0.000000 0.337915
O O4 0.500000 0.253381 0.500000
O O5 0.671001 0.198772 0.184263
O O6 0.585644 0.221572 0.586473
O O7 0.674619 0.285444 0.285997
O O8 0.241521 0.366812 0.873978
O O9 0.126074 0.298153 0.990131
O O10 0.848840 0.500000 0.649670
O O11 0.823097 0.422531 0.818324
O O12 0.858350 0.426916 0.475151
O O13 0.662516 0.455345 0.942475
O O14 0.075846 0.575494 0.123994
O O15 0.033780 0.355664 0.786271
O O16 0.000000 0.429118 0.000000
O O17 0.000000 0.717586 0.000000
#
# Coordination Sequence:
#
# PCOD8082320 Si02
#       8
#     4   8   8   8   8   8   8   4
#     4   9  16  31  49  68  96 123 168 199 232 287
#     4   9  17  32  49  73 102 126 158 200 246 298
#     4   9  18  31  49  73 101 125 161 201 249 287
#     4   9  18  31  48  68  96 124 162 200 241 286
#     4  10  18  31  51  74  95 132 160 204 244 287
#     4  10  20  31  47  74 102 126 159 203 250 292
#     4   9  18  32  50  70  98 134 160 194 246 295
#     4   7  16  31  45  66  90 125 154 205 234 271
#
# _framework density 16.912344000000001
#
# number of rings (size 3 to 8) (size 9 to 14) (size 15 to 20)
#    0.429    2.429    0.714    1.286    1.000    3.714 
#    5.143    0.000    0.000    1.714    0.000    0.000 
#    0.000    0.000    0.000    0.000    0.000    0.000 
#
# Total GULP energy -346956.806727 kJ/mol
# GULP energy per Si atom -12391.314526 kJ/mol
# Density = 1.687385 g / cm^3
# Si number density = 16.912344 Si / 1000 Ang^3
#
#
#
# Elastic Constant Matrix: (Units=GPa)
#
#
# Indices 1 2 3 4 5 6 
#
# 1 57.2801 30.9182 52.5475 0.0000 16.5616 0.0000
# 2 30.9182 82.2769 52.7316 0.0000 -10.1105 0.0000
# 3 52.5475 52.7316 140.8439 0.0000 2.2047 0.0000
# 4 0.0000 0.0000 0.0000 23.2638 0.0000 -1.2785
# 5 16.5616 -10.1105 2.2047 0.0000 24.8747 0.0000
# 6 0.0000 0.0000 0.0000 -1.2785 0.0000 16.7410
#
#
#
# Elastic Compliance Matrix: (Units=1/GPa)
#
#
# Indices 1 2 3 4 5 6 
#
# 1 0.045495 -0.014324 -0.011061 0.000000 -0.035132 0.000000
# 2 -0.014324 0.021835 -0.003123 0.000000 0.018689 0.000000
# 3 -0.011061 -0.003123 0.012318 0.000000 0.005003 0.000000
# 4 0.000000 0.000000 0.000000 0.043167 0.000000 0.003297
# 5 -0.035132 0.018689 0.005003 0.000000 0.070746 0.000000
# 6 0.000000 0.000000 0.000000 0.003297 0.000000 0.059985
#
#
# Mechanical properties :
#
#
# Convention : Reuss Voigt Hill
#
# Bulk Modulus (GPa) = 44.18737 61.42172 52.80454
# Shear Modulus (GPa) = 15.71805 22.58946 19.15375
#
# Velocity S-wave (km/s) = 3.05189 3.65866 3.36896
# Velocity P-wave (km/s) = 6.21311 7.36507 6.81348
#
# Compressibility (1/GPa) = 0.02263090
#
# Stress axis : x y z
#
# Youngs Moduli (GPa) = 21.98057 45.79747 81.18381
#
# Poissons Ratio (x) = 0.65602 0.89795
# Poissons Ratio (y) = 0.31486 0.25356
# Poissons Ratio (z) = 0.24312 0.14304
#
# Static dielectric constant tensor:
#      x y z
#    x 3.095150 0.000000 0.000660 
#    y 0.000000 3.061400 0.000000 
#    z 0.000660 0.000000 3.370390 
# 
# 
# High freq. dielectric constant tensor:
#      x y z
#    x 1.632210 0.000000 0.001310 
#    y 0.000000 1.643170 0.000000 
#    z 0.001310 0.000000 1.650960 
# 
# From -- ./inp_files/80463.got.cif
#   From: 2010.06.25/outbox.cif.g09.slc.cpg/sg12_41_cif.got.tgz:80463.got - 2010.06.28 00:19:55.
