data_PCOD8082834
_publ_section_title
;
Structure prediction by ZEFSAII (Michael W. Deem and Ramdas Pophale) SiO2 
 PCOD8082834
Probable space group: C 2/M
;
_chemical_formula_sum "Si O2"
_cell_formula_units_Z 64
_cell_length_a 25.280751
_cell_length_b 27.115253
_cell_length_c 9.143429
_cell_angle_alpha 90.000000
_cell_angle_beta 28.149595
_cell_angle_gamma 90.000000
_cell_volume 2956.976690
_symmetry_space_group_name_H-M "C 2/M"
_symmetry_group_IT_number 12
_symmetry_cell_setting 'monoclinic'
loop_
_space_group_symop_operation_xyz
x,y,z
-x,y,-z
-x,-y,-z
x,-y,z
1/2+x,1/2+y,z
1/2-x,1/2+y,-z
1/2-x,1/2-y,-z
1/2+x,1/2-y,z
loop_
_atom_site_type_symbol
_atom_site_label
_atom_site_fract_x
_atom_site_fract_y
_atom_site_fract_z
Si Si1 0.280518 0.350523 0.666353
Si Si2 0.909377 0.944257 0.380043
Si Si3 0.275419 0.661295 0.357901
Si Si4 0.992134 0.797529 0.185332
Si Si5 0.159001 0.055385 0.834161
Si Si6 0.105830 0.622061 0.326080
Si Si7 0.698507 0.445748 0.061531
Si Si8 0.434096 0.186115 0.300199
O O1 0.327194 0.405096 0.500978
O O2 0.249512 0.322452 0.589662
O O3 0.377804 0.322560 0.522131
O O4 0.174545 0.349702 0.031474
O O5 0.871865 0.000000 0.429906
O O6 0.891051 0.932291 0.596056
O O7 0.043147 0.937911 0.023134
O O8 0.259231 0.601583 0.394464
O O9 0.194175 0.688670 0.442034
O O10 0.398163 0.679610 0.003978
O O11 0.986113 0.738945 0.212662
O O12 0.000000 0.815391 0.000000
O O13 0.132247 0.058881 0.071441
O O14 0.208956 0.000000 0.677739
O O15 0.187303 0.585194 0.210606
O O16 0.054738 0.656828 0.576250
O O17 0.000000 0.597022 0.500000
O O18 0.745477 0.500000 0.972045
O O19 0.500000 0.162259 0.000000
#
# Coordination Sequence:
#
# PCOD8082834 Si02
#       8
#     8   8   8   8   8   8   8   8
#     4  10  21  37  58  86 126 154 195 245 296 355
#     4   9  17  30  54  88 124 159 188 233 300 361
#     4  11  21  39  62  91 122 159 197 242 295 353
#     4   9  21  39  62  89 118 155 198 244 301 354
#     4  10  18  31  58  92 124 156 194 239 292 355
#     4  11  23  39  60  86 115 157 201 245 296 350
#     4   9  18  34  55  84 120 155 197 242 292 353
#     4  11  24  42  64  85 113 157 206 250 299 347
#
# _framework density 21.643727999999999
#
# number of rings (size 3 to 8) (size 9 to 14) (size 15 to 20)
#    0.000    2.000    2.500    1.125    0.000    8.250 
#    0.000    1.875    0.000    3.000    0.000    0.000 
#    0.000    0.000    0.000    0.000    0.000    0.000 
#
# Total GULP energy -396483.967629 kJ/mol
# GULP energy per Si atom -12390.123988 kJ/mol
# Density = 2.159447 g / cm^3
# Si number density = 21.643728 Si / 1000 Ang^3
#
#
#
# Elastic Constant Matrix: (Units=GPa)
#
#
# Indices 1 2 3 4 5 6 
#
# 1 63.5485 8.9562 -1.6632 0.0001 -16.1755 -0.0001
# 2 8.9562 84.9182 15.4099 0.0000 -4.2795 -0.0001
# 3 -1.6632 15.4099 69.7445 -0.0008 -3.7704 0.0001
# 4 0.0001 0.0000 -0.0008 25.6687 0.0004 4.1571
# 5 -16.1755 -4.2795 -3.7704 0.0004 32.9844 0.0000
# 6 -0.0001 -0.0001 0.0001 4.1571 0.0000 16.0277
#
#
#
# Elastic Compliance Matrix: (Units=1/GPa)
#
#
# Indices 1 2 3 4 5 6 
#
# 1 0.018274 -0.001714 0.001295 0.000000 0.008887 0.000000
# 2 -0.001714 0.012484 -0.002774 0.000000 0.000462 0.000000
# 3 0.001295 -0.002774 0.015090 0.000000 0.002000 0.000000
# 4 0.000000 0.000000 0.000000 0.040666 0.000000 -0.010548
# 5 0.008887 0.000462 0.002000 0.000000 0.034964 0.000000
# 6 0.000000 0.000000 0.000000 -0.010548 0.000000 0.065128
#
#
# Mechanical properties :
#
#
# Convention : Reuss Voigt Hill
#
# Bulk Modulus (GPa) = 25.34209 29.29076 27.31643
# Shear Modulus (GPa) = 24.25472 27.97006 26.11239
#
# Velocity S-wave (km/s) = 3.35122 3.59875 3.47719
# Velocity P-wave (km/s) = 5.16802 5.55252 5.36372
#
# Compressibility (1/GPa) = 0.03946005
#
# Stress axis : x y z
#
# Youngs Moduli (GPa) = 54.72376 80.10549 66.26904
#
# Poissons Ratio (x) = 0.13733 -0.08582
# Poissons Ratio (y) = 0.09382 0.18384
# Poissons Ratio (z) = -0.07087 0.22222
#
# Static dielectric constant tensor:
#      x y z
#    x 4.021170 0.000000 0.059550 
#    y 0.000000 3.841100 0.000000 
#    z 0.059550 0.000000 3.832060 
# 
# 
# High freq. dielectric constant tensor:
#      x y z
#    x 1.855920 0.000000 0.005580 
#    y 0.000000 1.840040 0.000000 
#    z 0.005580 0.000000 1.831200 
# 
# From -- ./inp_files/100201.got.cif
#   From: 2010.06.25/outbox.cif.g09.slc.cpg/sg12_51_cif.got.tgz:100201.got - 2010.06.28 00:19:55.
