data_PCOD8082385
_publ_section_title
;
Structure prediction by ZEFSAII (Michael W. Deem and Ramdas Pophale) SiO2 
 PCOD8082385
Probable space group: C 2/M
;
_chemical_formula_sum "Si O2"
_cell_formula_units_Z 64
_cell_length_a 16.665820
_cell_length_b 17.072633
_cell_length_c 10.838669
_cell_angle_alpha 90.000000
_cell_angle_beta 98.619338
_cell_angle_gamma 90.000000
_cell_volume 3049.090053
_symmetry_space_group_name_H-M "C 2/M"
_symmetry_group_IT_number 12
_symmetry_cell_setting 'monoclinic'
loop_
_space_group_symop_operation_xyz
x,y,z
-x,y,-z
-x,-y,-z
x,-y,z
1/2+x,1/2+y,z
1/2-x,1/2+y,-z
1/2-x,1/2-y,-z
1/2+x,1/2-y,z
loop_
_atom_site_type_symbol
_atom_site_label
_atom_site_fract_x
_atom_site_fract_y
_atom_site_fract_z
Si Si1 0.433106 0.699921 0.585016
Si Si2 0.715632 0.346853 0.073654
Si Si3 0.350042 0.087558 0.767033
Si Si4 0.281010 0.304988 0.184695
Si Si5 0.147932 0.309174 0.614951
Si Si6 0.388575 0.089617 0.059148
Si Si7 0.997246 0.664648 0.270109
Si Si8 0.189757 0.908705 0.317556
O O1 0.500000 0.673242 0.500000
O O2 0.369480 0.764313 0.516366
O O3 0.478166 0.743585 0.709523
O O4 0.384966 0.623794 0.619410
O O5 0.715147 0.255444 0.111833
O O6 0.805429 0.383123 0.102329
O O7 0.666917 0.395157 0.167233
O O8 0.680594 0.352633 0.924885
O O9 0.267826 0.137801 0.734627
O O10 0.420675 0.114216 0.690130
O O11 0.324352 0.000000 0.728767
O O12 0.384990 0.097258 0.912332
O O13 0.346911 0.258678 0.278259
O O14 0.068450 0.358830 0.638516
O O15 0.228064 0.362362 0.625637
O O16 0.459790 0.145432 0.127253
O O17 0.406936 0.000000 0.102231
O O18 0.200710 0.000000 0.349476
#
# Coordination Sequence:
#
# PCOD8082385 Si02
#       8
#     8   8   8   8   8   8   8   8
#     4  10  24  42  59  80 111 149 200 246 281 330
#     4   9  17  30  55  87 113 137 186 235 273 344
#     4  10  21  32  50  84 125 155 178 223 285 348
#     4   9  17  34  55  79 113 151 189 223 277 329
#     4  10  21  39  60  84 111 149 198 245 272 338
#     4  10  18  31  51  84 123 153 183 224 282 349
#     4  11  19  34  55  79 111 154 188 229 279 330
#     4  11  21  37  62  86 111 147 187 241 295 339
#
# _framework density 20.989868999999999
#
# number of rings (size 3 to 8) (size 9 to 14) (size 15 to 20)
#    0.000    2.000    2.500    3.000    0.000    2.250 
#    2.250    3.125    0.000    6.375    0.000    3.500 
#    0.000    0.000    0.000    0.000    0.000    0.000 
#
# Total GULP energy -396530.899038 kJ/mol
# GULP energy per Si atom -12391.590595 kJ/mol
# Density = 2.094210 g / cm^3
# Si number density = 20.989869 Si / 1000 Ang^3
#
#
#
# Elastic Constant Matrix: (Units=GPa)
#
#
# Indices 1 2 3 4 5 6 
#
# 1 87.6473 58.3251 35.0445 0.0000 -24.4468 0.0000
# 2 58.3251 112.1655 40.2631 0.0000 -14.6649 0.0000
# 3 35.0445 40.2631 56.6012 0.0000 -4.0744 0.0000
# 4 0.0000 0.0000 0.0000 18.7183 0.0000 -5.4493
# 5 -24.4468 -14.6649 -4.0744 0.0000 30.7170 0.0000
# 6 0.0000 0.0000 0.0000 -5.4493 0.0000 28.0353
#
#
#
# Elastic Compliance Matrix: (Units=1/GPa)
#
#
# Indices 1 2 3 4 5 6 
#
# 1 0.023647 -0.007461 -0.008315 0.000000 0.014155 0.000000
# 2 -0.007461 0.015016 -0.006031 0.000000 0.000431 0.000000
# 3 -0.008315 -0.006031 0.026677 0.000000 -0.005959 0.000000
# 4 0.000000 0.000000 0.000000 0.056628 0.000000 0.011007
# 5 0.014155 0.000431 -0.005959 0.000000 0.043237 0.000000
# 6 0.000000 0.000000 0.000000 0.011007 0.000000 0.037809
#
#
# Mechanical properties :
#
#
# Convention : Reuss Voigt Hill
#
# Bulk Modulus (GPa) = 46.02720 58.18660 52.10690
# Shear Modulus (GPa) = 19.69512 23.67952 21.68732
#
# Velocity S-wave (km/s) = 3.06652 3.36242 3.21787
# Velocity P-wave (km/s) = 5.87486 6.54645 6.21972
#
# Compressibility (1/GPa) = 0.02172628
#
# Stress axis : x y z
#
# Youngs Moduli (GPa) = 42.28875 66.59375 37.48533
#
# Poissons Ratio (x) = 0.49685 0.31168
# Poissons Ratio (y) = 0.31551 0.22609
# Poissons Ratio (z) = 0.35162 0.40166
#
# Static dielectric constant tensor:
#      x y z
#    x 3.672450 0.000000 -0.110690 
#    y 0.000000 3.719520 0.000000 
#    z -0.110690 0.000000 3.925470 
# 
# 
# High freq. dielectric constant tensor:
#      x y z
#    x 1.803420 0.000000 -0.016200 
#    y 0.000000 1.799280 0.000000 
#    z -0.016200 0.000000 1.818300 
# 
# From -- ./inp_files/157863.got.cif
#   From: 2010.06.25/outbox.cif.g09.slc.cpg/sg12_79_cif.got.tgz:157863.got - 2010.06.28 00:19:55.
