data_PCOD8082019
_publ_section_title
;
Structure prediction by ZEFSAII (Michael W. Deem and Ramdas Pophale) SiO2 
 PCOD8082019
Probable space group: C 2/M
;
_chemical_formula_sum "Si O2"
_cell_formula_units_Z 52
_cell_length_a 23.319125
_cell_length_b 14.715301
_cell_length_c 8.779622
_cell_angle_alpha 90.000000
_cell_angle_beta 101.533857
_cell_angle_gamma 90.000000
_cell_volume 2951.872764
_symmetry_space_group_name_H-M "C 2/M"
_symmetry_group_IT_number 12
_symmetry_cell_setting 'monoclinic'
loop_
_space_group_symop_operation_xyz
x,y,z
-x,y,-z
-x,-y,-z
x,-y,z
1/2+x,1/2+y,z
1/2-x,1/2+y,-z
1/2-x,1/2-y,-z
1/2+x,1/2-y,z
loop_
_atom_site_type_symbol
_atom_site_label
_atom_site_fract_x
_atom_site_fract_y
_atom_site_fract_z
Si Si1 0.601403 0.660120 0.380243
Si Si2 0.249403 0.831605 0.886188
Si Si3 0.696269 0.807602 0.402159
Si Si4 0.760854 0.500000 0.093775
Si Si5 0.873887 0.896277 0.271103
Si Si6 0.009514 0.106353 0.829456
Si Si7 0.711676 0.000000 0.558659
Si Si8 0.834030 0.000000 0.727069
O O1 0.635144 0.755796 0.395794
O O2 0.602581 0.616736 0.546838
O O3 0.533974 0.669676 0.293326
O O4 0.629057 0.591187 0.271539
O O5 0.294040 0.816926 0.772097
O O6 0.183989 0.838159 0.786369
O O7 0.250000 0.750000 0.000000
O O8 0.273557 0.915115 0.995061
O O9 0.750000 0.750000 0.500000
O O10 0.687799 0.907605 0.470560
O O11 0.802618 0.500000 0.266775
O O12 0.693063 0.500000 0.116423
O O13 0.924508 0.866590 0.180645
O O14 0.855799 0.000000 0.235906
O O15 0.997713 0.000000 0.786864
O O16 0.000000 0.128880 0.000000
O O17 0.782153 0.000000 0.572576
#
# Coordination Sequence:
#
# PCOD8082019 Si02
#       8
#     8   8   8   4   8   8   4   4
#     4  12  21  36  57  83 114 156 194 237 276 345
#     4  12  23  35  54  85 119 152 189 232 285 345
#     4  12  22  36  58  84 114 157 194 233 292 345
#     4  10  23  35  53  77 120 150 187 234 284 331
#     4  11  22  36  57  83 115 155 194 232 281 342
#     4  10  23  36  56  82 116 154 192 234 292 343
#     4  10  21  37  52  81 113 150 195 232 280 352
#     4  10  18  30  57  77 116 149 189 228 280 334
#
# _framework density 17.615935
#
# number of rings (size 3 to 8) (size 9 to 14) (size 15 to 20)
#    0.462    0.462    5.385    2.769    4.308    1.231 
#    0.000    0.000    0.000    0.000    0.000    3.769 
#    0.000    0.000    0.000    0.000    0.000    0.000 
#
# Total GULP energy -322409.979210 kJ/mol
# GULP energy per Si atom -12400.383816 kJ/mol
# Density = 1.757584 g / cm^3
# Si number density = 17.615935 Si / 1000 Ang^3
#
#
#
# Elastic Constant Matrix: (Units=GPa)
#
#
# Indices 1 2 3 4 5 6 
#
# 1 55.4023 8.2174 5.6975 0.0000 3.0213 0.0000
# 2 8.2174 97.1388 21.7432 0.0000 3.0177 0.0000
# 3 5.6975 21.7432 89.8401 0.0000 -7.8254 0.0000
# 4 0.0000 0.0000 0.0000 35.1989 0.0000 1.1522
# 5 3.0213 3.0177 -7.8254 0.0000 34.2775 0.0000
# 6 0.0000 0.0000 0.0000 1.1522 0.0000 26.1522
#
#
#
# Elastic Compliance Matrix: (Units=1/GPa)
#
#
# Indices 1 2 3 4 5 6 
#
# 1 0.018439 -0.001279 -0.001012 0.000000 -0.001744 0.000000
# 2 -0.001279 0.011059 -0.002724 0.000000 -0.001483 0.000000
# 3 -0.001012 -0.002724 0.012124 0.000000 0.003097 0.000000
# 4 0.000000 0.000000 0.000000 0.028451 0.000000 -0.001253
# 5 -0.001744 -0.001483 0.003097 0.000000 0.030165 0.000000
# 6 0.000000 0.000000 0.000000 -0.001253 0.000000 0.038293
#
#
# Mechanical properties :
#
#
# Convention : Reuss Voigt Hill
#
# Bulk Modulus (GPa) = 31.65470 34.85528 33.25499
# Shear Modulus (GPa) = 31.42854 32.90728 32.16791
#
# Velocity S-wave (km/s) = 4.22844 4.32677 4.27789
# Velocity P-wave (km/s) = 6.46900 6.69257 6.58173
#
# Compressibility (1/GPa) = 0.03159089
#
# Stress axis : x y z
#
# Youngs Moduli (GPa) = 54.23398 90.42689 82.47986
#
# Poissons Ratio (x) = 0.11567 0.08344
# Poissons Ratio (y) = 0.06938 0.22471
# Poissons Ratio (z) = 0.05486 0.24637
#
# Static dielectric constant tensor:
#      x y z
#    x 3.437320 0.000000 -0.037400 
#    y 0.000000 3.106260 0.000000 
#    z -0.037400 0.000000 3.410050 
# 
# 
# High freq. dielectric constant tensor:
#      x y z
#    x 1.657420 0.000000 -0.010420 
#    y 0.000000 1.660480 0.000000 
#    z -0.010420 0.000000 1.700780 
# 
# From -- ./inp_files/95843.got.cif
#   From: 2010.06.25/outbox.cif.g09.slc.cpg/sg12_48_cif.got.tgz:95843.got - 2010.06.28 00:19:55.
