data_PCOD8082947
_publ_section_title
;
Structure prediction by ZEFSAII (Michael W. Deem and Ramdas Pophale) SiO2 
 PCOD8082947
Probable space group: C 2/M
;
_chemical_formula_sum "Si O2"
_cell_formula_units_Z 48
_cell_length_a 20.817243
_cell_length_b 18.088372
_cell_length_c 19.930712
_cell_angle_alpha 90.000000
_cell_angle_beta 159.347243
_cell_angle_gamma 90.000000
_cell_volume 2647.007437
_symmetry_space_group_name_H-M "C 2/M"
_symmetry_group_IT_number 12
_symmetry_cell_setting 'monoclinic'
loop_
_space_group_symop_operation_xyz
x,y,z
-x,y,-z
-x,-y,-z
x,-y,z
1/2+x,1/2+y,z
1/2-x,1/2+y,-z
1/2-x,1/2-y,-z
1/2+x,1/2-y,z
loop_
_atom_site_type_symbol
_atom_site_label
_atom_site_fract_x
_atom_site_fract_y
_atom_site_fract_z
Si Si1 0.386413 0.340672 0.671857
Si Si2 0.193729 0.689085 0.615211
Si Si3 0.243710 0.914822 0.048521
Si Si4 0.959439 0.330426 0.745654
Si Si5 0.279242 0.826349 0.211104
Si Si6 0.487024 0.803344 0.914966
O O1 0.280953 0.355661 0.638821
O O2 0.245373 0.355223 0.473529
O O3 0.471051 0.258459 0.751502
O O4 0.549730 0.398832 0.824150
O O5 0.230605 0.645266 0.721265
O O6 0.284917 0.769523 0.710856
O O7 0.981599 0.703895 0.394094
O O8 0.397843 0.866018 0.164743
O O9 0.233559 0.894218 0.117341
O O10 0.294541 0.000000 0.090014
O O11 0.008878 0.355568 0.870779
O O12 0.135610 0.761732 0.057253
O O13 0.500000 0.845531 0.000000
#
# Coordination Sequence:
#
# PCOD8082947 Si02
#       6
#     8   8   8   8   8   8
#     4  10  20  35  56  79 102 139 184 222 262 304
#     4   9  17  31  52  75 106 140 176 218 250 295
#     4  12  24  35  50  78 112 148 179 212 259 313
#     4  10  20  35  58  78 103 133 180 225 268 308
#     4  10  18  32  51  75 109 140 173 215 255 305
#     4   9  18  32  57  83 104 127 171 223 271 313
#
# _framework density 18.133686999999998
#
# number of rings (size 3 to 8) (size 9 to 14) (size 15 to 20)
#    0.000    2.000    5.000    0.500    0.000    0.667 
#    0.000    3.333    0.000    0.500    0.000    1.167 
#    0.000    0.000    0.000    0.000    0.000    0.000 
#
# Total GULP energy -297433.887824 kJ/mol
# GULP energy per Si atom -12393.078659 kJ/mol
# Density = 1.809241 g / cm^3
# Si number density = 18.133687 Si / 1000 Ang^3
#
#
#
# Elastic Constant Matrix: (Units=GPa)
#
#
# Indices 1 2 3 4 5 6 
#
# 1 113.7769 44.1482 34.1187 0.0029 -19.6857 0.0153
# 2 44.1482 41.8549 29.9075 -0.0678 2.8770 -0.0723
# 3 34.1187 29.9075 108.4543 -0.0490 -3.8440 -0.0515
# 4 0.0029 -0.0678 -0.0490 9.1596 -0.0419 -6.0161
# 5 -19.6857 2.8770 -3.8440 -0.0419 36.2480 -0.0392
# 6 0.0153 -0.0723 -0.0515 -6.0161 -0.0392 3.6865
#
#
#
# Elastic Compliance Matrix: (Units=1/GPa)
#
#
# Indices 1 2 3 4 5 6 
#
# 1 0.018898 -0.020916 0.000252 0.004727 0.011964 0.007356
# 2 -0.020916 0.053264 -0.008708 -0.011496 -0.016543 -0.017927
# 3 0.000252 -0.008708 0.011615 -0.000209 0.002059 -0.000329
# 4 0.004727 -0.011496 -0.000209 -1.515546 -0.000967 -2.473527
# 5 0.011964 -0.016543 0.002059 -0.000967 0.035614 -0.001544
# 6 0.007356 -0.017927 -0.000329 -2.473527 -0.001544 -3.765768
#
#
# Mechanical properties :
#
#
# Convention : Reuss Voigt Hill
#
# Bulk Modulus (GPa) = 39.94617 53.38166 46.66392
# Shear Modulus (GPa) = -0.98139 20.21293 9.61577
#
# Velocity S-wave (km/s) = -0.73646 3.34228 2.30526
# Velocity P-wave (km/s) = 4.62097 6.66305 5.73365
#
# Compressibility (1/GPa) = 0.02503369
#
# Stress axis : x y z
#
# Youngs Moduli (GPa) = 52.91512 18.77441 86.09366
#
# Poissons Ratio (x) = 0.39268 -0.02172
# Poissons Ratio (y) = 1.10677 0.74972
# Poissons Ratio (z) = -0.01335 0.16349
#
# Static dielectric constant tensor:
#      x y z
#    x 3.836310 0.000000 -0.198460 
#    y 0.000000 2.680380 -0.000020 
#    z -0.198460 -0.000020 3.714320 
# 
# 
# High freq. dielectric constant tensor:
#      x y z
#    x 1.720350 0.000000 -0.006560 
#    y 0.000000 1.614560 0.000000 
#    z -0.006560 0.000000 1.729780 
# 
# From -- ./inp_files/322588.got.cif
#   From: 2010.06.25/outbox.cif.g09.slc.cpg/sg12_162_cif.got.tgz:322588.got - 2010.06.28 00:19:55.
