data_PCOD8082972
_publ_section_title
;
Structure prediction by ZEFSAII (Michael W. Deem and Ramdas Pophale) SiO2 
 PCOD8082972
Probable space group: C 2/M
;
_chemical_formula_sum "Si O2"
_cell_formula_units_Z 56
_cell_length_a 30.178454
_cell_length_b 9.058283
_cell_length_c 16.047950
_cell_angle_alpha 90.000000
_cell_angle_beta 134.949279
_cell_angle_gamma 90.000000
_cell_volume 3104.785172
_symmetry_space_group_name_H-M "C 2/M"
_symmetry_group_IT_number 12
_symmetry_cell_setting 'monoclinic'
loop_
_space_group_symop_operation_xyz
x,y,z
-x,y,-z
-x,-y,-z
x,-y,z
1/2+x,1/2+y,z
1/2-x,1/2+y,-z
1/2-x,1/2-y,-z
1/2+x,1/2-y,z
loop_
_atom_site_type_symbol
_atom_site_label
_atom_site_fract_x
_atom_site_fract_y
_atom_site_fract_z
Si Si1 0.697792 0.328670 0.984003
Si Si2 0.594064 0.173382 0.103949
Si Si3 0.482400 0.174963 0.842696
Si Si4 0.585788 0.329304 0.714366
Si Si5 0.716820 0.174447 0.180196
Si Si6 0.357159 0.674881 0.379136
Si Si7 0.035880 0.824880 0.357707
O O1 0.714863 0.500000 0.014535
O O2 0.693018 0.255646 0.067008
O O3 0.750000 0.250000 0.000000
O O4 0.631712 0.303291 0.852317
O O5 0.571747 0.229571 0.164844
O O6 0.666562 0.217531 0.185023
O O7 0.584854 0.000000 0.091829
O O8 0.548770 0.230470 0.969189
O O9 0.469197 0.252874 0.738574
O O10 0.481055 0.000000 0.826355
O O11 0.576713 0.500000 0.681728
O O12 0.613224 0.255043 0.666301
O O13 0.518680 0.264219 0.653104
O O14 0.785929 0.231747 0.297573
O O15 0.716992 0.000000 0.162939
O O16 0.355674 0.500000 0.367800
O O17 0.398165 0.722248 0.513221
O O18 0.029976 0.000000 0.339253
#
# Coordination Sequence:
#
# PCOD8082972 Si02
#       7
#     8   8   8   8   8   8   8
#     4  11  20  31  48  72 100 127 157 195 239 283
#     4   8  16  31  54  75  93 125 159 192 238 296
#     4   9  17  33  52  72  97 123 158 197 239 287
#     4   9  17  30  48  70  94 125 163 197 231 278
#     4  10  18  32  52  73  96 125 163 198 237 282
#     4   9  17  30  48  69  95 128 163 197 231 281
#     4  10  19  31  50  72  94 125 164 200 236 276
#
# _framework density 18.036674999999999
#
# number of rings (size 3 to 8) (size 9 to 14) (size 15 to 20)
#    0.000    2.571    1.429    2.571    0.000    1.714 
#    0.000    4.286    0.000    0.857    0.000    0.000 
#    0.000    0.000    0.000    0.000    0.000    0.000 
#
# Total GULP energy -347036.509807 kJ/mol
# GULP energy per Si atom -12394.161065 kJ/mol
# Density = 1.799562 g / cm^3
# Si number density = 18.036675 Si / 1000 Ang^3
#
#
#
# Elastic Constant Matrix: (Units=GPa)
#
#
# Indices 1 2 3 4 5 6 
#
# 1 155.9188 25.8957 90.7383 0.0000 11.1662 0.0000
# 2 25.8957 28.5602 23.2910 0.0000 1.9517 0.0000
# 3 90.7383 23.2910 113.8399 0.0000 -0.9614 0.0000
# 4 0.0000 0.0000 0.0000 24.7824 0.0000 -6.0763
# 5 11.1662 1.9517 -0.9614 0.0000 24.2746 0.0000
# 6 0.0000 0.0000 0.0000 -6.0763 0.0000 18.0755
#
#
#
# Elastic Compliance Matrix: (Units=1/GPa)
#
#
# Indices 1 2 3 4 5 6 
#
# 1 0.013148 -0.003495 -0.009817 0.000000 -0.006156 0.000000
# 2 -0.003495 0.043293 -0.006090 0.000000 -0.002114 0.000000
# 3 -0.009817 -0.006090 0.017903 0.000000 0.005714 0.000000
# 4 0.000000 0.000000 0.000000 0.043976 0.000000 0.014783
# 5 -0.006156 -0.002114 0.005714 0.000000 0.044423 0.000000
# 6 0.000000 0.000000 0.000000 0.014783 0.000000 0.060293
#
#
# Mechanical properties :
#
#
# Convention : Reuss Voigt Hill
#
# Bulk Modulus (GPa) = 28.13616 64.24098 46.18857
# Shear Modulus (GPa) = 18.26914 23.98610 21.12762
#
# Velocity S-wave (km/s) = 3.18604 3.65067 3.42624
# Velocity P-wave (km/s) = 5.40072 7.31191 6.42774
#
# Compressibility (1/GPa) = 0.03554146
#
# Stress axis : x y z
#
# Youngs Moduli (GPa) = 76.05858 23.09830 55.85669
#
# Poissons Ratio (x) = 0.08073 0.54832
# Poissons Ratio (y) = 0.26582 0.34015
# Poissons Ratio (z) = 0.74664 0.14066
#
# Static dielectric constant tensor:
#      x y z
#    x 3.527370 0.000000 0.200270 
#    y 0.000000 2.788110 0.000000 
#    z 0.200270 0.000000 3.274690 
# 
# 
# High freq. dielectric constant tensor:
#      x y z
#    x 1.710440 0.000000 0.006550 
#    y 0.000000 1.650980 0.000000 
#    z 0.006550 0.000000 1.696750 
# 
# From -- ./inp_files/248880.got.cif
#   From: 2010.06.25/outbox.cif.g09.slc.cpg/sg12_125_cif.got.tgz:248880.got - 2010.06.28 00:19:55.
