data_PCOD8082552
_publ_section_title
;
Structure prediction by ZEFSAII (Michael W. Deem and Ramdas Pophale) SiO2 
 PCOD8082552
Probable space group: C 2/M
;
_chemical_formula_sum "Si O2"
_cell_formula_units_Z 48
_cell_length_a 14.898258
_cell_length_b 8.391029
_cell_length_c 20.794256
_cell_angle_alpha 90.000000
_cell_angle_beta 112.232639
_cell_angle_gamma 90.000000
_cell_volume 2406.264378
_symmetry_space_group_name_H-M "C 2/M"
_symmetry_group_IT_number 12
_symmetry_cell_setting 'monoclinic'
loop_
_space_group_symop_operation_xyz
x,y,z
-x,y,-z
-x,-y,-z
x,-y,z
1/2+x,1/2+y,z
1/2-x,1/2+y,-z
1/2-x,1/2-y,-z
1/2+x,1/2-y,z
loop_
_atom_site_type_symbol
_atom_site_label
_atom_site_fract_x
_atom_site_fract_y
_atom_site_fract_z
Si Si1 0.551187 0.810600 0.601543
Si Si2 0.148475 0.188405 0.502332
Si Si3 0.484384 0.685264 0.156339
Si Si4 0.624441 0.186020 0.757324
Si Si5 0.674112 0.314205 0.140840
Si Si6 0.352379 0.688700 0.006490
O O1 0.627754 0.759928 0.567423
O O2 0.444001 0.735770 0.566026
O O3 0.593422 0.743502 0.680107
O O4 0.539304 0.000000 0.596965
O O5 0.250000 0.250000 0.500000
O O6 0.155259 0.000000 0.509492
O O7 0.459570 0.500000 0.159830
O O8 0.458162 0.781515 0.212842
O O9 0.598157 0.715007 0.177100
O O10 0.430444 0.755258 0.078495
O O11 0.724584 0.266366 0.809875
O O12 0.640098 0.000000 0.752252
O O13 0.692810 0.500000 0.134015
O O14 0.632129 0.245044 0.061945
O O15 0.359723 0.500000 0.009213
O O16 0.250000 0.750000 0.000000
#
# Coordination Sequence:
#
# PCOD8082552 Si02
#       6
#     8   8   8   8   8   8
#     4  10  21  38  59  87 120 153 193 234 278 336
#     4  11  22  39  64  91 118 151 188 230 282 333
#     4  10  20  33  53  79 104 141 191 235 276 331
#     4  10  21  37  56  79 112 149 179 222 280 331
#     4   9  18  34  53  74 105 144 183 226 279 334
#     4  10  18  31  53  75 101 138 185 236 284 331
#
# _framework density 19.947932999999999
#
# number of rings (size 3 to 8) (size 9 to 14) (size 15 to 20)
#    0.000    2.000    1.667    3.500    0.000    4.667 
#    0.000    3.333    0.000    2.000    0.000    0.000 
#    0.000    0.000    0.000    0.000    0.000    0.000 
#
# Total GULP energy -297476.827824 kJ/mol
# GULP energy per Si atom -12394.867826 kJ/mol
# Density = 1.990253 g / cm^3
# Si number density = 19.947933 Si / 1000 Ang^3
#
#
#
# Elastic Constant Matrix: (Units=GPa)
#
#
# Indices 1 2 3 4 5 6 
#
# 1 123.3438 4.2649 54.1060 0.0000 -11.7474 0.0000
# 2 4.2649 25.5996 11.6539 0.0000 3.8449 0.0000
# 3 54.1060 11.6539 165.3911 0.0000 -15.6071 0.0000
# 4 0.0000 0.0000 0.0000 20.7119 0.0000 -3.4232
# 5 -11.7474 3.8449 -15.6071 0.0000 17.1711 0.0000
# 6 0.0000 0.0000 0.0000 -3.4232 0.0000 32.4487
#
#
#
# Elastic Compliance Matrix: (Units=1/GPa)
#
#
# Indices 1 2 3 4 5 6 
#
# 1 0.009751 -0.001068 -0.002694 0.000000 0.004462 0.000000
# 2 -0.001068 0.043182 -0.004019 0.000000 -0.014053 0.000000
# 3 -0.002694 -0.004019 0.007790 0.000000 0.006138 0.000000
# 4 0.000000 0.000000 0.000000 0.049138 0.000000 0.005184
# 5 0.004462 -0.014053 0.006138 0.000000 0.070015 0.000000
# 6 0.000000 0.000000 0.000000 0.005184 0.000000 0.031365
#
#
# Mechanical properties :
#
#
# Convention : Reuss Voigt Hill
#
# Bulk Modulus (GPa) = 22.14364 50.48711 36.31537
# Shear Modulus (GPa) = 20.67343 30.35366 25.51354
#
# Velocity S-wave (km/s) = 3.22276 3.90506 3.58020
# Velocity P-wave (km/s) = 4.99731 6.75996 5.94433
#
# Compressibility (1/GPa) = 0.04515970
#
# Stress axis : x y z
#
# Youngs Moduli (GPa) = 102.55476 23.15802 128.37271
#
# Poissons Ratio (x) = 0.02474 0.34578
# Poissons Ratio (y) = 0.10957 0.51597
# Poissons Ratio (z) = 0.27624 0.09308
#
# Static dielectric constant tensor:
#      x y z
#    x 3.710950 0.000000 0.095170 
#    y 0.000000 3.379740 0.000000 
#    z 0.095170 0.000000 4.071010 
# 
# 
# High freq. dielectric constant tensor:
#      x y z
#    x 1.785610 0.000000 -0.001800 
#    y 0.000000 1.751350 0.000000 
#    z -0.001800 0.000000 1.784450 
# 
# From -- ./inp_files/308286.got.cif
#   From: 2010.06.25/outbox.cif.g09.slc.cpg/sg12_155_cif.got.tgz:308286.got - 2010.06.28 00:19:55.
