data_PCOD8082173
_publ_section_title
;
Structure prediction by ZEFSAII (Michael W. Deem and Ramdas Pophale) SiO2 
 PCOD8082173
Probable space group: C 2/M
;
_chemical_formula_sum "Si O2"
_cell_formula_units_Z 48
_cell_length_a 25.124636
_cell_length_b 8.751864
_cell_length_c 18.318917
_cell_angle_alpha 90.000000
_cell_angle_beta 43.183018
_cell_angle_gamma 90.000000
_cell_volume 2756.553066
_symmetry_space_group_name_H-M "C 2/M"
_symmetry_group_IT_number 12
_symmetry_cell_setting 'monoclinic'
loop_
_space_group_symop_operation_xyz
x,y,z
-x,y,-z
-x,-y,-z
x,-y,z
1/2+x,1/2+y,z
1/2-x,1/2+y,-z
1/2-x,1/2-y,-z
1/2+x,1/2-y,z
loop_
_atom_site_type_symbol
_atom_site_label
_atom_site_fract_x
_atom_site_fract_y
_atom_site_fract_z
Si Si1 0.316312 0.682169 0.985057
Si Si2 0.189124 0.176093 0.614424
Si Si3 0.076264 0.823204 0.605968
Si Si4 0.219736 0.821090 0.361113
Si Si5 0.783739 0.818296 0.801763
Si Si6 0.414225 0.179972 0.773013
O O1 0.316544 0.500000 0.985323
O O2 0.296580 0.747661 0.085121
O O3 0.250000 0.750000 0.000000
O O4 0.396699 0.745732 0.870553
O O5 0.250000 0.250000 0.500000
O O6 0.104479 0.201158 0.662017
O O7 0.201537 0.249939 0.681951
O O8 0.208874 0.000000 0.601260
O O9 0.142944 0.770935 0.482461
O O10 0.002622 0.717145 0.664026
O O11 0.054123 0.000000 0.614799
O O12 0.211765 0.764738 0.286325
O O13 0.230841 0.000000 0.353978
O O14 0.859143 0.751866 0.766542
O O15 0.783005 0.000000 0.811378
O O16 0.400152 0.000000 0.790016
#
# Coordination Sequence:
#
# PCOD8082173 Si02
#       6
#     8   8   8   8   8   8
#     4  10  18  31  50  70  93 124 161 201 238 282
#     4   9  17  30  50  71  95 126 163 201 237 280
#     4   9  18  33  49  70  98 130 162 194 237 287
#     4   9  19  33  51  73  99 130 162 195 239 288
#     4  10  19  33  51  72  99 130 160 196 239 288
#     4  11  21  32  48  72  98 128 163 201 241 283
#
# _framework density 17.413050999999999
#
# number of rings (size 3 to 8) (size 9 to 14) (size 15 to 20)
#    0.000    2.333    0.000    7.000    0.000    5.333 
#    0.000    3.333    0.000    1.000    0.000    7.000 
#    0.000    0.000    0.000    0.000    0.000    0.000 
#
# Total GULP energy -297444.385708 kJ/mol
# GULP energy per Si atom -12393.516071 kJ/mol
# Density = 1.737342 g / cm^3
# Si number density = 17.413051 Si / 1000 Ang^3
#
#
#
# Elastic Constant Matrix: (Units=GPa)
#
#
# Indices 1 2 3 4 5 6 
#
# 1 88.1862 38.3858 51.5043 0.0048 26.1885 -0.0044
# 2 38.3858 93.4424 37.9469 0.0059 15.9393 -0.0044
# 3 51.5043 37.9469 93.0758 0.0073 25.0516 -0.0044
# 4 0.0048 0.0059 0.0073 27.8178 -0.0050 0.3951
# 5 26.1885 15.9393 25.0516 -0.0050 14.0858 0.0035
# 6 -0.0044 -0.0044 -0.0044 0.3951 0.0035 28.8736
#
#
#
# Elastic Compliance Matrix: (Units=1/GPa)
#
#
# Indices 1 2 3 4 5 6 
#
# 1 0.026196 -0.002771 -0.002112 -0.000011 -0.041812 0.000008
# 2 -0.002771 0.013897 -0.002468 -0.000003 -0.006184 0.000002
# 3 -0.002112 -0.002468 0.021312 -0.000010 -0.031184 0.000007
# 4 -0.000011 -0.000003 -0.000010 0.035955 0.000055 -0.000492
# 5 -0.041812 -0.006184 -0.031184 0.000055 0.211189 -0.000039
# 6 0.000008 0.000002 0.000007 -0.000492 -0.000039 0.034640
#
#
# Mechanical properties :
#
#
# Convention : Reuss Voigt Hill
#
# Bulk Modulus (GPa) = 21.41198 58.93093 40.17146
# Shear Modulus (GPa) = 13.38828 23.94659 18.66744
#
# Velocity S-wave (km/s) = 2.77585 3.71240 3.27775
# Velocity P-wave (km/s) = 4.75363 7.23135 6.11921
#
# Compressibility (1/GPa) = 0.04670283
#
# Stress axis : x y z
#
# Youngs Moduli (GPa) = 38.17306 71.95604 46.92166
#
# Poissons Ratio (x) = 0.19942 0.09912
# Poissons Ratio (y) = 0.10579 0.11579
# Poissons Ratio (z) = 0.08064 0.17757
#
# Static dielectric constant tensor:
#      x y z
#    x 3.390880 -0.000020 0.203970 
#    y -0.000020 3.366920 0.000010 
#    z 0.203970 0.000010 3.675500 
# 
# 
# High freq. dielectric constant tensor:
#      x y z
#    x 1.654400 0.000000 0.008710 
#    y 0.000000 1.684860 0.000000 
#    z 0.008710 0.000000 1.658360 
# 
# From -- ./inp_files/287246.got.cif
#   From: 2010.06.25/outbox.cif.g09.slc.cpg/sg12_144_cif.got.tgz:287246.got - 2010.06.28 00:19:55.
