data_PCOD8082496
_publ_section_title
;
Structure prediction by ZEFSAII (Michael W. Deem and Ramdas Pophale) SiO2 
 PCOD8082496
Probable space group: C 2/M
;
_chemical_formula_sum "Si O2"
_cell_formula_units_Z 56
_cell_length_a 26.927609
_cell_length_b 8.596183
_cell_length_c 14.453251
_cell_angle_alpha 90.000000
_cell_angle_beta 57.221804
_cell_angle_gamma 90.000000
_cell_volume 2812.856563
_symmetry_space_group_name_H-M "C 2/M"
_symmetry_group_IT_number 12
_symmetry_cell_setting 'monoclinic'
loop_
_space_group_symop_operation_xyz
x,y,z
-x,y,-z
-x,-y,-z
x,-y,z
1/2+x,1/2+y,z
1/2-x,1/2+y,-z
1/2-x,1/2-y,-z
1/2+x,1/2-y,z
loop_
_atom_site_type_symbol
_atom_site_label
_atom_site_fract_x
_atom_site_fract_y
_atom_site_fract_z
Si Si1 0.893525 0.177732 0.315072
Si Si2 0.342183 0.680833 0.555938
Si Si3 0.282160 0.679375 0.307374
Si Si4 0.388833 0.184445 0.895330
Si Si5 0.000851 0.317417 0.103044
Si Si6 0.151580 0.318025 0.258291
Si Si7 0.221939 0.318046 0.878812
O O1 0.890708 0.215679 0.427611
O O2 0.828244 0.211499 0.342388
O O3 0.940250 0.286483 0.217471
O O4 0.912407 0.000000 0.278389
O O5 0.325113 0.500000 0.574093
O O6 0.283259 0.777168 0.592530
O O7 0.369030 0.727939 0.628612
O O8 0.282549 0.500000 0.276134
O O9 0.300799 0.786199 0.202064
O O10 0.445074 0.256821 0.892453
O O11 0.390193 0.232455 0.785565
O O12 0.389854 0.000000 0.904031
O O13 0.328132 0.245854 0.001598
O O14 0.010418 0.500000 0.085637
O O15 0.000000 0.245239 0.000000
O O16 0.146588 0.500000 0.283200
O O17 0.218658 0.278228 0.162901
O O18 0.234832 0.500000 0.879173
#
# Coordination Sequence:
#
# PCOD8082496 Si02
#       7
#     8   8   8   8   8   8   8
#     4  10  22  37  53  76 106 138 171 213 260 305
#     4  10  20  35  53  76 106 136 172 213 255 305
#     4  10  19  32  51  78 109 137 169 208 257 311
#     4   9  19  34  52  76 105 137 173 213 254 302
#     4  10  21  38  59  80 102 133 174 213 251 302
#     4  10  19  33  52  76 107 137 170 212 257 304
#     4  10  18  31  52  78 108 138 170 209 256 306
#
# _framework density 19.908587000000001
#
# number of rings (size 3 to 8) (size 9 to 14) (size 15 to 20)
#    0.000    2.143    0.000    5.143    0.000    3.714 
#    0.000    5.714    0.000    4.286    0.000    0.000 
#    0.000    0.000    0.000    0.000    0.000    0.000 
#
# Total GULP energy -347169.707317 kJ/mol
# GULP energy per Si atom -12398.918118 kJ/mol
# Density = 1.986327 g / cm^3
# Si number density = 19.908587 Si / 1000 Ang^3
#
#
#
# Elastic Constant Matrix: (Units=GPa)
#
#
# Indices 1 2 3 4 5 6 
#
# 1 116.4903 16.6106 57.6674 0.0000 25.7678 0.0000
# 2 16.6106 31.3525 16.9962 0.0000 4.2202 0.0003
# 3 57.6674 16.9962 127.8444 0.0000 17.0946 0.0000
# 4 0.0000 0.0000 0.0000 25.5901 0.0000 -0.3359
# 5 25.7678 4.2202 17.0946 0.0000 23.7315 0.0000
# 6 0.0000 0.0003 0.0000 -0.3359 0.0000 21.2669
#
#
#
# Elastic Compliance Matrix: (Units=1/GPa)
#
#
# Indices 1 2 3 4 5 6 
#
# 1 0.013619 -0.003440 -0.004194 0.000000 -0.011154 0.000000
# 2 -0.003440 0.035452 -0.003118 0.000000 -0.000323 0.000000
# 3 -0.004194 -0.003118 0.010452 0.000000 -0.002420 0.000000
# 4 0.000000 0.000000 0.000000 0.039086 0.000000 0.000617
# 5 -0.011154 -0.000323 -0.002420 0.000000 0.056050 0.000000
# 6 0.000000 0.000000 0.000000 0.000617 0.000000 0.047031
#
#
# Mechanical properties :
#
#
# Convention : Reuss Voigt Hill
#
# Bulk Modulus (GPa) = 26.30365 50.91507 38.60936
# Shear Modulus (GPa) = 21.19842 26.41191 23.80517
#
# Velocity S-wave (km/s) = 3.26665 3.64628 3.46168
# Velocity P-wave (km/s) = 5.24108 6.58461 5.95088
#
# Compressibility (1/GPa) = 0.03801753
#
# Stress axis : x y z
#
# Youngs Moduli (GPa) = 73.42952 28.20737 95.67463
#
# Poissons Ratio (x) = 0.09703 0.40128
# Poissons Ratio (y) = 0.25260 0.29833
# Poissons Ratio (z) = 0.30798 0.08796
#
# Static dielectric constant tensor:
#      x y z
#    x 3.731320 0.000000 0.291470 
#    y 0.000000 3.435430 0.000000 
#    z 0.291470 0.000000 3.624000 
# 
# 
# High freq. dielectric constant tensor:
#      x y z
#    x 1.767690 0.000000 0.021150 
#    y 0.000000 1.761880 0.000000 
#    z 0.021150 0.000000 1.776060 
# 
# From -- ./inp_files/248882.got.cif
#   From: 2010.06.25/outbox.cif.g09.slc.cpg/sg12_125_cif.got.tgz:248882.got - 2010.06.28 00:19:55.
