data_PCOD8082040
_publ_section_title
;
Structure prediction by ZEFSAII (Michael W. Deem and Ramdas Pophale) SiO2 
 PCOD8082040
Probable space group: C 2/M
;
_chemical_formula_sum "Si O2"
_cell_formula_units_Z 64
_cell_length_a 24.524323
_cell_length_b 8.772478
_cell_length_c 21.359768
_cell_angle_alpha 90.000000
_cell_angle_beta 47.472195
_cell_angle_gamma 90.000000
_cell_volume 3386.518967
_symmetry_space_group_name_H-M "C 2/M"
_symmetry_group_IT_number 12
_symmetry_cell_setting 'monoclinic'
loop_
_space_group_symop_operation_xyz
x,y,z
-x,y,-z
-x,-y,-z
x,-y,z
1/2+x,1/2+y,z
1/2-x,1/2+y,-z
1/2-x,1/2-y,-z
1/2+x,1/2-y,z
loop_
_atom_site_type_symbol
_atom_site_label
_atom_site_fract_x
_atom_site_fract_y
_atom_site_fract_z
Si Si1 0.632900 0.824342 0.265458
Si Si2 0.275081 0.679024 0.215905
Si Si3 0.059962 0.820384 0.903298
Si Si4 0.639158 0.669584 0.513573
Si Si5 0.082083 0.168280 0.421229
Si Si6 0.071015 0.319896 0.762019
Si Si7 0.500205 0.680272 0.297224
Si Si8 0.773010 0.180035 0.358538
O O1 0.718854 0.763948 0.204180
O O2 0.608636 0.803488 0.356083
O O3 0.581027 0.725376 0.260641
O O4 0.626944 0.000000 0.249444
O O5 0.264378 0.500000 0.227818
O O6 0.358977 0.723163 0.132611
O O7 0.256843 0.743141 0.300207
O O8 0.045215 0.733612 0.850325
O O9 0.054086 0.000000 0.894619
O O10 0.000000 0.764650 0.000000
O O11 0.656163 0.500000 0.526581
O O12 0.627057 0.663350 0.449474
O O13 0.566971 0.736697 0.605086
O O14 0.712885 0.773765 0.458590
O O15 0.000000 0.213903 0.500000
O O16 0.085625 0.000000 0.385548
O O17 0.077237 0.500000 0.755655
O O18 0.148792 0.248185 0.679960
O O19 0.008619 0.262580 0.762289
O O20 0.498032 0.500000 0.290877
O O21 0.781194 0.000000 0.351333
#
# Coordination Sequence:
#
# PCOD8082040 Si02
#       8
#     8   8   8   8   8   8   8   8
#     4  11  20  31  49  76 108 143 182 227 274 317
#     4   8  16  30  50  81 113 137 169 216 267 314
#     4   9  18  37  66  93 114 140 171 207 261 329
#     4  10  20  32  49  72 101 140 189 239 281 316
#     4  10  18  31  46  67 100 141 188 236 277 312
#     4  11  23  39  57  81 110 141 178 223 273 325
#     4  11  23  39  53  71 104 150 194 230 270 324
#     4  10  19  34  54  76 105 143 184 230 278 324
#
# _framework density 18.898461999999999
#
# number of rings (size 3 to 8) (size 9 to 14) (size 15 to 20)
#    0.000    2.000    2.500    3.000    0.000    2.000 
#    0.000    0.625    0.000    0.750    0.000    0.000 
#    0.000    0.000    0.000    0.000    0.000    0.000 
#
# Total GULP energy -396518.663208 kJ/mol
# GULP energy per Si atom -12391.208225 kJ/mol
# Density = 1.885545 g / cm^3
# Si number density = 18.898462 Si / 1000 Ang^3
#
#
#
# Elastic Constant Matrix: (Units=GPa)
#
#
# Indices 1 2 3 4 5 6 
#
# 1 119.6474 34.0660 52.0469 0.0175 -7.0283 -0.0076
# 2 34.0660 72.1587 32.1536 0.0411 -1.5767 -0.0260
# 3 52.0469 32.1536 84.6882 0.0311 -18.0501 -0.0203
# 4 0.0175 0.0411 0.0311 21.6554 -0.0202 0.2924
# 5 -7.0283 -1.5767 -18.0501 -0.0202 19.1440 0.0100
# 6 -0.0076 -0.0260 -0.0203 0.2924 0.0100 27.5344
#
#
#
# Elastic Compliance Matrix: (Units=1/GPa)
#
#
# Indices 1 2 3 4 5 6 
#
# 1 0.011945 -0.002651 -0.006816 0.000003 -0.002260 -0.000003
# 2 -0.002651 0.017791 -0.006283 -0.000028 -0.005432 0.000014
# 3 -0.006816 -0.006283 0.022200 0.000002 0.017912 0.000002
# 4 0.000003 -0.000028 0.000002 0.046184 0.000050 -0.000491
# 5 -0.002260 -0.005432 0.017912 0.000050 0.067847 -0.000018
# 6 -0.000003 0.000014 0.000002 -0.000491 -0.000018 0.036323
#
#
# Mechanical properties :
#
#
# Convention : Reuss Voigt Hill
#
# Bulk Modulus (GPa) = 48.93499 57.00302 52.96901
# Shear Modulus (GPa) = 20.78103 24.21528 22.49816
#
# Velocity S-wave (km/s) = 3.31964 3.58346 3.45407
# Velocity P-wave (km/s) = 6.37520 6.88112 6.63299
#
# Compressibility (1/GPa) = 0.02043527
#
# Stress axis : x y z
#
# Youngs Moduli (GPa) = 83.71661 56.20793 45.04485
#
# Poissons Ratio (x) = 0.14903 0.30703
# Poissons Ratio (y) = 0.22197 0.28302
# Poissons Ratio (z) = 0.57061 0.35316
#
# Static dielectric constant tensor:
#      x y z
#    x 3.737590 0.000000 -0.207310 
#    y 0.000000 3.390350 0.000000 
#    z -0.207310 0.000000 3.268030 
# 
# 
# High freq. dielectric constant tensor:
#      x y z
#    x 1.745050 0.000000 -0.013370 
#    y 0.000000 1.722860 0.000000 
#    z -0.013370 0.000000 1.694540 
# 
# From -- ./inp_files/324113.got.cif
#   From: 2010.06.25/outbox.cif.g09.slc.cpg/sg12_163_cif.got.tgz:324113.got - 2010.06.28 00:19:55.
