data_PCOD8082472
_publ_section_title
;
Structure prediction by ZEFSAII (Michael W. Deem and Ramdas Pophale) SiO2 
 PCOD8082472
Probable space group: C 2/M
;
_chemical_formula_sum "Si O2"
_cell_formula_units_Z 64
_cell_length_a 12.968246
_cell_length_b 22.725403
_cell_length_c 12.173121
_cell_angle_alpha 90.000000
_cell_angle_beta 74.255641
_cell_angle_gamma 90.000000
_cell_volume 3452.926780
_symmetry_space_group_name_H-M "C 2/M"
_symmetry_group_IT_number 12
_symmetry_cell_setting 'monoclinic'
loop_
_space_group_symop_operation_xyz
x,y,z
-x,y,-z
-x,-y,-z
x,-y,z
1/2+x,1/2+y,z
1/2-x,1/2+y,-z
1/2-x,1/2-y,-z
1/2+x,1/2-y,z
loop_
_atom_site_type_symbol
_atom_site_label
_atom_site_fract_x
_atom_site_fract_y
_atom_site_fract_z
Si Si1 0.120546 0.721719 0.161109
Si Si2 0.052689 0.931834 0.602817
Si Si3 0.765642 0.830949 0.954083
Si Si4 0.172570 0.434198 0.698226
Si Si5 0.362758 0.564784 0.813027
Si Si6 0.119940 0.741005 0.419162
Si Si7 0.732822 0.652107 0.496450
Si Si8 0.936264 0.650470 0.122998
O O1 0.145236 0.780731 0.085635
O O2 0.125423 0.733181 0.287754
O O3 0.000044 0.701981 0.167041
O O4 0.207134 0.673316 0.090359
O O5 0.152028 0.887945 0.590510
O O6 0.000000 0.919603 0.500000
O O7 0.973863 0.915409 0.725501
O O8 0.089612 0.000000 0.598436
O O9 0.826342 0.893045 0.922944
O O10 0.678105 0.823199 0.881528
O O11 0.140191 0.500000 0.669384
O O12 0.279997 0.436525 0.737315
O O13 0.189885 0.391988 0.590318
O O14 0.076029 0.406368 0.796192
O O15 0.373110 0.500000 0.862477
O O16 0.192951 0.689426 0.445188
O O17 0.167503 0.804893 0.433968
O O18 0.000000 0.735671 0.500000
O O19 0.000000 0.626433 0.000000
#
# Coordination Sequence:
#
# PCOD8082472 Si02
#       8
#     8   8   8   8   8   8   8   8
#     4  10  20  36  54  75 110 141 180 216 263 318
#     4  10  18  31  54  84 112 136 174 224 275 322
#     4   9  19  35  56  80 107 138 172 221 268 320
#     4  10  18  31  52  77 107 136 170 217 266 319
#     4   9  17  30  53  84 110 133 167 219 277 321
#     4  11  24  36  53  78 110 144 181 221 263 317
#     4  11  22  35  52  80 107 145 178 218 270 319
#     4   9  18  33  54  79 106 134 173 220 268 320
#
# _framework density 18.535
#
# number of rings (size 3 to 8) (size 9 to 14) (size 15 to 20)
#    0.000    2.125    1.250    3.000    1.750    1.250 
#    0.000    1.875    0.000    8.250    0.000    1.750 
#    0.000    0.000    0.000    0.000    0.000    0.000 
#
# Total GULP energy -396700.867191 kJ/mol
# GULP energy per Si atom -12396.902100 kJ/mol
# Density = 1.849281 g / cm^3
# Si number density = 18.535000 Si / 1000 Ang^3
#
#
#
# Elastic Constant Matrix: (Units=GPa)
#
#
# Indices 1 2 3 4 5 6 
#
# 1 76.8184 47.0107 31.7604 0.0000 -14.5405 0.0000
# 2 47.0107 113.4483 38.3784 0.0000 -15.9863 0.0000
# 3 31.7604 38.3784 90.6381 0.0000 -16.6668 0.0000
# 4 0.0000 0.0000 0.0000 32.9261 0.0000 -9.3781
# 5 -14.5405 -15.9863 -16.6668 0.0000 20.5201 0.0000
# 6 0.0000 0.0000 0.0000 -9.3781 0.0000 30.2676
#
#
#
# Elastic Compliance Matrix: (Units=1/GPa)
#
#
# Indices 1 2 3 4 5 6 
#
# 1 0.019156 -0.006020 -0.002974 0.000000 0.006468 0.000000
# 2 -0.006020 0.012688 -0.002621 0.000000 0.003490 0.000000
# 3 -0.002974 -0.002621 0.014603 0.000000 0.007711 0.000000
# 4 0.000000 0.000000 0.000000 0.033311 0.000000 0.010321
# 5 0.006468 0.003490 0.007711 0.000000 0.062298 0.000000
# 6 0.000000 0.000000 0.000000 0.010321 0.000000 0.036236
#
#
# Mechanical properties :
#
#
# Convention : Reuss Voigt Hill
#
# Bulk Modulus (GPa) = 43.07387 57.24487 50.15937
# Shear Modulus (GPa) = 23.89365 27.65977 25.77671
#
# Velocity S-wave (km/s) = 3.59431 3.86722 3.73326
# Velocity P-wave (km/s) = 6.36515 7.13388 6.76045
#
# Compressibility (1/GPa) = 0.02321593
#
# Stress axis : x y z
#
# Youngs Moduli (GPa) = 52.20341 78.81667 68.48013
#
# Poissons Ratio (x) = 0.47450 0.20365
# Poissons Ratio (y) = 0.31428 0.17949
# Poissons Ratio (z) = 0.15524 0.20658
#
# Static dielectric constant tensor:
#      x y z
#    x 3.347780 0.000000 -0.319250 
#    y 0.000000 3.633490 0.000000 
#    z -0.319250 0.000000 3.339850 
# 
# 
# High freq. dielectric constant tensor:
#      x y z
#    x 1.699510 0.000000 -0.033560 
#    y 0.000000 1.725020 0.000000 
#    z -0.033560 0.000000 1.709120 
# 
# From -- ./inp_files/135354.got.cif
#   From: 2010.06.25/outbox.cif.g09.slc.cpg/sg12_68_cif.got.tgz:135354.got - 2010.06.28 00:19:55.
