data_PCOD8082511
_publ_section_title
;
Structure prediction by ZEFSAII (Michael W. Deem and Ramdas Pophale) SiO2 
 PCOD8082511
Probable space group: C 2/M
;
_chemical_formula_sum "Si O2"
_cell_formula_units_Z 56
_cell_length_a 10.324892
_cell_length_b 17.528323
_cell_length_c 17.466571
_cell_angle_alpha 90.000000
_cell_angle_beta 107.186478
_cell_angle_gamma 90.000000
_cell_volume 3019.918298
_symmetry_space_group_name_H-M "C 2/M"
_symmetry_group_IT_number 12
_symmetry_cell_setting 'monoclinic'
loop_
_space_group_symop_operation_xyz
x,y,z
-x,y,-z
-x,-y,-z
x,-y,z
1/2+x,1/2+y,z
1/2-x,1/2+y,-z
1/2-x,1/2-y,-z
1/2+x,1/2-y,z
loop_
_atom_site_type_symbol
_atom_site_label
_atom_site_fract_x
_atom_site_fract_y
_atom_site_fract_z
Si Si1 0.350248 0.181279 0.500020
Si Si2 0.095254 0.159423 0.185164
Si Si3 0.410202 0.159353 0.814905
Si Si4 0.068829 0.411609 0.340651
Si Si5 0.793414 0.340174 0.086961
Si Si6 0.228248 0.588398 0.659324
Si Si7 0.796400 0.841158 0.092803
O O1 0.500000 0.210092 0.500000
O O2 0.250000 0.250000 0.500000
O O3 0.358994 0.130269 0.576946
O O4 0.282124 0.130172 0.423160
O O5 0.097694 0.250038 0.195440
O O6 0.189365 0.130275 0.132538
O O7 0.144583 0.122243 0.272650
O O8 0.945230 0.129475 0.140603
O O9 0.372066 0.122106 0.727453
O O10 0.556951 0.130258 0.867540
O O11 0.304768 0.129422 0.859503
O O12 0.105847 0.500000 0.353353
O O13 0.907342 0.398004 0.314768
O O14 0.792809 0.249392 0.085739
O O15 0.748498 0.374552 0.997256
O O16 0.252730 0.500000 0.646763
#
# Coordination Sequence:
#
# PCOD8082511 Si02
#       7
#     8   8   8   8   8   8   8
#     4  10  21  39  63  89 111 136 176 224 268 314
#     4  10  18  31  52  79 108 140 184 228 270 318
#     4  10  18  31  52  79 108 140 184 228 270 318
#     4  10  20  36  58  81 109 146 184 216 258 321
#     4   9  16  30  49  76 107 142 183 227 274 319
#     4  10  20  36  58  81 109 146 184 216 258 321
#     4   9  18  28  49  78 109 140 177 233 280 313
#
# _framework density 18.543547
#
# number of rings (size 3 to 8) (size 9 to 14) (size 15 to 20)
#    0.000    2.286    1.429    2.143    0.000    5.143 
#    2.571    0.714    0.000    6.000    0.000    0.000 
#    0.000    0.000    0.000    0.000    0.000    0.000 
#
# Total GULP energy -347242.197370 kJ/mol
# GULP energy per Si atom -12401.507049 kJ/mol
# Density = 1.850134 g / cm^3
# Si number density = 18.543547 Si / 1000 Ang^3
#
#
#
# Elastic Constant Matrix: (Units=GPa)
#
#
# Indices 1 2 3 4 5 6 
#
# 1 143.4939 44.0624 88.0403 0.0000 -0.1356 0.0000
# 2 44.0624 67.9259 52.7054 0.0000 0.4696 0.0000
# 3 88.0403 52.7054 186.1027 0.0000 2.0362 0.0000
# 4 0.0000 0.0000 0.0000 -3.3438 0.0000 -0.5887
# 5 -0.1356 0.4696 2.0362 0.0000 18.9458 0.0000
# 6 0.0000 0.0000 0.0000 -0.5887 0.0000 17.9859
#
#
#
# Elastic Compliance Matrix: (Units=1/GPa)
#
#
# Indices 1 2 3 4 5 6 
#
# 1 0.010540 -0.003803 -0.003915 0.000000 0.000591 0.000000
# 2 -0.003803 0.020240 -0.003932 0.000000 -0.000106 0.000000
# 3 -0.003915 -0.003932 0.008348 0.000000 -0.000828 0.000000
# 4 0.000000 0.000000 0.000000 -0.297347 0.000000 -0.009732
# 5 0.000591 -0.000106 -0.000828 0.000000 0.052878 0.000000
# 6 0.000000 0.000000 0.000000 -0.009732 0.000000 0.055281
#
#
# Mechanical properties :
#
#
# Convention : Reuss Voigt Hill
#
# Bulk Modulus (GPa) = 63.18043 85.23762 74.20903
# Shear Modulus (GPa) = -41.15783 20.89856 -10.12964
#
# Velocity S-wave (km/s) = -4.71629 3.36072 -2.33976
# Velocity P-wave (km/s) = 2.11836 7.81826 5.72768
#
# Compressibility (1/GPa) = 0.01582769
#
# Stress axis : x y z
#
# Youngs Moduli (GPa) = 94.88091 49.40601 119.78465
#
# Poissons Ratio (x) = 0.18788 0.46901
# Poissons Ratio (y) = 0.36081 0.47100
# Poissons Ratio (z) = 0.37150 0.19427
#
# Static dielectric constant tensor:
#      x y z
#    x 3.466810 0.000000 0.001870 
#    y 0.000000 3.012560 0.000000 
#    z 0.001870 0.000000 3.539310 
# 
# 
# High freq. dielectric constant tensor:
#      x y z
#    x 1.715520 0.000000 0.000620 
#    y 0.000000 1.684640 0.000000 
#    z 0.000620 0.000000 1.739080 
# 
# From -- ./inp_files/206268.got.cif
#   From: 2010.06.25/outbox.cif.g09.slc.cpg/sg12_104_cif.got.tgz:206268.got - 2010.06.28 00:19:55.
