data_PCOD8083619
_publ_section_title
;
Structure prediction by ZEFSAII (Michael W. Deem and Ramdas Pophale) SiO2 
 PCOD8083619
Probable space group: C 2/M
;
_chemical_formula_sum "Si O2"
_cell_formula_units_Z 56
_cell_length_a 21.168585
_cell_length_b 9.115965
_cell_length_c 27.622928
_cell_angle_alpha 90.000000
_cell_angle_beta 148.675065
_cell_angle_gamma 90.000000
_cell_volume 2771.254574
_symmetry_space_group_name_H-M "C 2/M"
_symmetry_group_IT_number 12
_symmetry_cell_setting 'monoclinic'
loop_
_space_group_symop_operation_xyz
x,y,z
-x,y,-z
-x,-y,-z
x,-y,z
1/2+x,1/2+y,z
1/2-x,1/2+y,-z
1/2-x,1/2-y,-z
1/2+x,1/2-y,z
loop_
_atom_site_type_symbol
_atom_site_label
_atom_site_fract_x
_atom_site_fract_y
_atom_site_fract_z
Si Si1 0.625394 0.326078 0.782637
Si Si2 0.721742 0.172464 0.758820
Si Si3 0.008378 0.829173 0.562329
Si Si4 0.636160 0.674381 0.901331
Si Si5 0.860189 0.839916 0.592272
Si Si6 0.887451 0.171875 0.783883
Si Si7 0.278167 0.837160 0.406407
O O1 0.641413 0.500000 0.789166
O O2 0.726265 0.246090 0.815171
O O3 0.634103 0.275373 0.843884
O O4 0.495681 0.274714 0.674652
O O5 0.616492 0.241211 0.657296
O O6 0.851005 0.203855 0.816077
O O7 0.699058 0.000000 0.749535
O O8 0.879472 0.767615 0.497887
O O9 0.000000 0.795788 0.500000
O O10 0.023243 0.000000 0.584189
O O11 0.647788 0.500000 0.913479
O O12 0.518210 0.735824 0.853568
O O13 0.750000 0.750000 0.000000
O O14 0.750000 0.750000 0.500000
O O15 0.838883 0.851876 0.635770
O O16 0.856875 0.000000 0.565637
O O17 0.776578 0.235065 0.678453
O O18 0.891237 0.000000 0.775411
O O19 0.334806 0.000000 0.434509
#
# Coordination Sequence:
#
# PCOD8083619 Si02
#       7
#     8   8   8   8   8   8   8
#     4  10  21  39  60  84 121 157 187 237 304 355
#     4  11  22  36  58  85 115 156 201 242 284 341
#     4  11  22  33  47  76 119 161 198 241 291 341
#     4  10  21  42  69  93 116 149 191 243 302 358
#     4  10  20  33  52  77 109 152 195 235 282 336
#     4   9  18  36  61  84 110 147 192 239 287 339
#     4  10  18  33  55  76 102 147 203 244 277 331
#
# _framework density 20.207453999999998
#
# number of rings (size 3 to 8) (size 9 to 14) (size 15 to 20)
#    0.000    1.857    2.857    1.714    0.000    4.571 
#    0.000    2.857    0.000    4.286    0.000    0.000 
#    0.000    0.000    0.000    0.000    0.000    0.000 
#
# Total GULP energy -347012.271239 kJ/mol
# GULP energy per Si atom -12393.295401 kJ/mol
# Density = 2.016146 g / cm^3
# Si number density = 20.207454 Si / 1000 Ang^3
#
#
#
# Elastic Constant Matrix: (Units=GPa)
#
#
# Indices 1 2 3 4 5 6 
#
# 1 149.8541 42.8185 49.9437 0.0000 9.3026 -0.0001
# 2 42.8185 62.9303 37.0770 0.0005 -2.2679 -0.0001
# 3 49.9437 37.0770 100.2619 0.0013 4.0685 0.0001
# 4 0.0000 0.0005 0.0013 29.5510 0.0000 -2.0367
# 5 9.3026 -2.2679 4.0685 0.0000 22.8275 0.0000
# 6 -0.0001 -0.0001 0.0001 -2.0367 0.0000 30.8366
#
#
#
# Elastic Compliance Matrix: (Units=1/GPa)
#
#
# Indices 1 2 3 4 5 6 
#
# 1 0.009158 -0.004817 -0.002629 0.000000 -0.003742 0.000000
# 2 -0.004817 0.023114 -0.006367 0.000000 0.005394 0.000000
# 3 -0.002629 -0.006367 0.013719 -0.000001 -0.002006 0.000000
# 4 0.000000 0.000000 -0.000001 0.033995 0.000000 0.002245
# 5 -0.003742 0.005394 -0.002006 0.000000 0.046225 0.000000
# 6 0.000000 0.000000 0.000000 0.002245 0.000000 0.032577
#
#
# Mechanical properties :
#
#
# Convention : Reuss Voigt Hill
#
# Bulk Modulus (GPa) = 54.44957 63.63606 59.04282
# Shear Modulus (GPa) = 25.96924 28.85683 27.41304
#
# Velocity S-wave (km/s) = 3.58876 3.78303 3.68717
# Velocity P-wave (km/s) = 6.64651 7.11628 6.88540
#
# Compressibility (1/GPa) = 0.01836562
#
# Stress axis : x y z
#
# Youngs Moduli (GPa) = 109.19398 43.26401 72.89103
#
# Poissons Ratio (x) = 0.20842 0.19160
# Poissons Ratio (y) = 0.52603 0.46408
# Poissons Ratio (z) = 0.28702 0.27545
#
# Static dielectric constant tensor:
#      x y z
#    x 4.317990 0.000000 0.112680 
#    y 0.000000 3.412160 0.000000 
#    z 0.112680 0.000000 3.364310 
# 
# 
# High freq. dielectric constant tensor:
#      x y z
#    x 1.817890 0.000000 0.004620 
#    y 0.000000 1.764790 0.000000 
#    z 0.004620 0.000000 1.757120 
# 
# From -- ./inp_files/380779.got.cif
#   From: 2010.06.25/outbox.cif.g09.slc.cpg/sg12_191_cif.got.tgz:380779.got - 2010.06.28 00:19:55.
