data_PCOD8083344
_publ_section_title
;
Structure prediction by ZEFSAII (Michael W. Deem and Ramdas Pophale) SiO2 
 PCOD8083344
Probable space group: C 2/M
;
_chemical_formula_sum "Si O2"
_cell_formula_units_Z 48
_cell_length_a 22.914145
_cell_length_b 17.174497
_cell_length_c 13.504882
_cell_angle_alpha 90.000000
_cell_angle_beta 154.580770
_cell_angle_gamma 90.000000
_cell_volume 2281.271297
_symmetry_space_group_name_H-M "C 2/M"
_symmetry_group_IT_number 12
_symmetry_cell_setting 'monoclinic'
loop_
_space_group_symop_operation_xyz
x,y,z
-x,y,-z
-x,-y,-z
x,-y,z
1/2+x,1/2+y,z
1/2-x,1/2+y,-z
1/2-x,1/2-y,-z
1/2+x,1/2-y,z
loop_
_atom_site_type_symbol
_atom_site_label
_atom_site_fract_x
_atom_site_fract_y
_atom_site_fract_z
Si Si1 0.703654 0.161962 0.438585
Si Si2 0.680683 0.408495 0.580225
Si Si3 0.437876 0.092704 0.095247
Si Si4 0.114474 0.907116 0.895628
Si Si5 0.099983 0.407736 0.738797
Si Si6 0.362498 0.589320 0.847906
O O1 0.750000 0.250000 0.500000
O O2 0.775400 0.113994 0.462585
O O3 0.541928 0.144401 0.188984
O O4 0.744119 0.133354 0.609483
O O5 0.671084 0.500000 0.566287
O O6 0.528164 0.375610 0.369773
O O7 0.788391 0.381255 0.827871
O O8 0.450997 0.116251 0.230571
O O9 0.462503 0.000000 0.116497
O O10 0.113282 0.000000 0.894248
O O11 0.246059 0.875106 0.038863
O O12 0.123067 0.875200 0.020898
O O13 0.104286 0.500000 0.735469
O O14 0.000000 0.373909 0.500000
O O15 0.318342 0.500000 0.786122
O O16 0.500000 0.602329 0.000000
#
# Coordination Sequence:
#
# PCOD8083344 Si02
#       6
#     8   8   8   8   8   8
#     4  12  24  36  54  81 115 153 192 241 285 341
#     4  10  20  37  58  83 116 152 191 234 287 346
#     4  10  21  37  59  85 117 155 190 232 289 346
#     4   9  17  31  56  89 117 142 184 238 286 339
#     4   9  17  31  55  89 121 146 182 234 286 340
#     4  10  18  32  56  83 109 141 185 236 287 332
#
# _framework density 21.040899
#
# number of rings (size 3 to 8) (size 9 to 14) (size 15 to 20)
#    0.000    2.000    1.667    3.000    0.000    6.000 
#    0.000    3.333    0.000    1.000    4.333    0.000 
#    0.000    0.000    0.000    0.000    0.000    0.000 
#
# Total GULP energy -297472.109311 kJ/mol
# GULP energy per Si atom -12394.671221 kJ/mol
# Density = 2.099301 g / cm^3
# Si number density = 21.040899 Si / 1000 Ang^3
#
#
#
# Elastic Constant Matrix: (Units=GPa)
#
#
# Indices 1 2 3 4 5 6 
#
# 1 80.1594 43.0293 70.6304 0.0000 5.3766 0.0000
# 2 43.0293 -67.0481 -23.6705 0.0000 50.4226 0.0000
# 3 70.6304 -23.6705 124.3429 0.0000 48.3556 0.0000
# 4 0.0000 0.0000 0.0000 7.5241 0.0000 4.0690
# 5 5.3766 50.4226 48.3556 0.0000 16.2098 0.0000
# 6 0.0000 0.0000 0.0000 4.0690 0.0000 4.2212
#
#
#
# Elastic Compliance Matrix: (Units=1/GPa)
#
#
# Indices 1 2 3 4 5 6 
#
# 1 0.014011 0.004867 -0.004143 0.000000 -0.007429 0.000000
# 2 0.004867 0.002461 -0.008174 0.000000 0.015114 0.000000
# 3 -0.004143 -0.008174 0.009887 0.000000 -0.002692 0.000000
# 4 0.000000 0.000000 0.000000 0.277635 0.000000 -0.267622
# 5 -0.007429 0.015114 -0.002692 0.000000 0.025173 0.000000
# 6 0.000000 0.000000 0.000000 -0.267622 0.000000 0.494868
#
#
# Mechanical properties :
#
#
# Convention : Reuss Voigt Hill
#
# Bulk Modulus (GPa) = 87.26183 35.27030 61.26607
# Shear Modulus (GPa) = 5.93293 8.75537 7.34415
#
# Velocity S-wave (km/s) = 1.68102 2.04210 1.87029
# Velocity P-wave (km/s) = 6.73278 4.72857 5.81763
#
# Compressibility (1/GPa) = 0.01145976
#
# Stress axis : x y z
#
# Youngs Moduli (GPa) = 71.37209 406.32375 101.14665
#
# Poissons Ratio (x) = -1.97777 0.41905
# Poissons Ratio (y) = -0.34740 0.82677
# Poissons Ratio (z) = 0.29569 3.32129
#
# Static dielectric constant tensor:
#      x y z
#    x 3.858350 0.000000 0.197800 
#    y 0.000000 3.130780 0.000000 
#    z 0.197800 0.000000 4.396620 
# 
# 
# High freq. dielectric constant tensor:
#      x y z
#    x 1.824280 0.000000 0.007150 
#    y 0.000000 1.757700 0.000000 
#    z 0.007150 0.000000 1.847480 
# 
# From -- ./inp_files/131648.got.cif
#   From: 2010.06.25/outbox.cif.g09.slc.cpg/sg12_66_cif.got.tgz:131648.got - 2010.06.28 00:19:55.
