data_PCOD8083508
_publ_section_title
;
Structure prediction by ZEFSAII (Michael W. Deem and Ramdas Pophale) SiO2 
 PCOD8083508
Probable space group: C 2/M
;
_chemical_formula_sum "Si O2"
_cell_formula_units_Z 64
_cell_length_a 24.631526
_cell_length_b 22.029309
_cell_length_c 9.005454
_cell_angle_alpha 90.000000
_cell_angle_beta 48.448467
_cell_angle_gamma 90.000000
_cell_volume 3656.857600
_symmetry_space_group_name_H-M "C 2/M"
_symmetry_group_IT_number 12
_symmetry_cell_setting 'monoclinic'
loop_
_space_group_symop_operation_xyz
x,y,z
-x,y,-z
-x,-y,-z
x,-y,z
1/2+x,1/2+y,z
1/2-x,1/2+y,-z
1/2-x,1/2-y,-z
1/2+x,1/2-y,z
loop_
_atom_site_type_symbol
_atom_site_label
_atom_site_fract_x
_atom_site_fract_y
_atom_site_fract_z
Si Si1 0.911612 0.775508 0.527615
Si Si2 0.074072 0.431064 0.439576
Si Si3 0.282538 0.302670 0.135847
Si Si4 0.067644 0.765507 0.174280
Si Si5 0.927514 0.350897 0.042504
Si Si6 0.232117 0.171157 0.172240
Si Si7 0.160487 0.431857 0.992639
Si Si8 0.853781 0.339967 0.470791
O O1 0.912016 0.746780 0.693373
O O2 0.853476 0.830525 0.629388
O O3 0.885494 0.723199 0.467747
O O4 0.989640 0.799471 0.327167
O O5 0.059084 0.500000 0.519794
O O6 0.100177 0.393368 0.534981
O O7 0.000000 0.404386 0.500000
O O8 0.139063 0.429246 0.203483
O O9 0.269961 0.230289 0.174622
O O10 0.233381 0.340882 0.340680
O O11 0.369715 0.311087 0.002342
O O12 0.256959 0.326661 0.023532
O O13 0.061045 0.706653 0.084409
O O14 0.908277 0.409136 0.978036
O O15 0.862604 0.341686 0.277909
O O16 0.000000 0.365117 0.000000
O O17 0.270386 0.110994 0.164758
O O18 0.180883 0.500000 0.906977
#
# Coordination Sequence:
#
# PCOD8083508 Si02
#       8
#     8   8   8   8   8   8   8   8
#     4   9  19  31  56  75  98 136 168 211 262 312
#     4  10  21  34  51  71  94 135 186 216 241 299
#     4   9  17  30  54  75 102 127 167 217 259 312
#     4  10  18  33  50  76 104 136 165 204 259 317
#     4  12  23  33  46  73 112 142 171 210 246 305
#     4   9  16  33  53  80  97 124 175 221 257 300
#     4  11  22  37  54  71 102 143 181 216 252 298
#     4  11  20  31  49  72 101 139 164 213 257 296
#
# _framework density 17.501365
#
# number of rings (size 3 to 8) (size 9 to 14) (size 15 to 20)
#    0.000    1.875    3.750    2.250    1.750    1.250 
#    0.000    0.000    0.000    0.000    0.000    7.875 
#    0.000    1.000    0.000    0.000    0.000    0.250 
#
# Total GULP energy -396609.617814 kJ/mol
# GULP energy per Si atom -12394.050557 kJ/mol
# Density = 1.746153 g / cm^3
# Si number density = 17.501365 Si / 1000 Ang^3
#
#
#
# Elastic Constant Matrix: (Units=GPa)
#
#
# Indices 1 2 3 4 5 6 
#
# 1 75.1452 35.5797 31.8088 0.0000 -20.4632 0.0000
# 2 35.5797 69.5375 20.3587 0.0000 -8.1628 0.0000
# 3 31.8088 20.3587 95.2103 0.0000 -21.2797 0.0000
# 4 0.0000 0.0000 0.0000 12.8140 0.0000 -8.6649
# 5 -20.4632 -8.1628 -21.2797 0.0000 35.8912 0.0000
# 6 0.0000 0.0000 0.0000 -8.6649 0.0000 15.4206
#
#
#
# Elastic Compliance Matrix: (Units=1/GPa)
#
#
# Indices 1 2 3 4 5 6 
#
# 1 0.021122 -0.008880 -0.003363 0.000000 0.008029 0.000000
# 2 -0.008880 0.019174 -0.001487 0.000000 -0.001584 0.000000
# 3 -0.003363 -0.001487 0.013188 0.000000 0.005563 0.000000
# 4 0.000000 0.000000 0.000000 0.125862 0.000000 0.070722
# 5 0.008029 -0.001584 0.005563 0.000000 0.035378 0.000000
# 6 0.000000 0.000000 0.000000 0.070722 0.000000 0.104587
#
#
# Mechanical properties :
#
#
# Convention : Reuss Voigt Hill
#
# Bulk Modulus (GPa) = 38.42795 46.15415 42.29105
# Shear Modulus (GPa) = 14.06682 22.96824 18.51753
#
# Velocity S-wave (km/s) = 2.83813 3.62659 3.25632
# Velocity P-wave (km/s) = 5.72231 6.63063 6.19314
#
# Compressibility (1/GPa) = 0.02602272
#
# Stress axis : x y z
#
# Youngs Moduli (GPa) = 47.34328 52.15432 75.82557
#
# Poissons Ratio (x) = 0.46314 0.25503
# Poissons Ratio (y) = 0.42042 0.11276
# Poissons Ratio (z) = 0.15923 0.07756
#
# Static dielectric constant tensor:
#      x y z
#    x 3.379000 0.000000 -0.238470 
#    y 0.000000 2.896240 0.000000 
#    z -0.238470 0.000000 3.583410 
# 
# 
# High freq. dielectric constant tensor:
#      x y z
#    x 1.671880 0.000000 -0.011120 
#    y 0.000000 1.621430 0.000000 
#    z -0.011120 0.000000 1.686070 
# 
# From -- ./inp_files/106388.got.cif
#   From: 2010.06.25/outbox.cif.g09.slc.cpg/sg12_54_cif.got.tgz:106388.got - 2010.06.28 00:19:55.
