data_PCOD8083747
_publ_section_title
;
Structure prediction by ZEFSAII (Michael W. Deem and Ramdas Pophale) SiO2 
 PCOD8083747
Probable space group: C 2/M
;
_chemical_formula_sum "Si O2"
_cell_formula_units_Z 56
_cell_length_a 28.792435
_cell_length_b 9.064045
_cell_length_c 18.911546
_cell_angle_alpha 90.000000
_cell_angle_beta 147.238132
_cell_angle_gamma 90.000000
_cell_volume 2670.816657
_symmetry_space_group_name_H-M "C 2/M"
_symmetry_group_IT_number 12
_symmetry_cell_setting 'monoclinic'
loop_
_space_group_symop_operation_xyz
x,y,z
-x,y,-z
-x,-y,-z
x,-y,z
1/2+x,1/2+y,z
1/2-x,1/2+y,-z
1/2-x,1/2-y,-z
1/2+x,1/2-y,z
loop_
_atom_site_type_symbol
_atom_site_label
_atom_site_fract_x
_atom_site_fract_y
_atom_site_fract_z
Si Si1 0.652682 0.831323 0.547290
Si Si2 0.079963 0.669410 0.312620
Si Si3 0.259403 0.674909 0.087284
Si Si4 0.099217 0.324531 0.971880
Si Si5 0.597944 0.325432 0.618468
Si Si6 0.307865 0.327654 0.647051
Si Si7 0.598289 0.840038 0.125514
O O1 0.574144 0.817132 0.390652
O O2 0.638929 0.734764 0.598844
O O3 0.732361 0.772474 0.602516
O O4 0.666132 0.000000 0.588680
O O5 0.088474 0.500000 0.300147
O O6 0.170532 0.743556 0.399915
O O7 0.992689 0.742569 0.170951
O O8 0.259696 0.500000 0.077912
O O9 0.344926 0.724386 0.240580
O O10 0.250000 0.750000 0.000000
O O11 0.175701 0.732638 0.021000
O O12 0.091421 0.500000 0.958262
O O13 0.124752 0.273198 0.083206
O O14 0.500000 0.266144 0.500000
O O15 0.598905 0.500000 0.613150
O O16 0.301017 0.500000 0.622178
O O17 0.389901 0.281839 0.798780
O O18 0.645015 0.000000 0.199080
O O19 0.500000 0.877955 0.000000
#
# Coordination Sequence:
#
# PCOD8083747 Si02
#       7
#     8   8   8   8   8   8   8
#     4  10  23  39  59  86 118 155 199 246 292 350
#     4  10  20  37  58  82 113 156 203 242 282 345
#     4  10  22  40  63  91 120 152 194 246 299 353
#     4   9  18  34  57  83 110 145 197 244 283 339
#     4  10  23  43  65  90 123 159 198 245 303 367
#     4  11  22  35  52  84 123 153 190 243 302 349
#     4  10  18  33  57  80 105 149 199 236 280 349
#
# _framework density 20.967372000000001
#
# number of rings (size 3 to 8) (size 9 to 14) (size 15 to 20)
#    0.000    2.000    1.429    1.714    2.000    4.000 
#    0.000    1.429    0.000    0.000    0.000    0.000 
#    0.000    0.000    0.000    0.000    0.000    0.000 
#
# Total GULP energy -346908.895222 kJ/mol
# GULP energy per Si atom -12389.603401 kJ/mol
# Density = 2.091965 g / cm^3
# Si number density = 20.967372 Si / 1000 Ang^3
#
#
#
# Elastic Constant Matrix: (Units=GPa)
#
#
# Indices 1 2 3 4 5 6 
#
# 1 153.8039 35.1858 49.5778 0.0000 -9.6071 0.0000
# 2 35.1858 34.4049 15.3122 0.0000 0.4600 0.0000
# 3 49.5778 15.3122 77.2472 0.0000 4.4540 0.0000
# 4 0.0000 0.0000 0.0000 45.6222 0.0000 -8.8580
# 5 -9.6071 0.4600 4.4540 0.0000 37.0128 0.0000
# 6 0.0000 0.0000 0.0000 -8.8580 0.0000 26.7272
#
#
#
# Elastic Compliance Matrix: (Units=1/GPa)
#
#
# Indices 1 2 3 4 5 6 
#
# 1 0.010258 -0.008247 -0.005144 0.000000 0.003384 0.000000
# 2 -0.008247 0.038512 -0.002206 0.000000 -0.002354 0.000000
# 3 -0.005144 -0.002206 0.016877 0.000000 -0.003339 0.000000
# 4 0.000000 0.000000 0.000000 0.023427 0.000000 0.007764
# 5 0.003384 -0.002354 -0.003339 0.000000 0.028327 0.000000
# 6 0.000000 0.000000 0.000000 0.007764 0.000000 0.039988
#
#
# Mechanical properties :
#
#
# Convention : Reuss Voigt Hill
#
# Bulk Modulus (GPa) = 29.02383 51.73420 40.37902
# Shear Modulus (GPa) = 24.99172 32.89779 28.94475
#
# Velocity S-wave (km/s) = 3.45618 3.96536 3.71949
# Velocity P-wave (km/s) = 5.45888 6.75963 6.14378
#
# Compressibility (1/GPa) = 0.03445444
#
# Stress axis : x y z
#
# Youngs Moduli (GPa) = 97.48601 25.96564 59.25346
#
# Poissons Ratio (x) = 0.21413 0.30480
# Poissons Ratio (y) = 0.80392 0.13069
# Poissons Ratio (z) = 0.50147 0.05727
#
# Static dielectric constant tensor:
#      x y z
#    x 4.227950 0.000000 -0.073080 
#    y 0.000000 3.421090 0.000000 
#    z -0.073080 0.000000 4.251460 
# 
# 
# High freq. dielectric constant tensor:
#      x y z
#    x 1.829000 0.000000 -0.009000 
#    y 0.000000 1.782050 0.000000 
#    z -0.009000 0.000000 1.838010 
# 
# From -- ./inp_files/329645.got.cif
#   From: 2010.06.25/outbox.cif.g09.slc.cpg/sg12_165_cif.got.tgz:329645.got - 2010.06.28 00:19:55.
