data_PCOD8083021
_publ_section_title
;
Structure prediction by ZEFSAII (Michael W. Deem and Ramdas Pophale) SiO2 
 PCOD8083021
Probable space group: C 2/M
;
_chemical_formula_sum "Si O2"
_cell_formula_units_Z 60
_cell_length_a 14.037532
_cell_length_b 9.216042
_cell_length_c 23.523088
_cell_angle_alpha 90.000000
_cell_angle_beta 76.342954
_cell_angle_gamma 90.000000
_cell_volume 2957.151267
_symmetry_space_group_name_H-M "C 2/M"
_symmetry_group_IT_number 12
_symmetry_cell_setting 'monoclinic'
loop_
_space_group_symop_operation_xyz
x,y,z
-x,y,-z
-x,-y,-z
x,-y,z
1/2+x,1/2+y,z
1/2-x,1/2+y,-z
1/2-x,1/2-y,-z
1/2+x,1/2-y,z
loop_
_atom_site_type_symbol
_atom_site_label
_atom_site_fract_x
_atom_site_fract_y
_atom_site_fract_z
Si Si1 0.314178 0.663363 0.589860
Si Si2 0.652440 0.336082 0.873100
Si Si3 0.901427 0.337615 0.400570
Si Si4 0.178040 0.169606 0.193551
Si Si5 0.500000 0.242515 0.500000
Si Si6 0.563441 0.337630 0.097701
Si Si7 0.345229 0.173649 0.010493
Si Si8 0.930604 0.828283 0.678601
O O1 0.286764 0.500000 0.606390
O O2 0.210491 0.730086 0.581211
O O3 0.405588 0.665433 0.533315
O O4 0.350668 0.733797 0.644360
O O5 0.686917 0.500000 0.884347
O O6 0.723463 0.264844 0.816101
O O7 0.545020 0.340614 0.860500
O O8 0.641490 0.231881 0.928497
O O9 0.899604 0.500000 0.376412
O O10 0.954731 0.348807 0.454474
O O11 0.963093 0.239746 0.348263
O O12 0.134255 0.210972 0.138449
O O13 0.104434 0.216776 0.253779
O O14 0.203160 0.000000 0.195035
O O15 0.592223 0.500000 0.072306
O O16 0.568146 0.226068 0.044005
O O17 0.338897 0.000000 0.011821
O O18 0.250000 0.250000 0.000000
O O19 0.942353 0.000000 0.669938
#
# Coordination Sequence:
#
# PCOD8083021 Si02
#       8
#     8   8   8   8   4   8   8   8
#     4   9  18  33  54  80 111 146 185 227 274 326
#     4  11  23  38  58  85 114 146 184 228 282 338
#     4  10  20  34  53  80 112 145 181 230 282 324
#     4  10  21  39  60  80 108 146 186 231 278 329
#     4  10  18  32  52  80 113 148 185 222 273 336
#     4  10  22  39  58  82 114 148 182 227 283 337
#     4  12  23  37  59  85 114 148 186 228 280 338
#     4   9  20  38  57  78 106 145 190 228 272 330
#
# _framework density 20.289798000000001
#
# number of rings (size 3 to 8) (size 9 to 14) (size 15 to 20)
#    0.000    1.867    1.333    2.800    0.000    4.800 
#    0.000    3.333    0.000    0.000    0.000    0.000 
#    0.000    0.000    0.000    0.000    0.000    0.000 
#
# Total GULP energy -371735.906952 kJ/mol
# GULP energy per Si atom -12391.196898 kJ/mol
# Density = 2.024362 g / cm^3
# Si number density = 20.289798 Si / 1000 Ang^3
#
#
#
# Elastic Constant Matrix: (Units=GPa)
#
#
# Indices 1 2 3 4 5 6 
#
# 1 120.3635 35.8691 38.1359 0.0000 -29.9699 0.0000
# 2 35.8691 93.1770 43.9754 0.0000 -12.1339 0.0000
# 3 38.1359 43.9754 106.9944 0.0000 -27.3331 0.0000
# 4 0.0000 0.0000 0.0000 27.9625 0.0000 -7.4956
# 5 -29.9699 -12.1339 -27.3331 0.0000 28.9361 0.0000
# 6 0.0000 0.0000 0.0000 -7.4956 0.0000 25.8146
#
#
#
# Elastic Compliance Matrix: (Units=1/GPa)
#
#
# Indices 1 2 3 4 5 6 
#
# 1 0.012028 -0.003103 -0.000213 0.000000 0.010955 0.000000
# 2 -0.003103 0.014122 -0.005281 0.000000 -0.002280 0.000000
# 3 -0.000213 -0.005281 0.014460 0.000000 0.011224 0.000000
# 4 0.000000 0.000000 0.000000 0.038781 0.000000 0.011261
# 5 0.010955 -0.002280 0.011224 0.000000 0.055551 0.000000
# 6 0.000000 0.000000 0.000000 0.011261 0.000000 0.042007
#
#
# Mechanical properties :
#
#
# Convention : Reuss Voigt Hill
#
# Bulk Modulus (GPa) = 42.70525 61.83285 52.26905
# Shear Modulus (GPa) = 24.75865 30.04627 27.40246
#
# Velocity S-wave (km/s) = 3.49700 3.85236 3.67897
# Velocity P-wave (km/s) = 6.11545 7.09427 6.62296
#
# Compressibility (1/GPa) = 0.02341633
#
# Stress axis : x y z
#
# Youngs Moduli (GPa) = 83.13732 70.81055 69.15651
#
# Poissons Ratio (x) = 0.21973 0.01474
# Poissons Ratio (y) = 0.25799 0.36520
# Poissons Ratio (z) = 0.01772 0.37394
#
# Static dielectric constant tensor:
#      x y z
#    x 4.093100 0.000000 -0.072580 
#    y 0.000000 3.628930 0.000000 
#    z -0.072580 0.000000 3.675090 
# 
# 
# High freq. dielectric constant tensor:
#      x y z
#    x 1.806550 0.000000 -0.010940 
#    y 0.000000 1.775030 0.000000 
#    z -0.010940 0.000000 1.781460 
# 
# From -- ./inp_files/338630.got.cif
#   From: 2010.06.25/outbox.cif.g09.slc.cpg/sg12_170_cif.got.tgz:338630.got - 2010.06.28 00:19:55.
