data_PCOD8083933
_publ_section_title
;
Structure prediction by ZEFSAII (Michael W. Deem and Ramdas Pophale) SiO2 
 PCOD8083933
Probable space group: C 2/M
;
_chemical_formula_sum "Si O2"
_cell_formula_units_Z 48
_cell_length_a 19.754281
_cell_length_b 14.319585
_cell_length_c 10.543782
_cell_angle_alpha 90.000000
_cell_angle_beta 115.329722
_cell_angle_gamma 90.000000
_cell_volume 2695.811978
_symmetry_space_group_name_H-M "C 2/M"
_symmetry_group_IT_number 12
_symmetry_cell_setting 'monoclinic'
loop_
_space_group_symop_operation_xyz
x,y,z
-x,y,-z
-x,-y,-z
x,-y,z
1/2+x,1/2+y,z
1/2-x,1/2+y,-z
1/2-x,1/2-y,-z
1/2+x,1/2-y,z
loop_
_atom_site_type_symbol
_atom_site_label
_atom_site_fract_x
_atom_site_fract_y
_atom_site_fract_z
Si Si1 0.131538 0.289687 0.919752
Si Si2 0.519884 0.717823 0.152780
Si Si3 0.899117 0.602357 0.861695
Si Si4 0.256213 0.213961 0.190400
Si Si5 0.765677 0.896363 0.339681
Si Si6 0.333262 0.608583 0.667381
O O1 0.171480 0.329607 0.824278
O O2 0.056507 0.228893 0.826253
O O3 0.115450 0.375107 0.001780
O O4 0.187766 0.219259 0.037126
O O5 0.545435 0.824355 0.155464
O O6 0.584382 0.655384 0.266820
O O7 0.500000 0.673297 0.000000
O O8 0.935626 0.500000 0.882437
O O9 0.823803 0.606108 0.718514
O O10 0.287555 0.315658 0.258493
O O11 0.226694 0.153309 0.284132
O O12 0.801195 0.873997 0.503196
O O13 0.791343 0.000000 0.312473
O O14 0.341919 0.500000 0.707680
#
# Coordination Sequence:
#
# PCOD8083933 Si02
#       6
#     8   8   8   8   8   8
#     4   9  19  32  51  75 107 131 167 207 261 310
#     4  10  18  34  49  77 107 133 170 210 257 308
#     4   9  17  31  55  78 100 131 171 215 255 300
#     4  10  18  35  53  73 104 134 167 216 257 299
#     4   9  18  33  55  78  97 130 178 214 251 301
#     4  11  21  33  54  78 103 140 178 212 251 304
#
# _framework density 17.805395999999998
#
# number of rings (size 3 to 8) (size 9 to 14) (size 15 to 20)
#    0.000    2.333    5.000    0.500    0.000    4.000 
#    0.000    4.167    0.000    2.000    0.000    3.500 
#    0.000    0.000    0.000    0.000    0.000    0.000 
#
# Total GULP energy -297337.767245 kJ/mol
# GULP energy per Si atom -12389.073635 kJ/mol
# Density = 1.776487 g / cm^3
# Si number density = 17.805396 Si / 1000 Ang^3
#
#
#
# Elastic Constant Matrix: (Units=GPa)
#
#
# Indices 1 2 3 4 5 6 
#
# 1 106.5409 44.7027 45.6536 0.0000 9.6433 0.0000
# 2 44.7027 97.8293 36.4068 0.0000 2.8367 0.0000
# 3 45.6536 36.4068 90.5055 0.0000 17.8524 0.0000
# 4 0.0000 0.0000 0.0000 17.0469 0.0000 -3.6238
# 5 9.6433 2.8367 17.8524 0.0000 16.5855 0.0000
# 6 0.0000 0.0000 0.0000 -3.6238 0.0000 11.5023
#
#
#
# Elastic Compliance Matrix: (Units=1/GPa)
#
#
# Indices 1 2 3 4 5 6 
#
# 1 0.013359 -0.004339 -0.004580 0.000000 -0.002095 0.000000
# 2 -0.004339 0.013643 -0.004236 0.000000 0.004749 0.000000
# 3 -0.004580 -0.004236 0.018275 0.000000 -0.016284 0.000000
# 4 0.000000 0.000000 0.000000 0.062872 0.000000 0.019808
# 5 -0.002095 0.004749 -0.016284 0.000000 0.078227 0.000000
# 6 0.000000 0.000000 0.000000 0.019808 0.000000 0.093180
#
#
# Mechanical properties :
#
#
# Convention : Reuss Voigt Hill
#
# Bulk Modulus (GPa) = 52.72230 60.93357 56.82793
# Shear Modulus (GPa) = 16.01589 20.23445 18.12517
#
# Velocity S-wave (km/s) = 3.00241 3.37474 3.19401
# Velocity P-wave (km/s) = 6.45708 7.03431 6.75186
#
# Compressibility (1/GPa) = 0.01896731
#
# Stress axis : x y z
#
# Youngs Moduli (GPa) = 74.85683 73.29543 54.71860
#
# Poissons Ratio (x) = 0.31804 0.25060
# Poissons Ratio (y) = 0.32482 0.23180
# Poissons Ratio (z) = 0.34283 0.31049
#
# Static dielectric constant tensor:
#      x y z
#    x 3.420540 0.000000 0.197970 
#    y 0.000000 3.351640 0.000000 
#    z 0.197970 0.000000 3.358240 
# 
# 
# High freq. dielectric constant tensor:
#      x y z
#    x 1.678180 0.000000 0.020390 
#    y 0.000000 1.680010 0.000000 
#    z 0.020390 0.000000 1.680270 
# 
# From -- ./inp_files/166162.got.cif
#   From: 2010.06.25/outbox.cif.g09.slc.cpg/sg12_84_cif.got.tgz:166162.got - 2010.06.28 00:19:55.
