data_PCOD8083493
_publ_section_title
;
Structure prediction by ZEFSAII (Michael W. Deem and Ramdas Pophale) SiO2 
 PCOD8083493
Probable space group: C 2/M
;
_chemical_formula_sum "Si O2"
_cell_formula_units_Z 64
_cell_length_a 18.226663
_cell_length_b 13.783752
_cell_length_c 24.857029
_cell_angle_alpha 90.000000
_cell_angle_beta 144.679625
_cell_angle_gamma 90.000000
_cell_volume 3610.461533
_symmetry_space_group_name_H-M "C 2/M"
_symmetry_group_IT_number 12
_symmetry_cell_setting 'monoclinic'
loop_
_space_group_symop_operation_xyz
x,y,z
-x,y,-z
-x,-y,-z
x,-y,z
1/2+x,1/2+y,z
1/2-x,1/2+y,-z
1/2-x,1/2-y,-z
1/2+x,1/2-y,z
loop_
_atom_site_type_symbol
_atom_site_label
_atom_site_fract_x
_atom_site_fract_y
_atom_site_fract_z
Si Si1 0.360955 0.889188 0.762331
Si Si2 0.119524 0.784642 0.761902
Si Si3 0.009836 0.387566 0.749985
Si Si4 0.123981 0.386347 0.106358
Si Si5 0.874708 0.884756 0.648051
Si Si6 0.196317 0.269213 0.613201
Si Si7 0.172494 0.390476 0.447024
Si Si8 0.487809 0.793138 0.408468
O O1 0.485533 0.875320 0.798953
O O2 0.398424 0.857875 0.844870
O O3 0.244435 0.828039 0.670312
O O4 0.314943 0.000000 0.733256
O O5 0.122709 0.681175 0.795856
O O6 0.258695 0.828911 0.848925
O O7 0.077479 0.776394 0.674703
O O8 0.021480 0.856308 0.733193
O O9 0.038901 0.500000 0.752273
O O10 0.880122 0.347593 0.641390
O O11 0.150829 0.500000 0.115551
O O12 0.000000 0.353419 0.000000
O O13 0.811341 0.837824 0.663014
O O14 0.799230 0.843072 0.549370
O O15 0.859383 0.000000 0.643245
O O16 0.117934 0.328690 0.612178
O O17 0.101173 0.237182 0.508185
O O18 0.207679 0.500000 0.456477
O O19 0.054538 0.384009 0.418605
#
# Coordination Sequence:
#
# PCOD8083493 Si02
#       8
#     8   8   8   8   8   8   8   8
#     4  10  19  34  54  74  99 134 171 205 249 303
#     4  11  19  33  54  77 105 133 171 214 251 302
#     4   9  18  31  52  78 105 138 172 206 246 296
#     4  10  22  40  59  77  99 129 166 209 259 314
#     4  10  20  30  47  73 106 142 175 212 249 288
#     4  10  18  33  46  73 107 138 172 208 249 292
#     4   8  16  29  44  70 103 144 183 205 236 287
#     4   9  19  28  48  71 104 143 172 204 246 294
#
# _framework density 17.726265000000001
#
# number of rings (size 3 to 8) (size 9 to 14) (size 15 to 20)
#    0.000    2.375    2.500    0.375    1.750    2.000 
#    0.000    5.000    0.000    0.375    0.000    0.000 
#    0.000    0.000    0.000    0.000    0.000    0.000 
#
# Total GULP energy -396540.550512 kJ/mol
# GULP energy per Si atom -12391.892204 kJ/mol
# Density = 1.768592 g / cm^3
# Si number density = 17.726265 Si / 1000 Ang^3
#
#
#
# Elastic Constant Matrix: (Units=GPa)
#
#
# Indices 1 2 3 4 5 6 
#
# 1 113.3446 35.0013 57.3891 0.0000 4.4755 0.0000
# 2 35.0013 56.1989 40.8439 0.0000 4.2648 0.0000
# 3 57.3891 40.8439 93.1134 -0.0002 8.9763 0.0000
# 4 0.0000 0.0000 -0.0002 19.5543 -0.0001 3.7034
# 5 4.4755 4.2648 8.9763 -0.0001 23.3223 0.0000
# 6 0.0000 0.0000 0.0000 3.7034 0.0000 23.3974
#
#
#
# Elastic Compliance Matrix: (Units=1/GPa)
#
#
# Indices 1 2 3 4 5 6 
#
# 1 0.013264 -0.003411 -0.006744 0.000000 0.000674 0.000000
# 2 -0.003411 0.027002 -0.009689 0.000000 -0.000554 0.000000
# 3 -0.006744 -0.009689 0.019577 0.000000 -0.004469 0.000000
# 4 0.000000 0.000000 0.000000 0.052720 0.000000 -0.008345
# 5 0.000674 -0.000554 -0.004469 0.000000 0.044569 0.000000
# 6 0.000000 0.000000 0.000000 -0.008345 0.000000 0.044061
#
#
# Mechanical properties :
#
#
# Convention : Reuss Voigt Hill
#
# Bulk Modulus (GPa) = 49.61333 58.79170 54.20252
# Shear Modulus (GPa) = 20.19409 21.88300 21.03855
#
# Velocity S-wave (km/s) = 3.37889 3.51735 3.44882
# Velocity P-wave (km/s) = 6.57814 7.05224 6.81931
#
# Compressibility (1/GPa) = 0.02015587
#
# Stress axis : x y z
#
# Youngs Moduli (GPa) = 75.39286 37.03472 51.08111
#
# Poissons Ratio (x) = 0.12632 0.34448
# Poissons Ratio (y) = 0.25715 0.49490
# Poissons Ratio (z) = 0.50844 0.35881
#
# Static dielectric constant tensor:
#      x y z
#    x 3.488600 0.000000 -0.143720 
#    y 0.000000 3.142320 0.000000 
#    z -0.143720 0.000000 3.039050 
# 
# 
# High freq. dielectric constant tensor:
#      x y z
#    x 1.697690 0.000000 -0.007720 
#    y 0.000000 1.673430 0.000000 
#    z -0.007720 0.000000 1.644830 
# 
# From -- ./inp_files/344079.got.cif
#   From: 2010.06.25/outbox.cif.g09.slc.cpg/sg12_173_cif.got.tgz:344079.got - 2010.06.28 00:19:55.
