data_PCOD8083368
_publ_section_title
;
Structure prediction by ZEFSAII (Michael W. Deem and Ramdas Pophale) SiO2 
 PCOD8083368
Probable space group: C 2/M
;
_chemical_formula_sum "Si O2"
_cell_formula_units_Z 48
_cell_length_a 18.788912
_cell_length_b 13.025756
_cell_length_c 21.366424
_cell_angle_alpha 90.000000
_cell_angle_beta 153.360963
_cell_angle_gamma 90.000000
_cell_volume 2344.613221
_symmetry_space_group_name_H-M "C 2/M"
_symmetry_group_IT_number 12
_symmetry_cell_setting 'monoclinic'
loop_
_space_group_symop_operation_xyz
x,y,z
-x,y,-z
-x,-y,-z
x,-y,z
1/2+x,1/2+y,z
1/2-x,1/2+y,-z
1/2-x,1/2-y,-z
1/2+x,1/2-y,z
loop_
_atom_site_type_symbol
_atom_site_label
_atom_site_fract_x
_atom_site_fract_y
_atom_site_fract_z
Si Si1 0.574943 0.616806 0.876354
Si Si2 0.834110 0.731675 0.152306
Si Si3 0.252536 0.674953 0.678679
Si Si4 0.659947 0.885421 0.095259
Si Si5 0.951391 0.381524 0.363702
Si Si6 0.181499 0.887381 0.653360
O O1 0.589269 0.500000 0.862010
O O2 0.550971 0.700680 0.802139
O O3 0.420992 0.621171 0.800310
O O4 0.737835 0.642515 0.041010
O O5 0.702129 0.811846 0.071875
O O6 0.936591 0.683921 0.288696
O O7 0.186783 0.649737 0.696300
O O8 0.280316 0.798492 0.696129
O O9 0.126489 0.636303 0.528611
O O10 0.796977 0.886040 0.255094
O O11 0.630316 0.000000 0.045238
O O12 0.500000 0.841787 0.000000
O O13 0.930366 0.500000 0.330157
O O14 0.000000 0.859779 0.500000
O O15 0.227732 0.000000 0.662459
#
# Coordination Sequence:
#
# PCOD8083368 Si02
#       6
#     8   8   8   8   8   8
#     4  11  25  42  61  86 122 166 203 246 305 362
#     4  11  23  40  60  86 119 158 202 255 294 362
#     4  11  20  40  62  92 127 156 198 248 302 363
#     4  10  19  33  55  82 111 147 191 242 296 346
#     4  11  22  38  63  91 120 159 201 252 302 355
#     4  10  18  32  56  87 119 150 189 240 295 345
#
# _framework density 20.472460000000002
#
# number of rings (size 3 to 8) (size 9 to 14) (size 15 to 20)
#    0.000    1.333    3.333    4.000    0.000    0.667 
#    0.000    6.667    0.000    0.000    0.000    0.000 
#    0.000    0.000    0.000    0.000    0.000    0.000 
#
# Total GULP energy -297577.944534 kJ/mol
# GULP energy per Si atom -12399.081022 kJ/mol
# Density = 2.042586 g / cm^3
# Si number density = 20.472460 Si / 1000 Ang^3
#
#
#
# Elastic Constant Matrix: (Units=GPa)
#
#
# Indices 1 2 3 4 5 6 
#
# 1 66.4861 29.2763 25.2155 -0.0004 -6.6454 0.0002
# 2 29.2763 136.8543 18.5012 -0.0004 -0.2185 -0.0028
# 3 25.2155 18.5012 67.0016 -0.0013 -9.0048 -0.0030
# 4 -0.0004 -0.0004 -0.0013 23.1828 -0.0002 1.9530
# 5 -6.6454 -0.2185 -9.0048 -0.0002 30.7324 -0.0017
# 6 0.0002 -0.0028 -0.0030 1.9530 -0.0017 23.5811
#
#
#
# Elastic Compliance Matrix: (Units=1/GPa)
#
#
# Indices 1 2 3 4 5 6 
#
# 1 0.018951 -0.003250 -0.005920 0.000000 0.002340 -0.000001
# 2 -0.003250 0.008158 -0.001162 0.000000 -0.000985 0.000001
# 3 -0.005920 -0.001162 0.018010 0.000001 0.003989 0.000002
# 4 0.000000 0.000000 0.000001 0.043439 0.000000 -0.003598
# 5 0.002340 -0.000985 0.003989 0.000000 0.034207 0.000003
# 6 -0.000001 0.000001 0.000002 -0.003598 0.000003 0.042705
#
#
# Mechanical properties :
#
#
# Convention : Reuss Voigt Hill
#
# Bulk Modulus (GPa) = 40.89204 46.25867 43.57535
# Shear Modulus (GPa) = 25.73547 28.65585 27.19566
#
# Velocity S-wave (km/s) = 3.54938 3.74535 3.64868
# Velocity P-wave (km/s) = 6.06753 6.43025 6.25152
#
# Compressibility (1/GPa) = 0.02445464
#
# Stress axis : x y z
#
# Youngs Moduli (GPa) = 52.76769 122.58212 55.52498
#
# Poissons Ratio (x) = 0.39839 0.32871
# Poissons Ratio (y) = 0.17149 0.06452
# Poissons Ratio (z) = 0.31239 0.14243
#
# Static dielectric constant tensor:
#      x y z
#    x 3.598240 0.000000 -0.135250 
#    y 0.000000 4.081660 -0.000010 
#    z -0.135250 -0.000010 3.588260 
# 
# 
# High freq. dielectric constant tensor:
#      x y z
#    x 1.768220 0.000000 -0.005750 
#    y 0.000000 1.825610 0.000000 
#    z -0.005750 0.000000 1.796050 
# 
# From -- ./inp_files/316356.got.cif
#   From: 2010.06.25/outbox.cif.g09.slc.cpg/sg12_159_cif.got.tgz:316356.got - 2010.06.28 00:19:55.
