data_PCOD8083696
_publ_section_title
;
Structure prediction by ZEFSAII (Michael W. Deem and Ramdas Pophale) SiO2 
 PCOD8083696
Probable space group: C 2/M
;
_chemical_formula_sum "Si O2"
_cell_formula_units_Z 48
_cell_length_a 20.182308
_cell_length_b 8.828163
_cell_length_c 33.265450
_cell_angle_alpha 90.000000
_cell_angle_beta 24.503043
_cell_angle_gamma 90.000000
_cell_volume 2458.171298
_symmetry_space_group_name_H-M "C 2/M"
_symmetry_group_IT_number 12
_symmetry_cell_setting 'monoclinic'
loop_
_space_group_symop_operation_xyz
x,y,z
-x,y,-z
-x,-y,-z
x,-y,z
1/2+x,1/2+y,z
1/2-x,1/2+y,-z
1/2-x,1/2-y,-z
1/2+x,1/2-y,z
loop_
_atom_site_type_symbol
_atom_site_label
_atom_site_fract_x
_atom_site_fract_y
_atom_site_fract_z
Si Si1 0.938885 0.678378 0.214671
Si Si2 0.254017 0.679902 0.919527
Si Si3 0.831551 0.178683 0.574083
Si Si4 0.659626 0.319933 0.216267
Si Si5 0.415652 0.820736 0.137249
Si Si6 0.197389 0.820188 0.570740
O O1 0.964606 0.500000 0.203399
O O2 0.807180 0.734298 0.319171
O O3 0.880110 0.725980 0.202716
O O4 0.106792 0.757889 0.129230
O O5 0.259990 0.500000 0.917833
O O6 0.277408 0.739762 0.861277
O O7 0.086209 0.744086 0.028526
O O8 0.814314 0.263088 0.541259
O O9 0.000000 0.226384 0.500000
O O10 0.823526 0.000000 0.570927
O O11 0.661258 0.500000 0.216486
O O12 0.774688 0.252672 0.187379
O O13 0.480759 0.260090 0.321760
O O14 0.418917 0.000000 0.130389
O O15 0.250000 0.750000 0.500000
O O16 0.205233 0.000000 0.563735
#
# Coordination Sequence:
#
# PCOD8083696 Si02
#       6
#     8   8   8   8   8   8
#     4  10  20  34  54  80 111 145 181 225 275 329
#     4  10  18  33  56  81 109 142 183 227 273 323
#     4  10  22  39  60  83 111 150 193 234 280 334
#     4   9  18  33  55  81 109 141 182 229 271 321
#     4   9  18  31  53  82 109 143 186 226 265 322
#     4  11  23  39  61  86 114 146 185 233 285 338
#
# _framework density 19.526710999999999
#
# number of rings (size 3 to 8) (size 9 to 14) (size 15 to 20)
#    0.000    2.167    1.667    1.500    2.333    2.333 
#    0.000    0.000    0.000    5.000    0.000    0.000 
#    0.000    0.000    0.000    0.000    0.000    0.000 
#
# Total GULP energy -297679.453450 kJ/mol
# GULP energy per Si atom -12403.310560 kJ/mol
# Density = 1.948227 g / cm^3
# Si number density = 19.526711 Si / 1000 Ang^3
#
#
#
# Elastic Constant Matrix: (Units=GPa)
#
#
# Indices 1 2 3 4 5 6 
#
# 1 161.3008 32.2044 60.4926 -0.3430 -0.3449 -0.4573
# 2 32.2044 27.5889 25.4053 -0.3468 1.3670 0.4299
# 3 60.4926 25.4053 113.4319 -0.0751 2.5719 -0.0370
# 4 -0.3430 -0.3468 -0.0751 22.6315 0.1260 -1.8794
# 5 -0.3449 1.3670 2.5719 0.1260 44.2202 -0.1406
# 6 -0.4573 0.4299 -0.0370 -1.8794 -0.1406 27.3406
#
#
#
# Elastic Compliance Matrix: (Units=1/GPa)
#
#
# Indices 1 2 3 4 5 6 
#
# 1 0.008850 -0.007562 -0.003037 0.000028 0.000480 0.000267
# 2 -0.007562 0.052178 -0.007626 0.000590 -0.001233 -0.000923
# 3 -0.003037 -0.007626 0.012155 -0.000114 -0.000494 0.000075
# 4 0.000028 0.000590 -0.000114 0.044449 -0.000128 0.003046
# 5 0.000480 -0.001233 -0.000494 -0.000128 0.022685 0.000135
# 6 0.000267 -0.000923 0.000075 0.003046 0.000135 0.036805
#
#
# Mechanical properties :
#
#
# Convention : Reuss Voigt Hill
#
# Bulk Modulus (GPa) = 27.22254 59.83625 43.52939
# Shear Modulus (GPa) = 22.14197 31.11976 26.63087
#
# Velocity S-wave (km/s) = 3.37104 3.99645 3.69700
# Velocity P-wave (km/s) = 5.39661 7.21147 6.36901
#
# Compressibility (1/GPa) = 0.03673427
#
# Stress axis : x y z
#
# Youngs Moduli (GPa) = 112.99305 19.16504 82.27403
#
# Poissons Ratio (x) = 0.14492 0.24986
# Poissons Ratio (y) = 0.85443 0.62740
# Poissons Ratio (z) = 0.34315 0.14615
#
# Static dielectric constant tensor:
#      x y z
#    x 3.773960 -0.000030 -0.008400 
#    y -0.000030 3.123130 0.000030 
#    z -0.008400 0.000030 3.777570 
# 
# 
# High freq. dielectric constant tensor:
#      x y z
#    x 1.778970 0.000000 0.001960 
#    y 0.000000 1.716380 -0.000010 
#    z 0.001960 -0.000010 1.772230 
# 
# From -- ./inp_files/212564.got.cif
#   From: 2010.06.25/outbox.cif.g09.slc.cpg/sg12_107_cif.got.tgz:212564.got - 2010.06.28 00:19:55.
