data_PCOD8083655
_publ_section_title
;
Structure prediction by ZEFSAII (Michael W. Deem and Ramdas Pophale) SiO2 
 PCOD8083655
Probable space group: C 2/M
;
_chemical_formula_sum "Si O2"
_cell_formula_units_Z 48
_cell_length_a 10.473724
_cell_length_b 22.452597
_cell_length_c 12.398695
_cell_angle_alpha 90.000000
_cell_angle_beta 128.518797
_cell_angle_gamma 90.000000
_cell_volume 2281.259459
_symmetry_space_group_name_H-M "C 2/M"
_symmetry_group_IT_number 12
_symmetry_cell_setting 'monoclinic'
loop_
_space_group_symop_operation_xyz
x,y,z
-x,y,-z
-x,-y,-z
x,-y,z
1/2+x,1/2+y,z
1/2-x,1/2+y,-z
1/2-x,1/2-y,-z
1/2+x,1/2-y,z
loop_
_atom_site_type_symbol
_atom_site_label
_atom_site_fract_x
_atom_site_fract_y
_atom_site_fract_z
Si Si1 0.181971 0.735370 0.135090
Si Si2 0.831965 0.888126 0.151172
Si Si3 0.717213 0.395306 0.338554
Si Si4 0.182727 0.732360 0.577624
Si Si5 0.295049 0.500000 0.516991
Si Si6 0.184303 0.000000 0.718787
Si Si7 0.692010 0.365597 0.093892
O O1 0.287852 0.678317 0.161590
O O2 0.190163 0.741638 0.268581
O O3 0.261079 0.797084 0.129564
O O4 0.000000 0.723622 0.000000
O O5 0.756773 0.939942 0.188071
O O6 0.025601 0.888689 0.256491
O O7 0.762680 0.899334 0.993202
O O8 0.821552 0.338560 0.424704
O O9 0.779171 0.445545 0.453321
O O10 0.750088 0.405653 0.226866
O O11 0.250000 0.750000 0.500000
O O12 0.000000 0.757400 0.500000
O O13 0.489740 0.500000 0.616940
O O14 0.238939 0.500000 0.361816
O O15 0.500000 0.355585 0.000000
#
# Coordination Sequence:
#
# PCOD8083655 Si02
#       7
#     8   8   8   8   4   4   8
#     4  10  21  36  58  87 119 164 198 247 316 374
#     4  10  18  33  55  82 117 155 204 256 306 361
#     4   9  19  34  55  82 115 158 200 255 303 368
#     4  11  24  40  61  95 129 162 209 260 312 374
#     4   9  18  35  54  77 115 158 208 246 309 372
#     4   9  20  31  52  83 109 158 209 253 300 375
#     4   8  16  30  51  79 107 139 189 240 300 360
#
# _framework density 21.041008999999999
#
# number of rings (size 3 to 8) (size 9 to 14) (size 15 to 20)
#    0.000    2.500    0.000    2.500    2.333    3.333 
#    0.000    4.167    0.000    0.000    0.000    0.000 
#    0.000    0.000    0.000    0.000    0.000    0.000 
#
# Total GULP energy -297349.087076 kJ/mol
# GULP energy per Si atom -12389.545295 kJ/mol
# Density = 2.099312 g / cm^3
# Si number density = 21.041009 Si / 1000 Ang^3
#
#
#
# Elastic Constant Matrix: (Units=GPa)
#
#
# Indices 1 2 3 4 5 6 
#
# 1 56.0714 39.5152 53.5694 0.0000 -22.9444 0.0000
# 2 39.5152 93.5802 68.9811 0.0000 -33.3278 0.0000
# 3 53.5694 68.9811 155.7130 0.0000 -44.1352 0.0000
# 4 0.0000 0.0000 0.0000 23.1485 0.0000 -8.3054
# 5 -22.9444 -33.3278 -44.1352 0.0000 40.7129 0.0000
# 6 0.0000 0.0000 0.0000 -8.3054 0.0000 27.3888
#
#
#
# Elastic Compliance Matrix: (Units=1/GPa)
#
#
# Indices 1 2 3 4 5 6 
#
# 1 0.030348 -0.006466 -0.006104 0.000000 0.005193 0.000000
# 2 -0.006466 0.019142 -0.004110 0.000000 0.007571 0.000000
# 3 -0.006104 -0.004110 0.012146 0.000000 0.006363 0.000000
# 4 0.000000 0.000000 0.000000 0.048473 0.000000 0.014699
# 5 0.005193 0.007571 0.006363 0.000000 0.040584 0.000000
# 6 0.000000 0.000000 0.000000 0.014699 0.000000 0.040969
#
#
# Mechanical properties :
#
#
# Convention : Reuss Voigt Hill
#
# Bulk Modulus (GPa) = 35.36510 69.94398 52.65454
# Shear Modulus (GPa) = 21.32688 27.80330 24.56509
#
# Velocity S-wave (km/s) = 3.18714 3.63903 3.42056
# Velocity P-wave (km/s) = 5.51253 7.13937 6.37803
#
# Compressibility (1/GPa) = 0.02827646
#
# Stress axis : x y z
#
# Youngs Moduli (GPa) = 32.95144 52.24176 82.33029
#
# Poissons Ratio (x) = 0.33777 0.50257
# Poissons Ratio (y) = 0.21305 0.33835
# Poissons Ratio (z) = 0.20115 0.21470
#
# Static dielectric constant tensor:
#      x y z
#    x 3.411430 0.000000 -0.313390 
#    y 0.000000 3.852780 0.000000 
#    z -0.313390 0.000000 4.072420 
# 
# 
# High freq. dielectric constant tensor:
#      x y z
#    x 1.789070 0.000000 -0.024930 
#    y 0.000000 1.814220 0.000000 
#    z -0.024930 0.000000 1.835830 
# 
# From -- ./inp_files/133431.got.cif
#   From: 2010.06.25/outbox.cif.g09.slc.cpg/sg12_67_cif.got.tgz:133431.got - 2010.06.28 00:19:55.
