data_PCOD8083178
_publ_section_title
;
Structure prediction by ZEFSAII (Michael W. Deem and Ramdas Pophale) SiO2 
 PCOD8083178
Probable space group: C 2/M
;
_chemical_formula_sum "Si O2"
_cell_formula_units_Z 64
_cell_length_a 20.101229
_cell_length_b 8.842652
_cell_length_c 24.728380
_cell_angle_alpha 90.000000
_cell_angle_beta 50.496309
_cell_angle_gamma 90.000000
_cell_volume 3391.437377
_symmetry_space_group_name_H-M "C 2/M"
_symmetry_group_IT_number 12
_symmetry_cell_setting 'monoclinic'
loop_
_space_group_symop_operation_xyz
x,y,z
-x,y,-z
-x,-y,-z
x,-y,z
1/2+x,1/2+y,z
1/2-x,1/2+y,-z
1/2-x,1/2-y,-z
1/2+x,1/2-y,z
loop_
_atom_site_type_symbol
_atom_site_label
_atom_site_fract_x
_atom_site_fract_y
_atom_site_fract_z
Si Si1 0.744470 0.322473 0.865869
Si Si2 0.520435 0.675260 0.367964
Si Si3 0.929006 0.177423 0.777518
Si Si4 0.915659 0.670432 0.507073
Si Si5 0.675854 0.822895 0.002661
Si Si6 0.170556 0.177745 0.788139
Si Si7 0.185127 0.177322 0.352546
Si Si8 0.002398 0.677278 0.154626
O O1 0.742338 0.500000 0.877043
O O2 0.839838 0.265207 0.829194
O O3 0.717886 0.278346 0.819200
O O4 0.677582 0.244676 0.941454
O O5 0.503086 0.500000 0.387624
O O6 0.524534 0.716461 0.302893
O O7 0.440103 0.765084 0.435457
O O8 0.610657 0.722869 0.348642
O O9 0.992507 0.233262 0.791520
O O10 0.910138 0.000000 0.792110
O O11 0.881700 0.500000 0.518375
O O12 0.841303 0.770596 0.573452
O O13 0.000000 0.679227 0.500000
O O14 0.583849 0.782857 0.075466
O O15 0.692549 0.000000 0.991530
O O16 0.750000 0.750000 0.000000
O O17 0.228992 0.233650 0.708283
O O18 0.080686 0.265382 0.834427
O O19 0.154203 0.000000 0.791448
O O20 0.204263 0.000000 0.342430
O O21 0.995616 0.500000 0.170151
#
# Coordination Sequence:
#
# PCOD8083178 Si02
#       8
#     8   8   8   8   8   8   8   8
#     4  11  23  38  60  88 117 151 193 239 289 344
#     4   9  18  31  51  82 114 148 190 236 286 338
#     4  11  21  36  60  87 116 152 194 240 289 342
#     4   9  17  28  46  77 114 151 189 234 285 334
#     4  11  23  39  62  88 116 151 191 241 292 344
#     4  11  24  40  59  85 118 155 195 240 289 345
#     4  10  18  32  54  80 114 153 191 235 287 342
#     4  11  25  42  60  85 116 152 194 239 291 349
#
# _framework density 18.871054999999998
#
# number of rings (size 3 to 8) (size 9 to 14) (size 15 to 20)
#    0.000    1.625    2.500    2.625    0.000    6.500 
#    0.000    2.500    0.000    0.750    0.000    0.000 
#    0.000    0.000    0.000    0.000    0.000    0.000 
#
# Total GULP energy -396956.986909 kJ/mol
# GULP energy per Si atom -12404.905841 kJ/mol
# Density = 1.882810 g / cm^3
# Si number density = 18.871055 Si / 1000 Ang^3
#
#
#
# Elastic Constant Matrix: (Units=GPa)
#
#
# Indices 1 2 3 4 5 6 
#
# 1 47.0902 21.0410 26.8535 -0.0002 -4.6261 -0.0009
# 2 21.0410 77.5919 53.3367 -0.0003 -0.3715 -0.0025
# 3 26.8535 53.3367 131.1533 0.0000 1.6400 -0.0003
# 4 -0.0002 -0.0003 0.0000 38.3136 0.0001 -0.3319
# 5 -4.6261 -0.3715 1.6400 0.0001 22.2426 0.0000
# 6 -0.0009 -0.0025 -0.0003 -0.3319 0.0000 27.7253
#
#
#
# Elastic Compliance Matrix: (Units=1/GPa)
#
#
# Indices 1 2 3 4 5 6 
#
# 1 0.025818 -0.004571 -0.003497 0.000000 0.005551 0.000000
# 2 -0.004571 0.018714 -0.006673 0.000000 -0.000146 0.000002
# 3 -0.003497 -0.006673 0.011075 0.000000 -0.001655 -0.000001
# 4 0.000000 0.000000 0.000000 0.026103 0.000000 0.000312
# 5 0.005551 -0.000146 -0.001655 0.000000 0.046233 0.000000
# 6 0.000000 0.000002 -0.000001 0.000312 0.000000 0.036072
#
#
# Mechanical properties :
#
#
# Convention : Reuss Voigt Hill
#
# Bulk Modulus (GPa) = 38.27657 50.92197 44.59927
# Shear Modulus (GPa) = 24.72765 27.96324 26.34545
#
# Velocity S-wave (km/s) = 3.62380 3.85360 3.74046
# Velocity P-wave (km/s) = 6.15114 6.84420 6.50690
#
# Compressibility (1/GPa) = 0.02612564
#
# Stress axis : x y z
#
# Youngs Moduli (GPa) = 38.73329 53.43731 90.29446
#
# Poissons Ratio (x) = 0.24426 0.31573
# Poissons Ratio (y) = 0.17705 0.60250
# Poissons Ratio (z) = 0.13544 0.35657
#
# Static dielectric constant tensor:
#      x y z
#    x 3.140970 0.000000 0.008970 
#    y 0.000000 3.546820 0.000000 
#    z 0.008970 0.000000 3.654510 
# 
# 
# High freq. dielectric constant tensor:
#      x y z
#    x 1.697370 0.000000 0.005070 
#    y 0.000000 1.747220 0.000000 
#    z 0.005070 0.000000 1.749250 
# 
# From -- ./inp_files/346001.got.cif
#   From: 2010.06.25/outbox.cif.g09.slc.cpg/sg12_174_cif.got.tgz:346001.got - 2010.06.28 00:19:55.
