data_PCOD8083442
_publ_section_title
;
Structure prediction by ZEFSAII (Michael W. Deem and Ramdas Pophale) SiO2 
 PCOD8083442
Probable space group: C 2/M
;
_chemical_formula_sum "Si O2"
_cell_formula_units_Z 56
_cell_length_a 17.413369
_cell_length_b 17.507810
_cell_length_c 14.176467
_cell_angle_alpha 90.000000
_cell_angle_beta 137.390282
_cell_angle_gamma 90.000000
_cell_volume 2925.983196
_symmetry_space_group_name_H-M "C 2/M"
_symmetry_group_IT_number 12
_symmetry_cell_setting 'monoclinic'
loop_
_space_group_symop_operation_xyz
x,y,z
-x,y,-z
-x,-y,-z
x,-y,z
1/2+x,1/2+y,z
1/2-x,1/2+y,-z
1/2-x,1/2-y,-z
1/2+x,1/2-y,z
loop_
_atom_site_type_symbol
_atom_site_label
_atom_site_fract_x
_atom_site_fract_y
_atom_site_fract_z
Si Si1 0.742016 0.590204 0.569553
Si Si2 0.571538 0.088677 0.396495
Si Si3 0.842718 0.156646 0.135303
Si Si4 0.165805 0.670420 0.821642
Si Si5 0.121120 0.911411 0.637146
Si Si6 0.251280 0.587848 0.722182
Si Si7 0.559162 0.589049 0.253436
O O1 0.755248 0.500000 0.572861
O O2 0.858591 0.622666 0.630329
O O3 0.719592 0.620808 0.655621
O O4 0.633859 0.614606 0.410084
O O5 0.456212 0.133834 0.299623
O O6 0.646127 0.101781 0.557204
O O7 0.541457 0.000000 0.357428
O O8 0.849195 0.239030 0.189716
O O9 0.844968 0.097922 0.223947
O O10 0.945892 0.140386 0.156092
O O11 0.726292 0.144327 0.973106
O O12 0.242071 0.644980 0.801818
O O13 0.000000 0.873177 0.500000
O O14 0.111903 0.000000 0.604874
O O15 0.249609 0.500000 0.755866
O O16 0.370822 0.605466 0.778870
O O17 0.525544 0.500000 0.228714
#
# Coordination Sequence:
#
# PCOD8083442 Si02
#       7
#     8   8   8   8   8   8   8
#     4   8  15  31  56  86 110 128 167 227 278 320
#     4   9  18  36  61  84 108 138 178 227 275 328
#     4  11  24  38  51  75 116 153 184 221 268 328
#     4  11  24  39  50  75 116 155 185 215 268 331
#     4  10  18  32  58  85 106 136 180 228 273 317
#     4   9  19  37  64  89 107 134 182 239 284 324
#     4   9  17  35  61  87 109 135 179 236 286 322
#
# _framework density 19.138864999999999
#
# number of rings (size 3 to 8) (size 9 to 14) (size 15 to 20)
#    0.000    2.429    1.429    3.000    0.000    5.143 
#    2.571    3.571    0.000    2.571    0.000    0.000 
#    0.000    0.000    0.000    0.000    0.000    0.000 
#
# Total GULP energy -347064.418737 kJ/mol
# GULP energy per Si atom -12395.157812 kJ/mol
# Density = 1.909530 g / cm^3
# Si number density = 19.138865 Si / 1000 Ang^3
#
#
#
# Elastic Constant Matrix: (Units=GPa)
#
#
# Indices 1 2 3 4 5 6 
#
# 1 122.6292 40.3796 22.9723 0.0000 -11.7396 0.0000
# 2 40.3796 50.9527 17.6014 0.0000 -2.0695 0.0000
# 3 22.9723 17.6014 45.3431 0.0000 -7.6565 0.0000
# 4 0.0000 0.0000 0.0000 43.1554 0.0000 16.5485
# 5 -11.7396 -2.0695 -7.6565 0.0000 20.1572 0.0000
# 6 0.0000 0.0000 0.0000 16.5485 0.0000 39.8804
#
#
#
# Elastic Compliance Matrix: (Units=1/GPa)
#
#
# Indices 1 2 3 4 5 6 
#
# 1 0.011804 -0.008526 -0.001771 0.000000 0.005327 0.000000
# 2 -0.008526 0.028846 -0.007711 0.000000 -0.004933 0.000000
# 3 -0.001771 -0.007711 0.027394 0.000000 0.008582 0.000000
# 4 0.000000 0.000000 0.000000 0.027557 0.000000 -0.011435
# 5 0.005327 -0.004933 0.008582 0.000000 0.055466 0.000000
# 6 0.000000 0.000000 0.000000 -0.011435 0.000000 0.029820
#
#
# Mechanical properties :
#
#
# Convention : Reuss Voigt Hill
#
# Bulk Modulus (GPa) = 31.22322 42.31460 36.76891
# Shear Modulus (GPa) = 21.97038 29.83671 25.90354
#
# Velocity S-wave (km/s) = 3.39181 3.95265 3.68292
# Velocity P-wave (km/s) = 5.62927 6.55656 6.11053
#
# Compressibility (1/GPa) = 0.03202744
#
# Stress axis : x y z
#
# Youngs Moduli (GPa) = 84.71746 34.66630 36.50470
#
# Poissons Ratio (x) = 0.29558 0.06465
# Poissons Ratio (y) = 0.72233 0.28148
# Poissons Ratio (z) = 0.15004 0.26731
#
# Static dielectric constant tensor:
#      x y z
#    x 3.824710 0.000000 0.019070 
#    y 0.000000 3.224160 0.000000 
#    z 0.019070 0.000000 3.280270 
# 
# 
# High freq. dielectric constant tensor:
#      x y z
#    x 1.763790 0.000000 0.000260 
#    y 0.000000 1.712660 0.000000 
#    z 0.000260 0.000000 1.726360 
# 
# From -- ./inp_files/226592.got.cif
#   From: 2010.06.25/outbox.cif.g09.slc.cpg/sg12_114_cif.got.tgz:226592.got - 2010.06.28 00:19:55.
