data_PCOD8083152
_publ_section_title
;
Structure prediction by ZEFSAII (Michael W. Deem and Ramdas Pophale) SiO2 
 PCOD8083152
Probable space group: C 2/M
;
_chemical_formula_sum "Si O2"
_cell_formula_units_Z 56
_cell_length_a 15.458421
_cell_length_b 9.108124
_cell_length_c 24.325180
_cell_angle_alpha 90.000000
_cell_angle_beta 126.768329
_cell_angle_gamma 90.000000
_cell_volume 2743.572604
_symmetry_space_group_name_H-M "C 2/M"
_symmetry_group_IT_number 12
_symmetry_cell_setting 'monoclinic'
loop_
_space_group_symop_operation_xyz
x,y,z
-x,y,-z
-x,-y,-z
x,-y,z
1/2+x,1/2+y,z
1/2-x,1/2+y,-z
1/2-x,1/2-y,-z
1/2+x,1/2-y,z
loop_
_atom_site_type_symbol
_atom_site_label
_atom_site_fract_x
_atom_site_fract_y
_atom_site_fract_z
Si Si1 0.676756 0.672662 0.427685
Si Si2 0.556684 0.174314 0.208151
Si Si3 0.749589 0.326718 0.334197
Si Si4 0.221104 0.163909 0.071917
Si Si5 0.087758 0.337297 0.943293
Si Si6 0.371873 0.668398 0.202850
Si Si7 0.068702 0.832713 0.651477
O O1 0.688379 0.500000 0.439362
O O2 0.750000 0.750000 0.500000
O O3 0.715787 0.721014 0.382341
O O4 0.553633 0.723658 0.389064
O O5 0.673405 0.244891 0.261330
O O6 0.518486 0.211783 0.131213
O O7 0.475091 0.242959 0.221097
O O8 0.559943 0.000000 0.218643
O O9 0.740804 0.500000 0.322144
O O10 0.871395 0.271489 0.369607
O O11 0.314110 0.163189 0.062057
O O12 0.260197 0.263197 0.137777
O O13 0.196289 0.000000 0.083504
O O14 0.111710 0.229463 0.003369
O O15 0.072557 0.500000 0.961968
O O16 0.381788 0.500000 0.186689
O O17 0.369234 0.678641 0.267235
O O18 0.070868 0.000000 0.630775
#
# Coordination Sequence:
#
# PCOD8083152 Si02
#       7
#     8   8   8   8   8   8   8
#     4  10  23  44  66  92 125 158 195 238 290 350
#     4  10  19  32  54  82 113 152 200 246 296 355
#     4  11  23  40  62  91 124 157 199 245 294 350
#     4   9  16  25  41  71 107 145 195 246 295 354
#     4   8  15  26  41  68 105 146 192 241 293 352
#     4  10  18  32  54  78 113 155 196 247 299 349
#     4  10  22  41  62  88 123 160 200 242 292 353
#
# _framework density 20.411342000000001
#
# number of rings (size 3 to 8) (size 9 to 14) (size 15 to 20)
#    0.000    2.286    1.429    2.571    0.000    7.429 
#    0.000    2.857    0.000    0.857    0.000    6.000 
#    0.000    0.000    0.000    0.000    0.000    0.000 
#
# Total GULP energy -347208.998829 kJ/mol
# GULP energy per Si atom -12400.321387 kJ/mol
# Density = 2.036488 g / cm^3
# Si number density = 20.411342 Si / 1000 Ang^3
#
#
#
# Elastic Constant Matrix: (Units=GPa)
#
#
# Indices 1 2 3 4 5 6 
#
# 1 100.4388 47.8238 51.2706 0.0000 8.7069 0.0000
# 2 47.8238 111.9740 64.7431 0.0000 9.0514 0.0000
# 3 51.2706 64.7431 139.7682 0.0000 19.2236 0.0000
# 4 0.0000 0.0000 0.0000 39.4746 0.0000 4.4716
# 5 8.7069 9.0514 19.2236 0.0000 8.3092 0.0000
# 6 0.0000 0.0000 0.0000 4.4716 0.0000 27.9205
#
#
#
# Elastic Compliance Matrix: (Units=1/GPa)
#
#
# Indices 1 2 3 4 5 6 
#
# 1 0.013495 -0.003956 -0.002590 0.000000 -0.003840 0.000000
# 2 -0.003956 0.013358 -0.004848 0.000000 0.000810 0.000000
# 3 -0.002590 -0.004848 0.013568 0.000000 -0.023396 0.000000
# 4 0.000000 0.000000 0.000000 0.025801 0.000000 -0.004132
# 5 -0.003840 0.000810 -0.023396 0.000000 0.177617 0.000000
# 6 0.000000 0.000000 0.000000 -0.004132 0.000000 0.036478
#
#
# Mechanical properties :
#
#
# Convention : Reuss Voigt Hill
#
# Bulk Modulus (GPa) = 56.70869 75.53957 66.12413
# Shear Modulus (GPa) = 16.18223 27.69710 21.93966
#
# Velocity S-wave (km/s) = 2.81874 3.68767 3.28209
# Velocity P-wave (km/s) = 6.19975 7.43107 6.84316
#
# Compressibility (1/GPa) = 0.01763398
#
# Stress axis : x y z
#
# Youngs Moduli (GPa) = 74.10321 74.86324 73.70238
#
# Poissons Ratio (x) = 0.29615 0.19086
# Poissons Ratio (y) = 0.29314 0.35730
# Poissons Ratio (z) = 0.19190 0.36292
#
# Static dielectric constant tensor:
#      x y z
#    x 3.407910 0.000000 0.146680 
#    y 0.000000 3.764350 0.000000 
#    z 0.146680 0.000000 3.808550 
# 
# 
# High freq. dielectric constant tensor:
#      x y z
#    x 1.772910 0.000000 0.009610 
#    y 0.000000 1.800460 0.000000 
#    z 0.009610 0.000000 1.799750 
# 
# From -- ./inp_files/339024.got.cif
#   From: 2010.06.25/outbox.cif.g09.slc.cpg/sg12_170_cif.got.tgz:339024.got - 2010.06.28 00:19:55.
