data_PCOD8083635
_publ_section_title
;
Structure prediction by ZEFSAII (Michael W. Deem and Ramdas Pophale) SiO2 
 PCOD8083635
Probable space group: C 2/M
;
_chemical_formula_sum "Si O2"
_cell_formula_units_Z 40
_cell_length_a 9.428007
_cell_length_b 20.464168
_cell_length_c 10.351560
_cell_angle_alpha 90.000000
_cell_angle_beta 64.245889
_cell_angle_gamma 90.000000
_cell_volume 1798.804953
_symmetry_space_group_name_H-M "C 2/M"
_symmetry_group_IT_number 12
_symmetry_cell_setting 'monoclinic'
loop_
_space_group_symop_operation_xyz
x,y,z
-x,y,-z
-x,-y,-z
x,-y,z
1/2+x,1/2+y,z
1/2-x,1/2+y,-z
1/2-x,1/2-y,-z
1/2+x,1/2-y,z
loop_
_atom_site_type_symbol
_atom_site_label
_atom_site_fract_x
_atom_site_fract_y
_atom_site_fract_z
Si Si1 0.142712 0.168144 0.638853
Si Si2 0.650680 0.839349 0.008977
Si Si3 0.900767 0.074667 0.833792
Si Si4 0.684542 0.570559 0.413021
Si Si5 0.847590 0.744158 0.755585
O O1 0.234374 0.132053 0.483294
O O2 0.271825 0.211855 0.658581
O O3 0.068544 0.111706 0.760076
O O4 0.995216 0.212303 0.649860
O O5 0.788156 0.892427 0.985641
O O6 0.715595 0.783796 0.886322
O O7 0.500000 0.872067 0.000000
O O8 0.593098 0.811418 0.169231
O O9 0.792116 0.084640 0.747844
O O10 0.936582 0.000000 0.853686
O O11 0.500000 0.560995 0.500000
O O12 0.764108 0.500000 0.420172
#
# Coordination Sequence:
#
# PCOD8083635 Si02
#       5
#     8   8   8   8   8
#     4  10  18  33  55  79 107 140 172 217 266 311
#     4  10  19  34  54  74 109 144 173 213 263 312
#     4   9  19  34  55  79 102 138 184 219 256 309
#     4   8  15  32  55  78 101 133 177 224 259 302
#     4  10  20  32  53  78 110 143 172 209 264 318
#
# _framework density 22.236986999999999
#
# number of rings (size 3 to 8) (size 9 to 14) (size 15 to 20)
#    0.000    2.600    2.000    1.800    0.000    0.400 
#    0.000   19.000    0.000    0.000    0.000    2.800 
#    0.000    0.000    0.000    0.000    0.000    0.000 
#
# Total GULP energy -247791.506267 kJ/mol
# GULP energy per Si atom -12389.575313 kJ/mol
# Density = 2.218637 g / cm^3
# Si number density = 22.236987 Si / 1000 Ang^3
#
#
#
# Elastic Constant Matrix: (Units=GPa)
#
#
# Indices 1 2 3 4 5 6 
#
# 1 59.2939 26.7487 0.2724 0.0000 13.3117 0.0000
# 2 26.7487 128.7342 19.9044 0.0000 8.0190 0.0000
# 3 0.2724 19.9044 43.1198 0.0000 7.6865 0.0000
# 4 0.0000 0.0000 0.0000 15.0677 0.0000 -1.4850
# 5 13.3117 8.0190 7.6865 0.0000 21.5013 0.0000
# 6 0.0000 0.0000 0.0000 -1.4850 0.0000 3.2621
#
#
#
# Elastic Compliance Matrix: (Units=1/GPa)
#
#
# Indices 1 2 3 4 5 6 
#
# 1 0.021822 -0.004358 0.004264 0.000000 -0.013409 0.000000
# 2 -0.004358 0.009305 -0.004411 0.000000 0.000805 0.000000
# 3 0.004264 -0.004411 0.027105 0.000000 -0.010685 0.000000
# 4 0.000000 0.000000 0.000000 0.069484 0.000000 0.031630
# 5 -0.013409 0.000805 -0.010685 0.000000 0.058330 0.000000
# 6 0.000000 0.000000 0.000000 0.031630 0.000000 0.320947
#
#
# Mechanical properties :
#
#
# Convention : Reuss Voigt Hill
#
# Bulk Modulus (GPa) = 20.31611 36.11098 28.21354
# Shear Modulus (GPa) = 9.39122 20.24773 14.81947
#
# Velocity S-wave (km/s) = 2.05728 3.02079 2.58434
# Velocity P-wave (km/s) = 3.84698 5.33304 4.64976
#
# Compressibility (1/GPa) = 0.04922202
#
# Stress axis : x y z
#
# Youngs Moduli (GPa) = 45.82509 107.46380 36.89325
#
# Poissons Ratio (x) = 0.46836 -0.15732
# Poissons Ratio (y) = 0.19972 0.16275
# Poissons Ratio (z) = -0.19541 0.47406
#
# Static dielectric constant tensor:
#      x y z
#    x 3.423220 0.000000 0.137400 
#    y 0.000000 4.336870 0.000000 
#    z 0.137400 0.000000 4.486640 
# 
# 
# High freq. dielectric constant tensor:
#      x y z
#    x 1.823740 0.000000 0.000830 
#    y 0.000000 1.883900 0.000000 
#    z 0.000830 0.000000 1.861850 
# 
# From -- ./inp_files/132073.got.cif
#   From: 2010.06.25/outbox.cif.g09.slc.cpg/sg12_67_cif.got.tgz:132073.got - 2010.06.28 00:19:55.
