data_PCOD8083511
_publ_section_title
;
Structure prediction by ZEFSAII (Michael W. Deem and Ramdas Pophale) SiO2 
 PCOD8083511
Probable space group: C 2/M
;
_chemical_formula_sum "Si O2"
_cell_formula_units_Z 48
_cell_length_a 8.509820
_cell_length_b 21.127946
_cell_length_c 15.263849
_cell_angle_alpha 90.000000
_cell_angle_beta 101.875093
_cell_angle_gamma 90.000000
_cell_volume 2685.630577
_symmetry_space_group_name_H-M "C 2/M"
_symmetry_group_IT_number 12
_symmetry_cell_setting 'monoclinic'
loop_
_space_group_symop_operation_xyz
x,y,z
-x,y,-z
-x,-y,-z
x,-y,z
1/2+x,1/2+y,z
1/2-x,1/2+y,-z
1/2-x,1/2-y,-z
1/2+x,1/2-y,z
loop_
_atom_site_type_symbol
_atom_site_label
_atom_site_fract_x
_atom_site_fract_y
_atom_site_fract_z
Si Si1 0.621813 0.726692 0.822957
Si Si2 0.309652 0.183603 0.475024
Si Si3 0.879113 0.568094 0.568017
Si Si4 0.705031 0.327118 0.268478
Si Si5 0.067581 0.573276 0.768863
Si Si6 0.444461 0.163940 0.898994
O O1 0.483432 0.680844 0.770649
O O2 0.696602 0.765282 0.750586
O O3 0.550857 0.774920 0.886303
O O4 0.757246 0.682881 0.882230
O O5 0.500000 0.187428 0.500000
O O6 0.250000 0.250000 0.500000
O O7 0.257223 0.126490 0.535691
O O8 0.235704 0.165091 0.374153
O O9 0.789179 0.500000 0.564488
O O10 0.971197 0.581747 0.668209
O O11 0.000000 0.565332 0.500000
O O12 0.763609 0.389772 0.223310
O O13 0.101013 0.500000 0.795437
O O14 0.965764 0.605837 0.834402
O O15 0.500000 0.139696 0.000000
#
# Coordination Sequence:
#
# PCOD8083511 Si02
#       6
#     8   8   8   8   8   8
#     4   9  20  33  55  78 109 135 170 215 277 324
#     4  11  20  29  49  80 108 137 177 220 260 301
#     4   9  17  32  52  73 101 141 184 213 249 312
#     4  10  18  33  50  79 108 141 172 216 265 316
#     4  10  20  35  55  77 105 142 183 219 258 314
#     4  10  20  36  58  80 104 136 175 220 270 324
#
# _framework density 17.872896999999998
#
# number of rings (size 3 to 8) (size 9 to 14) (size 15 to 20)
#    0.000    2.167    3.333    1.500    4.667    0.333 
#    0.000    0.833    0.000    1.500    0.000    0.000 
#    0.000    0.000    0.000    0.000    0.000    0.000 
#
# Total GULP energy -297477.361801 kJ/mol
# GULP energy per Si atom -12394.890075 kJ/mol
# Density = 1.783222 g / cm^3
# Si number density = 17.872897 Si / 1000 Ang^3
#
#
#
# Elastic Constant Matrix: (Units=GPa)
#
#
# Indices 1 2 3 4 5 6 
#
# 1 84.9387 45.8876 43.5252 0.0000 15.3546 0.0000
# 2 45.8876 147.1520 49.7178 0.0000 10.9780 0.0000
# 3 43.5252 49.7178 119.7925 0.0000 7.4299 0.0000
# 4 0.0000 0.0000 0.0000 29.1702 0.0000 -17.0916
# 5 15.3546 10.9780 7.4299 0.0000 20.0532 0.0000
# 6 0.0000 0.0000 0.0000 -17.0916 0.0000 30.7052
#
#
#
# Elastic Compliance Matrix: (Units=1/GPa)
#
#
# Indices 1 2 3 4 5 6 
#
# 1 0.017617 -0.003246 -0.004429 0.000000 -0.010071 0.000000
# 2 -0.003246 0.008706 -0.002346 0.000000 -0.001411 0.000000
# 3 -0.004429 -0.002346 0.010891 0.000000 0.000641 0.000000
# 4 0.000000 0.000000 0.000000 0.050874 0.000000 0.028318
# 5 -0.010071 -0.001411 0.000641 0.000000 0.058114 0.000000
# 6 0.000000 0.000000 0.000000 0.028318 0.000000 0.048331
#
#
# Mechanical properties :
#
#
# Convention : Reuss Voigt Hill
#
# Bulk Modulus (GPa) = 58.23668 70.01605 64.12636
# Shear Modulus (GPa) = 22.69643 30.16924 26.43284
#
# Velocity S-wave (km/s) = 3.56740 4.11297 3.84986
# Velocity P-wave (km/s) = 7.04436 7.86224 7.46451
#
# Compressibility (1/GPa) = 0.01717131
#
# Stress axis : x y z
#
# Youngs Moduli (GPa) = 56.76352 114.86440 91.81784
#
# Poissons Ratio (x) = 0.37283 0.40667
# Poissons Ratio (y) = 0.18424 0.21544
# Poissons Ratio (z) = 0.25141 0.26951
#
# Static dielectric constant tensor:
#      x y z
#    x 3.155920 0.000000 -0.011880 
#    y 0.000000 3.616680 0.000000 
#    z -0.011880 0.000000 3.282570 
# 
# 
# High freq. dielectric constant tensor:
#      x y z
#    x 1.662080 0.000000 -0.001570 
#    y 0.000000 1.697510 0.000000 
#    z -0.001570 0.000000 1.694160 
# 
# From -- ./inp_files/196906.got.cif
#   From: 2010.06.25/outbox.cif.g09.slc.cpg/sg12_99_cif.got.tgz:196906.got - 2010.06.28 00:19:55.
