data_PCOD8083230
_publ_section_title
;
Structure prediction by ZEFSAII (Michael W. Deem and Ramdas Pophale) SiO2 
 PCOD8083230
Probable space group: C 2/M
;
_chemical_formula_sum "Si O2"
_cell_formula_units_Z 64
_cell_length_a 14.682938
_cell_length_b 8.591463
_cell_length_c 29.723405
_cell_angle_alpha 90.000000
_cell_angle_beta 61.701954
_cell_angle_gamma 90.000000
_cell_volume 3301.450673
_symmetry_space_group_name_H-M "C 2/M"
_symmetry_group_IT_number 12
_symmetry_cell_setting 'monoclinic'
loop_
_space_group_symop_operation_xyz
x,y,z
-x,y,-z
-x,-y,-z
x,-y,z
1/2+x,1/2+y,z
1/2-x,1/2+y,-z
1/2-x,1/2-y,-z
1/2+x,1/2-y,z
loop_
_atom_site_type_symbol
_atom_site_label
_atom_site_fract_x
_atom_site_fract_y
_atom_site_fract_z
Si Si1 0.496879 0.820013 0.898335
Si Si2 0.306783 0.315846 0.443720
Si Si3 0.211674 0.319403 0.882697
Si Si4 0.769653 0.316544 0.634295
Si Si5 0.842569 0.315485 0.006457
Si Si6 0.522923 0.815367 0.366386
Si Si7 0.456677 0.316979 0.289861
Si Si8 0.075573 0.682582 0.179473
O O1 0.619290 0.794880 0.869135
O O2 0.445586 0.753360 0.956490
O O3 0.451807 0.745983 0.863236
O O4 0.466749 0.000000 0.904007
O O5 0.313679 0.500000 0.444630
O O6 0.250000 0.250000 0.500000
O O7 0.240586 0.263039 0.415410
O O8 0.423371 0.251529 0.415383
O O9 0.244995 0.500000 0.878392
O O10 0.303871 0.216727 0.841200
O O11 0.169334 0.252715 0.940134
O O12 0.778793 0.500000 0.634926
O O13 0.663366 0.261663 0.683559
O O14 0.872218 0.246941 0.634494
O O15 0.842244 0.500000 0.008875
O O16 0.750000 0.250000 0.000000
O O17 0.520576 0.765922 0.314738
O O18 0.520634 0.000000 0.370344
O O19 0.462713 0.500000 0.297682
O O20 0.507196 0.274544 0.230965
O O21 0.052378 0.500000 0.189442
#
# Coordination Sequence:
#
# PCOD8083230 Si02
#       8
#     8   8   8   8   8   8   8   8
#     4   9  19  35  54  77 106 138 174 215 262 319
#     4  10  20  36  55  83 120 157 191 228 271 317
#     4  10  20  35  56  79 103 138 177 213 262 323
#     4   8  18  36  58  80 109 147 185 224 272 324
#     4  10  18  32  55  78 104 137 172 212 261 317
#     4  10  19  36  60  85 110 144 187 230 276 323
#     4  10  21  39  58  79 108 142 180 224 272 328
#     4  11  22  37  55  78 108 138 173 223 273 317
#
# _framework density 19.385417
#
# number of rings (size 3 to 8) (size 9 to 14) (size 15 to 20)
#    0.000    2.250    1.250    2.625    0.000    3.000 
#    0.000   14.375    0.000    1.500    0.000    0.000 
#    0.000    0.000    0.000    0.000    0.000    0.000 
#
# Total GULP energy -396653.808391 kJ/mol
# GULP energy per Si atom -12395.431512 kJ/mol
# Density = 1.934129 g / cm^3
# Si number density = 19.385417 Si / 1000 Ang^3
#
#
#
# Elastic Constant Matrix: (Units=GPa)
#
#
# Indices 1 2 3 4 5 6 
#
# 1 133.6411 23.7365 48.5769 0.0000 -13.4772 0.0000
# 2 23.7365 42.0719 23.0781 0.0000 -2.6828 0.0000
# 3 48.5769 23.0781 132.4610 0.0000 -15.5166 0.0000
# 4 0.0000 0.0000 0.0000 26.0676 0.0000 -2.1075
# 5 -13.4772 -2.6828 -15.5166 0.0000 17.7752 0.0000
# 6 0.0000 0.0000 0.0000 -2.1075 0.0000 27.0476
#
#
#
# Elastic Compliance Matrix: (Units=1/GPa)
#
#
# Indices 1 2 3 4 5 6 
#
# 1 0.009444 -0.003793 -0.002262 0.000000 0.004613 0.000000
# 2 -0.003793 0.027804 -0.003674 0.000000 -0.001887 0.000000
# 3 -0.002262 -0.003674 0.009750 0.000000 0.006242 0.000000
# 4 0.000000 0.000000 0.000000 0.038605 0.000000 0.003008
# 5 0.004613 -0.001887 0.006242 0.000000 0.064920 0.000000
# 6 0.000000 0.000000 0.000000 0.003008 0.000000 0.037206
#
#
# Mechanical properties :
#
#
# Convention : Reuss Voigt Hill
#
# Bulk Modulus (GPa) = 36.31155 55.43966 45.87560
# Shear Modulus (GPa) = 23.10883 28.36358 25.73621
#
# Velocity S-wave (km/s) = 3.45639 3.82925 3.64759
# Velocity P-wave (km/s) = 5.89074 6.94346 6.43865
#
# Compressibility (1/GPa) = 0.02753945
#
# Stress axis : x y z
#
# Youngs Moduli (GPa) = 105.88839 35.96605 102.56169
#
# Poissons Ratio (x) = 0.13642 0.23200
# Poissons Ratio (y) = 0.40165 0.37683
# Poissons Ratio (z) = 0.23953 0.13214
#
# Static dielectric constant tensor:
#      x y z
#    x 3.743150 0.000000 0.029580 
#    y 0.000000 3.308820 0.000000 
#    z 0.029580 0.000000 3.674700 
# 
# 
# High freq. dielectric constant tensor:
#      x y z
#    x 1.762030 0.000000 -0.003310 
#    y 0.000000 1.730840 0.000000 
#    z -0.003310 0.000000 1.757960 
# 
# From -- ./inp_files/375053.got.cif
#   From: 2010.06.25/outbox.cif.g09.slc.cpg/sg12_188_cif.got.tgz:375053.got - 2010.06.28 00:19:55.
