data_PCOD8083264
_publ_section_title
;
Structure prediction by ZEFSAII (Michael W. Deem and Ramdas Pophale) SiO2 
 PCOD8083264
Probable space group: C 2/M
;
_chemical_formula_sum "Si O2"
_cell_formula_units_Z 56
_cell_length_a 25.243346
_cell_length_b 9.182353
_cell_length_c 14.643725
_cell_angle_alpha 90.000000
_cell_angle_beta 120.418125
_cell_angle_gamma 90.000000
_cell_volume 2927.101774
_symmetry_space_group_name_H-M "C 2/M"
_symmetry_group_IT_number 12
_symmetry_cell_setting 'monoclinic'
loop_
_space_group_symop_operation_xyz
x,y,z
-x,y,-z
-x,-y,-z
x,-y,z
1/2+x,1/2+y,z
1/2-x,1/2+y,-z
1/2-x,1/2-y,-z
1/2+x,1/2-y,z
loop_
_atom_site_type_symbol
_atom_site_label
_atom_site_fract_x
_atom_site_fract_y
_atom_site_fract_z
Si Si1 0.790191 0.828082 0.610392
Si Si2 0.929326 0.171159 0.685803
Si Si3 0.255670 0.669436 0.779550
Si Si4 0.019469 0.172799 0.920163
Si Si5 0.154665 0.826999 0.985497
Si Si6 0.506030 0.171557 0.609808
Si Si7 0.639950 0.169885 0.789955
O O1 0.750000 0.750000 0.500000
O O2 0.860420 0.787634 0.652071
O O3 0.771446 0.764527 0.693831
O O4 0.778387 0.000000 0.594381
O O5 0.972697 0.232048 0.803777
O O6 0.949678 0.251077 0.611355
O O7 0.937578 0.000000 0.678347
O O8 0.271276 0.500000 0.787795
O O9 0.184466 0.698983 0.742047
O O10 0.298731 0.734543 0.897292
O O11 0.087407 0.225728 0.956364
O O12 0.015967 0.000000 0.921454
O O13 0.000000 0.240643 0.000000
O O14 0.168963 0.754927 0.900615
O O15 0.159677 0.000000 0.978467
O O16 0.500000 0.217845 0.500000
O O17 0.571913 0.226487 0.705453
O O18 0.499265 0.000000 0.616464
O O19 0.639186 0.000000 0.813747
#
# Coordination Sequence:
#
# PCOD8083264 Si02
#       7
#     8   8   8   8   8   8   8
#     4  10  22  39  59  82 109 143 184 227 271 321
#     4  10  20  36  57  84 111 136 176 231 277 311
#     4   9  19  35  56  80 108 144 184 222 263 322
#     4   9  16  28  51  79 107 137 171 213 262 318
#     4  10  18  32  55  82 108 139 179 220 269 322
#     4  10  22  37  56  80 107 147 190 221 265 329
#     4  10  20  35  54  79 111 144 179 222 269 319
#
# _framework density 19.131551000000002
#
# number of rings (size 3 to 8) (size 9 to 14) (size 15 to 20)
#    0.000    2.286    1.429    1.286    2.000    4.286 
#    0.000    1.429    0.000    3.429    0.000    0.000 
#    0.000    0.000    0.000    0.000    0.000    0.000 
#
# Total GULP energy -347218.967620 kJ/mol
# GULP energy per Si atom -12400.677415 kJ/mol
# Density = 1.908801 g / cm^3
# Si number density = 19.131551 Si / 1000 Ang^3
#
#
#
# Elastic Constant Matrix: (Units=GPa)
#
#
# Indices 1 2 3 4 5 6 
#
# 1 136.6713 33.1894 56.9360 0.0000 -18.0534 0.0000
# 2 33.1894 24.0443 28.8660 0.0000 -5.9181 0.0000
# 3 56.9360 28.8660 125.3383 0.0000 -17.7254 0.0000
# 4 0.0000 0.0000 0.0000 27.4558 0.0000 -1.2222
# 5 -18.0534 -5.9181 -17.7254 0.0000 38.1789 0.0000
# 6 0.0000 0.0000 0.0000 -1.2222 0.0000 23.7110
#
#
#
# Elastic Compliance Matrix: (Units=1/GPa)
#
#
# Indices 1 2 3 4 5 6 
#
# 1 0.011643 -0.013164 -0.001891 0.000000 0.002587 0.000000
# 2 -0.013164 0.072681 -0.010752 0.000000 0.000050 0.000000
# 3 -0.001891 -0.010752 0.011721 0.000000 0.002881 0.000000
# 4 0.000000 0.000000 0.000000 0.036506 0.000000 0.001882
# 5 0.002587 0.000050 0.002881 0.000000 0.028761 0.000000
# 6 0.000000 0.000000 0.000000 0.001882 0.000000 0.042272
#
#
# Mechanical properties :
#
#
# Convention : Reuss Voigt Hill
#
# Bulk Modulus (GPa) = 22.50698 58.22629 40.36664
# Shear Modulus (GPa) = 18.51787 29.00663 23.76225
#
# Velocity S-wave (km/s) = 3.11452 3.89802 3.52809
# Velocity P-wave (km/s) = 4.97228 7.12462 6.14344
#
# Compressibility (1/GPa) = 0.04443066
#
# Stress axis : x y z
#
# Youngs Moduli (GPa) = 85.88601 13.75872 85.31552
#
# Poissons Ratio (x) = 0.18112 0.16137
# Poissons Ratio (y) = 1.13063 0.91729
# Poissons Ratio (z) = 0.16245 0.14793
#
# Static dielectric constant tensor:
#      x y z
#    x 3.688710 0.000000 -0.011430 
#    y 0.000000 3.052510 0.000000 
#    z -0.011430 0.000000 3.666340 
# 
# 
# High freq. dielectric constant tensor:
#      x y z
#    x 1.761690 0.000000 -0.001260 
#    y 0.000000 1.698790 0.000000 
#    z -0.001260 0.000000 1.754210 
# 
# From -- ./inp_files/174464.got.cif
#   From: 2010.06.25/outbox.cif.g09.slc.cpg/sg12_88_cif.got.tgz:174464.got - 2010.06.28 00:19:55.
