data_PCOD8083685
_publ_section_title
;
Structure prediction by ZEFSAII (Michael W. Deem and Ramdas Pophale) SiO2 
 PCOD8083685
Probable space group: C 2/M
;
_chemical_formula_sum "Si O2"
_cell_formula_units_Z 56
_cell_length_a 27.760874
_cell_length_b 9.138183
_cell_length_c 21.176821
_cell_angle_alpha 90.000000
_cell_angle_beta 147.357100
_cell_angle_gamma 90.000000
_cell_volume 2897.782829
_symmetry_space_group_name_H-M "C 2/M"
_symmetry_group_IT_number 12
_symmetry_cell_setting 'monoclinic'
loop_
_space_group_symop_operation_xyz
x,y,z
-x,y,-z
-x,-y,-z
x,-y,z
1/2+x,1/2+y,z
1/2-x,1/2+y,-z
1/2-x,1/2-y,-z
1/2+x,1/2-y,z
loop_
_atom_site_type_symbol
_atom_site_label
_atom_site_fract_x
_atom_site_fract_y
_atom_site_fract_z
Si Si1 0.267122 0.329625 0.766151
Si Si2 0.835819 0.335184 0.955275
Si Si3 0.504303 0.327313 0.819683
Si Si4 0.918496 0.826500 0.456403
Si Si5 0.508274 0.328213 0.332430
Si Si6 0.932617 0.829339 0.872783
Si Si7 0.187773 0.837136 0.885706
O O1 0.247904 0.500000 0.755763
O O2 0.334404 0.269311 0.893381
O O3 0.174230 0.245220 0.666060
O O4 0.327196 0.301223 0.769861
O O5 0.868521 0.500000 0.974934
O O6 0.735201 0.342069 0.870261
O O7 0.902114 0.259879 0.079100
O O8 0.523042 0.500000 0.844254
O O9 0.454271 0.292206 0.697111
O O10 0.450015 0.268155 0.820903
O O11 0.000000 0.779174 0.500000
O O12 0.934583 0.765851 0.545836
O O13 0.905765 0.000000 0.439331
O O14 0.503157 0.500000 0.338719
O O15 0.408592 0.261899 0.228411
O O16 0.953396 0.000000 0.894973
O O17 0.000000 0.758657 0.000000
O O18 0.175695 0.000000 0.900440
O O19 0.250000 0.750000 0.000000
#
# Coordination Sequence:
#
# PCOD8083685 Si02
#       7
#     8   8   8   8   8   8   8
#     4  11  22  37  58  82 109 145 194 237 276 329
#     4  11  21  32  50  81 117 146 177 225 285 333
#     4  10  18  33  56  79 107 143 188 228 269 335
#     4  10  21  40  61  80 111 150 186 228 280 338
#     4   9  18  33  55  78 104 145 187 222 271 333
#     4   9  17  32  55  82 110 145 185 232 282 326
#     4  10  19  31  49  77 109 140 177 218 268 330
#
# _framework density 19.325120999999999
#
# number of rings (size 3 to 8) (size 9 to 14) (size 15 to 20)
#    0.000    2.000    2.857    1.714    0.000    3.143 
#    0.000    4.286    0.000    0.000    0.000    0.000 
#    0.000    0.000    0.000    0.000    0.000    0.000 
#
# Total GULP energy -346911.541208 kJ/mol
# GULP energy per Si atom -12389.697900 kJ/mol
# Density = 1.928114 g / cm^3
# Si number density = 19.325121 Si / 1000 Ang^3
#
#
#
# Elastic Constant Matrix: (Units=GPa)
#
#
# Indices 1 2 3 4 5 6 
#
# 1 111.1112 25.3875 32.5604 0.0000 -13.3099 0.0000
# 2 25.3875 48.0278 26.7915 0.0000 -1.0366 0.0000
# 3 32.5604 26.7915 81.3833 0.0000 -14.2268 0.0000
# 4 0.0000 0.0000 0.0000 19.6310 0.0000 2.0563
# 5 -13.3099 -1.0366 -14.2268 0.0000 34.8695 0.0000
# 6 0.0000 0.0000 0.0000 2.0563 0.0000 17.5892
#
#
#
# Elastic Compliance Matrix: (Units=1/GPa)
#
#
# Indices 1 2 3 4 5 6 
#
# 1 0.011101 -0.004443 -0.002435 0.000000 0.003112 0.000000
# 2 -0.004443 0.027553 -0.008018 0.000000 -0.004148 0.000000
# 3 -0.002435 -0.008018 0.016903 0.000000 0.005729 0.000000
# 4 0.000000 0.000000 0.000000 0.051571 0.000000 -0.006029
# 5 0.003112 -0.004148 0.005729 0.000000 0.032080 0.000000
# 6 0.000000 0.000000 0.000000 -0.006029 0.000000 0.057558
#
#
# Mechanical properties :
#
#
# Convention : Reuss Voigt Hill
#
# Bulk Modulus (GPa) = 38.81175 45.55571 42.18373
# Shear Modulus (GPa) = 21.26331 24.80346 23.03338
#
# Velocity S-wave (km/s) = 3.32067 3.58646 3.45612
# Velocity P-wave (km/s) = 5.90166 6.38551 6.14835
#
# Compressibility (1/GPa) = 0.02576539
#
# Stress axis : x y z
#
# Youngs Moduli (GPa) = 90.07842 36.29375 59.16197
#
# Poissons Ratio (x) = 0.16124 0.14406
# Poissons Ratio (y) = 0.40020 0.47437
# Poissons Ratio (z) = 0.21934 0.29101
#
# Static dielectric constant tensor:
#      x y z
#    x 3.926450 0.000000 -0.154740 
#    y 0.000000 3.330630 0.000000 
#    z -0.154740 0.000000 3.467710 
# 
# 
# High freq. dielectric constant tensor:
#      x y z
#    x 1.764990 0.000000 -0.010250 
#    y 0.000000 1.718400 0.000000 
#    z -0.010250 0.000000 1.733980 
# 
# From -- ./inp_files/329624.got.cif
#   From: 2010.06.25/outbox.cif.g09.slc.cpg/sg12_165_cif.got.tgz:329624.got - 2010.06.28 00:19:55.
