data_PCOD8083097
_publ_section_title
;
Structure prediction by ZEFSAII (Michael W. Deem and Ramdas Pophale) SiO2 
 PCOD8083097
Probable space group: C 2/M
;
_chemical_formula_sum "Si O2"
_cell_formula_units_Z 48
_cell_length_a 16.407300
_cell_length_b 19.663691
_cell_length_c 8.684934
_cell_angle_alpha 90.000000
_cell_angle_beta 114.334603
_cell_angle_gamma 90.000000
_cell_volume 2553.058381
_symmetry_space_group_name_H-M "C 2/M"
_symmetry_group_IT_number 12
_symmetry_cell_setting 'monoclinic'
loop_
_space_group_symop_operation_xyz
x,y,z
-x,y,-z
-x,-y,-z
x,-y,z
1/2+x,1/2+y,z
1/2-x,1/2+y,-z
1/2-x,1/2-y,-z
1/2+x,1/2-y,z
loop_
_atom_site_type_symbol
_atom_site_label
_atom_site_fract_x
_atom_site_fract_y
_atom_site_fract_z
Si Si1 0.559813 0.576829 0.341936
Si Si2 0.798540 0.166546 0.704896
Si Si3 0.221885 0.684674 0.318166
Si Si4 0.764657 0.574369 0.077799
Si Si5 0.629409 0.610769 0.713204
Si Si6 0.399086 0.922163 0.930200
O O1 0.539742 0.500000 0.265807
O O2 0.616264 0.619076 0.261535
O O3 0.613667 0.567758 0.544171
O O4 0.468941 0.621329 0.290097
O O5 0.824979 0.244289 0.768361
O O6 0.733097 0.176389 0.509640
O O7 0.746814 0.133438 0.807210
O O8 0.317691 0.678931 0.301377
O O9 0.158534 0.622413 0.229885
O O10 0.761466 0.500000 0.155671
O O11 0.689695 0.572856 0.885497
O O12 0.861321 0.585882 0.074320
O O13 0.392254 0.000000 0.868552
O O14 0.500000 0.895687 0.000000
#
# Coordination Sequence:
#
# PCOD8083097 Si02
#       6
#     8   8   8   8   8   8
#     4  10  18  32  53  79 109 142 182 216 262 325
#     4  10  21  35  51  78 113 144 171 220 270 325
#     4   9  20  39  54  72 108 145 184 210 266 335
#     4  10  19  33  54  81 109 137 176 225 271 308
#     4   9  18  32  54  75 104 144 182 221 257 317
#     4   9  19  37  59  79 100 135 186 233 266 315
#
# _framework density 18.800981
#
# number of rings (size 3 to 8) (size 9 to 14) (size 15 to 20)
#    0.000    2.500    0.000    2.500    0.000    8.667 
#    6.000    2.500    0.000    3.000    0.000    0.000 
#    0.000    0.000    0.000    0.000    0.000    0.000 
#
# Total GULP energy -297374.387436 kJ/mol
# GULP energy per Si atom -12390.599476 kJ/mol
# Density = 1.875819 g / cm^3
# Si number density = 18.800981 Si / 1000 Ang^3
#
#
#
# Elastic Constant Matrix: (Units=GPa)
#
#
# Indices 1 2 3 4 5 6 
#
# 1 125.6088 51.1516 38.3652 0.0000 1.3849 0.0000
# 2 51.1516 104.3679 39.1424 0.0000 -3.0195 0.0000
# 3 38.3652 39.1424 53.3246 0.0000 -5.4010 0.0000
# 4 0.0000 0.0000 0.0000 20.9773 0.0000 -5.8795
# 5 1.3849 -3.0195 -5.4010 0.0000 19.8739 0.0000
# 6 0.0000 0.0000 0.0000 -5.8795 0.0000 18.1493
#
#
#
# Elastic Compliance Matrix: (Units=1/GPa)
#
#
# Indices 1 2 3 4 5 6 
#
# 1 0.011144 -0.003351 -0.005849 0.000000 -0.002875 0.000000
# 2 -0.003351 0.014237 -0.008017 0.000000 0.000218 0.000000
# 3 -0.005849 -0.008017 0.029578 0.000000 0.007228 0.000000
# 4 0.000000 0.000000 0.000000 0.052431 0.000000 0.016985
# 5 -0.002875 0.000218 0.007228 0.000000 0.052515 0.000000
# 6 0.000000 0.000000 0.000000 0.016985 0.000000 0.060601
#
#
# Mechanical properties :
#
#
# Convention : Reuss Voigt Hill
#
# Bulk Modulus (GPa) = 48.72305 60.06883 54.39594
# Shear Modulus (GPa) = 19.09973 22.10959 20.60466
#
# Velocity S-wave (km/s) = 3.19076 3.43298 3.31408
# Velocity P-wave (km/s) = 6.28856 6.90891 6.60602
#
# Compressibility (1/GPa) = 0.02052417
#
# Stress axis : x y z
#
# Youngs Moduli (GPa) = 89.73263 70.23847 33.80844
#
# Poissons Ratio (x) = 0.23540 0.19775
# Poissons Ratio (y) = 0.30073 0.27106
# Poissons Ratio (z) = 0.52485 0.56313
#
# Static dielectric constant tensor:
#      x y z
#    x 3.649080 0.000000 -0.039530 
#    y 0.000000 3.499200 0.000000 
#    z -0.039530 0.000000 3.187570 
# 
# 
# High freq. dielectric constant tensor:
#      x y z
#    x 1.729980 0.000000 -0.007490 
#    y 0.000000 1.726410 0.000000 
#    z -0.007490 0.000000 1.709200 
# 
# From -- ./inp_files/63627.got.cif
#   From: 2010.06.25/outbox.cif.g09.slc.cpg/sg12_32_cif.got.tgz:63627.got - 2010.06.28 00:19:55.
