data_PCOD8083970
_publ_section_title
;
Structure prediction by ZEFSAII (Michael W. Deem and Ramdas Pophale) SiO2 
 PCOD8083970
Probable space group: C 2/M
;
_chemical_formula_sum "Si O2"
_cell_formula_units_Z 64
_cell_length_a 28.796100
_cell_length_b 13.764088
_cell_length_c 9.040273
_cell_angle_alpha 90.000000
_cell_angle_beta 79.423964
_cell_angle_gamma 90.000000
_cell_volume 3522.261271
_symmetry_space_group_name_H-M "C 2/M"
_symmetry_group_IT_number 12
_symmetry_cell_setting 'monoclinic'
loop_
_space_group_symop_operation_xyz
x,y,z
-x,y,-z
-x,-y,-z
x,-y,z
1/2+x,1/2+y,z
1/2-x,1/2+y,-z
1/2-x,1/2-y,-z
1/2+x,1/2-y,z
loop_
_atom_site_type_symbol
_atom_site_label
_atom_site_fract_x
_atom_site_fract_y
_atom_site_fract_z
Si Si1 0.878992 0.288705 0.825692
Si Si2 0.858422 0.388583 0.135859
Si Si3 0.568829 0.390787 0.085634
Si Si4 0.731822 0.111386 0.611429
Si Si5 0.400474 0.228024 0.358964
Si Si6 0.447666 0.886427 0.573858
Si Si7 0.536547 0.608993 0.772489
Si Si8 0.686513 0.755044 0.409916
O O1 0.891052 0.181518 0.879149
O O2 0.927608 0.333463 0.731910
O O3 0.837477 0.284324 0.729967
O O4 0.858187 0.356595 0.966091
O O5 0.875312 0.500000 0.137636
O O6 0.806916 0.375950 0.237401
O O7 0.895291 0.318757 0.199771
O O8 0.585707 0.500000 0.113473
O O9 0.518898 0.369058 0.192325
O O10 0.561583 0.379656 0.915592
O O11 0.714510 0.153470 0.463583
O O12 0.778580 0.165794 0.639756
O O13 0.744694 0.000000 0.577074
O O14 0.413463 0.138447 0.457811
O O15 0.439997 0.311374 0.346937
O O16 0.352435 0.277283 0.446209
O O17 0.500000 0.850439 0.500000
O O18 0.446803 0.000000 0.606422
O O19 0.545249 0.500000 0.706419
#
# Coordination Sequence:
#
# PCOD8083970 Si02
#       8
#     8   8   8   8   8   8   8   8
#     4  11  20  34  55  80 108 135 175 222 263 311
#     4  10  20  33  54  78 101 133 174 218 261 315
#     4   9  18  32  50  75 107 142 173 212 264 305
#     4   9  19  39  57  74 103 135 168 211 264 317
#     4  10  18  34  54  76 105 137 177 218 262 304
#     4  10  21  35  50  73 109 147 179 216 264 310
#     4   9  17  31  52  75 103 141 181 212 252 307
#     4   9  21  34  55  80 101 135 169 207 263 323
#
# _framework density 18.170145000000002
#
# number of rings (size 3 to 8) (size 9 to 14) (size 15 to 20)
#    0.000    2.375    1.250    2.250    0.000    5.000 
#    0.000    1.875    0.000    9.750    0.000    0.000 
#    0.000    0.000    0.000    0.000    0.000    0.000 
#
# Total GULP energy -396762.392612 kJ/mol
# GULP energy per Si atom -12398.824769 kJ/mol
# Density = 1.812879 g / cm^3
# Si number density = 18.170145 Si / 1000 Ang^3
#
#
#
# Elastic Constant Matrix: (Units=GPa)
#
#
# Indices 1 2 3 4 5 6 
#
# 1 68.9836 37.8197 27.4342 0.0000 0.6882 0.0000
# 2 37.8197 107.0208 40.5857 0.0000 -8.9047 0.0000
# 3 27.4342 40.5857 75.8008 0.0000 6.1146 0.0000
# 4 0.0000 0.0000 0.0000 22.8420 0.0000 -4.8297
# 5 0.6882 -8.9047 6.1146 0.0000 22.9826 0.0000
# 6 0.0000 0.0000 0.0000 -4.8297 0.0000 28.6020
#
#
#
# Elastic Compliance Matrix: (Units=1/GPa)
#
#
# Indices 1 2 3 4 5 6 
#
# 1 0.019001 -0.005386 -0.003862 0.000000 -0.001628 0.000000
# 2 -0.005386 0.014234 -0.006264 0.000000 0.007343 0.000000
# 3 -0.003862 -0.006264 0.018528 0.000000 -0.007241 0.000000
# 4 0.000000 0.000000 0.000000 0.045400 0.000000 0.007666
# 5 -0.001628 0.007343 -0.007241 0.000000 0.048331 0.000000
# 6 0.000000 0.000000 0.000000 0.007666 0.000000 0.036257
#
#
# Mechanical properties :
#
#
# Convention : Reuss Voigt Hill
#
# Bulk Modulus (GPa) = 48.21743 51.49826 49.85785
# Shear Modulus (GPa) = 22.75955 24.61638 23.68796
#
# Velocity S-wave (km/s) = 3.54302 3.68471 3.61456
# Velocity P-wave (km/s) = 6.58267 6.81957 6.70217
#
# Compressibility (1/GPa) = 0.02073939
#
# Stress axis : x y z
#
# Youngs Moduli (GPa) = 52.62912 70.25572 53.97125
#
# Poissons Ratio (x) = 0.37836 0.20844
# Poissons Ratio (y) = 0.28343 0.33809
# Poissons Ratio (z) = 0.20326 0.44010
#
# Static dielectric constant tensor:
#      x y z
#    x 3.254780 0.000000 -0.111430 
#    y 0.000000 3.369220 0.000000 
#    z -0.111430 0.000000 3.266980 
# 
# 
# High freq. dielectric constant tensor:
#      x y z
#    x 1.694150 0.000000 -0.003100 
#    y 0.000000 1.709870 0.000000 
#    z -0.003100 0.000000 1.697320 
# 
# From -- ./inp_files/104501.got.cif
#   From: 2010.06.25/outbox.cif.g09.slc.cpg/sg12_53_cif.got.tgz:104501.got - 2010.06.28 00:19:55.
