data_PCOD8083103
_publ_section_title
;
Structure prediction by ZEFSAII (Michael W. Deem and Ramdas Pophale) SiO2 
 PCOD8083103
Probable space group: C 2/M
;
_chemical_formula_sum "Si O2"
_cell_formula_units_Z 64
_cell_length_a 24.036202
_cell_length_b 9.152059
_cell_length_c 15.253123
_cell_angle_alpha 90.000000
_cell_angle_beta 73.556174
_cell_angle_gamma 90.000000
_cell_volume 3218.150061
_symmetry_space_group_name_H-M "C 2/M"
_symmetry_group_IT_number 12
_symmetry_cell_setting 'monoclinic'
loop_
_space_group_symop_operation_xyz
x,y,z
-x,y,-z
-x,-y,-z
x,-y,z
1/2+x,1/2+y,z
1/2-x,1/2+y,-z
1/2-x,1/2-y,-z
1/2+x,1/2-y,z
loop_
_atom_site_type_symbol
_atom_site_label
_atom_site_fract_x
_atom_site_fract_y
_atom_site_fract_z
Si Si1 0.508997 0.828765 0.180758
Si Si2 0.604020 0.170444 0.556748
Si Si3 0.689380 0.670277 0.861444
Si Si4 0.623770 0.167412 0.746660
Si Si5 0.367077 0.664892 0.616671
Si Si6 0.608213 0.669718 0.059068
Si Si7 0.489677 0.333378 0.644118
Si Si8 0.192385 0.172690 0.178568
O O1 0.441488 0.796641 0.192499
O O2 0.549011 0.765046 0.085008
O O3 0.529581 0.744772 0.258168
O O4 0.519633 0.000000 0.188954
O O5 0.631297 0.200203 0.640067
O O6 0.646252 0.234675 0.462386
O O7 0.542352 0.249330 0.575578
O O8 0.593973 0.000000 0.545801
O O9 0.702197 0.500000 0.847046
O O10 0.668788 0.730521 0.776926
O O11 0.747437 0.748294 0.867379
O O12 0.639998 0.704284 0.954283
O O13 0.639258 0.000000 0.760502
O O14 0.347402 0.500000 0.604027
O O15 0.435597 0.670125 0.603308
O O16 0.331981 0.724139 0.716280
O O17 0.591832 0.500000 0.074775
O O18 0.648357 0.720027 0.122007
O O19 0.508201 0.500000 0.656129
O O20 0.202152 0.000000 0.171944
#
# Coordination Sequence:
#
# PCOD8083103 Si02
#       8
#     8   8   8   8   8   8   8   8
#     4  10  20  34  57  88 117 150 191 234 282 334
#     4  10  21  35  54  83 115 149 190 235 280 330
#     4  11  24  39  60  87 110 145 197 244 283 330
#     4   9  21  41  58  78 115 156 191 230 284 339
#     4  10  20  34  55  83 112 151 190 223 280 346
#     4  10  21  39  60  86 119 149 183 230 290 350
#     4  10  18  32  53  80 118 155 186 224 280 345
#     4  10  21  40  61  82 116 154 186 227 286 348
#
# _framework density 19.887203
#
# number of rings (size 3 to 8) (size 9 to 14) (size 15 to 20)
#    0.000    2.000    1.250    3.000    0.000    8.000 
#    0.000    3.125    0.000    0.000    0.000    0.000 
#    0.000    0.000    0.000    0.000    0.000    0.000 
#
# Total GULP energy -396870.454063 kJ/mol
# GULP energy per Si atom -12402.201689 kJ/mol
# Density = 1.984194 g / cm^3
# Si number density = 19.887203 Si / 1000 Ang^3
#
#
#
# Elastic Constant Matrix: (Units=GPa)
#
#
# Indices 1 2 3 4 5 6 
#
# 1 34.8216 16.5495 2.8064 0.0000 8.8472 0.0000
# 2 16.5495 74.9295 25.7676 0.0000 4.8523 0.0000
# 3 2.8064 25.7676 64.3774 0.0000 7.7674 0.0000
# 4 0.0000 0.0000 0.0000 31.1773 0.0000 -5.1555
# 5 8.8472 4.8523 7.7674 0.0000 13.7710 0.0000
# 6 0.0000 0.0000 0.0000 -5.1555 0.0000 29.1558
#
#
#
# Elastic Compliance Matrix: (Units=1/GPa)
#
#
# Indices 1 2 3 4 5 6 
#
# 1 0.038618 -0.008560 0.004692 0.000000 -0.024440 0.000000
# 2 -0.008560 0.017430 -0.007003 0.000000 0.003307 0.000000
# 3 0.004692 -0.007003 0.019527 0.000000 -0.011560 0.000000
# 4 0.000000 0.000000 0.000000 0.033041 0.000000 0.005842
# 5 -0.024440 0.003307 -0.011560 0.000000 0.093673 0.000000
# 6 0.000000 0.000000 0.000000 0.005842 0.000000 0.035332
#
#
# Mechanical properties :
#
#
# Convention : Reuss Voigt Hill
#
# Bulk Modulus (GPa) = 18.57617 29.37505 23.97561
# Shear Modulus (GPa) = 18.03059 23.42115 20.72587
#
# Velocity S-wave (km/s) = 3.01432 3.43549 3.23177
# Velocity P-wave (km/s) = 4.63421 5.52627 5.09978
#
# Compressibility (1/GPa) = 0.05383242
#
# Stress axis : x y z
#
# Youngs Moduli (GPa) = 25.89497 57.37078 51.21232
#
# Poissons Ratio (x) = 0.49110 -0.24027
# Poissons Ratio (y) = 0.22166 0.35862
# Poissons Ratio (z) = -0.12149 0.40174
#
# Static dielectric constant tensor:
#      x y z
#    x 3.329700 0.000000 -0.077580 
#    y 0.000000 3.595790 0.000000 
#    z -0.077580 0.000000 3.713480 
# 
# 
# High freq. dielectric constant tensor:
#      x y z
#    x 1.753170 0.000000 -0.003500 
#    y 0.000000 1.776810 0.000000 
#    z -0.003500 0.000000 1.784140 
# 
# From -- ./inp_files/243894.got.cif
#   From: 2010.06.25/outbox.cif.g09.slc.cpg/sg12_122_cif.got.tgz:243894.got - 2010.06.28 00:19:55.
