data_PCOD8083631
_publ_section_title
;
Structure prediction by ZEFSAII (Michael W. Deem and Ramdas Pophale) SiO2 
 PCOD8083631
Probable space group: C 2/M
;
_chemical_formula_sum "Si O2"
_cell_formula_units_Z 56
_cell_length_a 14.223327
_cell_length_b 18.297066
_cell_length_c 13.770272
_cell_angle_alpha 90.000000
_cell_angle_beta 121.192247
_cell_angle_gamma 90.000000
_cell_volume 3065.574348
_symmetry_space_group_name_H-M "C 2/M"
_symmetry_group_IT_number 12
_symmetry_cell_setting 'monoclinic'
loop_
_space_group_symop_operation_xyz
x,y,z
-x,y,-z
-x,-y,-z
x,-y,z
1/2+x,1/2+y,z
1/2-x,1/2+y,-z
1/2-x,1/2-y,-z
1/2+x,1/2-y,z
loop_
_atom_site_type_symbol
_atom_site_label
_atom_site_fract_x
_atom_site_fract_y
_atom_site_fract_z
Si Si1 0.164253 0.146786 0.323177
Si Si2 0.889860 0.417026 0.491145
Si Si3 0.151224 0.226938 0.014160
Si Si4 0.915930 0.721466 0.822275
Si Si5 0.376262 0.579272 0.904148
Si Si6 0.845097 0.417820 0.685796
Si Si7 0.603589 0.586007 0.492174
O O1 0.293771 0.136106 0.405760
O O2 0.143631 0.232740 0.294647
O O3 0.125065 0.101171 0.209305
O O4 0.097670 0.123048 0.383367
O O5 0.862427 0.500000 0.443466
O O6 0.904940 0.414217 0.614369
O O7 0.000000 0.387971 0.500000
O O8 0.151638 0.272518 0.113935
O O9 0.172725 0.141737 0.051879
O O10 0.250000 0.250000 0.000000
O O11 0.037144 0.243886 0.898419
O O12 0.912431 0.636294 0.792097
O O13 0.316157 0.500000 0.886067
O O14 0.500000 0.569415 0.000000
O O15 0.853492 0.500000 0.733082
O O16 0.717035 0.394221 0.607895
O O17 0.500000 0.613496 0.500000
O O18 0.598660 0.500000 0.471008
#
# Coordination Sequence:
#
# PCOD8083631 Si02
#       7
#     8   8   8   8   8   8   8
#     4  10  18  33  55  78 110 144 174 222 274 321
#     4   9  18  32  51  79 110 141 177 216 263 318
#     4  10  21  40  56  77 112 143 174 230 284 327
#     4  10  21  38  54  77 103 141 185 221 280 332
#     4  10  18  34  59  87 111 138 182 230 278 329
#     4   9  19  36  53  72 103 141 178 220 261 316
#     4   9  18  32  50  78 112 144 177 213 260 318
#
# _framework density 18.267375999999999
#
# number of rings (size 3 to 8) (size 9 to 14) (size 15 to 20)
#    0.000    2.429    2.857    2.143    0.000    5.714 
#    0.000    5.714    0.000    0.000    0.000    0.000 
#    0.000    0.000    0.000    0.000    0.000    0.000 
#
# Total GULP energy -347078.927526 kJ/mol
# GULP energy per Si atom -12395.675983 kJ/mol
# Density = 1.822580 g / cm^3
# Si number density = 18.267376 Si / 1000 Ang^3
#
#
#
# Elastic Constant Matrix: (Units=GPa)
#
#
# Indices 1 2 3 4 5 6 
#
# 1 152.6916 42.8028 38.8404 0.0000 -8.0011 0.0000
# 2 42.8028 126.8597 53.5143 0.0000 -8.9162 0.0000
# 3 38.8404 53.5143 78.4844 0.0000 -9.0725 0.0000
# 4 0.0000 0.0000 0.0000 30.2320 0.0000 -1.5902
# 5 -8.0011 -8.9162 -9.0725 0.0000 13.1179 0.0000
# 6 0.0000 0.0000 0.0000 -1.5902 0.0000 19.8242
#
#
#
# Elastic Compliance Matrix: (Units=1/GPa)
#
#
# Indices 1 2 3 4 5 6 
#
# 1 0.007706 -0.001333 -0.002680 0.000000 0.001940 0.000000
# 2 -0.001333 0.011372 -0.006842 0.000000 0.002185 0.000000
# 3 -0.002680 -0.006842 0.019571 0.000000 0.007250 0.000000
# 4 0.000000 0.000000 0.000000 0.033218 0.000000 0.002665
# 5 0.001940 0.002185 0.007250 0.000000 0.083915 0.000000
# 6 0.000000 0.000000 0.000000 0.002665 0.000000 0.050657
#
#
# Mechanical properties :
#
#
# Convention : Reuss Voigt Hill
#
# Bulk Modulus (GPa) = 59.03565 69.81672 64.42619
# Shear Modulus (GPa) = 21.38614 27.49337 24.43975
#
# Velocity S-wave (km/s) = 3.42530 3.88371 3.66169
# Velocity P-wave (km/s) = 6.93046 7.64286 7.29536
#
# Compressibility (1/GPa) = 0.01693892
#
# Stress axis : x y z
#
# Youngs Moduli (GPa) = 129.76315 87.93378 51.09568
#
# Poissons Ratio (x) = 0.11722 0.13696
# Poissons Ratio (y) = 0.17298 0.34959
# Poissons Ratio (z) = 0.34783 0.60163
#
# Static dielectric constant tensor:
#      x y z
#    x 3.322680 0.000000 -0.036880 
#    y 0.000000 5.599500 0.000000 
#    z -0.036880 0.000000 3.396010 
# 
# 
# High freq. dielectric constant tensor:
#      x y z
#    x 1.694080 0.000000 -0.003960 
#    y 0.000000 1.707880 0.000000 
#    z -0.003960 0.000000 1.703110 
# 
# From -- ./inp_files/216445.got.cif
#   From: 2010.06.25/outbox.cif.g09.slc.cpg/sg12_109_cif.got.tgz:216445.got - 2010.06.28 00:19:55.
