data_PCOD8083085
_publ_section_title
;
Structure prediction by ZEFSAII (Michael W. Deem and Ramdas Pophale) SiO2 
 PCOD8083085
Probable space group: C 2/M
;
_chemical_formula_sum "Si O2"
_cell_formula_units_Z 64
_cell_length_a 25.048658
_cell_length_b 9.007106
_cell_length_c 29.191992
_cell_angle_alpha 90.000000
_cell_angle_beta 30.014747
_cell_angle_gamma 90.000000
_cell_volume 3294.556989
_symmetry_space_group_name_H-M "C 2/M"
_symmetry_group_IT_number 12
_symmetry_cell_setting 'monoclinic'
loop_
_space_group_symop_operation_xyz
x,y,z
-x,y,-z
-x,-y,-z
x,-y,z
1/2+x,1/2+y,z
1/2-x,1/2+y,-z
1/2-x,1/2-y,-z
1/2+x,1/2-y,z
loop_
_atom_site_type_symbol
_atom_site_label
_atom_site_fract_x
_atom_site_fract_y
_atom_site_fract_z
Si Si1 0.526170 0.831519 0.030390
Si Si2 0.514269 0.327043 0.794465
Si Si3 0.208101 0.333617 0.767201
Si Si4 0.628714 0.672329 0.280635
Si Si5 0.245027 0.174669 0.650428
Si Si6 0.344254 0.675339 0.994049
Si Si7 0.958798 0.823983 0.480461
Si Si8 0.135631 0.173804 0.173284
O O1 0.418700 0.826850 0.139697
O O2 0.613196 0.724242 0.987780
O O3 0.571567 0.000000 0.993593
O O4 0.500000 0.768270 0.000000
O O5 0.522274 0.500000 0.799932
O O6 0.633352 0.260559 0.712739
O O7 0.426472 0.260428 0.894952
O O8 0.475084 0.297331 0.771650
O O9 0.247839 0.500000 0.723629
O O10 0.255351 0.297557 0.782579
O O11 0.252337 0.214672 0.698628
O O12 0.605888 0.500000 0.290664
O O13 0.539496 0.736719 0.381485
O O14 0.625079 0.743758 0.232320
O O15 0.344779 0.253214 0.551956
O O16 0.254883 0.000000 0.636074
O O17 0.332017 0.500000 0.000003
O O18 0.228188 0.748172 0.074730
O O19 0.000000 0.772011 0.500000
O O20 0.948556 0.000000 0.486635
O O21 0.163285 0.000000 0.154295
#
# Coordination Sequence:
#
# PCOD8083085 Si02
#       8
#     8   8   8   8   8   8   8   8
#     4  10  20  33  52  78 108 144 189 229 263 318
#     4   9  20  37  56  78 110 148 185 224 268 321
#     4  10  18  32  53  78 106 138 177 223 268 315
#     4   9  18  34  58  82 105 136 178 227 274 318
#     4  11  21  35  54  80 111 142 176 216 268 330
#     4  11  21  35  53  79 114 146 181 226 278 326
#     4  10  19  35  58  82 109 138 175 225 273 320
#     4  10  20  38  60  79 103 144 192 230 266 317
#
# _framework density 19.425979000000002
#
# number of rings (size 3 to 8) (size 9 to 14) (size 15 to 20)
#    0.000    2.000    2.500    1.875    0.000    2.500 
#    0.000    5.000    0.000    0.000    0.000    0.000 
#    0.000    0.000    0.000    0.000    0.000    0.000 
#
# Total GULP energy -396713.924800 kJ/mol
# GULP energy per Si atom -12397.310150 kJ/mol
# Density = 1.938176 g / cm^3
# Si number density = 19.425979 Si / 1000 Ang^3
#
#
#
# Elastic Constant Matrix: (Units=GPa)
#
#
# Indices 1 2 3 4 5 6 
#
# 1 103.6746 17.6649 36.9971 0.0167 -11.3256 -0.0223
# 2 17.6649 36.0484 22.1459 0.0250 -6.8477 -0.0338
# 3 36.9971 22.1459 94.8198 0.0038 -15.0949 -0.0101
# 4 0.0167 0.0250 0.0038 26.1029 -0.0030 -4.3719
# 5 -11.3256 -6.8477 -15.0949 -0.0030 29.0417 0.0089
# 6 -0.0223 -0.0338 -0.0101 -4.3719 0.0089 20.4636
#
#
#
# Elastic Compliance Matrix: (Units=1/GPa)
#
#
# Indices 1 2 3 4 5 6 
#
# 1 0.011649 -0.003192 -0.003485 -0.000003 0.001979 0.000004
# 2 -0.003192 0.033703 -0.006061 -0.000022 0.003552 0.000043
# 3 -0.003485 -0.006061 0.014039 0.000005 0.004509 -0.000008
# 4 -0.000003 -0.000022 0.000005 0.039732 -0.000002 0.008488
# 5 0.001979 0.003552 0.004509 -0.000002 0.038386 -0.000007
# 6 0.000004 0.000043 -0.000008 0.008488 -0.000007 0.050681
#
#
# Mechanical properties :
#
#
# Convention : Reuss Voigt Hill
#
# Bulk Modulus (GPa) = 29.48395 43.12872 36.30633
# Shear Modulus (GPa) = 22.22522 25.63732 23.93127
#
# Velocity S-wave (km/s) = 3.38612 3.63677 3.51368
# Velocity P-wave (km/s) = 5.52253 6.31542 5.93224
#
# Compressibility (1/GPa) = 0.03391676
#
# Stress axis : x y z
#
# Youngs Moduli (GPa) = 85.84307 29.67131 71.22813
#
# Poissons Ratio (x) = 0.09470 0.24822
# Poissons Ratio (y) = 0.27398 0.43169
# Poissons Ratio (z) = 0.29915 0.17983
#
# Static dielectric constant tensor:
#      x y z
#    x 3.611590 -0.000010 -0.052400 
#    y -0.000010 3.173710 0.000000 
#    z -0.052400 0.000000 3.721470 
# 
# 
# High freq. dielectric constant tensor:
#      x y z
#    x 1.754960 0.000000 -0.009300 
#    y 0.000000 1.716450 0.000000 
#    z -0.009300 0.000000 1.758130 
# 
# From -- ./inp_files/382385.got.cif
#   From: 2010.06.25/outbox.cif.g09.slc.cpg/sg12_192_cif.got.tgz:382385.got - 2010.06.28 00:19:55.
