data_PCOD8083113
_publ_section_title
;
Structure prediction by ZEFSAII (Michael W. Deem and Ramdas Pophale) SiO2 
 PCOD8083113
Probable space group: C 2/M
;
_chemical_formula_sum "Si O2"
_cell_formula_units_Z 32
_cell_length_a 22.495507
_cell_length_b 7.604736
_cell_length_c 12.157983
_cell_angle_alpha 90.000000
_cell_angle_beta 120.514309
_cell_angle_gamma 90.000000
_cell_volume 1791.834696
_symmetry_space_group_name_H-M "C 2/M"
_symmetry_group_IT_number 12
_symmetry_cell_setting 'monoclinic'
loop_
_space_group_symop_operation_xyz
x,y,z
-x,y,-z
-x,-y,-z
x,-y,z
1/2+x,1/2+y,z
1/2-x,1/2+y,-z
1/2-x,1/2-y,-z
1/2+x,1/2-y,z
loop_
_atom_site_type_symbol
_atom_site_label
_atom_site_fract_x
_atom_site_fract_y
_atom_site_fract_z
Si Si1 0.255399 0.205981 0.340498
Si Si2 0.207951 0.700717 0.067723
Si Si3 0.948819 0.000000 0.789559
Si Si4 0.600556 0.500000 0.008748
Si Si5 0.635635 0.195823 0.382800
O O1 0.259450 0.271559 0.219130
O O2 0.327940 0.249592 0.467725
O O3 0.193302 0.306011 0.342112
O O4 0.238418 0.000000 0.330461
O O5 0.182248 0.500000 0.037404
O O6 0.250000 0.750000 0.000000
O O7 0.141496 0.824201 0.016363
O O8 0.926304 0.827836 0.701005
O O9 0.030901 0.000000 0.873255
O O10 0.913657 0.000000 0.875344
O O11 0.604074 0.000000 0.360772
#
# Coordination Sequence:
#
# PCOD8083113 Si02
#       5
#     8   8   4   4   8
#     4  10  18  32  53  84 116 139 190 240 283 324
#     4  12  22  37  60  83 113 148 194 238 278 331
#     4  11  22  38  57  79 133 150 182 231 281 361
#     4  11  24  40  53  87 119 160 186 225 289 340
#     4  10  19  31  54  83 113 149 182 235 285 332
#
# _framework density 17.858789999999999
#
# number of rings (size 3 to 8) (size 9 to 14) (size 15 to 20)
#    0.000    1.250    6.250    0.750    3.500    1.000 
#    0.000    2.500    0.000    3.000    0.000    5.250 
#    0.000    0.000    0.000    0.000    0.000    0.000 
#
# Total GULP energy -198432.777499 kJ/mol
# GULP energy per Si atom -12402.048594 kJ/mol
# Density = 1.781814 g / cm^3
# Si number density = 17.858790 Si / 1000 Ang^3
#
#
#
# Elastic Constant Matrix: (Units=GPa)
#
#
# Indices 1 2 3 4 5 6 
#
# 1 73.8623 45.8563 62.3710 0.0000 -0.0274 0.0000
# 2 45.8563 148.2522 70.6610 0.0000 19.7829 0.0000
# 3 62.3710 70.6610 154.1713 0.0000 4.4820 0.0000
# 4 0.0000 0.0000 0.0000 29.1385 0.0000 -1.9252
# 5 -0.0274 19.7829 4.4820 0.0000 31.9772 0.0000
# 6 0.0000 0.0000 0.0000 -1.9252 0.0000 17.6344
#
#
#
# Elastic Compliance Matrix: (Units=1/GPa)
#
#
# Indices 1 2 3 4 5 6 
#
# 1 0.022043 -0.003805 -0.007273 0.000000 0.003392 0.000000
# 2 -0.003805 0.010091 -0.002916 0.000000 -0.005837 0.000000
# 3 -0.007273 -0.002916 0.010757 0.000000 0.000290 0.000000
# 4 0.000000 0.000000 0.000000 0.034568 0.000000 0.003774
# 5 0.003392 -0.005837 0.000290 0.000000 0.034846 0.000000
# 6 0.000000 0.000000 0.000000 0.003774 0.000000 0.057119
#
#
# Mechanical properties :
#
#
# Convention : Reuss Voigt Hill
#
# Bulk Modulus (GPa) = 67.09541 81.56246 74.32894
# Shear Modulus (GPa) = 24.70621 28.90985 26.80803
#
# Velocity S-wave (km/s) = 3.72347 4.02780 3.87862
# Velocity P-wave (km/s) = 7.49247 8.20980 7.85932
#
# Compressibility (1/GPa) = 0.01490415
#
# Stress axis : x y z
#
# Youngs Moduli (GPa) = 45.36577 99.09949 92.96677
#
# Poissons Ratio (x) = 0.37703 0.67611
# Poissons Ratio (y) = 0.17260 0.27110
# Poissons Ratio (z) = 0.32992 0.28898
#
# Static dielectric constant tensor:
#      x y z
#    x 2.879680 0.000000 -0.074550 
#    y 0.000000 2.958310 0.000000 
#    z -0.074550 0.000000 3.648870 
# 
# 
# High freq. dielectric constant tensor:
#      x y z
#    x 1.637500 0.000000 -0.007140 
#    y 0.000000 1.712280 0.000000 
#    z -0.007140 0.000000 1.705010 
# 
# From -- ./inp_files/171328.got.cif
#   From: 2010.06.25/outbox.cif.g09.slc.cpg/sg12_86_cif.got.tgz:171328.got - 2010.06.28 00:19:55.
