data_PCOD8083972
_publ_section_title
;
Structure prediction by ZEFSAII (Michael W. Deem and Ramdas Pophale) SiO2 
 PCOD8083972
Probable space group: C 2/M
;
_chemical_formula_sum "Si O2"
_cell_formula_units_Z 56
_cell_length_a 15.772379
_cell_length_b 14.364608
_cell_length_c 26.670350
_cell_angle_alpha 90.000000
_cell_angle_beta 29.993281
_cell_angle_gamma 90.000000
_cell_volume 3020.657456
_symmetry_space_group_name_H-M "C 2/M"
_symmetry_group_IT_number 12
_symmetry_cell_setting 'monoclinic'
loop_
_space_group_symop_operation_xyz
x,y,z
-x,y,-z
-x,-y,-z
x,-y,z
1/2+x,1/2+y,z
1/2-x,1/2+y,-z
1/2-x,1/2-y,-z
1/2+x,1/2-y,z
loop_
_atom_site_type_symbol
_atom_site_label
_atom_site_fract_x
_atom_site_fract_y
_atom_site_fract_z
Si Si1 0.526480 0.391112 0.062762
Si Si2 0.933545 0.242532 0.305441
Si Si3 0.085614 0.106550 0.774577
Si Si4 0.224848 0.389970 0.147632
Si Si5 0.814869 0.898989 0.443248
Si Si6 0.467010 0.850556 0.574032
Si Si7 0.096684 0.840752 0.494991
O O1 0.496161 0.500000 0.078896
O O2 0.518121 0.354487 0.124035
O O3 0.369294 0.352643 0.111060
O O4 0.706598 0.368985 0.944015
O O5 0.974157 0.170807 0.240363
O O6 0.924859 0.183122 0.361647
O O7 0.751868 0.287595 0.388701
O O8 0.064012 0.326769 0.241921
O O9 0.286027 0.110633 0.684228
O O10 0.036178 0.000000 0.787547
O O11 0.179862 0.500000 0.176669
O O12 0.614816 0.889921 0.534406
O O13 0.841897 0.900543 0.489485
O O14 0.876225 0.000000 0.392075
O O15 0.500000 0.883760 0.500000
O O16 0.465893 0.738926 0.579977
O O17 0.000000 0.899176 0.500000
#
# Coordination Sequence:
#
# PCOD8083972 Si02
#       7
#     8   8   8   8   8   8   8
#     4   8  18  35  56  81 108 132 174 234 281 323
#     4  11  21  33  56  81 109 141 184 227 265 330
#     4  11  20  31  54  83 111 142 174 222 280 321
#     4   9  19  37  56  80 107 137 178 230 280 320
#     4  11  23  35  52  79 113 151 184 221 270 323
#     4  10  18  34  54  77 111 142 180 229 272 313
#     4  10  21  38  50  73 110 151 188 225 255 310
#
# _framework density 18.539010000000001
#
# number of rings (size 3 to 8) (size 9 to 14) (size 15 to 20)
#    0.000    2.000    4.286    3.429    4.000    2.000 
#    0.000    0.000    0.000    0.000    0.000    8.000 
#    0.000    0.000    0.000    0.000    0.000    0.000 
#
# Total GULP energy -346941.463678 kJ/mol
# GULP energy per Si atom -12390.766560 kJ/mol
# Density = 1.849681 g / cm^3
# Si number density = 18.539010 Si / 1000 Ang^3
#
#
#
# Elastic Constant Matrix: (Units=GPa)
#
#
# Indices 1 2 3 4 5 6 
#
# 1 113.1182 21.8504 15.2492 0.0011 4.3923 -0.0001
# 2 21.8504 77.2187 28.1223 -0.0003 -6.0573 0.0003
# 3 15.2492 28.1223 44.0733 -0.0012 6.6542 0.0008
# 4 0.0011 -0.0003 -0.0012 26.7943 0.0005 2.3183
# 5 4.3923 -6.0573 6.6542 0.0005 23.4449 0.0000
# 6 -0.0001 0.0003 0.0008 2.3183 0.0000 17.1990
#
#
#
# Elastic Compliance Matrix: (Units=1/GPa)
#
#
# Indices 1 2 3 4 5 6 
#
# 1 0.009568 -0.002295 -0.001553 0.000000 -0.001945 0.000000
# 2 -0.002295 0.018884 -0.012597 0.000000 0.008884 0.000000
# 3 -0.001553 -0.012597 0.033132 0.000002 -0.012367 -0.000001
# 4 0.000000 0.000000 0.000002 0.037762 -0.000001 -0.005090
# 5 -0.001945 0.008884 -0.012367 -0.000001 0.048823 0.000000
# 6 0.000000 0.000000 -0.000001 -0.005090 0.000000 0.058829
#
#
# Mechanical properties :
#
#
# Convention : Reuss Voigt Hill
#
# Bulk Modulus (GPa) = 34.84869 40.53931 37.69400
# Shear Modulus (GPa) = 20.04390 24.76687 22.40538
#
# Velocity S-wave (km/s) = 3.29169 3.65901 3.48020
# Velocity P-wave (km/s) = 5.76934 6.30600 6.04363
#
# Compressibility (1/GPa) = 0.02869548
#
# Stress axis : x y z
#
# Youngs Moduli (GPa) = 104.51082 52.95455 30.18235
#
# Poissons Ratio (x) = 0.12151 0.04687
# Poissons Ratio (y) = 0.23980 0.38021
# Poissons Ratio (z) = 0.16230 0.66707
#
# Static dielectric constant tensor:
#      x y z
#    x 3.651770 0.000000 0.324240 
#    y 0.000000 3.222840 0.000000 
#    z 0.324240 0.000000 3.477880 
# 
# 
# High freq. dielectric constant tensor:
#      x y z
#    x 1.720780 0.000000 0.015770 
#    y 0.000000 1.702750 0.000000 
#    z 0.015770 0.000000 1.698060 
# 
# From -- ./inp_files/361385.got.cif
#   From: 2010.06.25/outbox.cif.g09.slc.cpg/sg12_181_cif.got.tgz:361385.got - 2010.06.28 00:19:55.
