data_PCOD8083760
_publ_section_title
;
Structure prediction by ZEFSAII (Michael W. Deem and Ramdas Pophale) SiO2 
 PCOD8083760
Probable space group: C 2/M
;
_chemical_formula_sum "Si O2"
_cell_formula_units_Z 64
_cell_length_a 28.823735
_cell_length_b 8.759963
_cell_length_c 14.419312
_cell_angle_alpha 90.000000
_cell_angle_beta 120.570169
_cell_angle_gamma 90.000000
_cell_volume 3134.755842
_symmetry_space_group_name_H-M "C 2/M"
_symmetry_group_IT_number 12
_symmetry_cell_setting 'monoclinic'
loop_
_space_group_symop_operation_xyz
x,y,z
-x,y,-z
-x,-y,-z
x,-y,z
1/2+x,1/2+y,z
1/2-x,1/2+y,-z
1/2-x,1/2-y,-z
1/2+x,1/2-y,z
loop_
_atom_site_type_symbol
_atom_site_label
_atom_site_fract_x
_atom_site_fract_y
_atom_site_fract_z
Si Si1 0.905440 0.168926 0.035725
Si Si2 0.808769 0.821015 0.814797
Si Si3 0.991564 0.322798 0.890633
Si Si4 0.884811 0.829775 0.217649
Si Si5 0.769181 0.181739 0.116698
Si Si6 0.000871 0.177436 0.609932
Si Si7 0.304011 0.680846 0.596211
Si Si8 0.085572 0.318086 0.345283
O O1 0.870808 0.167493 0.094064
O O2 0.952831 0.288446 0.104822
O O3 0.929406 0.000000 0.040739
O O4 0.868223 0.221823 0.912490
O O5 0.765851 0.728885 0.830948
O O6 0.806579 0.769094 0.706178
O O7 0.797376 0.000000 0.815836
O O8 0.981909 0.500000 0.894195
O O9 0.942535 0.258409 0.778942
O O10 0.000000 0.242457 0.000000
O O11 0.830023 0.757887 0.204013
O O12 0.941914 0.748147 0.298123
O O13 0.891974 0.000000 0.265326
O O14 0.768908 0.000000 0.105862
O O15 0.750000 0.250000 0.000000
O O16 0.950291 0.264235 0.604163
O O17 0.000000 0.201740 0.500000
O O18 0.996187 0.000000 0.634128
O O19 0.303670 0.500000 0.584695
O O20 0.250000 0.750000 0.500000
O O21 0.354874 0.746954 0.591072
O O22 0.089647 0.500000 0.352676
#
# Coordination Sequence:
#
# PCOD8083760 Si02
#       8
#     8   8   8   8   8   8   8   8
#     4  10  18  33  57  81 115 153 194 244 291 351
#     4  10  22  40  60  89 122 157 203 255 308 367
#     4  10  21  35  53  84 123 157 193 241 297 355
#     4   9  18  34  55  81 115 153 195 244 293 350
#     4  11  21  35  57  85 122 164 206 254 307 365
#     4  10  21  39  63  89 119 159 206 251 299 359
#     4  11  25  45  68  90 120 159 204 254 306 365
#     4  11  23  40  63  91 125 159 199 250 303 362
#
# _framework density 20.416262
#
# number of rings (size 3 to 8) (size 9 to 14) (size 15 to 20)
#    0.000    1.750    2.500    1.875    0.000    3.500 
#    0.000    2.500    0.000    0.000    0.000    0.000 
#    0.000    0.000    0.000    0.000    0.000    0.000 
#
# Total GULP energy -396604.655893 kJ/mol
# GULP energy per Si atom -12393.895497 kJ/mol
# Density = 2.036979 g / cm^3
# Si number density = 20.416262 Si / 1000 Ang^3
#
#
#
# Elastic Constant Matrix: (Units=GPa)
#
#
# Indices 1 2 3 4 5 6 
#
# 1 139.7008 40.7124 55.6153 0.0000 19.8772 0.0000
# 2 40.7124 54.2530 31.9022 0.0000 2.7791 0.0000
# 3 55.6153 31.9022 118.2609 0.0000 15.4341 0.0000
# 4 0.0000 0.0000 0.0000 25.7547 0.0000 0.7140
# 5 19.8772 2.7791 15.4341 0.0000 35.2846 0.0000
# 6 0.0000 0.0000 0.0000 0.7140 0.0000 34.4844
#
#
#
# Elastic Compliance Matrix: (Units=1/GPa)
#
#
# Indices 1 2 3 4 5 6 
#
# 1 0.010677 -0.006144 -0.002802 0.000000 -0.004305 0.000000
# 2 -0.006144 0.025470 -0.004424 0.000000 0.003390 0.000000
# 3 -0.002802 -0.004424 0.011364 0.000000 -0.003044 0.000000
# 4 0.000000 0.000000 0.000000 0.038850 0.000000 -0.000804
# 5 -0.004305 0.003390 -0.003044 0.000000 0.031831 0.000000
# 6 0.000000 0.000000 0.000000 -0.000804 0.000000 0.029015
#
#
# Mechanical properties :
#
#
# Convention : Reuss Voigt Hill
#
# Bulk Modulus (GPa) = 48.14194 63.18605 55.66400
# Shear Modulus (GPa) = 27.64406 31.37038 29.50722
#
# Velocity S-wave (km/s) = 3.68370 3.92412 3.80581
# Velocity P-wave (km/s) = 6.45943 7.17967 6.82905
#
# Compressibility (1/GPa) = 0.02077191
#
# Stress axis : x y z
#
# Youngs Moduli (GPa) = 93.66324 39.26120 87.99578
#
# Poissons Ratio (x) = 0.24122 0.24654
# Poissons Ratio (y) = 0.57546 0.38930
# Poissons Ratio (z) = 0.26242 0.17369
#
# Static dielectric constant tensor:
#      x y z
#    x 3.782060 0.000000 0.063720 
#    y 0.000000 3.479110 0.000000 
#    z 0.063720 0.000000 3.851060 
# 
# 
# High freq. dielectric constant tensor:
#      x y z
#    x 1.808970 0.000000 0.006040 
#    y 0.000000 1.774750 0.000000 
#    z 0.006040 0.000000 1.800080 
# 
# From -- ./inp_files/249186.got.cif
#   From: 2010.06.25/outbox.cif.g09.slc.cpg/sg12_125_cif.got.tgz:249186.got - 2010.06.28 00:19:55.
