data_PCOD8083008
_publ_section_title
;
Structure prediction by ZEFSAII (Michael W. Deem and Ramdas Pophale) SiO2 
 PCOD8083008
Probable space group: C 2/M
;
_chemical_formula_sum "Si O2"
_cell_formula_units_Z 48
_cell_length_a 20.604569
_cell_length_b 25.879425
_cell_length_c 5.262005
_cell_angle_alpha 90.000000
_cell_angle_beta 51.364721
_cell_angle_gamma 90.000000
_cell_volume 2191.776001
_symmetry_space_group_name_H-M "C 2/M"
_symmetry_group_IT_number 12
_symmetry_cell_setting 'monoclinic'
loop_
_space_group_symop_operation_xyz
x,y,z
-x,y,-z
-x,-y,-z
x,-y,z
1/2+x,1/2+y,z
1/2-x,1/2+y,-z
1/2-x,1/2-y,-z
1/2+x,1/2-y,z
loop_
_atom_site_type_symbol
_atom_site_label
_atom_site_fract_x
_atom_site_fract_y
_atom_site_fract_z
Si Si1 0.095101 0.890023 0.240918
Si Si2 0.590098 0.939594 0.061795
Si Si3 0.653968 0.783749 0.482583
Si Si4 0.654437 0.720329 0.973465
Si Si5 0.098691 0.058728 0.734001
Si Si6 0.905469 0.396152 0.446729
O O1 0.135937 0.906659 0.410747
O O2 0.000000 0.906725 0.500000
O O3 0.100256 0.829676 0.166487
O O4 0.137709 0.921092 0.903718
O O5 0.500741 0.912795 0.247420
O O6 0.638753 0.912568 0.179341
O O7 0.580348 0.000000 0.137673
O O8 0.637513 0.927835 0.681201
O O9 0.622105 0.747829 0.793627
O O10 0.750339 0.797016 0.292920
O O11 0.600868 0.835849 0.601661
O O12 0.641269 0.757761 0.242232
O O13 0.126126 0.000000 0.618618
O O14 0.000000 0.064444 0.000000
#
# Coordination Sequence:
#
# PCOD8083008 Si02
#       6
#     8   8   8   8   8   8
#     4  10  19  33  52  78 106 133 167 212 272 307
#     4  10  19  33  54  80 112 140 170 213 272 325
#     4  10  21  37  56  72 101 141 190 213 258 316
#     4  10  21  38  54  74 101 145 177 221 265 318
#     4   9  17  30  52  76 101 132 165 200 250 319
#     4  10  18  32  52  77 101 135 180 216 251 312
#
# _framework density 21.90005
#
# number of rings (size 3 to 8) (size 9 to 14) (size 15 to 20)
#    0.000    2.167    0.000    5.000    0.000    2.000 
#    9.000    0.000    0.000    8.000    0.000    0.000 
#    0.000    0.000    0.000    0.000    0.000    0.000 
#
# Total GULP energy -297443.362104 kJ/mol
# GULP energy per Si atom -12393.473421 kJ/mol
# Density = 2.185020 g / cm^3
# Si number density = 21.900050 Si / 1000 Ang^3
#
#
#
# Elastic Constant Matrix: (Units=GPa)
#
#
# Indices 1 2 3 4 5 6 
#
# 1 45.9276 34.4293 52.6820 0.0000 39.5591 0.0000
# 2 34.4293 158.9512 54.6001 0.0000 25.6712 0.0000
# 3 52.6820 54.6001 107.9654 0.0000 62.6655 0.0000
# 4 0.0000 0.0000 0.0000 34.0114 0.0000 22.9463
# 5 39.5591 25.6712 62.6655 0.0000 46.4448 0.0000
# 6 0.0000 0.0000 0.0000 22.9463 0.0000 20.0913
#
#
#
# Elastic Compliance Matrix: (Units=1/GPa)
#
#
# Indices 1 2 3 4 5 6 
#
# 1 0.092096 -0.009484 0.010812 0.000000 -0.087788 0.000000
# 2 -0.009484 0.008805 -0.007788 0.000000 0.013719 0.000000
# 3 0.010812 -0.007788 0.049669 0.000000 -0.071920 0.000000
# 4 0.000000 0.000000 0.000000 0.128133 0.000000 -0.146341
# 5 -0.087788 0.013719 -0.071920 0.000000 0.185759 0.000000
# 6 0.000000 0.000000 0.000000 -0.146341 0.000000 0.216909
#
#
# Mechanical properties :
#
#
# Convention : Reuss Voigt Hill
#
# Bulk Modulus (GPa) = 7.26481 66.25190 36.75836
# Shear Modulus (GPa) = 6.75516 31.51837 19.13676
#
# Velocity S-wave (km/s) = 1.75819 3.79778 2.95926
# Velocity P-wave (km/s) = 2.72876 7.03907 5.33829
#
# Compressibility (1/GPa) = 0.13764989
#
# Stress axis : x y z
#
# Youngs Moduli (GPa) = 10.85820 113.57167 20.13319
#
# Poissons Ratio (x) = 1.07713 -0.21768
# Poissons Ratio (y) = 0.10298 0.15680
# Poissons Ratio (z) = -0.11740 0.88449
#
# Static dielectric constant tensor:
#      x y z
#    x 6.551310 0.000000 4.206030 
#    y 0.000000 3.808540 0.000000 
#    z 4.206030 0.000000 8.776310 
# 
# 
# High freq. dielectric constant tensor:
#      x y z
#    x 1.832450 0.000000 0.052900 
#    y 0.000000 1.865070 0.000000 
#    z 0.052900 0.000000 1.863800 
# 
# From -- ./inp_files/21501.got.cif
#   From: 2010.06.25/outbox.cif.g09.slc.cpg/sg12_11_cif.got.tgz:21501.got - 2010.06.28 00:19:55.
