data_PCOD8083492
_publ_section_title
;
Structure prediction by ZEFSAII (Michael W. Deem and Ramdas Pophale) SiO2 
 PCOD8083492
Probable space group: C 2/M
;
_chemical_formula_sum "Si O2"
_cell_formula_units_Z 64
_cell_length_a 12.326208
_cell_length_b 23.912778
_cell_length_c 18.505164
_cell_angle_alpha 90.000000
_cell_angle_beta 45.396854
_cell_angle_gamma 90.000000
_cell_volume 3883.513560
_symmetry_space_group_name_H-M "C 2/M"
_symmetry_group_IT_number 12
_symmetry_cell_setting 'monoclinic'
loop_
_space_group_symop_operation_xyz
x,y,z
-x,y,-z
-x,-y,-z
x,-y,z
1/2+x,1/2+y,z
1/2-x,1/2+y,-z
1/2-x,1/2-y,-z
1/2+x,1/2-y,z
loop_
_atom_site_type_symbol
_atom_site_label
_atom_site_fract_x
_atom_site_fract_y
_atom_site_fract_z
Si Si1 0.340635 0.324531 0.433485
Si Si2 0.789421 0.846596 0.170866
Si Si3 0.330931 0.270221 0.732990
Si Si4 0.714713 0.063308 0.459714
Si Si5 0.820730 0.239637 0.579546
Si Si6 0.132214 0.821947 0.019844
Si Si7 0.159304 0.696617 0.949053
Si Si8 0.623228 0.937039 0.339786
O O1 0.501210 0.294804 0.348812
O O2 0.341231 0.392101 0.428423
O O3 0.236575 0.300912 0.417381
O O4 0.271147 0.306975 0.544065
O O5 0.676859 0.794912 0.241235
O O6 0.712431 0.900669 0.240129
O O7 0.959751 0.837501 0.123265
O O8 0.804459 0.857063 0.077690
O O9 0.253544 0.276903 0.689729
O O10 0.247948 0.305727 0.832445
O O11 0.553628 0.080269 0.570734
O O12 0.705077 0.067626 0.378365
O O13 0.762468 0.000000 0.459766
O O14 0.000000 0.244894 0.500000
O O15 0.242906 0.835505 0.035697
O O16 0.127018 0.757755 0.996532
O O17 0.000000 0.667653 0.000000
O O18 0.632819 0.000000 0.306524
#
# Coordination Sequence:
#
# PCOD8083492 Si02
#       8
#     8   8   8   8   8   8   8   8
#     4  10  20  31  47  72 101 135 164 200 248 303
#     4  10  18  33  50  73 106 135 165 207 256 305
#     4  10  20  29  48  73  99 137 161 202 246 300
#     4   9  19  34  49  71 101 133 170 207 240 292
#     4   9  20  31  41  70 108 128 161 198 250 296
#     4   9  19  32  46  71 100 137 169 206 253 296
#     4  10  18  33  46  66 102 135 174 201 241 305
#     4   9  19  32  51  74 100 133 168 203 248 303
#
# _framework density 16.479921999999998
#
# number of rings (size 3 to 8) (size 9 to 14) (size 15 to 20)
#    0.000    2.500    2.500    1.500   10.500    1.000 
#    0.000    1.250    0.000    3.375    0.000    0.000 
#    0.000    2.500    0.000    0.000    0.000    0.000 
#
# Total GULP energy -396531.262243 kJ/mol
# GULP energy per Si atom -12391.601945 kJ/mol
# Density = 1.644241 g / cm^3
# Si number density = 16.479922 Si / 1000 Ang^3
#
#
#
# Elastic Constant Matrix: (Units=GPa)
#
#
# Indices 1 2 3 4 5 6 
#
# 1 102.5553 31.8396 40.9429 -0.0001 12.0830 0.0000
# 2 31.8396 85.0647 43.4912 0.0000 -4.0366 0.0000
# 3 40.9429 43.4912 101.0898 -0.0001 12.7992 -0.0001
# 4 -0.0001 0.0000 -0.0001 24.2012 0.0001 0.6152
# 5 12.0830 -4.0366 12.7992 0.0001 22.4436 0.0001
# 6 0.0000 0.0000 -0.0001 0.6152 0.0001 15.1158
#
#
#
# Elastic Compliance Matrix: (Units=1/GPa)
#
#
# Indices 1 2 3 4 5 6 
#
# 1 0.012689 -0.003559 -0.002869 0.000000 -0.005835 0.000000
# 2 -0.003559 0.017133 -0.007073 0.000000 0.009031 0.000000
# 3 -0.002869 -0.007073 0.015157 0.000000 -0.008371 0.000000
# 4 0.000000 0.000000 0.000000 0.041363 0.000000 -0.001683
# 5 -0.005835 0.009031 -0.008371 0.000000 0.054096 0.000000
# 6 0.000000 0.000000 0.000000 -0.001683 0.000000 0.066225
#
#
# Mechanical properties :
#
#
# Convention : Reuss Voigt Hill
#
# Bulk Modulus (GPa) = 55.62933 57.91745 56.77339
# Shear Modulus (GPa) = 20.86320 23.84785 22.35552
#
# Velocity S-wave (km/s) = 3.56192 3.80818 3.68711
# Velocity P-wave (km/s) = 7.12358 7.38626 7.25611
#
# Compressibility (1/GPa) = 0.01797613
#
# Stress axis : x y z
#
# Youngs Moduli (GPa) = 78.80956 58.36793 65.97656
#
# Poissons Ratio (x) = 0.20776 0.18928
# Poissons Ratio (y) = 0.28052 0.46663
# Poissons Ratio (z) = 0.22610 0.41282
#
# Static dielectric constant tensor:
#      x y z
#    x 3.253240 0.000000 0.232480 
#    y 0.000000 2.817590 0.000000 
#    z 0.232480 0.000000 3.399710 
# 
# 
# High freq. dielectric constant tensor:
#      x y z
#    x 1.628120 0.000000 0.006410 
#    y 0.000000 1.590510 0.000000 
#    z 0.006410 0.000000 1.644840 
# 
# From -- ./inp_files/265520.got.cif
#   From: 2010.06.25/outbox.cif.g09.slc.cpg/sg12_133_cif.got.tgz:265520.got - 2010.06.28 00:19:55.
