data_PCOD8083734
_publ_section_title
;
Structure prediction by ZEFSAII (Michael W. Deem and Ramdas Pophale) SiO2 
 PCOD8083734
Probable space group: C 2/M
;
_chemical_formula_sum "Si O2"
_cell_formula_units_Z 56
_cell_length_a 29.844003
_cell_length_b 9.051134
_cell_length_c 11.757402
_cell_angle_alpha 90.000000
_cell_angle_beta 109.054014
_cell_angle_gamma 90.000000
_cell_volume 3001.928281
_symmetry_space_group_name_H-M "C 2/M"
_symmetry_group_IT_number 12
_symmetry_cell_setting 'monoclinic'
loop_
_space_group_symop_operation_xyz
x,y,z
-x,y,-z
-x,-y,-z
x,-y,z
1/2+x,1/2+y,z
1/2-x,1/2+y,-z
1/2-x,1/2-y,-z
1/2+x,1/2-y,z
loop_
_atom_site_type_symbol
_atom_site_label
_atom_site_fract_x
_atom_site_fract_y
_atom_site_fract_z
Si Si1 0.452842 0.331379 0.033680
Si Si2 0.403875 0.670700 0.352019
Si Si3 0.309371 0.327074 0.150973
Si Si4 0.018847 0.325096 0.719098
Si Si5 0.081244 0.170709 0.380411
Si Si6 0.370263 0.325136 0.804499
Si Si7 0.284006 0.673504 0.875837
O O1 0.442648 0.500000 0.064317
O O2 0.455969 0.228701 0.145590
O O3 0.500000 0.323458 0.000000
O O4 0.410793 0.264908 0.922270
O O5 0.414063 0.500000 0.331045
O O6 0.358645 0.730693 0.244587
O O7 0.450379 0.764803 0.360644
O O8 0.393615 0.691572 0.477417
O O9 0.304426 0.500000 0.167102
O O10 0.266224 0.251831 0.182541
O O11 0.307654 0.284738 0.016643
O O12 0.017605 0.500000 0.713707
O O13 0.965891 0.265831 0.667069
O O14 0.118614 0.225693 0.315311
O O15 0.067045 0.000000 0.346720
O O16 0.370863 0.500000 0.813548
O O17 0.319072 0.267954 0.805321
O O18 0.275261 0.500000 0.860630
#
# Coordination Sequence:
#
# PCOD8083734 Si02
#       7
#     8   8   8   8   8   8   8
#     4  10  18  33  57  78 103 139 179 219 255 303
#     4  10  21  37  58  77  99 138 187 229 259 306
#     4   9  18  34  54  78 104 130 171 222 266 309
#     4  12  24  35  51  78 113 143 173 219 273 322
#     4  10  20  37  57  76 101 140 188 224 256 309
#     4   9  17  32  55  81 105 135 177 220 260 307
#     4   9  17  31  54  79 105 134 165 209 268 327
#
# _framework density 18.654677
#
# number of rings (size 3 to 8) (size 9 to 14) (size 15 to 20)
#    0.000    2.143    1.429    2.571    0.000    5.429 
#    0.000    5.000    0.000    0.000    0.000    0.000 
#    0.000    0.000    0.000    0.000    0.000    0.000 
#
# Total GULP energy -347222.411973 kJ/mol
# GULP energy per Si atom -12400.800428 kJ/mol
# Density = 1.861222 g / cm^3
# Si number density = 18.654677 Si / 1000 Ang^3
#
#
#
# Elastic Constant Matrix: (Units=GPa)
#
#
# Indices 1 2 3 4 5 6 
#
# 1 140.3136 41.4165 45.0645 0.0000 -19.4555 0.0000
# 2 41.4165 61.1470 29.4244 0.0000 -6.0517 0.0000
# 3 45.0645 29.4244 80.0178 0.0000 -16.6966 0.0000
# 4 0.0000 0.0000 0.0000 8.9879 0.0000 -0.4003
# 5 -19.4555 -6.0517 -16.6966 0.0000 23.5143 0.0000
# 6 0.0000 0.0000 0.0000 -0.4003 0.0000 26.6843
#
#
#
# Elastic Compliance Matrix: (Units=1/GPa)
#
#
# Indices 1 2 3 4 5 6 
#
# 1 0.010248 -0.005068 -0.002830 0.000000 0.005165 0.000000
# 2 -0.005068 0.022377 -0.005925 0.000000 -0.002642 0.000000
# 3 -0.002830 -0.005925 0.018153 0.000000 0.009023 0.000000
# 4 0.000000 0.000000 0.000000 0.111335 0.000000 0.001670
# 5 0.005165 -0.002642 0.009023 0.000000 0.052528 0.000000
# 6 0.000000 0.000000 0.000000 0.001670 0.000000 0.037500
#
#
# Mechanical properties :
#
#
# Convention : Reuss Voigt Hill
#
# Bulk Modulus (GPa) = 43.23343 57.03213 50.13278
# Shear Modulus (GPa) = 17.39143 22.87550 20.13347
#
# Velocity S-wave (km/s) = 3.05664 3.50560 3.28879
# Velocity P-wave (km/s) = 5.97356 6.85745 6.43071
#
# Compressibility (1/GPa) = 0.02313025
#
# Stress axis : x y z
#
# Youngs Moduli (GPa) = 97.58011 44.68929 55.08837
#
# Poissons Ratio (x) = 0.22650 0.15590
# Poissons Ratio (y) = 0.49456 0.32642
# Poissons Ratio (z) = 0.27615 0.26480
#
# Static dielectric constant tensor:
#      x y z
#    x 3.606220 0.000000 -0.139490 
#    y 0.000000 3.154410 0.000000 
#    z -0.139490 0.000000 3.534280 
# 
# 
# High freq. dielectric constant tensor:
#      x y z
#    x 1.729220 0.000000 -0.008850 
#    y 0.000000 1.693340 0.000000 
#    z -0.008850 0.000000 1.720940 
# 
# From -- ./inp_files/186428.got.cif
#   From: 2010.06.25/outbox.cif.g09.slc.cpg/sg12_94_cif.got.tgz:186428.got - 2010.06.28 00:19:55.
