data_PCOD8083573
_publ_section_title
;
Structure prediction by ZEFSAII (Michael W. Deem and Ramdas Pophale) SiO2 
 PCOD8083573
Probable space group: C 2/M
;
_chemical_formula_sum "Si O2"
_cell_formula_units_Z 64
_cell_length_a 23.330216
_cell_length_b 8.675441
_cell_length_c 18.103064
_cell_angle_alpha 90.000000
_cell_angle_beta 93.129262
_cell_angle_gamma 90.000000
_cell_volume 3658.595168
_symmetry_space_group_name_H-M "C 2/M"
_symmetry_group_IT_number 12
_symmetry_cell_setting 'monoclinic'
loop_
_space_group_symop_operation_xyz
x,y,z
-x,y,-z
-x,-y,-z
x,-y,z
1/2+x,1/2+y,z
1/2-x,1/2+y,-z
1/2-x,1/2-y,-z
1/2+x,1/2-y,z
loop_
_atom_site_type_symbol
_atom_site_label
_atom_site_fract_x
_atom_site_fract_y
_atom_site_fract_z
Si Si1 0.299431 0.178538 0.081829
Si Si2 0.615365 0.182109 0.353014
Si Si3 0.321126 0.175079 0.927870
Si Si4 0.812334 0.818136 0.515299
Si Si5 0.873394 0.682540 0.380582
Si Si6 0.000420 0.681573 0.582550
Si Si7 0.667792 0.319884 0.218653
Si Si8 0.798504 0.320977 0.242215
O O1 0.246796 0.295983 0.072464
O O2 0.328552 0.209691 0.164168
O O3 0.277226 0.000000 0.078914
O O4 0.342519 0.206411 0.014714
O O5 0.664652 0.263310 0.404118
O O6 0.553016 0.245760 0.373826
O O7 0.624686 0.228817 0.268739
O O8 0.620347 0.000000 0.363146
O O9 0.350059 0.283119 0.867761
O O10 0.333470 0.000000 0.905407
O O11 0.750000 0.750000 0.500000
O O12 0.854670 0.760272 0.455014
O O13 0.808131 0.000000 0.514078
O O14 0.864994 0.500000 0.388409
O O15 0.940191 0.724231 0.372110
O O16 0.836774 0.754449 0.309868
O O17 0.993280 0.500000 0.575026
O O18 0.000000 0.753745 0.500000
O O19 0.661711 0.500000 0.232657
O O20 0.732964 0.259069 0.237271
O O21 0.796188 0.500000 0.259691
#
# Coordination Sequence:
#
# PCOD8083573 Si02
#       8
#     8   8   8   8   8   8   8   8
#     4   8  14  25  40  63  95 126 158 196 235 281
#     4  11  21  35  53  72  95 125 163 203 245 294
#     4   9  15  24  41  64  92 128 162 191 233 288
#     4  12  24  36  50  71  98 129 162 197 241 290
#     4  10  18  33  54  72  94 127 163 199 243 294
#     4   9  17  32  53  74  94 120 158 204 250 291
#     4  10  19  31  45  68 101 129 159 200 243 289
#     4   8  15  27  46  69  94 124 155 191 236 284
#
# _framework density 17.493051999999999
#
# number of rings (size 3 to 8) (size 9 to 14) (size 15 to 20)
#    0.000    2.375    1.250    3.750    0.000    1.500 
#    0.000    4.375    0.000    0.000    0.000    0.875 
#    0.000    7.000    0.000    0.000    0.000    0.000 
#
# Total GULP energy -396545.698198 kJ/mol
# GULP energy per Si atom -12392.053069 kJ/mol
# Density = 1.745324 g / cm^3
# Si number density = 17.493052 Si / 1000 Ang^3
#
#
#
# Elastic Constant Matrix: (Units=GPa)
#
#
# Indices 1 2 3 4 5 6 
#
# 1 71.3176 24.9976 33.0709 0.0000 -20.8122 0.0000
# 2 24.9976 51.3584 17.9977 0.0000 -3.3157 0.0000
# 3 33.0709 17.9977 117.2399 0.0000 -22.9583 0.0000
# 4 0.0000 0.0000 0.0000 24.4020 0.0000 -3.1475
# 5 -20.8122 -3.3157 -22.9583 0.0000 17.1660 0.0000
# 6 0.0000 0.0000 0.0000 -3.1475 0.0000 13.2983
#
#
#
# Elastic Compliance Matrix: (Units=1/GPa)
#
#
# Indices 1 2 3 4 5 6 
#
# 1 0.026733 -0.011089 0.000121 0.000000 0.030431 0.000000
# 2 -0.011089 0.025180 -0.003276 0.000000 -0.012962 0.000000
# 3 0.000121 -0.003276 0.012062 0.000000 0.015646 0.000000
# 4 0.000000 0.000000 0.000000 0.042271 0.000000 0.010005
# 5 0.030431 -0.012962 0.015646 0.000000 0.113570 0.000000
# 6 0.000000 0.000000 0.000000 0.010005 0.000000 0.077565
#
#
# Mechanical properties :
#
#
# Convention : Reuss Voigt Hill
#
# Bulk Modulus (GPa) = 28.18005 43.56091 35.87048
# Shear Modulus (GPa) = 14.80608 21.89658 18.35133
#
# Velocity S-wave (km/s) = 2.91245 3.54182 3.24244
# Velocity P-wave (km/s) = 5.23966 6.45615 5.87945
#
# Compressibility (1/GPa) = 0.03548609
#
# Stress axis : x y z
#
# Youngs Moduli (GPa) = 37.40653 39.71479 82.90395
#
# Poissons Ratio (x) = 0.44041 -0.00999
# Poissons Ratio (y) = 0.41482 0.27155
# Poissons Ratio (z) = -0.00451 0.13009
#
# Static dielectric constant tensor:
#      x y z
#    x 3.095890 0.000000 -0.037260 
#    y 0.000000 3.087210 0.000000 
#    z -0.037260 0.000000 3.699720 
# 
# 
# High freq. dielectric constant tensor:
#      x y z
#    x 1.628060 0.000000 -0.011760 
#    y 0.000000 1.659560 0.000000 
#    z -0.011760 0.000000 1.693310 
# 
# From -- ./inp_files/287622.got.cif
#   From: 2010.06.25/outbox.cif.g09.slc.cpg/sg12_144_cif.got.tgz:287622.got - 2010.06.28 00:19:55.
