data_PCOD8083974
_publ_section_title
;
Structure prediction by ZEFSAII (Michael W. Deem and Ramdas Pophale) SiO2 
 PCOD8083974
Probable space group: C 2/M
;
_chemical_formula_sum "Si O2"
_cell_formula_units_Z 44
_cell_length_a 24.224573
_cell_length_b 15.562332
_cell_length_c 8.398666
_cell_angle_alpha 90.000000
_cell_angle_beta 134.186232
_cell_angle_gamma 90.000000
_cell_volume 2270.427218
_symmetry_space_group_name_H-M "C 2/M"
_symmetry_group_IT_number 12
_symmetry_cell_setting 'monoclinic'
loop_
_space_group_symop_operation_xyz
x,y,z
-x,y,-z
-x,-y,-z
x,-y,z
1/2+x,1/2+y,z
1/2-x,1/2+y,-z
1/2-x,1/2-y,-z
1/2+x,1/2-y,z
loop_
_atom_site_type_symbol
_atom_site_label
_atom_site_fract_x
_atom_site_fract_y
_atom_site_fract_z
Si Si1 0.857103 0.000000 0.813926
Si Si2 0.582818 0.158782 0.222886
Si Si3 0.093648 0.821641 0.028361
Si Si4 0.187170 0.500000 0.458209
Si Si5 0.733671 0.500000 0.070710
Si Si6 0.546790 0.257972 0.442805
Si Si7 0.688672 0.323116 0.906708
O O1 0.903013 0.911953 0.867140
O O2 0.844666 0.000000 0.980844
O O3 0.773499 0.000000 0.557811
O O4 0.607465 0.244452 0.178886
O O5 0.644181 0.084885 0.311248
O O6 0.579456 0.178856 0.405075
O O7 0.500000 0.124650 0.000000
O O8 0.161784 0.816267 0.035996
O O9 0.009471 0.815454 0.779723
O O10 0.192269 0.500000 0.662117
O O11 0.731406 0.414014 0.959147
O O12 0.500000 0.220025 0.500000
O O13 0.616835 0.316873 0.642769
O O14 0.750000 0.250000 0.000000
#
# Coordination Sequence:
#
# PCOD8083974 Si02
#       7
#     4   8   8   4   4   8   8
#     4   8  18  34  52  79 108 144 174 223 269 317
#     4  10  20  36  57  81 107 144 183 226 270 324
#     4   9  19  36  55  79 111 141 184 220 272 325
#     4  10  19  34  54  80 110 144 182 223 273 315
#     4   8  18  32  48  76 105 138 178 209 269 311
#     4   9  19  34  56  81 106 144 181 218 277 324
#     4  10  18  34  54  78 109 143 178 226 265 320
#
# _framework density 19.379612999999999
#
# number of rings (size 3 to 8) (size 9 to 14) (size 15 to 20)
#    0.545    2.182    0.000    1.364    0.000    1.455 
#    0.000   10.000    0.000    4.364    0.000    0.000 
#    0.000    0.000    0.000    0.000    0.000    0.000 
#
# Total GULP energy -272676.436218 kJ/mol
# GULP energy per Si atom -12394.383464 kJ/mol
# Density = 1.933550 g / cm^3
# Si number density = 19.379613 Si / 1000 Ang^3
#
#
#
# Elastic Constant Matrix: (Units=GPa)
#
#
# Indices 1 2 3 4 5 6 
#
# 1 51.1563 41.3611 26.2520 0.0000 3.0575 0.0000
# 2 41.3611 168.6898 68.2431 0.0000 10.7623 0.0000
# 3 26.2520 68.2431 95.2521 0.0000 3.5393 0.0000
# 4 0.0000 0.0000 0.0000 25.7016 0.0000 6.4920
# 5 3.0575 10.7623 3.5393 0.0000 24.7432 0.0000
# 6 0.0000 0.0000 0.0000 6.4920 0.0000 26.1259
#
#
#
# Elastic Compliance Matrix: (Units=1/GPa)
#
#
# Indices 1 2 3 4 5 6 
#
# 1 0.025212 -0.004708 -0.003555 0.000000 -0.000559 0.000000
# 2 -0.004708 0.009423 -0.005351 0.000000 -0.002751 0.000000
# 3 -0.003555 -0.005351 0.015290 0.000000 0.000580 0.000000
# 4 0.000000 0.000000 0.000000 0.041514 0.000000 -0.010316
# 5 -0.000559 -0.002751 0.000580 0.000000 0.041598 0.000000
# 6 0.000000 0.000000 0.000000 -0.010316 0.000000 0.040840
#
#
# Mechanical properties :
#
#
# Convention : Reuss Voigt Hill
#
# Bulk Modulus (GPa) = 44.05774 65.20117 54.62946
# Shear Modulus (GPa) = 23.96126 27.26360 25.61243
#
# Velocity S-wave (km/s) = 3.52009 3.75483 3.63935
# Velocity P-wave (km/s) = 6.26935 7.24676 6.77570
#
# Compressibility (1/GPa) = 0.02269749
#
# Stress axis : x y z
#
# Youngs Moduli (GPa) = 39.66347 106.12668 65.40046
#
# Poissons Ratio (x) = 0.49965 0.23248
# Poissons Ratio (y) = 0.18674 0.34996
# Poissons Ratio (z) = 0.14099 0.56789
#
# Static dielectric constant tensor:
#      x y z
#    x 3.390640 0.000000 0.035420 
#    y 0.000000 3.495050 0.000000 
#    z 0.035420 0.000000 3.536460 
# 
# 
# High freq. dielectric constant tensor:
#      x y z
#    x 1.729340 0.000000 0.010980 
#    y 0.000000 1.749540 0.000000 
#    z 0.010980 0.000000 1.754360 
# 
# From -- ./inp_files/104833.got.cif
#   From: 2010.06.25/outbox.cif.g09.slc.cpg/sg12_53_cif.got.tgz:104833.got - 2010.06.28 00:19:55.
