data_PCOD8084872
_publ_section_title
;
Structure prediction by ZEFSAII (Michael W. Deem and Ramdas Pophale) SiO2 
 PCOD8084872
Probable space group: C 2/M
;
_chemical_formula_sum "Si O2"
_cell_formula_units_Z 48
_cell_length_a 25.249567
_cell_length_b 9.148287
_cell_length_c 27.861880
_cell_angle_alpha 90.000000
_cell_angle_beta 27.083244
_cell_angle_gamma 90.000000
_cell_volume 2930.131042
_symmetry_space_group_name_H-M "C 2/M"
_symmetry_group_IT_number 12
_symmetry_cell_setting 'monoclinic'
loop_
_space_group_symop_operation_xyz
x,y,z
-x,y,-z
-x,-y,-z
x,-y,z
1/2+x,1/2+y,z
1/2-x,1/2+y,-z
1/2-x,1/2-y,-z
1/2+x,1/2-y,z
loop_
_atom_site_type_symbol
_atom_site_label
_atom_site_fract_x
_atom_site_fract_y
_atom_site_fract_z
Si Si1 0.728137 0.325892 0.879485
Si Si2 0.908135 0.329347 0.283708
Si Si3 0.710806 0.829291 0.483797
Si Si4 0.490346 0.170316 0.900819
Si Si5 0.116282 0.839062 0.875469
Si Si6 0.474431 0.169856 0.714123
O O1 0.716664 0.500000 0.895067
O O2 0.715035 0.285156 0.833399
O O3 0.851896 0.260166 0.796897
O O4 0.629052 0.252386 0.991664
O O5 0.880318 0.500000 0.312300
O O6 0.783442 0.244808 0.381835
O O7 0.980364 0.296533 0.177847
O O8 0.982592 0.268174 0.268986
O O9 0.750000 0.750000 0.500000
O O10 0.570925 0.804242 0.594217
O O11 0.740647 0.000000 0.462126
O O12 0.598174 0.227220 0.846305
O O13 0.474149 0.000000 0.924217
O O14 0.146914 0.000000 0.829936
O O15 0.000000 0.849264 0.000000
O O16 0.451592 0.000000 0.739766
#
# Coordination Sequence:
#
# PCOD8084872 Si02
#       6
#     8   8   8   8   8   8
#     4   9  17  30  47  65  87 115 145 178 217 260
#     4   9  18  31  45  64  91 119 146 178 216 256
#     4   9  16  28  47  67  87 114 148 181 214 255
#     4  10  19  29  43  65  92 118 144 178 218 257
#     4   8  15  28  45  63  82 110 149 184 212 251
#     4   8  15  29  47  65  87 114 142 177 219 257
#
# _framework density 16.381520999999999
#
# number of rings (size 3 to 8) (size 9 to 14) (size 15 to 20)
#    0.000    3.167    0.000    3.000    0.000    5.000 
#    0.000    4.167    0.000    1.000    0.000    7.000 
#    0.000    0.000    0.000    0.000    0.000    0.000 
#
# Total GULP energy -297358.791355 kJ/mol
# GULP energy per Si atom -12389.949640 kJ/mol
# Density = 1.634424 g / cm^3
# Si number density = 16.381521 Si / 1000 Ang^3
#
#
#
# Elastic Constant Matrix: (Units=GPa)
#
#
# Indices 1 2 3 4 5 6 
#
# 1 97.6375 34.0176 60.4509 0.0059 -14.5569 -0.0043
# 2 34.0176 60.0165 46.3651 0.0169 -4.8464 -0.0262
# 3 60.4509 46.3651 100.1529 0.0020 -15.1067 -0.0051
# 4 0.0059 0.0169 0.0020 24.5856 0.0024 4.7604
# 5 -14.5569 -4.8464 -15.1067 0.0024 7.8397 -0.0012
# 6 -0.0043 -0.0262 -0.0051 4.7604 -0.0012 19.7661
#
#
#
# Elastic Compliance Matrix: (Units=1/GPa)
#
#
# Indices 1 2 3 4 5 6 
#
# 1 0.018492 -0.003986 -0.006356 -0.000003 0.019624 -0.000001
# 2 -0.003986 0.027368 -0.012446 -0.000023 -0.014466 0.000037
# 3 -0.006356 -0.012446 0.023461 0.000008 0.025713 -0.000012
# 4 -0.000003 -0.000023 0.000008 0.042664 -0.000019 -0.010275
# 5 0.019624 -0.014466 0.025713 -0.000019 0.204598 0.000008
# 6 -0.000001 0.000037 -0.000012 -0.010275 0.000008 0.053066
#
#
# Mechanical properties :
#
#
# Convention : Reuss Voigt Hill
#
# Bulk Modulus (GPa) = 42.11392 59.94157 51.02775
# Shear Modulus (GPa) = 11.81642 18.23652 15.02647
#
# Velocity S-wave (km/s) = 2.68866 3.34014 3.03195
# Velocity P-wave (km/s) = 5.95000 7.17954 6.59349
#
# Compressibility (1/GPa) = 0.02374512
#
# Stress axis : x y z
#
# Youngs Moduli (GPa) = 54.07803 36.53856 42.62362
#
# Poissons Ratio (x) = 0.14566 0.27091
# Poissons Ratio (y) = 0.21558 0.53048
# Poissons Ratio (z) = 0.34371 0.45475
#
# Static dielectric constant tensor:
#      x y z
#    x 3.480140 0.000000 -0.165230 
#    y 0.000000 3.110520 0.000000 
#    z -0.165230 0.000000 3.356040 
# 
# 
# High freq. dielectric constant tensor:
#      x y z
#    x 1.614100 0.000000 -0.004930 
#    y 0.000000 1.620740 0.000000 
#    z -0.004930 0.000000 1.617230 
# 
# From -- ./inp_files/179170.got.cif
#   From: 2010.06.25/outbox.cif.g09.slc.cpg/sg12_90_cif.got.tgz:179170.got - 2010.06.28 00:19:55.
