data_PCOD8084414
_publ_section_title
;
Structure prediction by ZEFSAII (Michael W. Deem and Ramdas Pophale) SiO2 
 PCOD8084414
Probable space group: C 2/M
;
_chemical_formula_sum "Si O2"
_cell_formula_units_Z 64
_cell_length_a 30.634656
_cell_length_b 17.588186
_cell_length_c 9.849036
_cell_angle_alpha 90.000000
_cell_angle_beta 142.000033
_cell_angle_gamma 90.000000
_cell_volume 3267.152761
_symmetry_space_group_name_H-M "C 2/M"
_symmetry_group_IT_number 12
_symmetry_cell_setting 'monoclinic'
loop_
_space_group_symop_operation_xyz
x,y,z
-x,y,-z
-x,-y,-z
x,-y,z
1/2+x,1/2+y,z
1/2-x,1/2+y,-z
1/2-x,1/2-y,-z
1/2+x,1/2-y,z
loop_
_atom_site_type_symbol
_atom_site_label
_atom_site_fract_x
_atom_site_fract_y
_atom_site_fract_z
Si Si1 0.379876 0.590134 0.946332
Si Si2 0.779208 0.089863 0.464084
Si Si3 0.997859 0.343235 0.338099
Si Si4 0.159503 0.911438 0.667585
Si Si5 0.121575 0.409941 0.136445
Si Si6 0.513710 0.664116 0.381305
Si Si7 0.615021 0.089807 0.428650
Si Si8 0.732911 0.411878 0.120157
O O1 0.390198 0.500000 0.974962
O O2 0.340037 0.619149 0.714231
O O3 0.332947 0.621698 0.956628
O O4 0.456942 0.627614 0.140062
O O5 0.801064 0.118090 0.369397
O O6 0.701881 0.120596 0.316067
O O7 0.775481 0.000000 0.462736
O O8 0.060098 0.378679 0.401933
O O9 0.000000 0.372497 0.500000
O O10 0.006880 0.253696 0.356974
O O11 0.923970 0.366946 0.088587
O O12 0.090817 0.860821 0.522184
O O13 0.136953 0.000000 0.604500
O O14 0.218054 0.897627 0.926367
O O15 0.115348 0.500000 0.095866
O O16 0.095260 0.389231 0.224492
O O17 0.500000 0.633619 0.500000
O O18 0.692167 0.125240 0.654114
O O19 0.615911 0.000000 0.448733
O O20 0.737487 0.500000 0.170333
#
# Coordination Sequence:
#
# PCOD8084414 Si02
#       8
#     8   8   8   8   8   8   8   8
#     4  10  18  35  62  87 112 147 192 235 278 335
#     4   9  19  35  58  91 120 138 177 243 296 329
#     4  11  26  41  54  82 119 153 191 234 281 336
#     4  10  20  35  59  90 117 147 190 236 280 330
#     4  10  20  40  66  86 112 147 183 234 290 342
#     4  11  23  40  56  78 119 160 192 233 278 329
#     4  10  20  39  65  89 112 143 186 236 286 340
#     4   9  17  31  60  92 110 138 188 238 282 331
#
# _framework density 19.588922
#
# number of rings (size 3 to 8) (size 9 to 14) (size 15 to 20)
#    0.000    2.000    2.500    1.125    1.750    3.000 
#    4.500    4.375    0.000    0.000    0.000    0.000 
#    0.000    0.000    0.000    0.000    0.000    0.000 
#
# Total GULP energy -396783.585716 kJ/mol
# GULP energy per Si atom -12399.487054 kJ/mol
# Density = 1.954434 g / cm^3
# Si number density = 19.588922 Si / 1000 Ang^3
#
#
#
# Elastic Constant Matrix: (Units=GPa)
#
#
# Indices 1 2 3 4 5 6 
#
# 1 123.5786 28.8948 54.8379 0.0000 -14.8396 0.0000
# 2 28.8948 38.9877 34.6802 0.0000 -4.5443 0.0000
# 3 54.8379 34.6802 139.2198 0.0000 -5.6636 0.0000
# 4 0.0000 0.0000 0.0000 6.9549 0.0000 -8.9873
# 5 -14.8396 -4.5443 -5.6636 0.0000 38.6774 0.0000
# 6 0.0000 0.0000 0.0000 -8.9873 0.0000 17.4356
#
#
#
# Elastic Compliance Matrix: (Units=1/GPa)
#
#
# Indices 1 2 3 4 5 6 
#
# 1 0.010973 -0.005180 -0.002902 0.000000 0.003176 0.000000
# 2 -0.005180 0.035675 -0.006797 0.000000 0.001209 0.000000
# 3 -0.002902 -0.006797 0.010001 0.000000 -0.000448 0.000000
# 4 0.000000 0.000000 0.000000 0.430620 0.000000 0.221968
# 5 0.003176 0.001209 -0.000448 0.000000 0.027150 0.000000
# 6 0.000000 0.000000 0.000000 0.221968 0.000000 0.171770
#
#
# Mechanical properties :
#
#
# Convention : Reuss Voigt Hill
#
# Bulk Modulus (GPa) = 37.18920 59.84575 48.51747
# Shear Modulus (GPa) = 6.89739 24.83844 15.86792
#
# Velocity S-wave (km/s) = 1.87849 3.56474 2.84922
# Velocity P-wave (km/s) = 4.87144 6.89640 5.97040
#
# Compressibility (1/GPa) = 0.02688953
#
# Stress axis : x y z
#
# Youngs Moduli (GPa) = 91.13634 28.03049 99.98829
#
# Poissons Ratio (x) = 0.14520 0.29021
# Poissons Ratio (y) = 0.47209 0.67965
# Poissons Ratio (z) = 0.26452 0.19053
#
# Static dielectric constant tensor:
#      x y z
#    x 3.811320 0.000000 -0.094680 
#    y 0.000000 3.171670 0.000000 
#    z -0.094680 0.000000 3.824950 
# 
# 
# High freq. dielectric constant tensor:
#      x y z
#    x 1.771980 0.000000 -0.000540 
#    y 0.000000 1.720670 0.000000 
#    z -0.000540 0.000000 1.781310 
# 
# From -- ./inp_files/112868.got.cif
#   From: 2010.06.25/outbox.cif.g09.slc.cpg/sg12_57_cif.got.tgz:112868.got - 2010.06.28 00:19:55.
