data_PCOD8084525
_publ_section_title
;
Structure prediction by ZEFSAII (Michael W. Deem and Ramdas Pophale) SiO2 
 PCOD8084525
Probable space group: C 2/M
;
_chemical_formula_sum "Si O2"
_cell_formula_units_Z 48
_cell_length_a 22.019355
_cell_length_b 8.806343
_cell_length_c 12.471386
_cell_angle_alpha 90.000000
_cell_angle_beta 78.374573
_cell_angle_gamma 90.000000
_cell_volume 2368.716623
_symmetry_space_group_name_H-M "C 2/M"
_symmetry_group_IT_number 12
_symmetry_cell_setting 'monoclinic'
loop_
_space_group_symop_operation_xyz
x,y,z
-x,y,-z
-x,-y,-z
x,-y,z
1/2+x,1/2+y,z
1/2-x,1/2+y,-z
1/2-x,1/2-y,-z
1/2+x,1/2-y,z
loop_
_atom_site_type_symbol
_atom_site_label
_atom_site_fract_x
_atom_site_fract_y
_atom_site_fract_z
Si Si1 0.685720 0.319368 0.564498
Si Si2 0.571604 0.679008 0.450917
Si Si3 0.316148 0.680301 0.983564
Si Si4 0.144512 0.830263 0.803669
Si Si5 0.503815 0.670484 0.876530
Si Si6 0.904121 0.323211 0.782156
O O1 0.692087 0.500000 0.560870
O O2 0.750000 0.250000 0.500000
O O3 0.622603 0.274284 0.522806
O O4 0.677762 0.254170 0.688947
O O5 0.500000 0.730328 0.500000
O O6 0.572175 0.500000 0.429839
O O7 0.596000 0.764298 0.338076
O O8 0.315523 0.500000 0.983110
O O9 0.352799 0.735526 0.867571
O O10 0.250000 0.750000 0.000000
O O11 0.344017 0.748283 0.085206
O O12 0.072068 0.832757 0.805359
O O13 0.170987 0.000000 0.803320
O O14 0.474239 0.500000 0.880319
O O15 0.469725 0.789923 0.813614
O O16 0.500000 0.727377 0.000000
O O17 0.889177 0.500000 0.788195
#
# Coordination Sequence:
#
# PCOD8084525 Si02
#       6
#     8   8   8   8   8   8
#     4  10  22  40  63  92 122 158 205 258 316 376
#     4  10  22  43  69  92 121 166 220 268 312 377
#     4  11  23  41  62  90 124 163 208 254 311 375
#     4   9  19  38  64  89 118 156 200 249 307 371
#     4  10  18  36  64  90 117 157 203 249 304 369
#     4  12  25  39  60  93 131 165 202 257 314 374
#
# _framework density 20.264137999999999
#
# number of rings (size 3 to 8) (size 9 to 14) (size 15 to 20)
#    0.000    1.667    1.667    3.000    2.333    4.000 
#    0.000    3.333    0.000    0.000    0.000    0.000 
#    0.000    0.000    0.000    0.000    0.000    0.000 
#
# Total GULP energy -297456.711158 kJ/mol
# GULP energy per Si atom -12394.029632 kJ/mol
# Density = 2.021802 g / cm^3
# Si number density = 20.264138 Si / 1000 Ang^3
#
#
#
# Elastic Constant Matrix: (Units=GPa)
#
#
# Indices 1 2 3 4 5 6 
#
# 1 126.1870 37.0388 54.5430 0.0000 -10.3542 0.0000
# 2 37.0388 63.8719 53.1032 0.0000 2.1238 0.0000
# 3 54.5430 53.1032 164.3566 0.0000 -12.9563 0.0000
# 4 0.0000 0.0000 0.0000 23.9778 0.0000 -6.9708
# 5 -10.3542 2.1238 -12.9563 0.0000 30.9742 0.0000
# 6 0.0000 0.0000 0.0000 -6.9708 0.0000 29.1570
#
#
#
# Elastic Compliance Matrix: (Units=1/GPa)
#
#
# Indices 1 2 3 4 5 6 
#
# 1 0.010264 -0.004679 -0.001653 0.000000 0.003060 0.000000
# 2 -0.004679 0.024167 -0.006731 0.000000 -0.006037 0.000000
# 3 -0.001653 -0.006731 0.009101 0.000000 0.003716 0.000000
# 4 0.000000 0.000000 0.000000 0.044820 0.000000 0.010716
# 5 0.003060 -0.006037 0.003716 0.000000 0.035276 0.000000
# 6 0.000000 0.000000 0.000000 0.010716 0.000000 0.036859
#
#
# Mechanical properties :
#
#
# Convention : Reuss Voigt Hill
#
# Bulk Modulus (GPa) = 57.45743 71.53169 64.49456
# Shear Modulus (GPa) = 25.98538 30.80383 28.39460
#
# Velocity S-wave (km/s) = 3.58485 3.90310 3.74735
# Velocity P-wave (km/s) = 6.74913 7.46247 7.11474
#
# Compressibility (1/GPa) = 0.01740419
#
# Stress axis : x y z
#
# Youngs Moduli (GPa) = 97.42915 41.37870 109.88205
#
# Poissons Ratio (x) = 0.19363 0.18163
# Poissons Ratio (y) = 0.45591 0.73965
# Poissons Ratio (z) = 0.16105 0.27853
#
# Static dielectric constant tensor:
#      x y z
#    x 3.804880 0.000000 0.126900 
#    y 0.000000 3.435280 0.000000 
#    z 0.126900 0.000000 3.847360 
# 
# 
# High freq. dielectric constant tensor:
#      x y z
#    x 1.799770 0.000000 -0.002390 
#    y 0.000000 1.758750 0.000000 
#    z -0.002390 0.000000 1.813150 
# 
# From -- ./inp_files/172893.got.cif
#   From: 2010.06.25/outbox.cif.g09.slc.cpg/sg12_87_cif.got.tgz:172893.got - 2010.06.28 00:19:55.
