data_PCOD8084919
_publ_section_title
;
Structure prediction by ZEFSAII (Michael W. Deem and Ramdas Pophale) SiO2 
 PCOD8084919
Probable space group: C 2/M
;
_chemical_formula_sum "Si O2"
_cell_formula_units_Z 56
_cell_length_a 13.841347
_cell_length_b 32.348214
_cell_length_c 7.753425
_cell_angle_alpha 90.000000
_cell_angle_beta 89.999875
_cell_angle_gamma 90.000000
_cell_volume 3471.540644
_symmetry_space_group_name_H-M "C 2/M"
_symmetry_group_IT_number 12
_symmetry_cell_setting 'monoclinic'
loop_
_space_group_symop_operation_xyz
x,y,z
-x,y,-z
-x,-y,-z
x,-y,z
1/2+x,1/2+y,z
1/2-x,1/2+y,-z
1/2-x,1/2-y,-z
1/2+x,1/2-y,z
loop_
_atom_site_type_symbol
_atom_site_label
_atom_site_fract_x
_atom_site_fract_y
_atom_site_fract_z
Si Si1 0.885445 0.046011 0.000000
Si Si2 0.110866 0.896487 0.692885
Si Si3 0.792920 0.814216 0.204114
Si Si4 0.606340 0.231380 0.204455
Si Si5 0.106340 0.268620 0.795545
Si Si6 0.207080 0.185784 0.204114
Si Si7 0.889135 0.103513 0.692886
O O1 0.849585 0.069819 0.828584
O O2 0.839970 0.000000 1.000000
O O3 0.849585 0.069819 0.171417
O O4 0.000000 0.042688 0.000000
O O5 0.174906 0.855466 0.700639
O O6 0.119259 0.915109 0.500000
O O7 0.000000 0.884977 0.737421
O O8 0.682596 0.803862 0.260761
O O9 0.859982 0.776493 0.268767
O O10 0.802221 0.820717 0.000000
O O11 0.500000 0.221266 0.280681
O O12 0.640018 0.276493 0.268767
O O13 0.603841 0.232862 0.000000
O O14 0.182597 0.303862 0.739239
O O15 0.174906 0.144534 0.299361
#
# Coordination Sequence:
#
# PCOD8084919 Si02
#       7
#     8   8   8   8   8   8   8
#     4   9  18  32  48  65  87 115 143 173 214 264
#     4  10  19  29  44  66  90 116 146 180 215 255
#     4   9  15  25  42  61  85 119 153 185 219 254
#     4   8  14  23  38  61  87 118 155 189 219 251
#     4   8  14  23  38  61  87 118 155 189 219 251
#     4   9  15  25  42  61  85 119 153 185 219 254
#     4  10  19  29  44  66  90 116 146 180 215 255
#
# _framework density 16.131167999999999
#
# number of rings (size 3 to 8) (size 9 to 14) (size 15 to 20)
#    0.000    3.000    1.429    2.571    0.000    1.714 
#    0.000    5.714    0.000    2.571    0.000    0.000 
#    0.000    2.286    0.000    2.571    0.000    0.286 
#
# Total GULP energy -347043.492945 kJ/mol
# GULP energy per Si atom -12394.410462 kJ/mol
# Density = 1.609445 g / cm^3
# Si number density = 16.131168 Si / 1000 Ang^3
#
#
#
# Elastic Constant Matrix: (Units=GPa)
#
#
# Indices 1 2 3 4 5 6 
#
# 1 97.0074 41.2882 20.9578 0.0000 5.3810 0.0000
# 2 41.2882 115.1366 43.1970 0.0000 -0.1741 0.0000
# 3 20.9578 43.1970 74.9781 0.0000 -3.3701 0.0000
# 4 0.0000 0.0000 0.0000 4.4624 0.0000 1.0820
# 5 5.3810 -0.1741 -3.3701 0.0000 9.3440 0.0000
# 6 0.0000 0.0000 0.0000 1.0820 0.0000 16.3186
#
#
#
# Elastic Compliance Matrix: (Units=1/GPa)
#
#
# Indices 1 2 3 4 5 6 
#
# 1 0.012807 -0.003988 -0.001644 0.000000 -0.008042 0.000000
# 2 -0.003988 0.012364 -0.005992 0.000000 0.000366 0.000000
# 3 -0.001644 -0.005992 0.017571 0.000000 0.007172 0.000000
# 4 0.000000 0.000000 0.000000 0.227755 0.000000 -0.015102
# 5 -0.008042 0.000366 0.007172 0.000000 0.114246 0.000000
# 6 0.000000 0.000000 0.000000 -0.015102 0.000000 0.062281
#
#
# Mechanical properties :
#
#
# Convention : Reuss Voigt Hill
#
# Bulk Modulus (GPa) = 51.29594 55.33423 53.31509
# Shear Modulus (GPa) = 10.48722 18.13694 14.31208
#
# Velocity S-wave (km/s) = 2.55251 3.35676 2.98187
# Velocity P-wave (km/s) = 6.36831 7.02858 6.70658
#
# Compressibility (1/GPa) = 0.01949472
#
# Stress axis : x y z
#
# Youngs Moduli (GPa) = 78.08141 80.87874 56.91112
#
# Poissons Ratio (x) = 0.32256 0.09354
# Poissons Ratio (y) = 0.31140 0.34102
# Poissons Ratio (z) = 0.12834 0.48464
#
# Static dielectric constant tensor:
#      x y z
#    x 3.226440 0.000000 0.026630 
#    y 0.000000 2.942680 0.000000 
#    z 0.026630 0.000000 2.934650 
# 
# 
# High freq. dielectric constant tensor:
#      x y z
#    x 1.591560 0.000000 -0.002230 
#    y 0.000000 1.593820 0.000000 
#    z -0.002230 0.000000 1.615990 
# 
# From -- ./inp_files/67656.got.cif
#   From: 2010.06.25/outbox.cif.g09.slc.cpg/sg12_34_cif.got.tgz:67656.got - 2010.06.28 00:19:55.
