data_PCOD8084691
_publ_section_title
;
Structure prediction by ZEFSAII (Michael W. Deem and Ramdas Pophale) SiO2 
 PCOD8084691
Probable space group: C 2/M
;
_chemical_formula_sum "Si O2"
_cell_formula_units_Z 48
_cell_length_a 4.968194
_cell_length_b 24.110867
_cell_length_c 24.251520
_cell_angle_alpha 90.000000
_cell_angle_beta 78.379486
_cell_angle_gamma 90.000000
_cell_volume 2845.484299
_symmetry_space_group_name_H-M "C 2/M"
_symmetry_group_IT_number 12
_symmetry_cell_setting 'monoclinic'
loop_
_space_group_symop_operation_xyz
x,y,z
-x,y,-z
-x,-y,-z
x,-y,z
1/2+x,1/2+y,z
1/2-x,1/2+y,-z
1/2-x,1/2-y,-z
1/2+x,1/2-y,z
loop_
_atom_site_type_symbol
_atom_site_label
_atom_site_fract_x
_atom_site_fract_y
_atom_site_fract_z
Si Si1 0.201310 0.711821 0.320971
Si Si2 0.313951 0.000000 0.772723
Si Si3 0.464842 0.786479 0.063917
Si Si4 0.368630 0.881521 0.152147
Si Si5 0.792561 0.118836 0.229413
Si Si6 0.256693 0.000000 0.155282
Si Si7 0.483462 0.786442 0.442293
O O1 0.505173 0.736838 0.313326
O O2 0.189236 0.664971 0.275551
O O3 0.105720 0.683151 0.382997
O O4 0.273515 0.057841 0.741011
O O5 0.614638 0.000000 0.787936
O O6 0.073874 0.000000 0.829458
O O7 0.251377 0.735728 0.075859
O O8 0.357746 0.837141 0.104300
O O9 0.500000 0.807861 0.000000
O O10 0.641766 0.874389 0.176977
O O11 0.359864 0.942602 0.123114
O O12 0.114712 0.874178 0.204566
O O13 0.500000 0.820949 0.500000
O O14 0.170552 0.768896 0.443606
#
# Coordination Sequence:
#
# PCOD8084691 Si02
#       7
#     8   4   8   8   8   4   8
#     4  10  19  28  40  64  93 113 138 178 216 253
#     4   8  16  30  44  60  84 116 146 168 202 254
#     4  10  21  35  49  66  89 117 147 174 204 254
#     4  10  19  32  49  66  87 114 143 176 216 254
#     4  10  19  30  46  66  89 115 142 175 214 256
#     4   8  16  30  47  66  84 106 141 180 210 246
#     4   8  14  25  39  54  78 113 144 169 204 249
#
# _framework density 16.868832000000001
#
# number of rings (size 3 to 8) (size 9 to 14) (size 15 to 20)
#    0.000    2.667    0.000    2.000    0.000    4.000 
#    0.000    0.417    0.000    0.000    0.000   11.083 
#    0.000    0.000    0.000   38.500    0.000    0.000 
#
# Total GULP energy -297338.706970 kJ/mol
# GULP energy per Si atom -12389.112790 kJ/mol
# Density = 1.683044 g / cm^3
# Si number density = 16.868832 Si / 1000 Ang^3
#
#
#
# Elastic Constant Matrix: (Units=GPa)
#
#
# Indices 1 2 3 4 5 6 
#
# 1 64.9657 0.9475 5.4173 0.0000 0.0244 0.0000
# 2 0.9475 88.4706 56.9894 0.0000 -2.7507 0.0000
# 3 5.4173 56.9894 76.0464 0.0000 -2.6111 0.0000
# 4 0.0000 0.0000 0.0000 -1.1868 0.0000 0.3270
# 5 0.0244 -2.7507 -2.6111 0.0000 18.9317 0.0000
# 6 0.0000 0.0000 0.0000 0.3270 0.0000 15.3385
#
#
#
# Elastic Compliance Matrix: (Units=1/GPa)
#
#
# Indices 1 2 3 4 5 6 
#
# 1 0.015536 0.001054 -0.001901 0.000000 -0.000129 0.000000
# 2 0.001054 0.021939 -0.016485 0.000000 0.000913 0.000000
# 3 -0.001901 -0.016485 0.025679 0.000000 0.001149 0.000000
# 4 0.000000 0.000000 0.000000 -0.837659 0.000000 0.017859
# 5 -0.000129 0.000913 0.001149 0.000000 0.053113 0.000000
# 6 0.000000 0.000000 0.000000 0.017859 0.000000 0.064814
#
#
# Mechanical properties :
#
#
# Convention : Reuss Voigt Hill
#
# Bulk Modulus (GPa) = 35.10023 39.57680 37.33851
# Shear Modulus (GPa) = -8.16438 17.69191 4.76377
#
# Velocity S-wave (km/s) = -2.20237 3.24202 1.68230
# Velocity P-wave (km/s) = 3.79285 6.12590 5.09472
#
# Compressibility (1/GPa) = 0.02848984
#
# Stress axis : x y z
#
# Youngs Moduli (GPa) = 64.36688 45.57997 38.94251
#
# Poissons Ratio (x) = -0.04806 0.07404
# Poissons Ratio (y) = -0.06786 0.64198
# Poissons Ratio (z) = 0.12238 0.75140
#
# Static dielectric constant tensor:
#      x y z
#    x 3.335050 0.000000 0.002370 
#    y 0.000000 3.082630 0.000000 
#    z 0.002370 0.000000 3.074440 
# 
# 
# High freq. dielectric constant tensor:
#      x y z
#    x 1.679180 0.000000 0.001150 
#    y 0.000000 1.621440 0.000000 
#    z 0.001150 0.000000 1.619860 
# 
# From -- ./inp_files/297769.got.cif
#   From: 2010.06.25/outbox.cif.g09.slc.cpg/sg12_149_cif.got.tgz:297769.got - 2010.06.28 00:19:55.
