data_PCOD8084711
_publ_section_title
;
Structure prediction by ZEFSAII (Michael W. Deem and Ramdas Pophale) SiO2 
 PCOD8084711
Probable space group: C 2/M
;
_chemical_formula_sum "Si O2"
_cell_formula_units_Z 60
_cell_length_a 26.832095
_cell_length_b 27.359398
_cell_length_c 8.284437
_cell_angle_alpha 90.000000
_cell_angle_beta 34.092635
_cell_angle_gamma 90.000000
_cell_volume 3408.983941
_symmetry_space_group_name_H-M "C 2/M"
_symmetry_group_IT_number 12
_symmetry_cell_setting 'monoclinic'
loop_
_space_group_symop_operation_xyz
x,y,z
-x,y,-z
-x,-y,-z
x,-y,z
1/2+x,1/2+y,z
1/2-x,1/2+y,-z
1/2-x,1/2-y,-z
1/2+x,1/2-y,z
loop_
_atom_site_type_symbol
_atom_site_label
_atom_site_fract_x
_atom_site_fract_y
_atom_site_fract_z
Si Si1 0.500000 0.920447 0.500000
Si Si2 0.605761 0.944628 0.724484
Si Si3 0.988994 0.731768 0.203265
Si Si4 0.739297 0.852172 0.874783
Si Si5 0.089031 0.633132 0.524173
Si Si6 0.677742 0.946380 0.885430
Si Si7 0.164014 0.782216 0.190374
Si Si8 0.818392 0.735663 0.179218
O O1 0.494280 0.889823 0.348987
O O2 0.409883 0.951390 0.765806
O O3 0.641492 0.905552 0.497912
O O4 0.648878 0.932612 0.781153
O O5 0.629623 0.000000 0.608093
O O6 0.500000 0.937016 0.000000
O O7 0.943162 0.679584 0.287852
O O8 0.928119 0.762479 0.488875
O O9 0.000000 0.758700 0.000000
O O10 0.085386 0.721429 0.015311
O O11 0.746513 0.906064 0.773262
O O12 0.821965 0.836863 0.770744
O O13 0.728886 0.811908 0.765451
O O14 0.652053 0.848019 0.215025
O O15 0.723875 0.000000 0.764716
O O16 0.250000 0.750000 0.000000
O O17 0.163245 0.780212 0.997336
O O18 0.750000 0.750000 0.500000
#
# Coordination Sequence:
#
# PCOD8084711 Si02
#       8
#     4   8   8   8   8   8   8   8
#     4  10  19  28  42  66  94 136 178 216 257 302
#     4  10  20  32  44  67 102 141 188 231 262 310
#     4  12  22  32  55  77 104 141 183 219 272 327
#     4  10  22  36  52  74 105 137 182 229 269 324
#     4  11  20  30  48  70 101 138 185 221 259 306
#     4  10  20  33  48  68  99 136 177 223 271 318
#     4  10  20  39  51  73 107 138 178 231 266 319
#     4  11  23  37  55  77 107 142 179 226 281 329
#
# _framework density 17.600552
#
# number of rings (size 3 to 8) (size 9 to 14) (size 15 to 20)
#    0.000    1.467    4.000    4.200    1.867    2.133 
#    0.000    0.000    0.000    0.000    0.000    0.000 
#    0.000    6.933    0.000    0.133    0.000    3.600 
#
# Total GULP energy -371653.863768 kJ/mol
# GULP energy per Si atom -12388.462126 kJ/mol
# Density = 1.756049 g / cm^3
# Si number density = 17.600552 Si / 1000 Ang^3
#
#
#
# Elastic Constant Matrix: (Units=GPa)
#
#
# Indices 1 2 3 4 5 6 
#
# 1 83.8866 49.4197 22.5992 0.0000 21.3037 0.0000
# 2 49.4197 105.8508 29.0297 0.0000 8.7784 0.0000
# 3 22.5992 29.0297 72.8421 0.0000 19.6389 0.0000
# 4 0.0000 0.0000 0.0000 16.7641 0.0000 2.7002
# 5 21.3037 8.7784 19.6389 0.0000 27.3063 0.0000
# 6 0.0000 0.0000 0.0000 2.7002 0.0000 29.4417
#
#
#
# Elastic Compliance Matrix: (Units=1/GPa)
#
#
# Indices 1 2 3 4 5 6 
#
# 1 0.020164 -0.008506 0.000792 0.000000 -0.013566 0.000000
# 2 -0.008506 0.014200 -0.004439 0.000000 0.005264 0.000000
# 3 0.000792 -0.004439 0.018650 0.000000 -0.012604 0.000000
# 4 0.000000 0.000000 0.000000 0.060546 0.000000 -0.005553
# 5 -0.013566 0.005264 -0.012604 0.000000 0.054578 0.000000
# 6 0.000000 0.000000 0.000000 -0.005553 0.000000 0.034475
#
#
# Mechanical properties :
#
#
# Convention : Reuss Voigt Hill
#
# Bulk Modulus (GPa) = 34.83570 51.63075 43.23322
# Shear Modulus (GPa) = 21.14270 25.47115 23.30693
#
# Velocity S-wave (km/s) = 3.46967 3.80831 3.64293
# Velocity P-wave (km/s) = 5.99056 6.98112 6.50472
#
# Compressibility (1/GPa) = 0.02870619
#
# Stress axis : x y z
#
# Youngs Moduli (GPa) = 49.59303 70.42474 53.61954
#
# Poissons Ratio (x) = 0.59905 -0.04245
# Poissons Ratio (y) = 0.42185 0.23802
# Poissons Ratio (z) = -0.03926 0.31263
#
# Static dielectric constant tensor:
#      x y z
#    x 3.986120 0.000000 0.544070 
#    y 0.000000 3.527630 0.000000 
#    z 0.544070 0.000000 3.389410 
# 
# 
# High freq. dielectric constant tensor:
#      x y z
#    x 1.685180 0.000000 0.033220 
#    y 0.000000 1.663410 0.000000 
#    z 0.033220 0.000000 1.643300 
# 
# From -- ./inp_files/106984.got.cif
#   From: 2010.06.25/outbox.cif.g09.slc.cpg/sg12_54_cif.got.tgz:106984.got - 2010.06.28 00:19:55.
