data_PCOD8084658
_publ_section_title
;
Structure prediction by ZEFSAII (Michael W. Deem and Ramdas Pophale) SiO2 
 PCOD8084658
Probable space group: C 2/M
;
_chemical_formula_sum "Si O2"
_cell_formula_units_Z 64
_cell_length_a 21.466024
_cell_length_b 14.146768
_cell_length_c 14.507482
_cell_angle_alpha 90.000000
_cell_angle_beta 61.321122
_cell_angle_gamma 90.000000
_cell_volume 3865.097605
_symmetry_space_group_name_H-M "C 2/M"
_symmetry_group_IT_number 12
_symmetry_cell_setting 'monoclinic'
loop_
_space_group_symop_operation_xyz
x,y,z
-x,y,-z
-x,-y,-z
x,-y,z
1/2+x,1/2+y,z
1/2-x,1/2+y,-z
1/2-x,1/2-y,-z
1/2+x,1/2-y,z
loop_
_atom_site_type_symbol
_atom_site_label
_atom_site_fract_x
_atom_site_fract_y
_atom_site_fract_z
Si Si1 0.840891 0.110258 0.159684
Si Si2 0.212264 0.106479 0.157951
Si Si3 0.099624 0.105591 0.079511
Si Si4 0.511643 0.893469 0.206381
Si Si5 0.696977 0.201199 0.242322
Si Si6 0.552433 0.110626 0.381858
Si Si7 0.027944 0.227762 0.877931
Si Si8 0.672555 0.893488 0.070611
O O1 0.764023 0.150803 0.242860
O O2 0.900583 0.166573 0.174182
O O3 0.845743 0.000000 0.182039
O O4 0.851748 0.128791 0.043362
O O5 0.146094 0.117551 0.136923
O O6 0.204469 0.184420 0.244223
O O7 0.213959 0.000000 0.198506
O O8 0.285262 0.128840 0.052420
O O9 0.032251 0.172833 0.136338
O O10 0.069516 0.000000 0.090375
O O11 0.515232 0.864796 0.311364
O O12 0.458794 0.825379 0.186993
O O13 0.589693 0.883489 0.105871
O O14 0.482623 0.000000 0.216483
O O15 0.625581 0.167524 0.343657
O O16 0.694905 0.176943 0.135369
O O17 0.500000 0.142061 0.500000
O O18 0.571274 0.000000 0.372315
O O19 0.000000 0.248404 0.000000
O O20 0.690091 0.000000 0.093122
#
# Coordination Sequence:
#
# PCOD8084658 Si02
#       8
#     8   8   8   8   8   8   8   8
#     4  10  19  29  42  62  90 123 161 197 228 267
#     4  10  19  27  41  67  97 127 157 190 234 290
#     4   9  16  27  40  58  88 125 160 192 224 264
#     4   9  18  31  47  67  94 126 161 196 232 281
#     4  11  18  27  48  69  94 122 153 193 243 292
#     4   9  18  33  55  80  97 110 143 203 263 297
#     4  10  20  29  41  61  93 135 168 191 217 262
#     4   9  16  26  43  67  94 121 152 196 243 284
#
# _framework density 16.558444000000001
#
# number of rings (size 3 to 8) (size 9 to 14) (size 15 to 20)
#    0.000    2.375    1.250    4.125    3.500    1.750 
#    0.000    0.625    0.000    1.125    0.000    0.000 
#    0.000    0.000    0.000    0.000    0.000    0.000 
#
# Total GULP energy -396779.557845 kJ/mol
# GULP energy per Si atom -12399.361183 kJ/mol
# Density = 1.652076 g / cm^3
# Si number density = 16.558444 Si / 1000 Ang^3
#
#
#
# Elastic Constant Matrix: (Units=GPa)
#
#
# Indices 1 2 3 4 5 6 
#
# 1 61.8006 47.3862 33.4104 0.0000 -10.9032 0.0000
# 2 47.3862 111.4830 42.6992 0.0000 -8.9676 0.0000
# 3 33.4104 42.6992 70.6533 0.0000 -16.8873 0.0000
# 4 0.0000 0.0000 0.0000 15.8809 0.0000 -0.0728
# 5 -10.9032 -8.9676 -16.8873 0.0000 14.3903 0.0000
# 6 0.0000 0.0000 0.0000 -0.0728 0.0000 30.1269
#
#
#
# Elastic Compliance Matrix: (Units=1/GPa)
#
#
# Indices 1 2 3 4 5 6 
#
# 1 0.027541 -0.008869 -0.005555 0.000000 0.008821 0.000000
# 2 -0.008869 0.014548 -0.005611 0.000000 -0.004239 0.000000
# 3 -0.005555 -0.005611 0.025475 0.000000 0.022190 0.000000
# 4 0.000000 0.000000 0.000000 0.062969 0.000000 0.000152
# 5 0.008821 -0.004239 0.022190 0.000000 0.099574 0.000000
# 6 0.000000 0.000000 0.000000 0.000152 0.000000 0.033193
#
#
# Mechanical properties :
#
#
# Convention : Reuss Voigt Hill
#
# Bulk Modulus (GPa) = 36.37215 54.54763 45.45989
# Shear Modulus (GPa) = 15.99815 20.10905 18.05360
#
# Velocity S-wave (km/s) = 3.11169 3.48865 3.30554
# Velocity P-wave (km/s) = 5.90963 7.01723 6.48711
#
# Compressibility (1/GPa) = 0.02749356
#
# Stress axis : x y z
#
# Youngs Moduli (GPa) = 36.30942 68.73780 39.25354
#
# Poissons Ratio (x) = 0.60965 0.21806
# Poissons Ratio (y) = 0.32204 0.22026
# Poissons Ratio (z) = 0.20170 0.38570
#
# Static dielectric constant tensor:
#      x y z
#    x 2.995660 0.000000 -0.196550 
#    y 0.000000 3.332190 0.000000 
#    z -0.196550 0.000000 2.699280 
# 
# 
# High freq. dielectric constant tensor:
#      x y z
#    x 1.624510 0.000000 -0.021210 
#    y 0.000000 1.653160 0.000000 
#    z -0.021210 0.000000 1.574950 
# 
# From -- ./inp_files/225232.got.cif
#   From: 2010.06.25/outbox.cif.g09.slc.cpg/sg12_113_cif.got.tgz:225232.got - 2010.06.28 00:19:55.
