data_PCOD8084904
_publ_section_title
;
Structure prediction by ZEFSAII (Michael W. Deem and Ramdas Pophale) SiO2 
 PCOD8084904
Probable space group: C 2/M
;
_chemical_formula_sum "Si O2"
_cell_formula_units_Z 64
_cell_length_a 24.929748
_cell_length_b 9.332682
_cell_length_c 18.684425
_cell_angle_alpha 90.000000
_cell_angle_beta 115.089026
_cell_angle_gamma 90.000000
_cell_volume 3936.991705
_symmetry_space_group_name_H-M "C 2/M"
_symmetry_group_IT_number 12
_symmetry_cell_setting 'monoclinic'
loop_
_space_group_symop_operation_xyz
x,y,z
-x,y,-z
-x,-y,-z
x,-y,z
1/2+x,1/2+y,z
1/2-x,1/2+y,-z
1/2-x,1/2-y,-z
1/2+x,1/2-y,z
loop_
_atom_site_type_symbol
_atom_site_label
_atom_site_fract_x
_atom_site_fract_y
_atom_site_fract_z
Si Si1 0.011784 0.665308 0.826102
Si Si2 0.048070 0.833084 0.087091
Si Si3 0.001387 0.335821 0.656856
Si Si4 0.110792 0.166871 0.659562
Si Si5 0.213682 0.834031 0.820367
Si Si6 0.328407 0.666060 0.913312
Si Si7 0.440197 0.341518 0.511716
Si Si8 0.633777 0.667946 0.907944
O O1 0.020286 0.500000 0.852585
O O2 0.074028 0.743624 0.868926
O O3 0.963433 0.738874 0.849420
O O4 0.986448 0.679233 0.731744
O O5 0.111971 0.789409 0.093530
O O6 0.044281 0.000000 0.105346
O O7 0.000000 0.794675 0.000000
O O8 0.008100 0.500000 0.637000
O O9 0.946526 0.267616 0.581313
O O10 0.062959 0.257096 0.676393
O O11 0.175490 0.199619 0.727715
O O12 0.110601 0.205168 0.574340
O O13 0.093883 0.000000 0.660977
O O14 0.274535 0.749990 0.847338
O O15 0.177146 0.783285 0.869155
O O16 0.229253 0.000000 0.835930
O O17 0.315115 0.500000 0.895799
O O18 0.333752 0.705485 0.999763
O O19 0.500000 0.341997 0.500000
O O20 0.426999 0.500000 0.535161
O O21 0.617390 0.500000 0.894127
#
# Coordination Sequence:
#
# PCOD8084904 Si02
#       8
#     8   8   8   8   8   8   8   8
#     4  11  22  32  48  75 101 127 162 206 248 285
#     4  10  20  37  56  70  91 127 167 204 248 295
#     4  10  19  29  43  69 101 128 157 196 243 288
#     4   9  17  30  47  68  96 130 165 194 230 285
#     4  10  20  32  50  73  99 133 165 197 240 289
#     4  10  21  35  51  71  95 126 166 208 243 286
#     4   8  15  27  44  66  93 127 162 194 229 282
#     4  10  19  34  52  69  96 134 168 197 238 289
#
# _framework density 16.256067999999999
#
# number of rings (size 3 to 8) (size 9 to 14) (size 15 to 20)
#    0.000    2.250    2.500    1.875    0.000    6.000 
#    0.000    0.000    0.000    0.000    0.000    0.875 
#    0.000    0.000    0.000    0.000    0.000    0.000 
#
# Total GULP energy -396792.148547 kJ/mol
# GULP energy per Si atom -12399.754642 kJ/mol
# Density = 1.621907 g / cm^3
# Si number density = 16.256068 Si / 1000 Ang^3
#
#
#
# Elastic Constant Matrix: (Units=GPa)
#
#
# Indices 1 2 3 4 5 6 
#
# 1 81.9832 43.0241 52.6109 0.0000 11.6904 0.0000
# 2 43.0241 75.2749 55.1406 0.0000 2.2737 0.0000
# 3 52.6109 55.1406 119.0959 0.0000 12.4932 0.0000
# 4 0.0000 0.0000 0.0000 28.1110 0.0000 2.1595
# 5 11.6904 2.2737 12.4932 0.0000 17.0960 0.0000
# 6 0.0000 0.0000 0.0000 2.1595 0.0000 24.4899
#
#
#
# Elastic Compliance Matrix: (Units=1/GPa)
#
#
# Indices 1 2 3 4 5 6 
#
# 1 0.020778 -0.008503 -0.004191 0.000000 -0.010014 0.000000
# 2 -0.008503 0.023903 -0.008217 0.000000 0.008640 0.000000
# 3 -0.004191 -0.008217 0.014769 0.000000 -0.006834 0.000000
# 4 0.000000 0.000000 0.000000 0.035816 0.000000 -0.003158
# 5 -0.010014 0.008640 -0.006834 0.000000 0.069186 0.000000
# 6 0.000000 0.000000 0.000000 -0.003158 0.000000 0.041112
#
#
# Mechanical properties :
#
#
# Convention : Reuss Voigt Hill
#
# Bulk Modulus (GPa) = 56.72998 64.21170 60.47084
# Shear Modulus (GPa) = 19.74243 22.31126 21.02684
#
# Velocity S-wave (km/s) = 3.48870 3.70873 3.60040
# Velocity P-wave (km/s) = 7.15552 7.61088 7.38671
#
# Compressibility (1/GPa) = 0.01762736
#
# Stress axis : x y z
#
# Youngs Moduli (GPa) = 48.12898 41.83615 67.70765
#
# Poissons Ratio (x) = 0.35573 0.28378
# Poissons Ratio (y) = 0.40924 0.55635
# Poissons Ratio (z) = 0.20172 0.34377
#
# Static dielectric constant tensor:
#      x y z
#    x 2.824530 0.000000 -0.073950 
#    y 0.000000 3.106110 0.000000 
#    z -0.073950 0.000000 3.440410 
# 
# 
# High freq. dielectric constant tensor:
#      x y z
#    x 1.586030 0.000000 -0.001810 
#    y 0.000000 1.628320 0.000000 
#    z -0.001810 0.000000 1.634010 
# 
# From -- ./inp_files/323780.got.cif
#   From: 2010.06.25/outbox.cif.g09.slc.cpg/sg12_162_cif.got.tgz:323780.got - 2010.06.28 00:19:55.
