data_PCOD8084431
_publ_section_title
;
Structure prediction by ZEFSAII (Michael W. Deem and Ramdas Pophale) SiO2 
 PCOD8084431
Probable space group: C 2/M
;
_chemical_formula_sum "Si O2"
_cell_formula_units_Z 40
_cell_length_a 10.763824
_cell_length_b 24.535817
_cell_length_c 9.258097
_cell_angle_alpha 90.000000
_cell_angle_beta 122.373382
_cell_angle_gamma 90.000000
_cell_volume 2065.037619
_symmetry_space_group_name_H-M "C 2/M"
_symmetry_group_IT_number 12
_symmetry_cell_setting 'monoclinic'
loop_
_space_group_symop_operation_xyz
x,y,z
-x,y,-z
-x,-y,-z
x,-y,z
1/2+x,1/2+y,z
1/2-x,1/2+y,-z
1/2-x,1/2-y,-z
1/2+x,1/2-y,z
loop_
_atom_site_type_symbol
_atom_site_label
_atom_site_fract_x
_atom_site_fract_y
_atom_site_fract_z
Si Si1 0.060206 0.500000 0.372968
Si Si2 0.406910 0.591168 0.801204
Si Si3 0.585811 0.285114 0.202125
Si Si4 0.090124 0.395204 0.696360
Si Si5 0.152365 0.722201 0.815497
Si Si6 0.592224 0.500000 0.413647
O O1 0.233161 0.500000 0.451736
O O2 0.000000 0.500000 0.500000
O O3 0.996146 0.442850 0.267649
O O4 0.427262 0.652571 0.758451
O O5 0.238795 0.577236 0.731951
O O6 0.459965 0.553101 0.705338
O O7 0.500000 0.578264 0.000000
O O8 0.757819 0.269205 0.279867
O O9 0.509996 0.249537 0.282298
O O10 0.500000 0.275084 0.000000
O O11 0.128178 0.343111 0.822193
O O12 0.000000 0.374357 0.500000
O O13 0.250000 0.750000 0.000000
O O14 0.500000 0.500000 0.500000
#
# Coordination Sequence:
#
# PCOD8084431 Si02
#       6
#     4   8   8   8   8   4
#     4  10  18  38  63  83 113 159 207 241 295 377
#     4  10  19  36  62  89 114 161 211 246 293 380
#     4   8  16  31  52  77 108 141 191 241 289 343
#     4  10  18  35  65  86 109 157 216 244 286 368
#     4   9  17  32  53  81 112 148 187 241 294 350
#     4  12  23  38  58  92 129 154 193 270 328 344
#
# _framework density 19.370107999999998
#
# number of rings (size 3 to 8) (size 9 to 14) (size 15 to 20)
#    0.000    2.400    4.000    1.500    0.000    0.000 
#    3.600    5.000    0.000    1.200    0.000    0.000 
#    0.000    0.000    0.000    0.000    0.000    0.000 
#
# Total GULP energy -247763.432486 kJ/mol
# GULP energy per Si atom -12388.171624 kJ/mol
# Density = 1.932602 g / cm^3
# Si number density = 19.370108 Si / 1000 Ang^3
#
#
#
# Elastic Constant Matrix: (Units=GPa)
#
#
# Indices 1 2 3 4 5 6 
#
# 1 169.8409 79.9725 35.1814 0.0000 -13.5586 0.0000
# 2 79.9725 152.4376 41.0418 0.0000 -15.4668 0.0000
# 3 35.1814 41.0418 53.1288 0.0000 1.4616 0.0000
# 4 0.0000 0.0000 0.0000 44.9347 0.0000 2.2825
# 5 -13.5586 -15.4668 1.4616 0.0000 22.7618 0.0000
# 6 0.0000 0.0000 0.0000 2.2825 0.0000 34.8237
#
#
#
# Elastic Compliance Matrix: (Units=1/GPa)
#
#
# Indices 1 2 3 4 5 6 
#
# 1 0.008273 -0.003213 -0.003077 0.000000 0.002942 0.000000
# 2 -0.003213 0.010455 -0.006102 0.000000 0.005582 0.000000
# 3 -0.003077 -0.006102 0.025784 0.000000 -0.007635 0.000000
# 4 0.000000 0.000000 0.000000 0.022329 0.000000 -0.001464
# 5 0.002942 0.005582 -0.007635 0.000000 0.049969 0.000000
# 6 0.000000 0.000000 0.000000 -0.001464 0.000000 0.028812
#
#
# Mechanical properties :
#
#
# Convention : Reuss Voigt Hill
#
# Bulk Modulus (GPa) = 50.69256 76.42208 63.55732
# Shear Modulus (GPa) = 28.25124 35.11816 31.68470
#
# Velocity S-wave (km/s) = 3.82317 4.26256 4.04883
# Velocity P-wave (km/s) = 6.76137 7.98531 7.39869
#
# Compressibility (1/GPa) = 0.01972676
#
# Stress axis : x y z
#
# Youngs Moduli (GPa) = 120.87236 95.64607 38.78395
#
# Poissons Ratio (x) = 0.30734 0.11934
# Poissons Ratio (y) = 0.38840 0.23667
# Poissons Ratio (z) = 0.37193 0.58367
#
# Static dielectric constant tensor:
#      x y z
#    x 4.121810 0.000000 0.136720 
#    y 0.000000 3.881390 0.000000 
#    z 0.136720 0.000000 2.917210 
# 
# 
# High freq. dielectric constant tensor:
#      x y z
#    x 1.762730 0.000000 0.027140 
#    y 0.000000 1.768590 0.000000 
#    z 0.027140 0.000000 1.697290 
# 
# From -- ./inp_files/51768.got.cif
#   From: 2010.06.25/outbox.cif.g09.slc.cpg/sg12_26_cif.got.tgz:51768.got - 2010.06.28 00:19:55.
