data_PCOD8084058
_publ_section_title
;
Structure prediction by ZEFSAII (Michael W. Deem and Ramdas Pophale) SiO2 
 PCOD8084058
Probable space group: C 2/M
;
_chemical_formula_sum "Si O2"
_cell_formula_units_Z 56
_cell_length_a 31.699960
_cell_length_b 8.768499
_cell_length_c 23.764695
_cell_angle_alpha 90.000000
_cell_angle_beta 153.280149
_cell_angle_gamma 90.000000
_cell_volume 2970.092953
_symmetry_space_group_name_H-M "C 2/M"
_symmetry_group_IT_number 12
_symmetry_cell_setting 'monoclinic'
loop_
_space_group_symop_operation_xyz
x,y,z
-x,y,-z
-x,-y,-z
x,-y,z
1/2+x,1/2+y,z
1/2-x,1/2+y,-z
1/2-x,1/2-y,-z
1/2+x,1/2-y,z
loop_
_atom_site_type_symbol
_atom_site_label
_atom_site_fract_x
_atom_site_fract_y
_atom_site_fract_z
Si Si1 0.549153 0.319346 0.971545
Si Si2 0.865865 0.821626 0.811977
Si Si3 0.618222 0.819865 0.938497
Si Si4 0.892487 0.178357 0.377529
Si Si5 0.475817 0.179885 0.285537
Si Si6 0.684875 0.819585 0.823353
Si Si7 0.657179 0.179566 0.565230
O O1 0.555962 0.500000 0.969750
O O2 0.442936 0.262205 0.859120
O O3 0.581948 0.237279 0.954688
O O4 0.614947 0.262167 0.101590
O O5 0.761264 0.780192 0.666261
O O6 0.882086 0.000000 0.835206
O O7 0.545416 0.765735 0.803212
O O8 0.627983 0.000000 0.951893
O O9 0.718095 0.751349 0.040070
O O10 0.831609 0.271630 0.260463
O O11 0.856928 0.222495 0.396206
O O12 0.000000 0.228066 0.500000
O O13 0.878146 0.000000 0.349617
O O14 0.399003 0.246666 0.237679
O O15 0.580571 0.232888 0.427857
O O16 0.469015 0.000000 0.281333
O O17 0.692524 0.000000 0.836176
O O18 0.647845 0.000000 0.568096
#
# Coordination Sequence:
#
# PCOD8084058 Si02
#       7
#     8   8   8   8   8   8   8
#     4   9  17  34  55  81 106 131 171 219 266 320
#     4   8  16  31  57  82 103 129 169 222 267 308
#     4  11  22  36  52  76 107 140 175 224 275 314
#     4  11  22  34  50  79 115 142 166 212 269 313
#     4   9  20  35  52  74 105 141 183 222 260 309
#     4  11  21  36  56  77 100 140 187 224 257 311
#     4  10  18  34  57  79 103 143 186 218 255 312
#
# _framework density 18.854628999999999
#
# number of rings (size 3 to 8) (size 9 to 14) (size 15 to 20)
#    0.000    2.143    1.429    3.429    0.000    1.714 
#    0.000    6.429    0.000    0.000    0.000    0.000 
#    0.000    0.000    0.000    0.000    0.000    0.000 
#
# Total GULP energy -347145.631374 kJ/mol
# GULP energy per Si atom -12398.058263 kJ/mol
# Density = 1.881172 g / cm^3
# Si number density = 18.854629 Si / 1000 Ang^3
#
#
#
# Elastic Constant Matrix: (Units=GPa)
#
#
# Indices 1 2 3 4 5 6 
#
# 1 85.4497 19.1336 66.6353 0.0000 8.8364 0.0000
# 2 19.1336 46.1788 29.1687 0.0000 1.9928 0.0000
# 3 66.6353 29.1687 158.7432 0.0000 10.8852 0.0000
# 4 0.0000 0.0000 0.0000 11.4313 0.0000 -1.7543
# 5 8.8364 1.9928 10.8852 0.0000 32.8222 0.0000
# 6 0.0000 0.0000 0.0000 -1.7543 0.0000 19.8954
#
#
#
# Elastic Compliance Matrix: (Units=1/GPa)
#
#
# Indices 1 2 3 4 5 6 
#
# 1 0.017938 -0.003028 -0.006810 0.000000 -0.002387 0.000000
# 2 -0.003028 0.025009 -0.003352 0.000000 0.000409 0.000000
# 3 -0.006810 -0.003352 0.009858 0.000000 -0.001233 0.000000
# 4 0.000000 0.000000 0.000000 0.088679 0.000000 0.007819
# 5 -0.002387 0.000409 -0.001233 0.000000 0.031494 0.000000
# 6 0.000000 0.000000 0.000000 0.007819 0.000000 0.050952
#
#
# Mechanical properties :
#
#
# Convention : Reuss Voigt Hill
#
# Bulk Modulus (GPa) = 37.84193 57.80521 47.82357
# Shear Modulus (GPa) = 19.29609 24.52539 21.91074
#
# Velocity S-wave (km/s) = 3.20255 3.61052 3.41264
# Velocity P-wave (km/s) = 5.81284 6.93585 6.39903
#
# Compressibility (1/GPa) = 0.02642572
#
# Stress axis : x y z
#
# Youngs Moduli (GPa) = 55.74753 39.98481 101.43533
#
# Poissons Ratio (x) = 0.12108 0.69075
# Poissons Ratio (y) = 0.16881 0.34005
# Poissons Ratio (z) = 0.37963 0.13404
#
# Static dielectric constant tensor:
#      x y z
#    x 3.520220 0.000000 0.144630 
#    y 0.000000 3.174150 0.000000 
#    z 0.144630 0.000000 3.882470 
# 
# 
# High freq. dielectric constant tensor:
#      x y z
#    x 1.726350 0.000000 0.007270 
#    y 0.000000 1.706210 0.000000 
#    z 0.007270 0.000000 1.742770 
# 
# From -- ./inp_files/230970.got.cif
#   From: 2010.06.25/outbox.cif.g09.slc.cpg/sg12_116_cif.got.tgz:230970.got - 2010.06.28 00:19:55.
