data_PCOD8084034
_publ_section_title
;
Structure prediction by ZEFSAII (Michael W. Deem and Ramdas Pophale) SiO2 
 PCOD8084034
Probable space group: C 2/M
;
_chemical_formula_sum "Si O2"
_cell_formula_units_Z 56
_cell_length_a 20.121374
_cell_length_b 8.523107
_cell_length_c 28.222971
_cell_angle_alpha 90.000000
_cell_angle_beta 145.879878
_cell_angle_gamma 90.000000
_cell_volume 2714.980996
_symmetry_space_group_name_H-M "C 2/M"
_symmetry_group_IT_number 12
_symmetry_cell_setting 'monoclinic'
loop_
_space_group_symop_operation_xyz
x,y,z
-x,y,-z
-x,-y,-z
x,-y,z
1/2+x,1/2+y,z
1/2-x,1/2+y,-z
1/2-x,1/2-y,-z
1/2+x,1/2-y,z
loop_
_atom_site_type_symbol
_atom_site_label
_atom_site_fract_x
_atom_site_fract_y
_atom_site_fract_z
Si Si1 0.490458 0.817849 0.075736
Si Si2 0.729865 0.686016 0.247348
Si Si3 0.268852 0.684285 0.907631
Si Si4 0.391366 0.316016 0.268925
Si Si5 0.900534 0.179493 0.117309
Si Si6 0.845819 0.177989 0.696715
Si Si7 0.342731 0.686518 0.591853
O O1 0.614409 0.724406 0.147368
O O2 0.425612 0.787396 0.087210
O O3 0.517762 0.000000 0.084643
O O4 0.401443 0.757321 0.981887
O O5 0.747851 0.500000 0.258179
O O6 0.844761 0.771822 0.293825
O O7 0.711577 0.755940 0.290047
O O8 0.278560 0.500000 0.918235
O O9 0.191892 0.726150 0.816818
O O10 0.212392 0.754226 0.922143
O O11 0.381979 0.500000 0.253423
O O12 0.526020 0.255592 0.344752
O O13 0.011926 0.187377 0.218591
O O14 0.878909 0.000000 0.088196
O O15 0.808015 0.253547 0.623858
O O16 0.802330 0.000000 0.671840
O O17 0.339683 0.500000 0.590540
O O18 0.250000 0.750000 0.500000
#
# Coordination Sequence:
#
# PCOD8084034 Si02
#       7
#     8   8   8   8   8   8   8
#     4  11  22  36  54  82 118 160 205 248 296 348
#     4  10  21  39  62  87 118 158 203 246 293 351
#     4  12  23  35  54  83 117 156 205 253 297 349
#     4  11  23  41  62  86 120 158 194 243 306 359
#     4  10  18  34  56  81 116 157 201 249 300 349
#     4   8  16  35  61  85 115 155 193 235 291 347
#     4  10  21  40  65  93 120 151 190 239 297 357
#
# _framework density 20.626296
#
# number of rings (size 3 to 8) (size 9 to 14) (size 15 to 20)
#    0.000    1.714    1.429    5.143    0.000    1.714 
#    0.000    5.000    0.000    4.286    0.000    0.000 
#    0.000    0.000    0.000    0.000    0.000    0.000 
#
# Total GULP energy -347155.382809 kJ/mol
# GULP energy per Si atom -12398.406529 kJ/mol
# Density = 2.057935 g / cm^3
# Si number density = 20.626296 Si / 1000 Ang^3
#
#
#
# Elastic Constant Matrix: (Units=GPa)
#
#
# Indices 1 2 3 4 5 6 
#
# 1 86.2362 10.4365 48.7964 0.0000 11.9454 0.0004
# 2 10.4365 58.5995 14.3258 0.0002 -3.3028 0.0013
# 3 48.7964 14.3258 120.8334 0.0001 -11.7955 0.0001
# 4 0.0000 0.0002 0.0001 31.1257 0.0000 0.4955
# 5 11.9454 -3.3028 -11.7955 0.0000 18.7155 0.0000
# 6 0.0004 0.0013 0.0001 0.4955 0.0000 30.9330
#
#
#
# Elastic Compliance Matrix: (Units=1/GPa)
#
#
# Indices 1 2 3 4 5 6 
#
# 1 0.020041 -0.002285 -0.009707 0.000000 -0.019312 0.000000
# 2 -0.002285 0.017899 -0.000798 0.000000 0.004114 -0.000001
# 3 -0.009707 -0.000798 0.013726 0.000000 0.014706 0.000000
# 4 0.000000 0.000000 0.000000 0.032136 0.000000 -0.000515
# 5 -0.019312 0.004114 0.014706 0.000000 0.075753 0.000000
# 6 0.000000 -0.000001 0.000000 -0.000515 0.000000 0.032336
#
#
# Mechanical properties :
#
#
# Convention : Reuss Voigt Hill
#
# Bulk Modulus (GPa) = 38.33489 45.86516 42.10003
# Shear Modulus (GPa) = 22.10770 28.96219 25.53494
#
# Velocity S-wave (km/s) = 3.27742 3.75125 3.52231
# Velocity P-wave (km/s) = 5.74001 6.40680 6.08255
#
# Compressibility (1/GPa) = 0.02608589
#
# Stress axis : x y z
#
# Youngs Moduli (GPa) = 49.89868 55.86968 72.85336
#
# Poissons Ratio (x) = 0.12764 0.70722
# Poissons Ratio (y) = 0.11400 0.05813
# Poissons Ratio (z) = 0.48439 0.04458
#
# Static dielectric constant tensor:
#      x y z
#    x 4.019540 0.000000 -0.117730 
#    y 0.000000 3.520430 0.000000 
#    z -0.117730 0.000000 3.861020 
# 
# 
# High freq. dielectric constant tensor:
#      x y z
#    x 1.815830 0.000000 -0.003780 
#    y 0.000000 1.793040 0.000000 
#    z -0.003780 0.000000 1.789320 
# 
# From -- ./inp_files/380776.got.cif
#   From: 2010.06.25/outbox.cif.g09.slc.cpg/sg12_191_cif.got.tgz:380776.got - 2010.06.28 00:19:55.
