data_PCOD8084637
_publ_section_title
;
Structure prediction by ZEFSAII (Michael W. Deem and Ramdas Pophale) SiO2 
 PCOD8084637
Probable space group: C 2/M
;
_chemical_formula_sum "Si O2"
_cell_formula_units_Z 44
_cell_length_a 31.804388
_cell_length_b 11.559159
_cell_length_c 19.625188
_cell_angle_alpha 90.000000
_cell_angle_beta 162.095371
_cell_angle_gamma 90.000000
_cell_volume 2218.085547
_symmetry_space_group_name_H-M "C 2/M"
_symmetry_group_IT_number 12
_symmetry_cell_setting 'monoclinic'
loop_
_space_group_symop_operation_xyz
x,y,z
-x,y,-z
-x,-y,-z
x,-y,z
1/2+x,1/2+y,z
1/2-x,1/2+y,-z
1/2-x,1/2-y,-z
1/2+x,1/2-y,z
loop_
_atom_site_type_symbol
_atom_site_label
_atom_site_fract_x
_atom_site_fract_y
_atom_site_fract_z
Si Si1 0.735623 0.000000 0.118585
Si Si2 0.469698 0.000000 0.086735
Si Si3 0.381829 0.776170 0.659925
Si Si4 0.629500 0.243152 0.508999
Si Si5 0.176644 0.000000 0.603288
Si Si6 0.350974 0.362726 0.951948
Si Si7 0.174361 0.276170 0.952457
O O1 0.755651 0.113242 0.104931
O O2 0.583008 0.000000 0.916016
O O3 0.847008 0.000000 0.351182
O O4 0.557089 0.886758 0.207809
O O5 0.338661 0.000000 0.834488
O O6 0.250000 0.750000 0.500000
O O7 0.334374 0.806242 0.509917
O O8 0.496051 0.674606 0.834395
O O9 0.611959 0.382949 0.473919
O O10 0.483289 0.193758 0.307746
O O11 0.745224 0.205581 0.740448
O O12 0.333383 0.500000 0.916767
O O13 0.319362 0.325394 0.981017
O O14 0.250000 0.250000 0.000000
#
# Coordination Sequence:
#
# PCOD8084637 Si02
#       7
#     4   4   8   8   4   8   8
#     4  10  18  45  62  80 132 164 199 249 304 374
#     4  10  18  45  62  80 132 164 199 249 304 374
#     4  11  25  41  64  94 123 163 206 252 308 362
#     4  11  22  41  66  85 124 166 204 247 314 355
#     4  10  18  40  68  84 116 170 198 256 306 356
#     4  11  24  43  59  93 129 158 207 257 299 365
#     4  11  25  41  64  94 123 163 206 252 308 362
#
# _framework density 19.836928
#
# number of rings (size 3 to 8) (size 9 to 14) (size 15 to 20)
#    0.545    0.727    7.273    0.000   10.182    1.455 
#    0.000    3.636    0.000    0.000    0.000    0.000 
#    0.000    0.000    0.000    0.000    0.000    0.000 
#
# Total GULP energy -272691.072945 kJ/mol
# GULP energy per Si atom -12395.048770 kJ/mol
# Density = 1.979178 g / cm^3
# Si number density = 19.836928 Si / 1000 Ang^3
#
#
#
# Elastic Constant Matrix: (Units=GPa)
#
#
# Indices 1 2 3 4 5 6 
#
# 1 115.5410 2.2297 45.8288 0.0000 25.9118 0.0000
# 2 2.2297 96.6066 -6.1279 0.0000 3.8412 0.0000
# 3 45.8288 -6.1279 75.1797 0.0000 -7.3614 0.0000
# 4 0.0000 0.0000 0.0000 26.9372 0.0000 -1.2085
# 5 25.9118 3.8412 -7.3614 0.0000 21.9601 0.0000
# 6 0.0000 0.0000 0.0000 -1.2085 0.0000 24.3079
#
#
#
# Elastic Compliance Matrix: (Units=1/GPa)
#
#
# Indices 1 2 3 4 5 6 
#
# 1 0.022688 -0.000315 -0.017031 0.000000 -0.032425 0.000000
# 2 -0.000315 0.010463 0.000932 0.000000 -0.001146 0.000000
# 3 -0.017031 0.000932 0.026584 0.000000 0.028844 0.000000
# 4 0.000000 0.000000 0.000000 0.037206 0.000000 0.001850
# 5 -0.032425 -0.001146 0.028844 0.000000 0.093666 0.000000
# 6 0.000000 0.000000 0.000000 0.001850 0.000000 0.041231
#
#
# Mechanical properties :
#
#
# Convention : Reuss Voigt Hill
#
# Bulk Modulus (GPa) = 37.16294 41.24314 39.20304
# Shear Modulus (GPa) = 18.27261 31.00083 24.63672
#
# Velocity S-wave (km/s) = 3.03832 3.95749 3.52797
# Velocity P-wave (km/s) = 5.57525 6.45899 6.03332
#
# Compressibility (1/GPa) = 0.02690853
#
# Stress axis : x y z
#
# Youngs Moduli (GPa) = 44.07632 95.57258 37.61717
#
# Poissons Ratio (x) = 0.03008 0.64065
# Poissons Ratio (y) = 0.01387 -0.03508
# Poissons Ratio (z) = 0.75066 -0.08912
#
# Static dielectric constant tensor:
#      x y z
#    x 3.365540 0.000000 -0.106650 
#    y 0.000000 3.656470 0.000000 
#    z -0.106650 0.000000 3.597580 
# 
# 
# High freq. dielectric constant tensor:
#      x y z
#    x 1.756650 0.000000 -0.009490 
#    y 0.000000 1.777040 0.000000 
#    z -0.009490 0.000000 1.777300 
# 
# From -- ./inp_files/296569.got.cif
#   From: 2010.06.25/outbox.cif.g09.slc.cpg/sg12_149_cif.got.tgz:296569.got - 2010.06.28 00:19:55.
