data_PCOD8084971
_publ_section_title
;
Structure prediction by ZEFSAII (Michael W. Deem and Ramdas Pophale) SiO2 
 PCOD8084971
Probable space group: C 2/M
;
_chemical_formula_sum "Si O2"
_cell_formula_units_Z 64
_cell_length_a 23.108261
_cell_length_b 9.340860
_cell_length_c 22.963714
_cell_angle_alpha 90.000000
_cell_angle_beta 47.772023
_cell_angle_gamma 90.000000
_cell_volume 3670.350543
_symmetry_space_group_name_H-M "C 2/M"
_symmetry_group_IT_number 12
_symmetry_cell_setting 'monoclinic'
loop_
_space_group_symop_operation_xyz
x,y,z
-x,y,-z
-x,-y,-z
x,-y,z
1/2+x,1/2+y,z
1/2-x,1/2+y,-z
1/2-x,1/2-y,-z
1/2+x,1/2-y,z
loop_
_atom_site_type_symbol
_atom_site_label
_atom_site_fract_x
_atom_site_fract_y
_atom_site_fract_z
Si Si1 0.421696 0.333702 0.717232
Si Si2 0.969976 0.829719 0.932229
Si Si3 0.349300 0.669703 0.361285
Si Si4 0.907656 0.165613 0.445238
Si Si5 0.379145 0.670101 0.102945
Si Si6 0.695086 0.830674 0.402574
Si Si7 0.787633 0.669602 0.742660
Si Si8 0.487721 0.670293 0.792930
O O1 0.398336 0.500000 0.729645
O O2 0.501402 0.305709 0.628190
O O3 0.354399 0.238370 0.736133
O O4 0.432072 0.282560 0.777329
O O5 0.053927 0.773328 0.898381
O O6 0.954995 0.770984 0.876878
O O7 0.972254 0.000000 0.930135
O O8 0.900992 0.778272 0.022414
O O9 0.349506 0.500000 0.355776
O O10 0.356129 0.714456 0.424311
O O11 0.270803 0.731234 0.385386
O O12 0.424571 0.730803 0.275820
O O13 0.881843 0.258645 0.518125
O O14 0.893061 0.000000 0.469285
O O15 0.376705 0.500000 0.107445
O O16 0.295335 0.731444 0.178675
O O17 0.701357 0.784266 0.331465
O O18 0.687645 0.000000 0.414360
O O19 0.792155 0.500000 0.746780
O O20 0.492447 0.500000 0.789523
#
# Coordination Sequence:
#
# PCOD8084971 Si02
#       8
#     8   8   8   8   8   8   8   8
#     4   9  19  34  48  62  84 118 156 187 215 252
#     4   8  12  21  42  70  95 115 139 176 219 262
#     4   8  14  26  44  66  91 114 138 176 225 269
#     4   9  18  32  48  65  86 113 146 185 224 259
#     4   8  14  24  40  67  98 119 137 172 223 266
#     4  10  19  29  45  68  90 114 144 179 223 272
#     4  10  20  32  45  64  92 121 147 179 220 261
#     4   8  13  24  44  66  86 113 150 184 213 253
#
# _framework density 17.437027
#
# number of rings (size 3 to 8) (size 9 to 14) (size 15 to 20)
#    0.000    3.250    0.000    3.375    0.000    4.500 
#    0.000    3.125    0.000    0.750    0.000    2.625 
#    0.000    0.000    0.000    0.000    0.000    0.000 
#
# Total GULP energy -396594.170140 kJ/mol
# GULP energy per Si atom -12393.567817 kJ/mol
# Density = 1.739734 g / cm^3
# Si number density = 17.437027 Si / 1000 Ang^3
#
#
#
# Elastic Constant Matrix: (Units=GPa)
#
#
# Indices 1 2 3 4 5 6 
#
# 1 112.2760 24.1724 79.0884 -0.0001 5.5595 0.0001
# 2 24.1724 15.0882 30.2903 -0.0002 3.5936 0.0006
# 3 79.0884 30.2903 154.7310 -0.0001 19.5819 0.0001
# 4 -0.0001 -0.0002 -0.0001 14.9314 0.0000 -1.0789
# 5 5.5595 3.5936 19.5819 0.0000 19.9420 0.0000
# 6 0.0001 0.0006 0.0001 -1.0789 0.0000 23.8021
#
#
#
# Elastic Compliance Matrix: (Units=1/GPa)
#
#
# Indices 1 2 3 4 5 6 
#
# 1 0.015978 -0.015060 -0.005708 0.000000 0.003864 0.000000
# 2 -0.015060 0.123420 -0.016192 0.000001 -0.002143 -0.000003
# 3 -0.005708 -0.016192 0.013679 0.000000 -0.008923 0.000000
# 4 0.000000 0.000001 0.000000 0.067193 0.000000 0.003046
# 5 0.003864 -0.002143 -0.008923 0.000000 0.058217 0.000000
# 6 0.000000 -0.000003 0.000000 0.003046 0.000000 0.042151
#
#
# Mechanical properties :
#
#
# Convention : Reuss Voigt Hill
#
# Bulk Modulus (GPa) = 12.63291 61.02193 36.82742
# Shear Modulus (GPa) = 11.87806 21.63805 16.75805
#
# Velocity S-wave (km/s) = 2.61281 3.52650 3.10346
# Velocity P-wave (km/s) = 4.04512 7.18701 5.83164
#
# Compressibility (1/GPa) = 0.07915830
#
# Stress axis : x y z
#
# Youngs Moduli (GPa) = 62.58472 8.10241 73.10229
#
# Poissons Ratio (x) = 0.12202 0.41727
# Poissons Ratio (y) = 0.94250 1.18368
# Poissons Ratio (z) = 0.35724 0.13120
#
# Static dielectric constant tensor:
#      x y z
#    x 3.301100 0.000000 0.122330 
#    y 0.000000 2.659940 0.000000 
#    z 0.122330 0.000000 3.554170 
# 
# 
# High freq. dielectric constant tensor:
#      x y z
#    x 1.670350 0.000000 0.007910 
#    y 0.000000 1.612950 0.000000 
#    z 0.007910 0.000000 1.683990 
# 
# From -- ./inp_files/320975.got.cif
#   From: 2010.06.25/outbox.cif.g09.slc.cpg/sg12_161_cif.got.tgz:320975.got - 2010.06.28 00:19:55.
