data_PCOD8084386
_publ_section_title
;
Structure prediction by ZEFSAII (Michael W. Deem and Ramdas Pophale) SiO2 
 PCOD8084386
Probable space group: C 2/M
;
_chemical_formula_sum "Si O2"
_cell_formula_units_Z 56
_cell_length_a 15.384137
_cell_length_b 8.951468
_cell_length_c 26.363146
_cell_angle_alpha 90.000000
_cell_angle_beta 53.738441
_cell_angle_gamma 90.000000
_cell_volume 2927.351825
_symmetry_space_group_name_H-M "C 2/M"
_symmetry_group_IT_number 12
_symmetry_cell_setting 'monoclinic'
loop_
_space_group_symop_operation_xyz
x,y,z
-x,y,-z
-x,-y,-z
x,-y,z
1/2+x,1/2+y,z
1/2-x,1/2+y,-z
1/2-x,1/2-y,-z
1/2+x,1/2-y,z
loop_
_atom_site_type_symbol
_atom_site_label
_atom_site_fract_x
_atom_site_fract_y
_atom_site_fract_z
Si Si1 0.772323 0.824498 0.568472
Si Si2 0.846161 0.823448 0.653840
Si Si3 0.908684 0.824125 0.425834
Si Si4 0.713069 0.322328 0.787805
Si Si5 0.714541 0.675208 0.135718
Si Si6 0.388898 0.669840 0.008673
Si Si7 0.470209 0.675597 0.874462
O O1 0.813598 0.773085 0.608806
O O2 0.860040 0.771551 0.496632
O O3 0.657114 0.749281 0.597471
O O4 0.755863 0.000000 0.571801
O O5 0.770413 0.736032 0.718087
O O6 0.968467 0.771296 0.620657
O O7 0.832824 0.000000 0.666354
O O8 0.899846 0.000000 0.423357
O O9 0.715298 0.500000 0.787872
O O10 0.775470 0.263599 0.815482
O O11 0.590835 0.258274 0.829016
O O12 0.724847 0.500000 0.143088
O O13 0.805106 0.721859 0.064547
O O14 0.597660 0.715514 0.152359
O O15 0.343513 0.500000 0.023393
O O16 0.500000 0.673350 0.000000
O O17 0.408645 0.736654 0.945580
O O18 0.480684 0.500000 0.878652
#
# Coordination Sequence:
#
# PCOD8084386 Si02
#       7
#     8   8   8   8   8   8   8
#     4   9  18  34  57  84 113 144 182 226 270 323
#     4  10  21  37  56  80 111 146 185 226 274 323
#     4   9  18  34  57  83 113 147 180 221 276 328
#     4  11  23  41  58  76 107 150 190 223 271 329
#     4  11  22  37  58  85 112 139 181 231 277 322
#     4  10  18  35  61  83 111 146 179 218 274 332
#     4   9  20  38  58  79 108 146 181 220 273 331
#
# _framework density 19.129918
#
# number of rings (size 3 to 8) (size 9 to 14) (size 15 to 20)
#    0.000    2.143    1.429    1.714    0.000    4.286 
#    0.000    7.857    0.000    4.286    0.000    0.000 
#    0.000    0.000    0.000    0.000    0.000    0.000 
#
# Total GULP energy -347246.057306 kJ/mol
# GULP energy per Si atom -12401.644904 kJ/mol
# Density = 1.908638 g / cm^3
# Si number density = 19.129918 Si / 1000 Ang^3
#
#
#
# Elastic Constant Matrix: (Units=GPa)
#
#
# Indices 1 2 3 4 5 6 
#
# 1 99.9096 30.5880 23.9286 0.0000 0.8779 0.0000
# 2 30.5880 40.8148 26.8385 0.0000 1.3879 0.0001
# 3 23.9286 26.8385 66.3784 0.0000 -5.4045 0.0000
# 4 0.0000 0.0000 0.0000 33.9720 0.0000 1.5204
# 5 0.8779 1.3879 -5.4045 0.0000 15.5478 0.0000
# 6 0.0000 0.0001 0.0000 1.5204 0.0000 26.8559
#
#
#
# Elastic Compliance Matrix: (Units=1/GPa)
#
#
# Indices 1 2 3 4 5 6 
#
# 1 0.013041 -0.009067 -0.001059 0.000000 -0.000295 0.000000
# 2 -0.009067 0.040647 -0.013810 0.000000 -0.007917 0.000000
# 3 -0.001059 -0.013810 0.021752 0.000000 0.008854 0.000000
# 4 0.000000 0.000000 0.000000 0.029511 0.000000 -0.001671
# 5 -0.000295 -0.007917 0.008854 0.000000 0.068119 0.000000
# 6 0.000000 0.000000 0.000000 -0.001671 0.000000 0.037330
#
#
# Mechanical properties :
#
#
# Convention : Reuss Voigt Hill
#
# Bulk Modulus (GPa) = 36.27638 41.09031 38.68334
# Shear Modulus (GPa) = 18.69426 23.65831 21.17628
#
# Velocity S-wave (km/s) = 3.12945 3.52052 3.33073
# Velocity P-wave (km/s) = 5.66236 6.16860 5.92089
#
# Compressibility (1/GPa) = 0.02756615
#
# Stress axis : x y z
#
# Youngs Moduli (GPa) = 76.67976 24.60234 45.97324
#
# Poissons Ratio (x) = 0.22307 0.04870
# Poissons Ratio (y) = 0.69526 0.63491
# Poissons Ratio (z) = 0.08122 0.33977
#
# Static dielectric constant tensor:
#      x y z
#    x 3.754130 0.000000 0.007410 
#    y 0.000000 3.312180 0.000000 
#    z 0.007410 0.000000 3.564570 
# 
# 
# High freq. dielectric constant tensor:
#      x y z
#    x 1.758100 0.000000 0.003940 
#    y 0.000000 1.725430 0.000000 
#    z 0.003940 0.000000 1.743440 
# 
# From -- ./inp_files/308956.got.cif
#   From: 2010.06.25/outbox.cif.g09.slc.cpg/sg12_155_cif.got.tgz:308956.got - 2010.06.28 00:19:55.
