data_PCOD8084066
_publ_section_title
;
Structure prediction by ZEFSAII (Michael W. Deem and Ramdas Pophale) SiO2 
 PCOD8084066
Probable space group: C 2/M
;
_chemical_formula_sum "Si O2"
_cell_formula_units_Z 64
_cell_length_a 28.861339
_cell_length_b 17.119915
_cell_length_c 13.619827
_cell_angle_alpha 90.000000
_cell_angle_beta 30.802294
_cell_angle_gamma 90.000000
_cell_volume 3446.078432
_symmetry_space_group_name_H-M "C 2/M"
_symmetry_group_IT_number 12
_symmetry_cell_setting 'monoclinic'
loop_
_space_group_symop_operation_xyz
x,y,z
-x,y,-z
-x,-y,-z
x,-y,z
1/2+x,1/2+y,z
1/2-x,1/2+y,-z
1/2-x,1/2-y,-z
1/2+x,1/2-y,z
loop_
_atom_site_type_symbol
_atom_site_label
_atom_site_fract_x
_atom_site_fract_y
_atom_site_fract_z
Si Si1 0.757404 0.588668 0.135294
Si Si2 0.011860 0.588573 0.807265
Si Si3 0.343293 0.795601 0.842051
Si Si4 0.786144 0.585635 0.505931
Si Si5 0.333232 0.117004 0.213671
Si Si6 0.148235 0.233658 0.371045
Si Si7 0.812824 0.215174 0.200895
Si Si8 0.534031 0.242800 0.212617
O O1 0.729548 0.500000 0.159727
O O2 0.799889 0.590119 0.166998
O O3 0.670954 0.646373 0.291189
O O4 0.825976 0.620013 0.925101
O O5 0.014617 0.500000 0.759269
O O6 0.112137 0.615850 0.656640
O O7 0.973378 0.650404 0.798470
O O8 0.939303 0.592332 0.029204
O O9 0.383463 0.794154 0.657937
O O10 0.412699 0.747352 0.782724
O O11 0.250000 0.750000 0.000000
O O12 0.769977 0.500000 0.580916
O O13 0.776949 0.578269 0.404541
O O14 0.709513 0.640780 0.691626
O O15 0.318324 0.208933 0.259299
O O16 0.236173 0.272704 0.258642
O O17 0.066612 0.222562 0.596201
O O18 0.910782 0.207830 0.969742
#
# Coordination Sequence:
#
# PCOD8084066 Si02
#       8
#     8   8   8   8   8   8   8   8
#     4  10  19  34  57  83 110 139 184 235 272 316
#     4  10  19  31  52  81 111 142 180 228 281 331
#     4  10  18  34  57  81 103 139 178 220 274 330
#     4  11  21  33  52  79 118 150 181 229 279 330
#     4  10  19  33  55  80 109 150 189 227 273 330
#     4  10  20  36  57  81 108 143 187 219 276 336
#     4  10  20  36  54  81 110 146 193 224 267 330
#     4  11  19  35  58  77 109 147 182 226 271 331
#
# _framework density 18.571833999999999
#
# number of rings (size 3 to 8) (size 9 to 14) (size 15 to 20)
#    0.000    1.750    6.250    2.250    0.000    1.000 
#    0.000    1.875    0.000    7.500    0.000    4.375 
#    0.000    0.000    0.000    0.000    0.000    0.000 
#
# Total GULP energy -396426.176587 kJ/mol
# GULP energy per Si atom -12388.318018 kJ/mol
# Density = 1.852956 g / cm^3
# Si number density = 18.571834 Si / 1000 Ang^3
#
#
#
# Elastic Constant Matrix: (Units=GPa)
#
#
# Indices 1 2 3 4 5 6 
#
# 1 62.6684 25.7111 24.0465 0.0000 7.3672 0.0000
# 2 25.7111 109.9793 51.5998 0.0000 8.5924 0.0000
# 3 24.0465 51.5998 123.5134 0.0000 10.2471 0.0000
# 4 0.0000 0.0000 0.0000 23.6164 0.0000 -2.1025
# 5 7.3672 8.5924 10.2471 0.0000 19.8806 0.0000
# 6 0.0000 0.0000 0.0000 -2.1025 0.0000 15.2431
#
#
#
# Elastic Compliance Matrix: (Units=1/GPa)
#
#
# Indices 1 2 3 4 5 6 
#
# 1 0.018490 -0.003055 -0.001948 0.000000 -0.004527 0.000000
# 2 -0.003055 0.011940 -0.004241 0.000000 -0.001843 0.000000
# 3 -0.001948 -0.004241 0.010483 0.000000 -0.002849 0.000000
# 4 0.000000 0.000000 0.000000 0.042870 0.000000 0.005913
# 5 -0.004527 -0.001843 -0.002849 0.000000 0.054243 0.000000
# 6 0.000000 0.000000 0.000000 0.005913 0.000000 0.066419
#
#
# Mechanical properties :
#
#
# Convention : Reuss Voigt Hill
#
# Bulk Modulus (GPa) = 44.58940 55.43065 50.01002
# Shear Modulus (GPa) = 21.70060 24.73494 23.21777
#
# Velocity S-wave (km/s) = 3.42200 3.65341 3.53960
# Velocity P-wave (km/s) = 6.29878 6.90710 6.60994
#
# Compressibility (1/GPa) = 0.02242686
#
# Stress axis : x y z
#
# Youngs Moduli (GPa) = 54.08317 83.74921 95.38820
#
# Poissons Ratio (x) = 0.25585 0.18581
# Poissons Ratio (y) = 0.16522 0.40451
# Poissons Ratio (z) = 0.10535 0.35515
#
# Static dielectric constant tensor:
#      x y z
#    x 3.445750 0.000000 0.168440 
#    y 0.000000 3.392410 0.000000 
#    z 0.168440 0.000000 3.623890 
# 
# 
# High freq. dielectric constant tensor:
#      x y z
#    x 1.711340 0.000000 0.003960 
#    y 0.000000 1.698300 0.000000 
#    z 0.003960 0.000000 1.717930 
# 
# From -- ./inp_files/251639.got.cif
#   From: 2010.06.25/outbox.cif.g09.slc.cpg/sg12_126_cif.got.tgz:251639.got - 2010.06.28 00:19:55.
