data_PCOD8084344
_publ_section_title
;
Structure prediction by ZEFSAII (Michael W. Deem and Ramdas Pophale) SiO2 
 PCOD8084344
Probable space group: C 2/M
;
_chemical_formula_sum "Si O2"
_cell_formula_units_Z 56
_cell_length_a 31.782789
_cell_length_b 17.280378
_cell_length_c 8.623941
_cell_angle_alpha 90.000000
_cell_angle_beta 142.409637
_cell_angle_gamma 90.000000
_cell_volume 2889.277947
_symmetry_space_group_name_H-M "C 2/M"
_symmetry_group_IT_number 12
_symmetry_cell_setting 'monoclinic'
loop_
_space_group_symop_operation_xyz
x,y,z
-x,y,-z
-x,-y,-z
x,-y,z
1/2+x,1/2+y,z
1/2-x,1/2+y,-z
1/2-x,1/2-y,-z
1/2+x,1/2-y,z
loop_
_atom_site_type_symbol
_atom_site_label
_atom_site_fract_x
_atom_site_fract_y
_atom_site_fract_z
Si Si1 0.289240 0.089653 0.965038
Si Si2 0.194758 0.788800 0.526599
Si Si3 0.495613 0.588373 0.171239
Si Si4 0.872998 0.175438 0.973986
Si Si5 0.573952 0.819966 0.673408
Si Si6 0.603220 0.289756 0.516904
Si Si7 0.774932 0.840444 0.934730
O O1 0.236680 0.134772 0.700279
O O2 0.281832 0.000000 0.903430
O O3 0.367143 0.115149 0.152186
O O4 0.270651 0.101103 0.094670
O O5 0.183491 0.788404 0.309536
O O6 0.116876 0.788801 0.372755
O O7 0.229866 0.711035 0.688458
O O8 0.503321 0.500000 0.244638
O O9 0.559026 0.634690 0.433450
O O10 0.500000 0.598015 0.000000
O O11 0.424497 0.620577 0.031626
O O12 0.832169 0.123043 0.983562
O O13 0.909856 0.247705 0.165857
O O14 0.500000 0.857647 0.500000
O O15 0.566206 0.786695 0.475036
O O16 0.680970 0.287849 0.816876
#
# Coordination Sequence:
#
# PCOD8084344 Si02
#       7
#     8   8   8   8   8   8   8
#     4  11  23  39  59  84 116 153 188 240 297 334
#     4  11  19  37  62  88 115 148 196 234 283 346
#     4  11  23  37  53  86 127 155 186 231 282 342
#     4  11  22  34  64  90 112 153 193 232 284 338
#     4  11  21  38  62  87 110 146 201 242 275 342
#     4  10  18  35  59  80 111 157 193 226 275 338
#     4  10  21  37  59  85 111 147 197 241 274 341
#
# _framework density 19.382003999999998
#
# number of rings (size 3 to 8) (size 9 to 14) (size 15 to 20)
#    0.000    1.286    7.143    1.286    0.000    3.714 
#    0.000    5.000    0.000    0.000    0.000    1.000 
#    0.000    0.000    0.000    0.000    0.000    0.000 
#
# Total GULP energy -346929.683347 kJ/mol
# GULP energy per Si atom -12390.345834 kJ/mol
# Density = 1.933789 g / cm^3
# Si number density = 19.382004 Si / 1000 Ang^3
#
#
#
# Elastic Constant Matrix: (Units=GPa)
#
#
# Indices 1 2 3 4 5 6 
#
# 1 114.7312 7.2696 21.2487 0.0000 15.4516 0.0000
# 2 7.2696 55.3956 4.1896 0.0000 7.4425 0.0000
# 3 21.2487 4.1896 57.5270 0.0000 5.9550 0.0000
# 4 0.0000 0.0000 0.0000 20.7453 0.0000 6.2559
# 5 15.4516 7.4425 5.9550 0.0000 32.8443 0.0000
# 6 0.0000 0.0000 0.0000 6.2559 0.0000 16.7384
#
#
#
# Elastic Compliance Matrix: (Units=1/GPa)
#
#
# Indices 1 2 3 4 5 6 
#
# 1 0.009873 -0.000523 -0.003200 0.000000 -0.003946 0.000000
# 2 -0.000523 0.018696 -0.000770 0.000000 -0.003851 0.000000
# 3 -0.003200 -0.000770 0.018800 0.000000 -0.001729 0.000000
# 4 0.000000 0.000000 0.000000 0.054326 0.000000 -0.020304
# 5 -0.003946 -0.003851 -0.001729 0.000000 0.033489 0.000000
# 6 0.000000 0.000000 0.000000 -0.020304 0.000000 0.067331
#
#
# Mechanical properties :
#
#
# Convention : Reuss Voigt Hill
#
# Bulk Modulus (GPa) = 26.05323 32.56328 29.30826
# Shear Modulus (GPa) = 22.29178 27.06201 24.67690
#
# Velocity S-wave (km/s) = 3.39503 3.74069 3.57204
# Velocity P-wave (km/s) = 5.37024 5.95771 5.67158
#
# Compressibility (1/GPa) = 0.03838295
#
# Stress axis : x y z
#
# Youngs Moduli (GPa) = 101.28288 53.48669 53.19086
#
# Poissons Ratio (x) = 0.02800 0.17023
# Poissons Ratio (y) = 0.05302 0.04094
# Poissons Ratio (z) = 0.32414 0.04116
#
# Static dielectric constant tensor:
#      x y z
#    x 4.176590 0.000000 0.072700 
#    y 0.000000 3.094970 0.000000 
#    z 0.072700 0.000000 3.432120 
# 
# 
# High freq. dielectric constant tensor:
#      x y z
#    x 1.789260 0.000000 0.008820 
#    y 0.000000 1.706610 0.000000 
#    z 0.008820 0.000000 1.744510 
# 
# From -- ./inp_files/112649.got.cif
#   From: 2010.06.25/outbox.cif.g09.slc.cpg/sg12_57_cif.got.tgz:112649.got - 2010.06.28 00:19:55.
