data_PCOD8084631
_publ_section_title
;
Structure prediction by ZEFSAII (Michael W. Deem and Ramdas Pophale) SiO2 
 PCOD8084631
Probable space group: C 2/M
;
_chemical_formula_sum "Si O2"
_cell_formula_units_Z 56
_cell_length_a 21.037817
_cell_length_b 23.664855
_cell_length_c 10.488701
_cell_angle_alpha 90.000000
_cell_angle_beta 33.186087
_cell_angle_gamma 90.000000
_cell_volume 2858.243977
_symmetry_space_group_name_H-M "C 2/M"
_symmetry_group_IT_number 12
_symmetry_cell_setting 'monoclinic'
loop_
_space_group_symop_operation_xyz
x,y,z
-x,y,-z
-x,-y,-z
x,-y,z
1/2+x,1/2+y,z
1/2-x,1/2+y,-z
1/2-x,1/2-y,-z
1/2+x,1/2-y,z
loop_
_atom_site_type_symbol
_atom_site_label
_atom_site_fract_x
_atom_site_fract_y
_atom_site_fract_z
Si Si1 0.576539 0.000000 0.499700
Si Si2 0.864276 0.606824 0.220747
Si Si3 0.814380 0.297252 0.137140
Si Si4 0.417051 0.000000 0.014851
Si Si5 0.997422 0.321059 0.363784
Si Si6 0.072841 0.824833 0.006899
Si Si7 0.947717 0.194472 0.463321
Si Si8 0.298327 0.894365 0.609974
O O1 0.500000 0.000000 0.500000
O O2 0.659913 0.944949 0.366928
O O3 0.486513 0.000000 0.767141
O O4 0.802333 0.665310 0.285513
O O5 0.840338 0.556975 0.156628
O O6 0.811309 0.585466 0.442819
O O7 0.000000 0.620501 0.000000
O O8 0.865091 0.236056 0.087042
O O9 0.687692 0.293490 0.289142
O O10 0.891913 0.335611 0.910251
O O11 0.500000 0.000000 0.000000
O O12 0.000000 0.349788 0.500000
O O13 0.010526 0.254429 0.353410
O O14 0.880467 0.339847 0.490100
O O15 0.166869 0.875227 0.857218
O O16 0.000000 0.828057 0.000000
O O17 0.983293 0.837069 0.273214
O O18 0.000000 0.162027 0.500000
#
# Coordination Sequence:
#
# PCOD8084631 Si02
#       8
#     4   8   8   4   8   8   8   8
#     4  12  24  40  65  96 125 155 207 266 318 359
#     4  11  19  33  60  89 121 154 199 246 314 366
#     4  11  21  36  61  87 122 166 209 254 301 370
#     4  10  18  40  60  90 124 150 197 254 307 376
#     4  10  21  33  55  86 119 158 200 247 314 363
#     4  11  25  39  59  89 128 163 209 253 304 370
#     4  10  23  39  55  83 123 169 206 245 301 375
#     4  12  22  39  60  91 126 159 196 264 313 364
#
# _framework density 19.592449999999999
#
# number of rings (size 3 to 8) (size 9 to 14) (size 15 to 20)
#    0.000    1.143    5.714    1.714    4.000    2.857 
#    0.000    0.357    0.000    0.857    0.000    1.000 
#    0.000    0.000    0.000    0.000    0.000    0.000 
#
# Total GULP energy -347050.683293 kJ/mol
# GULP energy per Si atom -12394.667260 kJ/mol
# Density = 1.954786 g / cm^3
# Si number density = 19.592450 Si / 1000 Ang^3
#
#
#
# Elastic Constant Matrix: (Units=GPa)
#
#
# Indices 1 2 3 4 5 6 
#
# 1 129.2618 33.3748 60.3109 0.0000 5.7926 0.0000
# 2 33.3748 75.4107 20.0265 0.0000 1.1394 0.0000
# 3 60.3109 20.0265 104.1031 -0.0001 1.1059 0.0001
# 4 0.0000 0.0000 -0.0001 20.9061 0.0000 -4.1269
# 5 5.7926 1.1394 1.1059 0.0000 34.1724 0.0000
# 6 0.0000 0.0000 0.0001 -4.1269 0.0000 22.2973
#
#
#
# Elastic Compliance Matrix: (Units=1/GPa)
#
#
# Indices 1 2 3 4 5 6 
#
# 1 0.011494 -0.003476 -0.005973 0.000000 -0.001639 0.000000
# 2 -0.003476 0.015031 -0.000879 0.000000 0.000116 0.000000
# 3 -0.005973 -0.000879 0.013229 0.000000 0.000614 0.000000
# 4 0.000000 0.000000 0.000000 0.049647 0.000000 0.009189
# 5 -0.001639 0.000116 0.000614 0.000000 0.029517 0.000000
# 6 0.000000 0.000000 0.000000 0.009189 0.000000 0.046549
#
#
# Mechanical properties :
#
#
# Convention : Reuss Voigt Hill
#
# Bulk Modulus (GPa) = 52.36167 59.57776 55.96971
# Shear Modulus (GPa) = 25.97557 28.47939 27.22748
#
# Velocity S-wave (km/s) = 3.64510 3.81673 3.73190
# Velocity P-wave (km/s) = 6.67076 7.06384 6.87011
#
# Compressibility (1/GPa) = 0.01909794
#
# Stress axis : x y z
#
# Youngs Moduli (GPa) = 87.00221 66.53025 75.59323
#
# Poissons Ratio (x) = 0.23126 0.45150
# Poissons Ratio (y) = 0.30242 0.06644
# Poissons Ratio (z) = 0.51965 0.05848
#
# Static dielectric constant tensor:
#      x y z
#    x 3.627040 0.000000 0.324240 
#    y 0.000000 3.657060 0.000000 
#    z 0.324240 0.000000 3.738800 
# 
# 
# High freq. dielectric constant tensor:
#      x y z
#    x 1.757870 0.000000 0.016990 
#    y 0.000000 1.741310 0.000000 
#    z 0.016990 0.000000 1.760660 
# 
# From -- ./inp_files/80060.got.cif
#   From: 2010.06.25/outbox.cif.g09.slc.cpg/sg12_41_cif.got.tgz:80060.got - 2010.06.28 00:19:55.
