data_PCOD8084943
_publ_section_title
;
Structure prediction by ZEFSAII (Michael W. Deem and Ramdas Pophale) SiO2 
 PCOD8084943
Probable space group: C 2/M
;
_chemical_formula_sum "Si O2"
_cell_formula_units_Z 64
_cell_length_a 23.009957
_cell_length_b 9.510987
_cell_length_c 17.635370
_cell_angle_alpha 90.000000
_cell_angle_beta 92.751504
_cell_angle_gamma 90.000000
_cell_volume 3855.005444
_symmetry_space_group_name_H-M "C 2/M"
_symmetry_group_IT_number 12
_symmetry_cell_setting 'monoclinic'
loop_
_space_group_symop_operation_xyz
x,y,z
-x,y,-z
-x,-y,-z
x,-y,z
1/2+x,1/2+y,z
1/2-x,1/2+y,-z
1/2-x,1/2-y,-z
1/2+x,1/2-y,z
loop_
_atom_site_type_symbol
_atom_site_label
_atom_site_fract_x
_atom_site_fract_y
_atom_site_fract_z
Si Si1 0.637282 0.838688 0.160226
Si Si2 0.063785 0.342910 0.594199
Si Si3 0.073926 0.658136 0.428169
Si Si4 0.065328 0.338941 0.008478
Si Si5 0.750532 0.660938 0.923974
Si Si6 0.417871 0.334677 0.712355
Si Si7 0.378696 0.338896 0.115839
Si Si8 0.446768 0.336239 0.267219
O O1 0.698403 0.788215 0.128599
O O2 0.623330 0.735958 0.228282
O O3 0.640684 0.000000 0.189067
O O4 0.586487 0.822270 0.095501
O O5 0.084621 0.500000 0.616286
O O6 0.091945 0.296982 0.515109
O O7 0.082931 0.239191 0.662556
O O8 0.994993 0.339424 0.581967
O O9 0.096539 0.500000 0.411983
O O10 0.100116 0.768660 0.369941
O O11 0.068243 0.500000 0.981278
O O12 0.106350 0.249233 0.957243
O O13 0.000000 0.280118 0.000000
O O14 0.762324 0.500000 0.948861
O O15 0.690216 0.676435 0.874408
O O16 0.750000 0.750000 0.000000
O O17 0.405766 0.500000 0.709079
O O18 0.484997 0.300896 0.736415
O O19 0.396262 0.500000 0.101554
O O20 0.413955 0.280609 0.190350
O O21 0.436023 0.500000 0.278802
#
# Coordination Sequence:
#
# PCOD8084943 Si02
#       8
#     8   8   8   8   8   8   8   8
#     4  10  20  33  47  65  90 119 153 193 236 275
#     4   8  14  25  43  66  91 124 159 184 216 267
#     4   8  14  26  43  64  93 125 155 186 220 264
#     4  10  20  32  47  68  93 121 153 188 229 278
#     4  10  20  35  53  69  86 115 157 201 240 278
#     4  10  19  29  44  68  96 125 155 185 224 276
#     4  10  20  33  49  68  91 121 155 192 235 278
#     4   9  18  30  43  66  99 126 150 185 228 275
#
# _framework density 16.601792
#
# number of rings (size 3 to 8) (size 9 to 14) (size 15 to 20)
#    0.000    2.625    1.250    1.875    0.000    2.750 
#    0.000    2.500    0.000    0.000    0.000    0.875 
#    0.000    0.000    0.000    0.000    0.000    0.000 
#
# Total GULP energy -396748.248612 kJ/mol
# GULP energy per Si atom -12398.382769 kJ/mol
# Density = 1.656401 g / cm^3
# Si number density = 16.601792 Si / 1000 Ang^3
#
#
#
# Elastic Constant Matrix: (Units=GPa)
#
#
# Indices 1 2 3 4 5 6 
#
# 1 61.3744 26.3895 26.6530 0.0000 -17.3414 0.0000
# 2 26.3895 76.8897 61.0144 0.0000 -17.9074 0.0000
# 3 26.6530 61.0144 108.8770 0.0000 -24.4840 0.0000
# 4 0.0000 0.0000 0.0000 31.5683 0.0000 -6.2403
# 5 -17.3414 -17.9074 -24.4840 0.0000 17.2094 0.0000
# 6 0.0000 0.0000 0.0000 -6.2403 0.0000 16.9597
#
#
#
# Elastic Compliance Matrix: (Units=1/GPa)
#
#
# Indices 1 2 3 4 5 6 
#
# 1 0.023518 -0.004221 0.001396 0.000000 0.021294 0.000000
# 2 -0.004221 0.025029 -0.011900 0.000000 0.004861 0.000000
# 3 0.001396 -0.011900 0.019180 0.000000 0.016311 0.000000
# 4 0.000000 0.000000 0.000000 0.034162 0.000000 0.012570
# 5 0.021294 0.004861 0.016311 0.000000 0.107830 0.000000
# 6 0.000000 0.000000 0.000000 0.012570 0.000000 0.063588
#
#
# Mechanical properties :
#
#
# Convention : Reuss Voigt Hill
#
# Bulk Modulus (GPa) = 26.12406 52.80610 39.46508
# Shear Modulus (GPa) = 15.84706 22.01975 18.93341
#
# Velocity S-wave (km/s) = 3.09291 3.64586 3.38071
# Velocity P-wave (km/s) = 5.34085 7.04269 6.24997
#
# Compressibility (1/GPa) = 0.03827890
#
# Stress axis : x y z
#
# Youngs Moduli (GPa) = 42.51999 39.95289 52.13853
#
# Poissons Ratio (x) = 0.16863 -0.07281
# Poissons Ratio (y) = 0.17946 0.62045
# Poissons Ratio (z) = -0.05938 0.47544
#
# Static dielectric constant tensor:
#      x y z
#    x 2.943480 0.000000 0.006470 
#    y 0.000000 3.157650 0.000000 
#    z 0.006470 0.000000 3.283770 
# 
# 
# High freq. dielectric constant tensor:
#      x y z
#    x 1.604310 0.000000 -0.004890 
#    y 0.000000 1.640380 0.000000 
#    z -0.004890 0.000000 1.639890 
# 
# From -- ./inp_files/287631.got.cif
#   From: 2010.06.25/outbox.cif.g09.slc.cpg/sg12_144_cif.got.tgz:287631.got - 2010.06.28 00:19:55.
