data_PCOD8084722
_publ_section_title
;
Structure prediction by ZEFSAII (Michael W. Deem and Ramdas Pophale) SiO2 
 PCOD8084722
Probable space group: C 2/M
;
_chemical_formula_sum "Si O2"
_cell_formula_units_Z 56
_cell_length_a 21.949375
_cell_length_b 17.220187
_cell_length_c 21.776515
_cell_angle_alpha 90.000000
_cell_angle_beta 155.015970
_cell_angle_gamma 90.000000
_cell_volume 3476.457878
_symmetry_space_group_name_H-M "C 2/M"
_symmetry_group_IT_number 12
_symmetry_cell_setting 'monoclinic'
loop_
_space_group_symop_operation_xyz
x,y,z
-x,y,-z
-x,-y,-z
x,-y,z
1/2+x,1/2+y,z
1/2-x,1/2+y,-z
1/2-x,1/2-y,-z
1/2+x,1/2-y,z
loop_
_atom_site_type_symbol
_atom_site_label
_atom_site_fract_x
_atom_site_fract_y
_atom_site_fract_z
Si Si1 0.934058 0.288126 0.122103
Si Si2 0.867045 0.622886 0.227198
Si Si3 0.428224 0.586969 0.651613
Si Si4 0.045133 0.122023 0.890373
Si Si5 0.130498 0.214838 0.805358
Si Si6 0.418288 0.500000 0.862602
Si Si7 0.099129 0.412129 0.337275
Si Si8 0.128947 0.500000 0.663705
O O1 0.995039 0.213604 0.140562
O O2 0.898444 0.258528 0.157380
O O3 0.048569 0.357723 0.234216
O O4 0.791987 0.320600 0.957196
O O5 0.881665 0.715490 0.255827
O O6 0.868330 0.576869 0.292054
O O7 0.998660 0.593978 0.305344
O O8 0.716410 0.607637 0.054124
O O9 0.441867 0.500000 0.636916
O O10 0.500610 0.588172 0.784236
O O11 0.514830 0.646843 0.686505
O O12 0.261426 0.612603 0.504029
O O13 0.956726 0.077855 0.861319
O O14 0.252540 0.500000 0.726225
O O15 0.500000 0.500000 0.000000
O O16 0.096177 0.500000 0.310091
O O17 0.000000 0.500000 0.500000
#
# Coordination Sequence:
#
# PCOD8084722 Si02
#       8
#     8   8   8   8   8   4   8   4
#     4   8  16  29  44  66  89 119 152 190 234 285
#     4  10  19  34  47  63  91 126 156 199 237 271
#     4  10  19  28  44  70  94 122 157 190 229 289
#     4  10  19  32  49  65  89 122 164 197 230 273
#     4   8  16  29  46  64  87 119 158 188 229 284
#     4  12  22  36  52  70  90 130 168 204 232 268
#     4  10  19  28  44  68  98 124 151 186 240 286
#     4  12  26  36  48  70  98 126 168 204 234 272
#
# _framework density 16.108350000000002
#
# number of rings (size 3 to 8) (size 9 to 14) (size 15 to 20)
#    0.000    2.286    2.857    2.571    2.000    6.857 
#    0.000    0.000    0.000    0.000    0.000    0.000 
#    0.000    2.286    0.000    0.143    0.000    0.000 
#
# Total GULP energy -346993.185258 kJ/mol
# GULP energy per Si atom -12392.613759 kJ/mol
# Density = 1.607169 g / cm^3
# Si number density = 16.108350 Si / 1000 Ang^3
#
#
#
# Elastic Constant Matrix: (Units=GPa)
#
#
# Indices 1 2 3 4 5 6 
#
# 1 49.1472 41.7490 29.4210 0.0017 8.0694 -0.0007
# 2 41.7490 115.6089 64.9228 0.0016 8.3420 0.0006
# 3 29.4210 64.9228 121.0691 0.0066 12.3321 0.0009
# 4 0.0017 0.0016 0.0066 26.6318 0.0029 1.3637
# 5 8.0694 8.3420 12.3321 0.0029 22.6457 0.0001
# 6 -0.0007 0.0006 0.0009 1.3637 0.0001 24.1712
#
#
#
# Elastic Compliance Matrix: (Units=1/GPa)
#
#
# Indices 1 2 3 4 5 6 
#
# 1 0.030587 -0.009694 -0.001576 0.000000 -0.006470 0.000001
# 2 -0.009694 0.015471 -0.006047 0.000001 0.001048 0.000000
# 3 -0.001576 -0.006047 0.012283 -0.000002 -0.003900 0.000000
# 4 0.000000 0.000001 -0.000002 0.037658 -0.000004 -0.002125
# 5 -0.006470 0.001048 -0.003900 -0.000004 0.048201 0.000000
# 6 0.000001 0.000000 0.000000 -0.002125 0.000000 0.041491
#
#
# Mechanical properties :
#
#
# Convention : Reuss Voigt Hill
#
# Bulk Modulus (GPa) = 42.18139 62.00121 52.09130
# Shear Modulus (GPa) = 21.90790 24.67190 23.28990
#
# Velocity S-wave (km/s) = 3.69186 3.91784 3.80653
# Velocity P-wave (km/s) = 6.66454 7.68372 7.19221
#
# Compressibility (1/GPa) = 0.02370714
#
# Stress axis : x y z
#
# Youngs Moduli (GPa) = 32.69316 64.63715 81.41572
#
# Poissons Ratio (x) = 0.62661 0.12827
# Poissons Ratio (y) = 0.31693 0.49234
# Poissons Ratio (z) = 0.05151 0.39088
#
# Static dielectric constant tensor:
#      x y z
#    x 2.602900 -0.000010 0.102300 
#    y -0.000010 3.499620 -0.000010 
#    z 0.102300 -0.000010 3.208850 
# 
# 
# High freq. dielectric constant tensor:
#      x y z
#    x 1.554240 0.000000 0.015510 
#    y 0.000000 1.630370 0.000000 
#    z 0.015510 0.000000 1.631580 
# 
# From -- ./inp_files/349971.got.cif
#   From: 2010.06.25/outbox.cif.g09.slc.cpg/sg12_175_cif.got.tgz:349971.got - 2010.06.28 00:19:55.
