data_PCOD8085031
_publ_section_title
;
Structure prediction by ZEFSAII (Michael W. Deem and Ramdas Pophale) SiO2 
 PCOD8085031
Probable space group: C 2/M
;
_chemical_formula_sum "Si O2"
_cell_formula_units_Z 56
_cell_length_a 20.420592
_cell_length_b 9.162512
_cell_length_c 24.155667
_cell_angle_alpha 90.000000
_cell_angle_beta 46.073711
_cell_angle_gamma 90.000000
_cell_volume 3255.178917
_symmetry_space_group_name_H-M "C 2/M"
_symmetry_group_IT_number 12
_symmetry_cell_setting 'monoclinic'
loop_
_space_group_symop_operation_xyz
x,y,z
-x,y,-z
-x,-y,-z
x,-y,z
1/2+x,1/2+y,z
1/2-x,1/2+y,-z
1/2-x,1/2-y,-z
1/2+x,1/2-y,z
loop_
_atom_site_type_symbol
_atom_site_label
_atom_site_fract_x
_atom_site_fract_y
_atom_site_fract_z
Si Si1 0.347978 0.329387 0.700390
Si Si2 0.219046 0.329994 0.463443
Si Si3 0.434729 0.336779 0.985323
Si Si4 0.790994 0.828658 0.152480
Si Si5 0.426644 0.832978 0.152154
Si Si6 0.286628 0.835429 0.321451
Si Si7 0.487513 0.169794 0.444399
O O1 0.356650 0.500000 0.706617
O O2 0.303683 0.255592 0.781211
O O3 0.286089 0.294685 0.683319
O O4 0.447114 0.261823 0.633601
O O5 0.237646 0.500000 0.459349
O O6 0.250000 0.250000 0.500000
O O7 0.278109 0.274446 0.377169
O O8 0.113946 0.295287 0.514919
O O9 0.436854 0.500000 0.959524
O O10 0.469725 0.225833 0.916688
O O11 0.500000 0.324713 0.000000
O O12 0.332164 0.298335 0.066636
O O13 0.863407 0.771605 0.153873
O O14 0.776205 0.000000 0.170767
O O15 0.389679 0.822922 0.236852
O O16 0.419868 0.000000 0.135103
O O17 0.268443 0.000000 0.353112
O O18 0.500000 0.222806 0.500000
O O19 0.512425 0.000000 0.424177
#
# Coordination Sequence:
#
# PCOD8085031 Si02
#       7
#     8   8   8   8   8   8   8
#     4  10  19  29  46  71  95 123 159 202 246 284
#     4  11  23  37  54  73  97 129 162 203 248 292
#     4   8  14  23  34  52  80 119 158 190 231 282
#     4   9  16  25  37  55  86 123 157 194 235 284
#     4   9  16  24  37  59  85 117 155 197 239 282
#     4   9  18  31  45  66  95 124 159 199 243 290
#     4  10  20  35  53  74  97 125 165 202 241 295
#
# _framework density 17.203354999999998
#
# number of rings (size 3 to 8) (size 9 to 14) (size 15 to 20)
#    0.000    2.571    1.429    3.429    0.000    7.429 
#    0.000    0.000    0.000    0.000    0.000    0.000 
#    0.000    1.143    0.000    3.714    0.000    6.143 
#
# Total GULP energy -347020.449523 kJ/mol
# GULP energy per Si atom -12393.587483 kJ/mol
# Density = 1.716420 g / cm^3
# Si number density = 17.203355 Si / 1000 Ang^3
#
#
#
# Elastic Constant Matrix: (Units=GPa)
#
#
# Indices 1 2 3 4 5 6 
#
# 1 43.9521 34.4295 32.1887 0.0000 -0.2329 0.0002
# 2 34.4295 105.4965 81.7649 -0.0001 -6.7173 0.0003
# 3 32.1887 81.7649 151.9109 0.0000 -17.3234 0.0001
# 4 0.0000 -0.0001 0.0000 37.6122 0.0000 -1.4592
# 5 -0.2329 -6.7173 -17.3234 0.0000 11.5585 -0.0001
# 6 0.0002 0.0003 0.0001 -1.4592 -0.0001 16.6162
#
#
#
# Elastic Compliance Matrix: (Units=1/GPa)
#
#
# Indices 1 2 3 4 5 6 
#
# 1 0.031649 -0.008420 -0.003208 0.000000 -0.009063 0.000000
# 2 -0.008420 0.018693 -0.008513 0.000000 -0.002065 0.000000
# 3 -0.003208 -0.008513 0.013597 0.000000 0.015367 0.000000
# 4 0.000000 0.000000 0.000000 0.026678 0.000000 0.002343
# 5 -0.009063 -0.002065 0.015367 0.000000 0.108165 0.000000
# 6 0.000000 0.000000 0.000000 0.002343 0.000000 0.060388
#
#
# Mechanical properties :
#
#
# Convention : Reuss Voigt Hill
#
# Bulk Modulus (GPa) = 42.26882 66.45840 54.36361
# Shear Modulus (GPa) = 16.26881 23.35580 19.81230
#
# Velocity S-wave (km/s) = 3.07852 3.68860 3.39728
# Velocity P-wave (km/s) = 6.10408 7.54029 6.85988
#
# Compressibility (1/GPa) = 0.02365810
#
# Stress axis : x y z
#
# Youngs Moduli (GPa) = 31.59677 53.49532 73.54629
#
# Poissons Ratio (x) = 0.45041 0.23593
# Poissons Ratio (y) = 0.26603 0.62609
# Poissons Ratio (z) = 0.10136 0.45540
#
# Static dielectric constant tensor:
#      x y z
#    x 2.603370 0.000000 -0.240740 
#    y 0.000000 3.323340 0.000000 
#    z -0.240740 0.000000 3.783970 
# 
# 
# High freq. dielectric constant tensor:
#      x y z
#    x 1.580810 0.000000 -0.018830 
#    y 0.000000 1.677150 0.000000 
#    z -0.018830 0.000000 1.687380 
# 
# From -- ./inp_files/348486.got.cif
#   From: 2010.06.25/outbox.cif.g09.slc.cpg/sg12_175_cif.got.tgz:348486.got - 2010.06.28 00:19:55.
