data_PCOD8085688
_publ_section_title
;
Structure prediction by ZEFSAII (Michael W. Deem and Ramdas Pophale) SiO2 
 PCOD8085688
Probable space group: C 2/M
;
_chemical_formula_sum "Si O2"
_cell_formula_units_Z 56
_cell_length_a 31.104201
_cell_length_b 9.027701
_cell_length_c 19.595711
_cell_angle_alpha 90.000000
_cell_angle_beta 36.522654
_cell_angle_gamma 90.000000
_cell_volume 3274.739831
_symmetry_space_group_name_H-M "C 2/M"
_symmetry_group_IT_number 12
_symmetry_cell_setting 'monoclinic'
loop_
_space_group_symop_operation_xyz
x,y,z
-x,y,-z
-x,-y,-z
x,-y,z
1/2+x,1/2+y,z
1/2-x,1/2+y,-z
1/2-x,1/2-y,-z
1/2+x,1/2-y,z
loop_
_atom_site_type_symbol
_atom_site_label
_atom_site_fract_x
_atom_site_fract_y
_atom_site_fract_z
Si Si1 0.688369 0.169829 0.117850
Si Si2 0.300381 0.674339 0.492122
Si Si3 0.279771 0.173068 0.266767
Si Si4 0.729610 0.325857 0.860627
Si Si5 0.058502 0.675752 0.730854
Si Si6 0.899483 0.673605 0.892732
Si Si7 0.931771 0.324028 0.126900
O O1 0.697976 0.210296 0.185772
O O2 0.614184 0.206639 0.171427
O O3 0.706286 0.000000 0.085915
O O4 0.750000 0.250000 0.000000
O O5 0.300867 0.500000 0.476537
O O6 0.250000 0.750000 0.500000
O O7 0.271039 0.709263 0.604711
O O8 0.380676 0.740700 0.389931
O O9 0.251634 0.258872 0.236585
O O10 0.359816 0.232336 0.181738
O O11 0.280744 0.000000 0.248746
O O12 0.716422 0.500000 0.870403
O O13 0.657377 0.256446 0.985937
O O14 0.069263 0.500000 0.709724
O O15 0.067039 0.731471 0.797268
O O16 0.980322 0.728289 0.804261
O O17 0.892337 0.500000 0.919045
O O18 0.934897 0.500000 0.122366
O O19 0.000000 0.256016 0.000000
#
# Coordination Sequence:
#
# PCOD8085688 Si02
#       7
#     8   8   8   8   8   8   8
#     4   8  15  28  46  72 102 132 164 199 243 293
#     4  11  22  37  55  72  96 130 170 214 251 293
#     4  10  20  34  50  69  96 132 170 202 242 300
#     4  10  19  30  48  76 108 133 162 208 251 290
#     4  10  19  33  53  75  98 129 169 208 246 293
#     4   9  17  31  53  76 102 136 168 198 243 308
#     4   9  16  28  47  70  96 125 157 194 236 289
#
# _framework density 17.100594999999998
#
# number of rings (size 3 to 8) (size 9 to 14) (size 15 to 20)
#    0.000    2.429    1.429    1.714    0.000    4.571 
#    0.000    0.000    0.000    2.571    0.000    6.000 
#    0.000    0.000    0.000    0.000    0.000    0.000 
#
# Total GULP energy -346972.886367 kJ/mol
# GULP energy per Si atom -12391.888799 kJ/mol
# Density = 1.706167 g / cm^3
# Si number density = 17.100595 Si / 1000 Ang^3
#
#
#
# Elastic Constant Matrix: (Units=GPa)
#
#
# Indices 1 2 3 4 5 6 
#
# 1 131.4402 40.3484 48.0087 0.0011 24.6087 0.0006
# 2 40.3484 49.1899 36.7636 0.0193 9.4920 -0.0103
# 3 48.0087 36.7636 98.3670 0.0071 12.0627 -0.0023
# 4 0.0011 0.0193 0.0071 26.8006 -0.0027 2.3634
# 5 24.6087 9.4920 12.0627 -0.0027 17.7547 -0.0003
# 6 0.0006 -0.0103 -0.0023 2.3634 -0.0003 24.2269
#
#
#
# Elastic Compliance Matrix: (Units=1/GPa)
#
#
# Indices 1 2 3 4 5 6 
#
# 1 0.012775 -0.006279 -0.002322 0.000004 -0.012772 -0.000004
# 2 -0.006279 0.032564 -0.008769 -0.000022 -0.002749 0.000015
# 3 -0.002322 -0.008769 0.014844 0.000002 -0.002179 -0.000003
# 4 0.000004 -0.000022 0.000002 0.037636 0.000011 -0.003671
# 5 -0.012772 -0.002749 -0.002179 0.000011 0.076976 -0.000001
# 6 -0.000004 0.000015 -0.000003 -0.003671 -0.000001 0.041635
#
#
# Mechanical properties :
#
#
# Convention : Reuss Voigt Hill
#
# Bulk Modulus (GPa) = 39.30338 58.80429 49.05383
# Shear Modulus (GPa) = 19.25680 24.01485 21.63583
#
# Velocity S-wave (km/s) = 3.35937 3.75150 3.56084
# Velocity P-wave (km/s) = 6.17095 7.29568 6.75676
#
# Compressibility (1/GPa) = 0.02544311
#
# Stress axis : x y z
#
# Youngs Moduli (GPa) = 78.27969 30.70915 67.36855
#
# Poissons Ratio (x) = 0.19281 0.15643
# Poissons Ratio (y) = 0.49148 0.59075
# Poissons Ratio (z) = 0.18177 0.26928
#
# Static dielectric constant tensor:
#      x y z
#    x 4.384530 0.000010 0.055580 
#    y 0.000010 3.055040 0.000010 
#    z 0.055580 0.000010 3.069900 
# 
# 
# High freq. dielectric constant tensor:
#      x y z
#    x 1.675240 0.000000 0.006090 
#    y 0.000000 1.648220 0.000000 
#    z 0.006090 0.000000 1.635440 
# 
# From -- ./inp_files/287911.got.cif
#   From: 2010.06.25/outbox.cif.g09.slc.cpg/sg12_144_cif.got.tgz:287911.got - 2010.06.28 00:19:55.
