data_PCOD8085112
_publ_section_title
;
Structure prediction by ZEFSAII (Michael W. Deem and Ramdas Pophale) SiO2 
 PCOD8085112
Probable space group: C 2/M
;
_chemical_formula_sum "Si O2"
_cell_formula_units_Z 40
_cell_length_a 5.208096
_cell_length_b 36.395959
_cell_length_c 17.163171
_cell_angle_alpha 90.000000
_cell_angle_beta 127.364685
_cell_angle_gamma 90.000000
_cell_volume 2585.719641
_symmetry_space_group_name_H-M "C 2/M"
_symmetry_group_IT_number 12
_symmetry_cell_setting 'monoclinic'
loop_
_space_group_symop_operation_xyz
x,y,z
-x,y,-z
-x,-y,-z
x,-y,z
1/2+x,1/2+y,z
1/2-x,1/2+y,-z
1/2-x,1/2-y,-z
1/2+x,1/2-y,z
loop_
_atom_site_type_symbol
_atom_site_label
_atom_site_fract_x
_atom_site_fract_y
_atom_site_fract_z
Si Si1 0.953775 0.956575 0.726917
Si Si2 0.766043 0.228899 0.883019
Si Si3 0.768159 0.397526 0.884080
Si Si4 0.281144 0.456494 0.390551
Si Si5 0.768022 0.146430 0.884011
O O1 0.585259 0.943273 0.666433
O O2 0.164953 0.937128 0.832468
O O3 0.080198 0.943281 0.666384
O O4 0.993068 0.000000 0.746569
O O5 0.436554 0.249999 0.843275
O O6 0.680425 0.187569 0.840207
O O7 0.000000 0.228197 0.000000
O O8 0.449438 0.374855 0.848468
O O9 0.944419 0.374851 0.848469
O O10 0.000000 0.404763 0.000000
O O11 0.500000 0.439478 0.500000
O O12 0.296619 0.500000 0.398327
O O13 0.000000 0.149183 0.000000
#
# Coordination Sequence:
#
# PCOD8085112 Si02
#       5
#     8   8   8   8   8
#     4  10  19  30  45  64  83 108 146 182 212 249
#     4   9  15  23  37  56  75  97 133 178 211 238
#     4  10  19  30  42  57  83 118 151 179 205 238
#     4   9  17  30  47  65  83 101 128 174 226 270
#     4   9  17  28  40  55  78 110 145 176 208 246
#
# _framework density 15.469582000000001
#
# number of rings (size 3 to 8) (size 9 to 14) (size 15 to 20)
#    0.000    2.600    0.000    3.000    0.000    7.600 
#    0.000    0.000    0.000    7.200    0.000    0.000 
#    0.000    0.000    0.000    0.000    0.000  252.000 
#
# Total GULP energy -247978.376390 kJ/mol
# GULP energy per Si atom -12398.918820 kJ/mol
# Density = 1.543437 g / cm^3
# Si number density = 15.469582 Si / 1000 Ang^3
#
#
#
# Elastic Constant Matrix: (Units=GPa)
#
#
# Indices 1 2 3 4 5 6 
#
# 1 162.0033 53.1907 38.3791 0.0000 -1.4894 0.0000
# 2 53.1907 90.4494 41.3922 0.0000 -0.1748 0.0000
# 3 38.3791 41.3922 55.7679 0.0000 0.0005 0.0000
# 4 0.0000 0.0000 0.0000 3.4608 0.0000 -0.1639
# 5 -1.4894 -0.1748 0.0005 0.0000 9.5606 0.0000
# 6 0.0000 0.0000 0.0000 -0.1639 0.0000 14.9306
#
#
#
# Elastic Compliance Matrix: (Units=1/GPa)
#
#
# Indices 1 2 3 4 5 6 
#
# 1 0.007990 -0.003301 -0.003048 0.000000 0.001184 0.000000
# 2 -0.003301 0.018108 -0.011168 0.000000 -0.000183 0.000000
# 3 -0.003048 -0.011168 0.028318 0.000000 -0.000680 0.000000
# 4 0.000000 0.000000 0.000000 0.289099 0.000000 0.003173
# 5 0.001184 -0.000183 -0.000680 0.000000 0.104777 0.000000
# 6 0.000000 0.000000 0.000000 0.003173 0.000000 0.067011
#
#
# Mechanical properties :
#
#
# Convention : Reuss Voigt Hill
#
# Bulk Modulus (GPa) = 51.59747 63.79384 57.69566
# Shear Modulus (GPa) = 8.97992 17.27432 13.12712
#
# Velocity S-wave (km/s) = 2.41195 3.34528 2.91619
# Velocity P-wave (km/s) = 6.41741 7.49993 6.97969
#
# Compressibility (1/GPa) = 0.01938079
#
# Stress axis : x y z
#
# Youngs Moduli (GPa) = 125.16240 55.22489 35.31275
#
# Poissons Ratio (x) = 0.18231 0.10764
# Poissons Ratio (y) = 0.41319 0.39438
# Poissons Ratio (z) = 0.38151 0.61676
#
# Static dielectric constant tensor:
#      x y z
#    x 3.304100 0.000000 -0.010470 
#    y 0.000000 2.881310 0.000000 
#    z -0.010470 0.000000 2.581280 
# 
# 
# High freq. dielectric constant tensor:
#      x y z
#    x 1.620060 0.000000 -0.001190 
#    y 0.000000 1.577450 0.000000 
#    z -0.001190 0.000000 1.538490 
# 
# From -- ./inp_files/115863.got.cif
#   From: 2010.06.25/outbox.cif.g09.slc.cpg/sg12_58_cif.got.tgz:115863.got - 2010.06.28 00:19:55.
