data_PCOD8085094
_publ_section_title
;
Structure prediction by ZEFSAII (Michael W. Deem and Ramdas Pophale) SiO2 
 PCOD8085094
Probable space group: C 2/M
;
_chemical_formula_sum "Si O2"
_cell_formula_units_Z 64
_cell_length_a 19.869038
_cell_length_b 9.275412
_cell_length_c 20.382564
_cell_angle_alpha 90.000000
_cell_angle_beta 77.708084
_cell_angle_gamma 90.000000
_cell_volume 3670.261787
_symmetry_space_group_name_H-M "C 2/M"
_symmetry_group_IT_number 12
_symmetry_cell_setting 'monoclinic'
loop_
_space_group_symop_operation_xyz
x,y,z
-x,y,-z
-x,-y,-z
x,-y,z
1/2+x,1/2+y,z
1/2-x,1/2+y,-z
1/2-x,1/2-y,-z
1/2+x,1/2-y,z
loop_
_atom_site_type_symbol
_atom_site_label
_atom_site_fract_x
_atom_site_fract_y
_atom_site_fract_z
Si Si1 0.632098 0.666347 0.313706
Si Si2 0.744173 0.833387 0.068268
Si Si3 0.401143 0.666272 0.340088
Si Si4 0.614821 0.170495 0.181930
Si Si5 0.712735 0.834191 0.702727
Si Si6 0.517837 0.336496 0.809971
Si Si7 0.159822 0.833712 0.835806
Si Si8 0.493982 0.671242 0.574120
O O1 0.617024 0.500000 0.297801
O O2 0.626619 0.759873 0.249841
O O3 0.706894 0.682776 0.331408
O O4 0.576733 0.724589 0.377742
O O5 0.677040 0.782807 0.121907
O O6 0.812098 0.800245 0.097550
O O7 0.738835 0.000000 0.051649
O O8 0.750000 0.750000 0.000000
O O9 0.379473 0.500000 0.350577
O O10 0.331690 0.757788 0.344876
O O11 0.452662 0.689292 0.268759
O O12 0.440257 0.722116 0.396876
O O13 0.544685 0.228269 0.163604
O O14 0.610651 0.000000 0.191454
O O15 0.700218 0.763997 0.775981
O O16 0.690282 0.000000 0.711148
O O17 0.491194 0.500000 0.823049
O O18 0.577993 0.302855 0.850347
O O19 0.174445 0.000000 0.813013
O O20 0.500000 0.738336 0.500000
O O21 0.493307 0.500000 0.570722
#
# Coordination Sequence:
#
# PCOD8085094 Si02
#       8
#     8   8   8   8   8   8   8   8
#     4  10  19  33  52  77 104 133 176 219 257 304
#     4  10  22  38  55  77 105 139 175 210 257 310
#     4   9  17  31  51  74 103 137 173 214 257 306
#     4  11  21  33  53  80 107 134 169 216 262 306
#     4  10  19  29  49  78 105 132 167 217 264 305
#     4   9  17  31  53  77 102 133 172 216 255 300
#     4   9  18  35  54  74 104 138 173 211 251 305
#     4   9  17  32  54  76 100 137 183 220 252 303
#
# _framework density 17.437446999999999
#
# number of rings (size 3 to 8) (size 9 to 14) (size 15 to 20)
#    0.000    2.375    2.500    1.500    0.000    4.000 
#    0.000    1.250    0.000    5.250    0.000    0.000 
#    0.000    0.000    0.000    0.000    0.000    0.000 
#
# Total GULP energy -396790.872945 kJ/mol
# GULP energy per Si atom -12399.714780 kJ/mol
# Density = 1.739776 g / cm^3
# Si number density = 17.437447 Si / 1000 Ang^3
#
#
#
# Elastic Constant Matrix: (Units=GPa)
#
#
# Indices 1 2 3 4 5 6 
#
# 1 141.3049 57.0049 75.8925 0.0000 12.1128 0.0000
# 2 57.0049 69.2394 46.3427 0.0000 0.4368 0.0000
# 3 75.8925 46.3427 123.6901 0.0000 8.9767 0.0000
# 4 0.0000 0.0000 0.0000 18.4999 0.0000 2.8510
# 5 12.1128 0.4368 8.9767 0.0000 26.6689 0.0000
# 6 0.0000 0.0000 0.0000 2.8510 0.0000 31.0503
#
#
#
# Elastic Compliance Matrix: (Units=1/GPa)
#
#
# Indices 1 2 3 4 5 6 
#
# 1 0.013090 -0.007444 -0.004941 0.000000 -0.004160 0.000000
# 2 -0.007444 0.023633 -0.004617 0.000000 0.004548 0.000000
# 3 -0.004941 -0.004617 0.012995 0.000000 -0.002054 0.000000
# 4 0.000000 0.000000 0.000000 0.054830 0.000000 -0.005035
# 5 -0.004160 0.004548 -0.002054 0.000000 0.040004 0.000000
# 6 0.000000 0.000000 0.000000 -0.005035 0.000000 0.032668
#
#
# Mechanical properties :
#
#
# Convention : Reuss Voigt Hill
#
# Bulk Modulus (GPa) = 63.63555 76.96829 70.30192
# Shear Modulus (GPa) = 23.09869 25.57675 24.33772
#
# Velocity S-wave (km/s) = 3.64354 3.83400 3.73998
# Velocity P-wave (km/s) = 7.36704 7.98967 7.68467
#
# Compressibility (1/GPa) = 0.01571449
#
# Stress axis : x y z
#
# Youngs Moduli (GPa) = 76.39301 42.31382 76.95139
#
# Poissons Ratio (x) = 0.31499 0.38020
# Poissons Ratio (y) = 0.56867 0.35529
# Poissons Ratio (z) = 0.37744 0.19537
#
# Static dielectric constant tensor:
#      x y z
#    x 3.581400 0.000000 0.098610 
#    y 0.000000 3.139670 0.000000 
#    z 0.098610 0.000000 3.103360 
# 
# 
# High freq. dielectric constant tensor:
#      x y z
#    x 1.690530 0.000000 0.011390 
#    y 0.000000 1.661210 0.000000 
#    z 0.011390 0.000000 1.644700 
# 
# From -- ./inp_files/319130.got.cif
#   From: 2010.06.25/outbox.cif.g09.slc.cpg/sg12_160_cif.got.tgz:319130.got - 2010.06.28 00:19:55.
