data_PCOD8085762
_publ_section_title
;
Structure prediction by ZEFSAII (Michael W. Deem and Ramdas Pophale) SiO2 
 PCOD8085762
Probable space group: C 2/M
;
_chemical_formula_sum "Si O2"
_cell_formula_units_Z 48
_cell_length_a 24.672870
_cell_length_b 16.862271
_cell_length_c 12.351344
_cell_angle_alpha 90.000000
_cell_angle_beta 151.474968
_cell_angle_gamma 90.000000
_cell_volume 2453.929766
_symmetry_space_group_name_H-M "C 2/M"
_symmetry_group_IT_number 12
_symmetry_cell_setting 'monoclinic'
loop_
_space_group_symop_operation_xyz
x,y,z
-x,y,-z
-x,-y,-z
x,-y,z
1/2+x,1/2+y,z
1/2-x,1/2+y,-z
1/2-x,1/2-y,-z
1/2+x,1/2-y,z
loop_
_atom_site_type_symbol
_atom_site_label
_atom_site_fract_x
_atom_site_fract_y
_atom_site_fract_z
Si Si1 0.485854 0.907210 0.348898
Si Si2 0.851680 0.704248 0.971474
Si Si3 0.195257 0.321584 0.608374
Si Si4 0.620652 0.913124 0.168673
Si Si5 0.952447 0.773549 0.803608
Si Si6 0.829205 0.087508 0.686254
O O1 0.500000 0.893475 0.500000
O O2 0.380623 0.850605 0.126629
O O3 0.600191 0.880311 0.488276
O O4 0.462368 0.000000 0.281727
O O5 0.955181 0.764981 0.129828
O O6 0.737661 0.758901 0.776374
O O7 0.831980 0.645504 0.837678
O O8 0.155259 0.275827 0.429002
O O9 0.306970 0.369872 0.763389
O O10 0.706023 0.917658 0.417487
O O11 0.607013 0.000000 0.090769
O O12 0.500000 0.883423 0.000000
O O13 0.918246 0.864791 0.767194
O O14 0.000000 0.736904 0.000000
O O15 0.880352 0.000000 0.793686
#
# Coordination Sequence:
#
# PCOD8085762 Si02
#       6
#     8   8   8   8   8   8
#     4  10  23  42  61  82 107 136 180 240 295 335
#     4  11  20  34  58  80 109 141 182 226 270 328
#     4  11  21  35  57  83 108 143 184 225 274 325
#     4  10  19  30  49  78 110 145 181 217 259 312
#     4  11  20  33  51  76 113 152 179 212 258 311
#     4  11  21  32  48  76 115 151 181 208 249 316
#
# _framework density 19.560462999999999
#
# number of rings (size 3 to 8) (size 9 to 14) (size 15 to 20)
#    0.000    1.333    3.333    5.000    0.000    2.333 
#    0.000    0.000    0.000    0.500    0.000    0.000 
#    0.000   10.667    0.000    0.000    0.000    0.000 
#
# Total GULP energy -297372.510268 kJ/mol
# GULP energy per Si atom -12390.521261 kJ/mol
# Density = 1.951594 g / cm^3
# Si number density = 19.560463 Si / 1000 Ang^3
#
#
#
# Elastic Constant Matrix: (Units=GPa)
#
#
# Indices 1 2 3 4 5 6 
#
# 1 46.3274 29.2706 15.5379 0.0000 -15.4071 0.0000
# 2 29.2706 144.3330 46.2676 0.0000 -9.3623 0.0000
# 3 15.5379 46.2676 80.4003 0.0000 -14.4909 0.0000
# 4 0.0000 0.0000 0.0000 26.6819 0.0000 -0.6098
# 5 -15.4071 -9.3623 -14.4909 0.0000 22.8568 0.0000
# 6 0.0000 0.0000 0.0000 -0.6098 0.0000 25.0751
#
#
#
# Elastic Compliance Matrix: (Units=1/GPa)
#
#
# Indices 1 2 3 4 5 6 
#
# 1 0.031076 -0.005201 0.000428 0.000000 0.019088 0.000000
# 2 -0.005201 0.009370 -0.004885 0.000000 -0.002765 0.000000
# 3 0.000428 -0.004885 0.016774 0.000000 0.008922 0.000000
# 4 0.000000 0.000000 0.000000 0.037499 0.000000 0.000912
# 5 0.019088 -0.002765 0.008922 0.000000 0.061141 0.000000
# 6 0.000000 0.000000 0.000000 0.000912 0.000000 0.039902
#
#
# Mechanical properties :
#
#
# Convention : Reuss Voigt Hill
#
# Bulk Modulus (GPa) = 26.38285 50.35702 38.36993
# Shear Modulus (GPa) = 21.95718 26.92173 24.43945
#
# Velocity S-wave (km/s) = 3.35405 3.71392 3.53856
# Velocity P-wave (km/s) = 5.34010 6.64764 6.02942
#
# Compressibility (1/GPa) = 0.03790341
#
# Stress axis : x y z
#
# Youngs Moduli (GPa) = 32.17867 106.72489 59.61448
#
# Poissons Ratio (x) = 0.55510 -0.02550
# Poissons Ratio (y) = 0.16737 0.29123
# Poissons Ratio (z) = -0.01377 0.52138
#
# Static dielectric constant tensor:
#      x y z
#    x 3.050640 0.000000 -0.046530 
#    y 0.000000 3.983520 0.000000 
#    z -0.046530 0.000000 3.740540 
# 
# 
# High freq. dielectric constant tensor:
#      x y z
#    x 1.701500 0.000000 0.003450 
#    y 0.000000 1.786840 0.000000 
#    z 0.003450 0.000000 1.767520 
# 
# From -- ./inp_files/131223.got.cif
#   From: 2010.06.25/outbox.cif.g09.slc.cpg/sg12_66_cif.got.tgz:131223.got - 2010.06.28 00:19:55.
