data_PCOD8085947
_publ_section_title
;
Structure prediction by ZEFSAII (Michael W. Deem and Ramdas Pophale) SiO2 
 PCOD8085947
Probable space group: C 2/M
;
_chemical_formula_sum "Si O2"
_cell_formula_units_Z 56
_cell_length_a 28.494931
_cell_length_b 9.518699
_cell_length_c 17.574113
_cell_angle_alpha 90.000000
_cell_angle_beta 136.383940
_cell_angle_gamma 90.000000
_cell_volume 3288.182964
_symmetry_space_group_name_H-M "C 2/M"
_symmetry_group_IT_number 12
_symmetry_cell_setting 'monoclinic'
loop_
_space_group_symop_operation_xyz
x,y,z
-x,y,-z
-x,-y,-z
x,-y,z
1/2+x,1/2+y,z
1/2-x,1/2+y,-z
1/2-x,1/2-y,-z
1/2+x,1/2-y,z
loop_
_atom_site_type_symbol
_atom_site_label
_atom_site_fract_x
_atom_site_fract_y
_atom_site_fract_z
Si Si1 0.164408 0.166972 0.670397
Si Si2 0.954864 0.837715 0.764760
Si Si3 0.913867 0.166785 0.275408
Si Si4 0.563439 0.667141 0.425325
Si Si5 0.070102 0.335567 0.121312
Si Si6 0.112276 0.162073 0.923386
Si Si7 0.182594 0.334952 0.131415
O O1 0.130496 0.229134 0.707472
O O2 0.123743 0.226469 0.549381
O O3 0.242351 0.215348 0.756042
O O4 0.159406 0.000000 0.665887
O O5 0.924683 0.786624 0.648145
O O6 0.919030 0.745727 0.787257
O O7 0.035524 0.812844 0.861083
O O8 0.937507 0.000000 0.759461
O O9 0.880067 0.209931 0.155423
O O10 0.991028 0.225784 0.370811
O O11 0.916952 0.000000 0.283748
O O12 0.560616 0.500000 0.424542
O O13 0.069201 0.500000 0.138399
O O14 0.132003 0.292623 0.139575
O O15 0.000000 0.287442 0.000000
O O16 0.132776 0.000000 0.957958
O O17 0.163114 0.257097 0.031196
O O18 0.179612 0.500000 0.110949
#
# Coordination Sequence:
#
# PCOD8085947 Si02
#       7
#     8   8   8   8   8   8   8
#     4   9  16  27  44  65  92 123 150 181 220 265
#     4   9  17  29  48  72  91 111 147 191 229 264
#     4   8  14  25  44  69  92 116 148 183 223 267
#     4   8  14  26  45  69  93 115 145 186 226 263
#     4  10  19  31  46  64  90 122 154 186 220 263
#     4   9  17  29  45  68  95 118 144 184 228 267
#     4  10  20  31  44  66  93 121 154 185 219 266
#
# _framework density 17.030683
#
# number of rings (size 3 to 8) (size 9 to 14) (size 15 to 20)
#    0.000    3.000    1.429    2.143    0.000    3.143 
#    0.000    0.714    0.000    0.857    0.000    0.000 
#    0.000    5.714    0.000    0.000    0.000    0.000 
#
# Total GULP energy -347111.587989 kJ/mol
# GULP energy per Si atom -12396.842428 kJ/mol
# Density = 1.699192 g / cm^3
# Si number density = 17.030683 Si / 1000 Ang^3
#
#
#
# Elastic Constant Matrix: (Units=GPa)
#
#
# Indices 1 2 3 4 5 6 
#
# 1 126.6888 29.6623 92.0790 0.0000 -9.9138 0.0000
# 2 29.6623 23.8517 34.3288 0.0000 -5.3560 0.0000
# 3 92.0790 34.3288 151.9575 0.0000 -6.3326 0.0000
# 4 0.0000 0.0000 0.0000 16.5875 0.0000 -2.5167
# 5 -9.9138 -5.3560 -6.3326 0.0000 26.0877 0.0000
# 6 0.0000 0.0000 0.0000 -2.5167 0.0000 8.2695
#
#
#
# Elastic Compliance Matrix: (Units=1/GPa)
#
#
# Indices 1 2 3 4 5 6 
#
# 1 0.015291 -0.007830 -0.007396 0.000000 0.002408 0.000000
# 2 -0.007830 0.068527 -0.010379 0.000000 0.008574 0.000000
# 3 -0.007396 -0.010379 0.013336 0.000000 -0.001704 0.000000
# 4 0.000000 0.000000 0.000000 0.063205 0.000000 0.019236
# 5 0.002408 0.008574 -0.001704 0.000000 0.040594 0.000000
# 6 0.000000 0.000000 0.000000 0.019236 0.000000 0.126781
#
#
# Mechanical properties :
#
#
# Convention : Reuss Voigt Hill
#
# Bulk Modulus (GPa) = 21.76602 68.29312 45.02957
# Shear Modulus (GPa) = 12.68206 19.95080 16.31643
#
# Velocity S-wave (km/s) = 2.73181 3.42638 3.09861
# Velocity P-wave (km/s) = 4.77059 7.47265 6.26893
#
# Compressibility (1/GPa) = 0.04594317
#
# Stress axis : x y z
#
# Youngs Moduli (GPa) = 65.39920 14.59289 74.98356
#
# Poissons Ratio (x) = 0.11426 0.55460
# Poissons Ratio (y) = 0.51207 0.77826
# Poissons Ratio (z) = 0.48371 0.15146
#
# Static dielectric constant tensor:
#      x y z
#    x 3.284450 0.000000 -0.083780 
#    y 0.000000 2.706440 0.000000 
#    z -0.083780 0.000000 3.332350 
# 
# 
# High freq. dielectric constant tensor:
#      x y z
#    x 1.659240 0.000000 -0.011640 
#    y 0.000000 1.605590 0.000000 
#    z -0.011640 0.000000 1.656580 
# 
# From -- ./inp_files/282798.got.cif
#   From: 2010.06.25/outbox.cif.g09.slc.cpg/sg12_142_cif.got.tgz:282798.got - 2010.06.28 00:19:55.
