data_PCOD8085834
_publ_section_title
;
Structure prediction by ZEFSAII (Michael W. Deem and Ramdas Pophale) SiO2 
 PCOD8085834
Probable space group: C 2/M
;
_chemical_formula_sum "Si O2"
_cell_formula_units_Z 64
_cell_length_a 20.535240
_cell_length_b 9.334903
_cell_length_c 19.038295
_cell_angle_alpha 90.000000
_cell_angle_beta 89.907156
_cell_angle_gamma 90.000000
_cell_volume 3649.531145
_symmetry_space_group_name_H-M "C 2/M"
_symmetry_group_IT_number 12
_symmetry_cell_setting 'monoclinic'
loop_
_space_group_symop_operation_xyz
x,y,z
-x,y,-z
-x,-y,-z
x,-y,z
1/2+x,1/2+y,z
1/2-x,1/2+y,-z
1/2-x,1/2-y,-z
1/2+x,1/2-y,z
loop_
_atom_site_type_symbol
_atom_site_label
_atom_site_fract_x
_atom_site_fract_y
_atom_site_fract_z
Si Si1 0.312583 0.832013 0.972191
Si Si2 0.627139 0.166173 0.327441
Si Si3 0.126584 0.336017 0.170396
Si Si4 0.568883 0.335888 0.964037
Si Si5 0.808774 0.334790 0.532630
Si Si6 0.501429 0.663355 0.826365
Si Si7 0.060984 0.333652 0.548063
Si Si8 0.995425 0.831947 0.331294
O O1 0.318273 0.804231 0.888095
O O2 0.305770 0.000000 0.989053
O O3 0.250000 0.750000 0.000000
O O4 0.376776 0.772945 0.009819
O O5 0.653204 0.201431 0.248691
O O6 0.683438 0.200234 0.384155
O O7 0.565442 0.262828 0.345962
O O8 0.605656 0.000000 0.334906
O O9 0.105169 0.500000 0.167174
O O10 0.062068 0.250294 0.151116
O O11 0.590300 0.500000 0.979330
O O12 0.560179 0.308992 0.880528
O O13 0.500000 0.302097 0.000000
O O14 0.793349 0.500000 0.520915
O O15 0.750000 0.250000 0.500000
O O16 0.874503 0.289406 0.493292
O O17 0.478122 0.500000 0.829924
O O18 0.526370 0.702074 0.748485
O O19 0.060287 0.500000 0.568697
O O20 0.000000 0.293267 0.500000
O O21 0.058363 0.240062 0.618866
O O22 0.999485 0.000000 0.346787
#
# Coordination Sequence:
#
# PCOD8085834 Si02
#       8
#     8   8   8   8   8   8   8   8
#     4  11  23  37  54  80 111 144 182 225 269 320
#     4   9  17  34  55  75 102 139 175 211 262 322
#     4   9  18  32  54  79 102 133 178 221 259 312
#     4  10  19  34  57  80 106 142 177 216 268 322
#     4  10  21  36  55  77 104 138 174 214 261 312
#     4   9  18  32  51  79 111 139 171 214 270 320
#     4  10  19  35  55  75 103 140 177 212 258 317
#     4  10  19  30  50  82 111 135 171 223 267 305
#
# _framework density 17.536498999999999
#
# number of rings (size 3 to 8) (size 9 to 14) (size 15 to 20)
#    0.000    2.250    2.500    0.750    0.000    3.000 
#    0.000    1.250    0.000    6.000    0.000    0.000 
#    0.000    0.000    0.000    0.000    0.000    0.000 
#
# Total GULP energy -396753.412006 kJ/mol
# GULP energy per Si atom -12398.544125 kJ/mol
# Density = 1.749659 g / cm^3
# Si number density = 17.536499 Si / 1000 Ang^3
#
#
#
# Elastic Constant Matrix: (Units=GPa)
#
#
# Indices 1 2 3 4 5 6 
#
# 1 103.3130 54.6355 65.7665 0.0000 0.8282 0.0000
# 2 54.6355 79.0774 59.9052 0.0000 -4.2494 0.0000
# 3 65.7665 59.9052 133.0319 0.0000 -1.0889 0.0000
# 4 0.0000 0.0000 0.0000 28.4805 0.0000 -0.4859
# 5 0.8282 -4.2494 -1.0889 0.0000 23.7298 0.0000
# 6 0.0000 0.0000 0.0000 -0.4859 0.0000 33.0520
#
#
#
# Elastic Compliance Matrix: (Units=1/GPa)
#
#
# Indices 1 2 3 4 5 6 
#
# 1 0.017136 -0.008396 -0.004710 0.000000 -0.002318 0.000000
# 2 -0.008396 0.023529 -0.006410 0.000000 0.004212 0.000000
# 3 -0.004710 -0.006410 0.012728 0.000000 -0.000399 0.000000
# 4 0.000000 0.000000 0.000000 0.035121 0.000000 0.000516
# 5 -0.002318 0.004212 -0.000399 0.000000 0.042958 0.000000
# 6 0.000000 0.000000 0.000000 0.000516 0.000000 0.030263
#
#
# Mechanical properties :
#
#
# Convention : Reuss Voigt Hill
#
# Bulk Modulus (GPa) = 69.62845 75.11520 72.37182
# Shear Modulus (GPa) = 24.32442 26.06014 25.19228
#
# Velocity S-wave (km/s) = 3.72838 3.85912 3.79431
# Velocity P-wave (km/s) = 7.63712 7.92361 7.78168
#
# Compressibility (1/GPa) = 0.01436195
#
# Stress axis : x y z
#
# Youngs Moduli (GPa) = 58.35596 42.50024 78.56410
#
# Poissons Ratio (x) = 0.35685 0.37000
# Poissons Ratio (y) = 0.48998 0.50360
# Poissons Ratio (z) = 0.27483 0.27243
#
# Static dielectric constant tensor:
#      x y z
#    x 3.041730 0.000000 -0.006320 
#    y 0.000000 3.293430 0.000000 
#    z -0.006320 0.000000 3.760110 
# 
# 
# High freq. dielectric constant tensor:
#      x y z
#    x 1.641540 0.000000 -0.001830 
#    y 0.000000 1.680900 0.000000 
#    z -0.001830 0.000000 1.697800 
# 
# From -- ./inp_files/281416.got.cif
#   From: 2010.06.25/outbox.cif.g09.slc.cpg/sg12_141_cif.got.tgz:281416.got - 2010.06.28 00:19:55.
