data_PCOD8085736
_publ_section_title
;
Structure prediction by ZEFSAII (Michael W. Deem and Ramdas Pophale) SiO2 
 PCOD8085736
Probable space group: C 2/M
;
_chemical_formula_sum "Si O2"
_cell_formula_units_Z 64
_cell_length_a 25.734789
_cell_length_b 9.086578
_cell_length_c 15.385970
_cell_angle_alpha 90.000000
_cell_angle_beta 70.010597
_cell_angle_gamma 90.000000
_cell_volume 3381.122421
_symmetry_space_group_name_H-M "C 2/M"
_symmetry_group_IT_number 12
_symmetry_cell_setting 'monoclinic'
loop_
_space_group_symop_operation_xyz
x,y,z
-x,y,-z
-x,-y,-z
x,-y,z
1/2+x,1/2+y,z
1/2-x,1/2+y,-z
1/2-x,1/2-y,-z
1/2+x,1/2-y,z
loop_
_atom_site_type_symbol
_atom_site_label
_atom_site_fract_x
_atom_site_fract_y
_atom_site_fract_z
Si Si1 0.132689 0.326566 0.691278
Si Si2 0.195660 0.172317 0.996324
Si Si3 0.398388 0.328770 0.811194
Si Si4 0.492327 0.161485 0.242399
Si Si5 0.854913 0.828042 0.487806
Si Si6 0.703751 0.826908 0.817812
Si Si7 0.538234 0.162385 0.553089
Si Si8 0.325135 0.325170 0.695201
O O1 0.130759 0.500000 0.673322
O O2 0.164199 0.254681 0.589744
O O3 0.167576 0.284345 0.755178
O O4 0.069103 0.271315 0.742513
O O5 0.178719 0.238437 0.912872
O O6 0.207397 0.000000 0.981535
O O7 0.250000 0.250000 0.000000
O O8 0.146263 0.206205 0.089928
O O9 0.409753 0.500000 0.794482
O O10 0.455583 0.260216 0.814559
O O11 0.373958 0.267753 0.732293
O O12 0.499359 0.146016 0.341155
O O13 0.497615 0.000000 0.194885
O O14 0.919250 0.793619 0.458089
O O15 0.828955 0.766625 0.593269
O O16 0.843258 0.000000 0.482695
O O17 0.766478 0.773914 0.766875
O O18 0.700934 0.000000 0.838876
O O19 0.500000 0.221767 0.500000
O O20 0.564564 0.000000 0.516821
O O21 0.327892 0.500000 0.690589
#
# Coordination Sequence:
#
# PCOD8085736 Si02
#       8
#     8   8   8   8   8   8   8   8
#     4   9  20  38  57  76 107 150 189 224 270 319
#     4  11  22  38  60  86 113 140 175 220 273 331
#     4  10  20  35  55  80 111 142 173 217 275 331
#     4   9  18  32  50  76 105 138 183 225 262 315
#     4  10  19  30  49  76 108 144 183 226 266 318
#     4  10  20  39  62  79 105 147 184 226 277 322
#     4   9  17  30  47  69 103 142 182 228 270 314
#     4   9  18  33  52  79 111 141 178 224 275 325
#
# _framework density 18.928626999999999
#
# number of rings (size 3 to 8) (size 9 to 14) (size 15 to 20)
#    0.000    2.375    1.250    2.250    0.000    4.250 
#    0.000    2.500    0.000    3.750    0.000    0.000 
#    0.000    0.000    0.000    0.000    0.000    0.000 
#
# Total GULP energy -396487.119843 kJ/mol
# GULP energy per Si atom -12390.222495 kJ/mol
# Density = 1.888554 g / cm^3
# Si number density = 18.928627 Si / 1000 Ang^3
#
#
#
# Elastic Constant Matrix: (Units=GPa)
#
#
# Indices 1 2 3 4 5 6 
#
# 1 67.7988 15.8780 35.2807 0.0000 1.6578 0.0000
# 2 15.8780 43.1199 42.5811 0.0000 -4.5679 0.0000
# 3 35.2807 42.5811 110.0941 0.0000 10.6923 0.0000
# 4 0.0000 0.0000 0.0000 30.4110 0.0000 0.8810
# 5 1.6578 -4.5679 10.6923 0.0000 31.1195 0.0000
# 6 0.0000 0.0000 0.0000 0.8810 0.0000 24.9545
#
#
#
# Elastic Compliance Matrix: (Units=1/GPa)
#
#
# Indices 1 2 3 4 5 6 
#
# 1 0.017773 -0.001267 -0.005271 0.000000 0.000678 0.000000
# 2 -0.001267 0.041528 -0.016815 0.000000 0.011941 0.000000
# 3 -0.005271 -0.016815 0.018092 0.000000 -0.008404 0.000000
# 4 0.000000 0.000000 0.000000 0.032916 0.000000 -0.001162
# 5 0.000678 0.011941 -0.008404 0.000000 0.036738 0.000000
# 6 0.000000 0.000000 0.000000 -0.001162 0.000000 0.040114
#
#
# Mechanical properties :
#
#
# Convention : Reuss Voigt Hill
#
# Bulk Modulus (GPa) = 32.58891 45.38805 38.98848
# Shear Modulus (GPa) = 20.48359 25.78184 23.13271
#
# Velocity S-wave (km/s) = 3.29317 3.69461 3.49965
# Velocity P-wave (km/s) = 5.63153 6.49852 6.08049
#
# Compressibility (1/GPa) = 0.03068529
#
# Stress axis : x y z
#
# Youngs Moduli (GPa) = 56.26606 24.08009 55.27244
#
# Poissons Ratio (x) = 0.03052 0.29135
# Poissons Ratio (y) = 0.07131 0.92943
# Poissons Ratio (z) = 0.29659 0.40492
#
# Static dielectric constant tensor:
#      x y z
#    x 3.528310 0.000000 0.167020 
#    y 0.000000 3.362640 0.000000 
#    z 0.167020 0.000000 3.704960 
# 
# 
# High freq. dielectric constant tensor:
#      x y z
#    x 1.730080 0.000000 0.005860 
#    y 0.000000 1.715580 0.000000 
#    z 0.005860 0.000000 1.734310 
# 
# From -- ./inp_files/243860.got.cif
#   From: 2010.06.25/outbox.cif.g09.slc.cpg/sg12_122_cif.got.tgz:243860.got - 2010.06.28 00:19:55.
