data_PCOD8085495
_publ_section_title
;
Structure prediction by ZEFSAII (Michael W. Deem and Ramdas Pophale) SiO2 
 PCOD8085495
Probable space group: C 2/M
;
_chemical_formula_sum "Si O2"
_cell_formula_units_Z 56
_cell_length_a 18.684686
_cell_length_b 9.204982
_cell_length_c 19.827423
_cell_angle_alpha 90.000000
_cell_angle_beta 115.487126
_cell_angle_gamma 90.000000
_cell_volume 3078.291898
_symmetry_space_group_name_H-M "C 2/M"
_symmetry_group_IT_number 12
_symmetry_cell_setting 'monoclinic'
loop_
_space_group_symop_operation_xyz
x,y,z
-x,y,-z
-x,-y,-z
x,-y,z
1/2+x,1/2+y,z
1/2-x,1/2+y,-z
1/2-x,1/2-y,-z
1/2+x,1/2-y,z
loop_
_atom_site_type_symbol
_atom_site_label
_atom_site_fract_x
_atom_site_fract_y
_atom_site_fract_z
Si Si1 0.829705 0.332574 0.515778
Si Si2 0.219797 0.664826 0.647398
Si Si3 0.870813 0.336028 0.057454
Si Si4 0.545313 0.331832 0.798480
Si Si5 0.891011 0.168676 0.656316
Si Si6 0.714355 0.664270 0.084027
Si Si7 0.802677 0.831053 0.228640
O O1 0.821412 0.500000 0.533455
O O2 0.750000 0.250000 0.500000
O O3 0.842264 0.318546 0.440159
O O4 0.898347 0.258191 0.588820
O O5 0.217407 0.500000 0.674163
O O6 0.308797 0.703956 0.660255
O O7 0.192042 0.775435 0.693072
O O8 0.896013 0.500000 0.049682
O O9 0.940747 0.260679 0.128258
O O10 0.791161 0.334593 0.068423
O O11 0.856965 0.247469 0.982747
O O12 0.545050 0.500000 0.819398
O O13 0.461919 0.281838 0.733686
O O14 0.612813 0.300260 0.770888
O O15 0.898242 0.000000 0.640498
O O16 0.687289 0.500000 0.088939
O O17 0.733063 0.745937 0.161382
O O18 0.781071 0.000000 0.218810
#
# Coordination Sequence:
#
# PCOD8085495 Si02
#       7
#     8   8   8   8   8   8   8
#     4   9  17  30  49  71  93 120 157 197 233 274
#     4   9  18  32  49  69  93 122 155 191 233 279
#     4   9  16  26  43  68  94 121 156 194 230 272
#     4   9  18  32  48  69  97 126 156 191 234 279
#     4   9  18  33  52  71  93 123 159 196 231 275
#     4   9  16  27  44  65  92 125 157 191 230 273
#     4  10  19  30  47  71  97 124 155 193 234 277
#
# _framework density 18.191905999999999
#
# number of rings (size 3 to 8) (size 9 to 14) (size 15 to 20)
#    0.000    2.857    0.000    2.571    0.000    7.429 
#    0.000    0.714    0.000    5.143    0.000    6.000 
#    0.000    0.000    0.000    0.000    0.000    0.000 
#
# Total GULP energy -347134.096698 kJ/mol
# GULP energy per Si atom -12397.646311 kJ/mol
# Density = 1.815050 g / cm^3
# Si number density = 18.191906 Si / 1000 Ang^3
#
#
#
# Elastic Constant Matrix: (Units=GPa)
#
#
# Indices 1 2 3 4 5 6 
#
# 1 15.2745 7.2200 2.3777 0.0000 7.4370 0.0000
# 2 7.2200 94.3777 26.4702 0.0000 6.2303 0.0000
# 3 2.3777 26.4702 52.5622 0.0000 21.1137 0.0000
# 4 0.0000 0.0000 0.0000 43.5849 0.0000 -1.4079
# 5 7.4370 6.2303 21.1137 0.0000 25.6671 0.0000
# 6 0.0000 0.0000 0.0000 -1.4079 0.0000 18.0045
#
#
#
# Elastic Compliance Matrix: (Units=1/GPa)
#
#
# Indices 1 2 3 4 5 6 
#
# 1 0.083448 -0.008022 0.013733 0.000000 -0.033528 0.000000
# 2 -0.008022 0.013284 -0.008909 0.000000 0.006429 0.000000
# 3 0.013733 -0.008909 0.035277 0.000000 -0.030835 0.000000
# 4 0.000000 0.000000 0.000000 0.023002 0.000000 0.001799
# 5 -0.033528 0.006429 -0.030835 0.000000 0.072480 0.000000
# 6 0.000000 0.000000 0.000000 0.001799 0.000000 0.055682
#
#
# Mechanical properties :
#
#
# Convention : Reuss Voigt Hill
#
# Bulk Modulus (GPa) = 7.96106 26.03891 16.99999
# Shear Modulus (GPa) = 15.08575 25.86104 20.47339
#
# Velocity S-wave (km/s) = 2.88280 3.77446 3.35836
# Velocity P-wave (km/s) = 3.93274 5.77407 4.93996
#
# Compressibility (1/GPa) = 0.12561140
#
# Stress axis : x y z
#
# Youngs Moduli (GPa) = 11.98358 75.27975 28.34745
#
# Poissons Ratio (x) = 0.60391 -0.38930
# Poissons Ratio (y) = 0.09613 0.25255
# Poissons Ratio (z) = -0.16457 0.67067
#
# Static dielectric constant tensor:
#      x y z
#    x 2.836740 0.000000 0.104350 
#    y 0.000000 3.541010 0.000000 
#    z 0.104350 0.000000 3.798620 
# 
# 
# High freq. dielectric constant tensor:
#      x y z
#    x 1.642830 0.000000 0.004440 
#    y 0.000000 1.715490 0.000000 
#    z 0.004440 0.000000 1.721620 
# 
# From -- ./inp_files/319321.got.cif
#   From: 2010.06.25/outbox.cif.g09.slc.cpg/sg12_160_cif.got.tgz:319321.got - 2010.06.28 00:19:55.
