data_PCOD8085560
_publ_section_title
;
Structure prediction by ZEFSAII (Michael W. Deem and Ramdas Pophale) SiO2 
 PCOD8085560
Probable space group: C 2/M
;
_chemical_formula_sum "Si O2"
_cell_formula_units_Z 48
_cell_length_a 27.886649
_cell_length_b 8.986242
_cell_length_c 11.732568
_cell_angle_alpha 90.000000
_cell_angle_beta 71.329380
_cell_angle_gamma 90.000000
_cell_volume 2785.410684
_symmetry_space_group_name_H-M "C 2/M"
_symmetry_group_IT_number 12
_symmetry_cell_setting 'monoclinic'
loop_
_space_group_symop_operation_xyz
x,y,z
-x,y,-z
-x,-y,-z
x,-y,z
1/2+x,1/2+y,z
1/2-x,1/2+y,-z
1/2-x,1/2-y,-z
1/2+x,1/2-y,z
loop_
_atom_site_type_symbol
_atom_site_label
_atom_site_fract_x
_atom_site_fract_y
_atom_site_fract_z
Si Si1 0.302787 0.676627 0.995163
Si Si2 0.374240 0.326231 0.405379
Si Si3 0.290726 0.167887 0.607886
Si Si4 0.360272 0.166619 0.763390
Si Si5 0.684066 0.675242 0.761309
Si Si6 0.556742 0.176141 0.477015
O O1 0.296402 0.500000 0.995272
O O2 0.348565 0.725582 0.877770
O O3 0.250000 0.750000 0.000000
O O4 0.319863 0.736262 0.107174
O O5 0.383426 0.500000 0.415015
O O6 0.323251 0.280733 0.508886
O O7 0.365356 0.285104 0.278005
O O8 0.422847 0.241772 0.419067
O O9 0.311149 0.163481 0.721202
O O10 0.234217 0.235418 0.658228
O O11 0.293416 0.000000 0.554492
O O12 0.408514 0.228835 0.655335
O O13 0.371900 0.000000 0.799726
O O14 0.691635 0.500000 0.762795
O O15 0.500000 0.233728 0.500000
O O16 0.559623 0.000000 0.486920
#
# Coordination Sequence:
#
# PCOD8085560 Si02
#       6
#     8   8   8   8   8   8
#     4  11  20  32  48  68  99 138 173 198 231 279
#     4  10  19  30  47  73  99 123 159 205 247 287
#     4   9  16  30  47  64  97 137 165 194 236 287
#     4   9  17  31  50  73  98 124 162 205 242 283
#     4   9  18  31  45  64  99 139 164 193 239 284
#     4   9  19  37  58  74  94 126 158 198 256 307
#
# _framework density 17.232648000000001
#
# number of rings (size 3 to 8) (size 9 to 14) (size 15 to 20)
#    0.000    2.500    1.667    2.500    0.000    3.000 
#    0.000    4.167    0.000    1.000    0.000    7.000 
#    0.000    0.000    0.000    0.000    0.000    0.000 
#
# Total GULP energy -297467.490796 kJ/mol
# GULP energy per Si atom -12394.478783 kJ/mol
# Density = 1.719343 g / cm^3
# Si number density = 17.232648 Si / 1000 Ang^3
#
#
#
# Elastic Constant Matrix: (Units=GPa)
#
#
# Indices 1 2 3 4 5 6 
#
# 1 120.0274 28.2897 58.7787 0.0000 12.1402 0.0000
# 2 28.2897 44.2522 33.0010 0.0000 7.1416 0.0000
# 3 58.7787 33.0010 100.5755 0.0000 20.3392 0.0000
# 4 0.0000 0.0000 0.0000 23.7855 0.0000 -0.5955
# 5 12.1402 7.1416 20.3392 0.0000 20.6458 0.0000
# 6 0.0000 0.0000 0.0000 -0.5955 0.0000 21.7559
#
#
#
# Elastic Compliance Matrix: (Units=1/GPa)
#
#
# Indices 1 2 3 4 5 6 
#
# 1 0.012012 -0.003234 -0.005940 0.000000 -0.000093 0.000000
# 2 -0.003234 0.030801 -0.008050 0.000000 -0.000822 0.000000
# 3 -0.005940 -0.008050 0.018465 0.000000 -0.011913 0.000000
# 4 0.000000 0.000000 0.000000 0.042071 0.000000 0.001152
# 5 -0.000093 -0.000822 -0.011913 0.000000 0.060511 0.000000
# 6 0.000000 0.000000 0.000000 0.001152 0.000000 0.045996
#
#
# Mechanical properties :
#
#
# Convention : Reuss Voigt Hill
#
# Bulk Modulus (GPa) = 37.27279 56.11043 46.69161
# Shear Modulus (GPa) = 19.74341 22.88983 21.31662
#
# Velocity S-wave (km/s) = 3.38849 3.64852 3.52090
# Velocity P-wave (km/s) = 6.08155 7.09789 6.60929
#
# Compressibility (1/GPa) = 0.02682922
#
# Stress axis : x y z
#
# Youngs Moduli (GPa) = 83.24969 32.46598 54.15674
#
# Poissons Ratio (x) = 0.10500 0.32170
# Poissons Ratio (y) = 0.26925 0.43597
# Poissons Ratio (z) = 0.49452 0.26136
#
# Static dielectric constant tensor:
#      x y z
#    x 3.175010 0.000000 0.145420 
#    y 0.000000 3.053140 0.000000 
#    z 0.145420 0.000000 3.345520 
# 
# 
# High freq. dielectric constant tensor:
#      x y z
#    x 1.641140 0.000000 0.013400 
#    y 0.000000 1.653010 0.000000 
#    z 0.013400 0.000000 1.659420 
# 
# From -- ./inp_files/172333.got.cif
#   From: 2010.06.25/outbox.cif.g09.slc.cpg/sg12_87_cif.got.tgz:172333.got - 2010.06.28 00:19:55.
