data_PCOD8085468
_publ_section_title
;
Structure prediction by ZEFSAII (Michael W. Deem and Ramdas Pophale) SiO2 
 PCOD8085468
Probable space group: C 2/M
;
_chemical_formula_sum "Si O2"
_cell_formula_units_Z 48
_cell_length_a 23.666521
_cell_length_b 16.966752
_cell_length_c 18.316884
_cell_angle_alpha 90.000000
_cell_angle_beta 20.570832
_cell_angle_gamma 90.000000
_cell_volume 2584.302336
_symmetry_space_group_name_H-M "C 2/M"
_symmetry_group_IT_number 12
_symmetry_cell_setting 'monoclinic'
loop_
_space_group_symop_operation_xyz
x,y,z
-x,y,-z
-x,-y,-z
x,-y,z
1/2+x,1/2+y,z
1/2-x,1/2+y,-z
1/2-x,1/2-y,-z
1/2+x,1/2-y,z
loop_
_atom_site_type_symbol
_atom_site_label
_atom_site_fract_x
_atom_site_fract_y
_atom_site_fract_z
Si Si1 0.829885 0.912496 0.242394
Si Si2 0.491439 0.408563 0.838107
Si Si3 0.655107 0.671225 0.270695
Si Si4 0.322412 0.150009 0.709345
Si Si5 0.667114 0.907871 0.827465
Si Si6 0.483792 0.406551 0.355203
O O1 0.723658 0.852520 0.321544
O O2 0.872298 0.874016 0.270744
O O3 0.747158 0.000000 0.347813
O O4 0.000000 0.926181 0.000000
O O5 0.527698 0.500000 0.791168
O O6 0.515736 0.373671 0.728025
O O7 0.308294 0.397756 0.086445
O O8 0.500000 0.636951 0.500000
O O9 0.671411 0.764097 0.261963
O O10 0.808951 0.630293 0.121527
O O11 0.627805 0.642694 0.220487
O O12 0.500000 0.111558 0.500000
O O13 0.809843 0.885586 0.599062
O O14 0.653374 0.000000 0.855951
O O15 0.500000 0.872773 0.000000
O O16 0.520547 0.500000 0.316014
#
# Coordination Sequence:
#
# PCOD8085468 Si02
#       6
#     8   8   8   8   8   8
#     4   8  15  29  47  65  88 122 161 195 231 277
#     4   9  18  32  50  71  95 126 160 193 236 285
#     4   9  18  31  48  69  96 129 161 189 230 286
#     4  10  19  30  47  70  97 127 162 199 229 267
#     4   9  17  30  50  73  93 117 156 202 239 276
#     4   9  17  32  52  71  95 126 156 190 237 289
#
# _framework density 18.573678999999998
#
# number of rings (size 3 to 8) (size 9 to 14) (size 15 to 20)
#    0.000    3.000    0.000    2.000    0.000    6.000 
#    0.000    1.667    0.000   14.000    0.000    0.000 
#    0.000    0.000    0.000    0.000    0.000    0.000 
#
# Total GULP energy -297313.714955 kJ/mol
# GULP energy per Si atom -12388.071456 kJ/mol
# Density = 1.853140 g / cm^3
# Si number density = 18.573679 Si / 1000 Ang^3
#
#
#
# Elastic Constant Matrix: (Units=GPa)
#
#
# Indices 1 2 3 4 5 6 
#
# 1 195.8397 43.9494 50.2558 -0.0059 -4.8918 0.0032
# 2 43.9494 38.4250 7.9544 -0.0067 -5.2073 0.0093
# 3 50.2558 7.9544 54.1298 -0.0099 -10.8251 0.0107
# 4 -0.0059 -0.0067 -0.0099 14.9709 0.0074 -3.1608
# 5 -4.8918 -5.2073 -10.8251 0.0074 30.2764 -0.0080
# 6 0.0032 0.0093 0.0107 -3.1608 -0.0080 18.5725
#
#
#
# Elastic Compliance Matrix: (Units=1/GPa)
#
#
# Indices 1 2 3 4 5 6 
#
# 1 0.009045 -0.009152 -0.007620 -0.000003 -0.002837 0.000006
# 2 -0.009152 0.036441 0.004415 0.000009 0.006368 -0.000015
# 3 -0.007620 0.004415 0.026716 0.000010 0.009080 -0.000011
# 4 -0.000003 0.000009 0.000010 0.069286 -0.000009 0.011791
# 5 -0.002837 0.006368 0.009080 -0.000009 0.036912 0.000006
# 6 0.000006 -0.000015 -0.000011 0.011791 0.000006 0.055850
#
#
# Mechanical properties :
#
#
# Convention : Reuss Voigt Hill
#
# Bulk Modulus (GPa) = 21.05765 54.74596 37.90180
# Shear Modulus (GPa) = 18.19559 25.17960 21.68760
#
# Velocity S-wave (km/s) = 3.13332 3.68592 3.42080
# Velocity P-wave (km/s) = 4.94492 6.90317 6.00441
#
# Compressibility (1/GPa) = 0.04748868
#
# Stress axis : x y z
#
# Youngs Moduli (GPa) = 110.56396 27.44133 37.43139
#
# Poissons Ratio (x) = 0.25114 0.28522
# Poissons Ratio (y) = 1.01188 -0.16527
# Poissons Ratio (z) = 0.84247 -0.12116
#
# Static dielectric constant tensor:
#      x y z
#    x 4.212830 -0.000020 -0.128160 
#    y -0.000020 3.109370 0.000020 
#    z -0.128160 0.000020 3.245810 
# 
# 
# High freq. dielectric constant tensor:
#      x y z
#    x 1.740430 0.000000 -0.014220 
#    y 0.000000 1.697850 0.000000 
#    z -0.014220 0.000000 1.682010 
# 
# From -- ./inp_files/74456.got.cif
#   From: 2010.06.25/outbox.cif.g09.slc.cpg/sg12_38_cif.got.tgz:74456.got - 2010.06.28 00:19:55.
