data_PCOD8085863
_publ_section_title
;
Structure prediction by ZEFSAII (Michael W. Deem and Ramdas Pophale) SiO2 
 PCOD8085863
Probable space group: C 2/M
;
_chemical_formula_sum "Si O2"
_cell_formula_units_Z 56
_cell_length_a 20.825427
_cell_length_b 8.941779
_cell_length_c 22.417940
_cell_angle_alpha 90.000000
_cell_angle_beta 47.762682
_cell_angle_gamma 90.000000
_cell_volume 3090.726407
_symmetry_space_group_name_H-M "C 2/M"
_symmetry_group_IT_number 12
_symmetry_cell_setting 'monoclinic'
loop_
_space_group_symop_operation_xyz
x,y,z
-x,y,-z
-x,-y,-z
x,-y,z
1/2+x,1/2+y,z
1/2-x,1/2+y,-z
1/2-x,1/2-y,-z
1/2+x,1/2-y,z
loop_
_atom_site_type_symbol
_atom_site_label
_atom_site_fract_x
_atom_site_fract_y
_atom_site_fract_z
Si Si1 0.826091 0.674766 0.240261
Si Si2 0.185826 0.675516 0.993947
Si Si3 0.240510 0.328198 0.592618
Si Si4 0.447258 0.177050 0.731194
Si Si5 0.888586 0.827176 0.413307
Si Si6 0.234078 0.177298 0.180286
Si Si7 0.011562 0.322751 0.161707
O O1 0.838791 0.500000 0.221771
O O2 0.761137 0.706869 0.335955
O O3 0.784623 0.742795 0.206261
O O4 0.920856 0.746040 0.194668
O O5 0.195287 0.500000 0.997204
O O6 0.209328 0.724272 0.912403
O O7 0.250000 0.750000 0.000000
O O8 0.087608 0.727473 0.069107
O O9 0.212185 0.500000 0.598011
O O10 0.171522 0.221862 0.604036
O O11 0.337113 0.298641 0.507420
O O12 0.523779 0.231031 0.639572
O O13 0.358770 0.246490 0.763290
O O14 0.467312 0.237655 0.785266
O O15 0.439622 0.000000 0.733952
O O16 0.912684 0.000000 0.390141
O O17 0.220749 0.000000 0.192179
O O18 0.003528 0.500000 0.170542
#
# Coordination Sequence:
#
# PCOD8085863 Si02
#       7
#     8   8   8   8   8   8   8
#     4   9  17  33  54  77 105 138 174 211 258 315
#     4  10  19  32  51  79 106 133 171 215 260 304
#     4   9  17  32  53  77 107 142 173 209 263 316
#     4  11  20  34  55  76 103 141 179 213 259 320
#     4  10  19  30  51  82 108 131 174 226 260 299
#     4  10  21  34  53  79 107 135 172 222 262 302
#     4   9  17  30  53  77  99 134 174 207 249 308
#
# _framework density 18.118718000000001
#
# number of rings (size 3 to 8) (size 9 to 14) (size 15 to 20)
#    0.000    2.286    2.857    0.857    0.000    1.143 
#    0.000    4.286    0.000    4.286    0.000    2.000 
#    0.000    0.000    0.000    0.000    0.000    0.000 
#
# Total GULP energy -347174.388425 kJ/mol
# GULP energy per Si atom -12399.085301 kJ/mol
# Density = 1.807748 g / cm^3
# Si number density = 18.118718 Si / 1000 Ang^3
#
#
#
# Elastic Constant Matrix: (Units=GPa)
#
#
# Indices 1 2 3 4 5 6 
#
# 1 147.2910 22.8237 81.6574 0.0001 1.3981 0.0003
# 2 22.8237 24.2784 25.7414 0.0003 -0.2290 0.0000
# 3 81.6574 25.7414 151.3457 0.0000 -4.5480 0.0000
# 4 0.0001 0.0003 0.0000 19.7305 0.0000 -3.0669
# 5 1.3981 -0.2290 -4.5480 0.0000 33.2545 0.0000
# 6 0.0003 0.0000 0.0000 -3.0669 0.0000 23.6024
#
#
#
# Elastic Compliance Matrix: (Units=1/GPa)
#
#
# Indices 1 2 3 4 5 6 
#
# 1 0.010119 -0.004513 -0.004725 0.000000 -0.001103 0.000000
# 2 -0.004513 0.052286 -0.006468 -0.000001 -0.000335 0.000000
# 3 -0.004725 -0.006468 0.010304 0.000000 0.001563 0.000000
# 4 0.000000 -0.000001 0.000000 0.051728 0.000000 0.006721
# 5 -0.001103 -0.000335 0.001563 0.000000 0.030329 0.000000
# 6 0.000000 0.000000 0.000000 0.006721 0.000000 0.043242
#
#
# Mechanical properties :
#
#
# Convention : Reuss Voigt Hill
#
# Bulk Modulus (GPa) = 24.21515 64.81778 44.51647
# Shear Modulus (GPa) = 20.56048 28.16366 24.36207
#
# Velocity S-wave (km/s) = 3.37228 3.94686 3.67083
# Velocity P-wave (km/s) = 5.34385 7.52475 6.52605
#
# Compressibility (1/GPa) = 0.04129646
#
# Stress axis : x y z
#
# Youngs Moduli (GPa) = 98.82833 19.12547 97.05172
#
# Poissons Ratio (x) = 0.08631 0.45856
# Poissons Ratio (y) = 0.44602 0.62774
# Poissons Ratio (z) = 0.46696 0.12371
#
# Static dielectric constant tensor:
#      x y z
#    x 3.280900 0.000000 -0.035520 
#    y 0.000000 3.103440 0.000000 
#    z -0.035520 0.000000 3.672270 
# 
# 
# High freq. dielectric constant tensor:
#      x y z
#    x 1.686400 0.000000 -0.009630 
#    y 0.000000 1.672830 0.000000 
#    z -0.009630 0.000000 1.718380 
# 
# From -- ./inp_files/319729.got.cif
#   From: 2010.06.25/outbox.cif.g09.slc.cpg/sg12_160_cif.got.tgz:319729.got - 2010.06.28 00:19:55.
