data_PCOD8085024
_publ_section_title
;
Structure prediction by ZEFSAII (Michael W. Deem and Ramdas Pophale) SiO2 
 PCOD8085024
Probable space group: C 2/M
;
_chemical_formula_sum "Si O2"
_cell_formula_units_Z 64
_cell_length_a 30.867158
_cell_length_b 15.179105
_cell_length_c 9.195057
_cell_angle_alpha 90.000000
_cell_angle_beta 65.191035
_cell_angle_gamma 90.000000
_cell_volume 3910.616555
_symmetry_space_group_name_H-M "C 2/M"
_symmetry_group_IT_number 12
_symmetry_cell_setting 'monoclinic'
loop_
_space_group_symop_operation_xyz
x,y,z
-x,y,-z
-x,-y,-z
x,-y,z
1/2+x,1/2+y,z
1/2-x,1/2+y,-z
1/2-x,1/2-y,-z
1/2+x,1/2-y,z
loop_
_atom_site_type_symbol
_atom_site_label
_atom_site_fract_x
_atom_site_fract_y
_atom_site_fract_z
Si Si1 0.409822 0.398970 0.461334
Si Si2 0.253889 0.820917 0.200960
Si Si3 0.190741 0.596665 0.622916
Si Si4 0.997207 0.104550 0.841184
Si Si5 0.197399 0.840621 0.007567
Si Si6 0.172437 0.225506 0.531746
Si Si7 0.714741 0.593263 0.683054
Si Si8 0.406073 0.399448 0.800574
O O1 0.395178 0.500000 0.438450
O O2 0.455730 0.364811 0.309611
O O3 0.368645 0.327748 0.491249
O O4 0.423082 0.395688 0.610925
O O5 0.286620 0.886904 0.248797
O O6 0.221437 0.871229 0.126653
O O7 0.218881 0.768476 0.361509
O O8 0.288038 0.757529 0.060453
O O9 0.164929 0.500000 0.663342
O O10 0.156968 0.676857 0.612077
O O11 0.231550 0.594700 0.445842
O O12 0.949196 0.141507 0.834382
O O13 0.994448 0.000000 0.842663
O O14 0.000000 0.142290 0.000000
O O15 0.140469 0.840969 0.106283
O O16 0.214593 0.906084 0.857827
O O17 0.184699 0.173935 0.662496
O O18 0.691310 0.500000 0.666535
O O19 0.394508 0.500000 0.862530
#
# Coordination Sequence:
#
# PCOD8085024 Si02
#       8
#     8   8   8   8   8   8   8   8
#     4  10  20  33  51  71  98 138 168 197 245 296
#     4  10  20  33  48  67 100 130 167 213 250 288
#     4  10  20  34  49  64  91 134 170 206 252 291
#     4   9  19  33  48  70 101 130 163 205 240 281
#     4  11  19  31  48  71  99 133 166 208 247 283
#     4  11  18  35  48  69  96 129 170 209 245 292
#     4  10  19  29  46  68  94 127 165 202 239 287
#     4  10  20  32  47  71 102 136 169 196 234 298
#
# _framework density 16.365705999999999
#
# number of rings (size 3 to 8) (size 9 to 14) (size 15 to 20)
#    0.000    1.875    3.750    1.875    1.750    3.000 
#    0.000    0.000    0.000    0.000    0.000    0.000 
#    0.000    6.500    0.000    0.000    0.000    0.250 
#
# Total GULP energy -396546.435292 kJ/mol
# GULP energy per Si atom -12392.076103 kJ/mol
# Density = 1.632846 g / cm^3
# Si number density = 16.365706 Si / 1000 Ang^3
#
#
#
# Elastic Constant Matrix: (Units=GPa)
#
#
# Indices 1 2 3 4 5 6 
#
# 1 77.1386 32.6883 28.5433 0.0000 8.7745 0.0000
# 2 32.6883 89.7127 17.8423 0.0000 4.0095 0.0000
# 3 28.5433 17.8423 88.2874 0.0000 10.0393 0.0000
# 4 0.0000 0.0000 0.0000 15.6871 0.0000 -1.8860
# 5 8.7745 4.0095 10.0393 0.0000 26.7513 0.0000
# 6 0.0000 0.0000 0.0000 -1.8860 0.0000 15.8867
#
#
#
# Elastic Compliance Matrix: (Units=1/GPa)
#
#
# Indices 1 2 3 4 5 6 
#
# 1 0.017079 -0.005264 -0.004085 0.000000 -0.003280 0.000000
# 2 -0.005264 0.013257 -0.000990 0.000000 0.000111 0.000000
# 3 -0.004085 -0.000990 0.013243 0.000000 -0.003482 0.000000
# 4 0.000000 0.000000 0.000000 0.064669 0.000000 0.007677
# 5 -0.003280 0.000111 -0.003482 0.000000 0.039747 0.000000
# 6 0.000000 0.000000 0.000000 0.007677 0.000000 0.063857
#
#
# Mechanical properties :
#
#
# Convention : Reuss Voigt Hill
#
# Bulk Modulus (GPa) = 43.66545 45.92073 44.79309
# Shear Modulus (GPa) = 20.81912 23.40268 22.11090
#
# Velocity S-wave (km/s) = 3.57055 3.78561 3.67965
# Velocity P-wave (km/s) = 6.61343 6.87225 6.74408
#
# Compressibility (1/GPa) = 0.02290140
#
# Stress axis : x y z
#
# Youngs Moduli (GPa) = 58.55167 75.43404 75.51030
#
# Poissons Ratio (x) = 0.39708 0.30845
# Poissons Ratio (y) = 0.30822 0.07475
# Poissons Ratio (z) = 0.23917 0.07467
#
# Static dielectric constant tensor:
#      x y z
#    x 3.009170 0.000000 0.212370 
#    y 0.000000 3.093000 0.000000 
#    z 0.212370 0.000000 3.215230 
# 
# 
# High freq. dielectric constant tensor:
#      x y z
#    x 1.608050 0.000000 0.022530 
#    y 0.000000 1.599590 0.000000 
#    z 0.022530 0.000000 1.639830 
# 
# From -- ./inp_files/111234.got.cif
#   From: 2010.06.25/outbox.cif.g09.slc.cpg/sg12_56_cif.got.tgz:111234.got - 2010.06.28 00:19:55.
