data_PCOD8085087
_publ_section_title
;
Structure prediction by ZEFSAII (Michael W. Deem and Ramdas Pophale) SiO2 
 PCOD8085087
Probable space group: C 2/M
;
_chemical_formula_sum "Si O2"
_cell_formula_units_Z 56
_cell_length_a 19.841221
_cell_length_b 9.067017
_cell_length_c 21.160624
_cell_angle_alpha 90.000000
_cell_angle_beta 125.463594
_cell_angle_gamma 90.000000
_cell_volume 3100.587779
_symmetry_space_group_name_H-M "C 2/M"
_symmetry_group_IT_number 12
_symmetry_cell_setting 'monoclinic'
loop_
_space_group_symop_operation_xyz
x,y,z
-x,y,-z
-x,-y,-z
x,-y,z
1/2+x,1/2+y,z
1/2-x,1/2+y,-z
1/2-x,1/2-y,-z
1/2+x,1/2-y,z
loop_
_atom_site_type_symbol
_atom_site_label
_atom_site_fract_x
_atom_site_fract_y
_atom_site_fract_z
Si Si1 0.590885 0.325084 0.060580
Si Si2 0.359380 0.675318 0.776637
Si Si3 0.334401 0.674159 0.028960
Si Si4 0.675920 0.825626 0.647691
Si Si5 0.049566 0.175015 0.671811
Si Si6 0.922685 0.838122 0.503894
Si Si7 0.476755 0.324717 0.200818
O O1 0.583950 0.500000 0.061376
O O2 0.628784 0.261410 0.146017
O O3 0.500000 0.257906 0.000000
O O4 0.647660 0.277674 0.032996
O O5 0.362698 0.500000 0.780005
O O6 0.270705 0.728721 0.702957
O O7 0.433360 0.735869 0.772260
O O8 0.325307 0.500000 0.030993
O O9 0.407285 0.732436 0.114364
O O10 0.250000 0.750000 0.000000
O O11 0.625164 0.754085 0.677561
O O12 0.643253 0.775809 0.560875
O O13 0.667318 0.000000 0.648860
O O14 0.045274 0.233583 0.741214
O O15 0.960591 0.215680 0.591514
O O16 0.064777 0.000000 0.675688
O O17 0.000000 0.850830 0.500000
O O18 0.880890 0.000000 0.487950
O O19 0.479117 0.500000 0.202353
#
# Coordination Sequence:
#
# PCOD8085087 Si02
#       7
#     8   8   8   8   8   8   8
#     4   9  15  28  49  71  94 125 164 198 229 273
#     4   9  17  29  46  71  99 125 159 199 237 278
#     4  10  20  32  51  75  99 127 159 200 242 281
#     4  10  19  29  48  76 100 122 153 200 246 282
#     4   9  18  32  51  71  94 127 163 197 234 282
#     4   8  15  30  49  68  93 127 162 193 230 282
#     4   9  17  32  50  70  96 128 165 198 232 281
#
# _framework density 18.061093
#
# number of rings (size 3 to 8) (size 9 to 14) (size 15 to 20)
#    0.000    2.857    1.429    1.286    2.000    2.571 
#    0.000    0.714    0.000    3.857    0.000    0.000 
#    0.000    0.000    0.000    0.000    0.000    0.000 
#
# Total GULP energy -347048.683501 kJ/mol
# GULP energy per Si atom -12394.595839 kJ/mol
# Density = 1.801999 g / cm^3
# Si number density = 18.061093 Si / 1000 Ang^3
#
#
#
# Elastic Constant Matrix: (Units=GPa)
#
#
# Indices 1 2 3 4 5 6 
#
# 1 121.8648 29.7582 60.8948 0.0000 15.0689 0.0000
# 2 29.7582 31.1875 26.5350 0.0000 6.3885 0.0000
# 3 60.8948 26.5350 118.5415 0.0000 13.8454 0.0000
# 4 0.0000 0.0000 0.0000 18.9778 0.0000 3.4685
# 5 15.0689 6.3885 13.8454 0.0000 32.5875 0.0000
# 6 0.0000 0.0000 0.0000 3.4685 0.0000 17.2609
#
#
#
# Elastic Compliance Matrix: (Units=1/GPa)
#
#
# Indices 1 2 3 4 5 6 
#
# 1 0.012633 -0.007754 -0.004471 0.000000 -0.002422 0.000000
# 2 -0.007754 0.044922 -0.005748 0.000000 -0.002779 0.000000
# 3 -0.004471 -0.005748 0.012254 0.000000 -0.002012 0.000000
# 4 0.000000 0.000000 0.000000 0.054702 0.000000 -0.010992
# 5 -0.002422 -0.002779 -0.002012 0.000000 0.033206 0.000000
# 6 0.000000 0.000000 0.000000 -0.010992 0.000000 0.060143
#
#
# Mechanical properties :
#
#
# Convention : Reuss Voigt Hill
#
# Bulk Modulus (GPa) = 29.52992 56.21888 42.87440
# Shear Modulus (GPa) = 18.86123 24.05897 21.46010
#
# Velocity S-wave (km/s) = 3.23507 3.65374 3.45076
# Velocity P-wave (km/s) = 5.50815 6.99960 6.29818
#
# Compressibility (1/GPa) = 0.03386396
#
# Stress axis : x y z
#
# Youngs Moduli (GPa) = 79.15914 22.26070 81.60422
#
# Poissons Ratio (x) = 0.17260 0.36485
# Poissons Ratio (y) = 0.61378 0.46906
# Poissons Ratio (z) = 0.35392 0.12795
#
# Static dielectric constant tensor:
#      x y z
#    x 3.327020 0.000000 -0.109160 
#    y 0.000000 2.880950 0.000000 
#    z -0.109160 0.000000 3.889700 
# 
# 
# High freq. dielectric constant tensor:
#      x y z
#    x 1.689410 0.000000 -0.000880 
#    y 0.000000 1.649530 0.000000 
#    z -0.000880 0.000000 1.716110 
# 
# From -- ./inp_files/319665.got.cif
#   From: 2010.06.25/outbox.cif.g09.slc.cpg/sg12_160_cif.got.tgz:319665.got - 2010.06.28 00:19:55.
