data_PCOD8085847
_publ_section_title
;
Structure prediction by ZEFSAII (Michael W. Deem and Ramdas Pophale) SiO2 
 PCOD8085847
Probable space group: C 2/M
;
_chemical_formula_sum "Si O2"
_cell_formula_units_Z 56
_cell_length_a 24.974116
_cell_length_b 9.426297
_cell_length_c 14.796811
_cell_angle_alpha 90.000000
_cell_angle_beta 106.273928
_cell_angle_gamma 90.000000
_cell_volume 3343.799670
_symmetry_space_group_name_H-M "C 2/M"
_symmetry_group_IT_number 12
_symmetry_cell_setting 'monoclinic'
loop_
_space_group_symop_operation_xyz
x,y,z
-x,y,-z
-x,-y,-z
x,-y,z
1/2+x,1/2+y,z
1/2-x,1/2+y,-z
1/2-x,1/2-y,-z
1/2+x,1/2-y,z
loop_
_atom_site_type_symbol
_atom_site_label
_atom_site_fract_x
_atom_site_fract_y
_atom_site_fract_z
Si Si1 0.868013 0.664459 0.582505
Si Si2 0.818912 0.165977 0.399192
Si Si3 0.318003 0.661582 0.102791
Si Si4 0.787075 0.835649 0.890401
Si Si5 0.302283 0.163994 0.728893
Si Si6 0.507197 0.833662 0.400314
Si Si7 0.093315 0.163230 0.712076
O O1 0.861159 0.500000 0.553486
O O2 0.829488 0.751901 0.496637
O O3 0.848277 0.695074 0.674667
O O4 0.932046 0.712529 0.605217
O O5 0.758404 0.210657 0.334804
O O6 0.864550 0.211360 0.346904
O O7 0.821172 0.000000 0.421383
O O8 0.298361 0.500000 0.114782
O O9 0.273530 0.767555 0.124648
O O10 0.377632 0.689977 0.177235
O O11 0.323973 0.685481 0.998265
O O12 0.818727 0.757822 0.823536
O O13 0.779040 0.000000 0.862874
O O14 0.302269 0.000000 0.757619
O O15 0.500000 0.783285 0.500000
O O16 0.462315 0.755860 0.316516
O O17 0.496910 0.000000 0.385776
O O18 0.076520 0.000000 0.691590
#
# Coordination Sequence:
#
# PCOD8085847 Si02
#       7
#     8   8   8   8   8   8   8
#     4  10  21  35  51  70  98 138 172 203 249 295
#     4  10  19  31  49  73 101 132 164 202 245 295
#     4   9  18  34  51  73 105 133 161 201 250 299
#     4  10  19  30  51  78 102 130 164 203 247 296
#     4  10  20  35  51  70 103 139 166 200 249 300
#     4  10  20  34  50  71  99 129 167 213 248 282
#     4  10  19  32  52  74  99 131 163 198 248 299
#
# _framework density 16.747415
#
# number of rings (size 3 to 8) (size 9 to 14) (size 15 to 20)
#    0.000    2.143    2.857    0.857    0.000    3.143 
#    0.000    0.000    0.000    0.857    0.000    6.000 
#    0.000    0.000    0.000    0.000    0.000    0.000 
#
# Total GULP energy -347283.847013 kJ/mol
# GULP energy per Si atom -12402.994536 kJ/mol
# Density = 1.670930 g / cm^3
# Si number density = 16.747415 Si / 1000 Ang^3
#
#
#
# Elastic Constant Matrix: (Units=GPa)
#
#
# Indices 1 2 3 4 5 6 
#
# 1 90.4706 36.2789 50.4865 0.0000 -6.3566 0.0000
# 2 36.2789 64.2641 56.6922 0.0000 -3.0565 0.0000
# 3 50.4865 56.6922 116.3144 0.0000 -3.2816 0.0000
# 4 0.0000 0.0000 0.0000 32.1570 0.0000 -0.0884
# 5 -6.3566 -3.0565 -3.2816 0.0000 23.1704 0.0000
# 6 0.0000 0.0000 0.0000 -0.0884 0.0000 22.9770
#
#
#
# Elastic Compliance Matrix: (Units=1/GPa)
#
#
# Indices 1 2 3 4 5 6 
#
# 1 0.015632 -0.004860 -0.004331 0.000000 0.003034 0.000000
# 2 -0.004860 0.028878 -0.011944 0.000000 0.000785 0.000000
# 3 -0.004331 -0.011944 0.016286 0.000000 -0.000457 0.000000
# 4 0.000000 0.000000 0.000000 0.031098 0.000000 0.000120
# 5 0.003034 0.000785 -0.000457 0.000000 0.044030 0.000000
# 6 0.000000 0.000000 0.000000 0.000120 0.000000 0.043522
#
#
# Mechanical properties :
#
#
# Convention : Reuss Voigt Hill
#
# Bulk Modulus (GPa) = 53.97522 61.99603 57.98562
# Shear Modulus (GPa) = 21.94036 24.16696 23.05366
#
# Velocity S-wave (km/s) = 3.62342 3.80284 3.71421
# Velocity P-wave (km/s) = 7.05723 7.50871 7.28647
#
# Compressibility (1/GPa) = 0.01852702
#
# Stress axis : x y z
#
# Youngs Moduli (GPa) = 63.97086 34.62825 61.40342
#
# Poissons Ratio (x) = 0.16829 0.26593
# Poissons Ratio (y) = 0.31089 0.73339
# Poissons Ratio (z) = 0.27704 0.41359
#
# Static dielectric constant tensor:
#      x y z
#    x 3.016260 0.000000 -0.046480 
#    y 0.000000 3.128080 0.000000 
#    z -0.046480 0.000000 3.207480 
# 
# 
# High freq. dielectric constant tensor:
#      x y z
#    x 1.624530 0.000000 -0.001690 
#    y 0.000000 1.647060 0.000000 
#    z -0.001690 0.000000 1.645850 
# 
# From -- ./inp_files/237790.got.cif
#   From: 2010.06.25/outbox.cif.g09.slc.cpg/sg12_119_cif.got.tgz:237790.got - 2010.06.28 00:19:55.
