data_PCOD8085844
_publ_section_title
;
Structure prediction by ZEFSAII (Michael W. Deem and Ramdas Pophale) SiO2 
 PCOD8085844
Probable space group: C 2/M
;
_chemical_formula_sum "Si O2"
_cell_formula_units_Z 28
_cell_length_a 21.196028
_cell_length_b 10.441971
_cell_length_c 27.049405
_cell_angle_alpha 90.000000
_cell_angle_beta 16.910693
_cell_angle_gamma 90.000000
_cell_volume 1741.444649
_symmetry_space_group_name_H-M "C 2/M"
_symmetry_group_IT_number 12
_symmetry_cell_setting 'monoclinic'
loop_
_space_group_symop_operation_xyz
x,y,z
-x,y,-z
-x,-y,-z
x,-y,z
1/2+x,1/2+y,z
1/2-x,1/2+y,-z
1/2-x,1/2-y,-z
1/2+x,1/2-y,z
loop_
_atom_site_type_symbol
_atom_site_label
_atom_site_fract_x
_atom_site_fract_y
_atom_site_fract_z
Si Si1 0.921918 0.141011 0.858806
Si Si2 0.483632 0.500000 0.413237
Si Si3 0.391955 0.500000 0.788168
Si Si4 0.707038 0.291365 0.375440
Si Si5 0.397794 0.000000 0.163557
O O1 0.944300 0.126498 0.782274
O O2 0.154985 0.172817 0.707650
O O3 0.846920 0.000000 0.935692
O O4 0.750000 0.250000 0.000000
O O5 0.461388 0.500000 0.370690
O O6 0.369777 0.374375 0.520226
O O7 0.736313 0.500000 0.238364
O O8 0.140013 0.500000 0.961486
O O9 0.500000 0.239813 0.500000
O O10 0.859076 0.375368 0.226082
#
# Coordination Sequence:
#
# PCOD8085844 Si02
#       5
#     8   4   4   8   4
#     4  10  20  33  53  75  98 132 172 205 245 297
#     4   9  19  29  51  80 103 127 159 217 251 285
#     4  10  19  30  51  76 101 128 175 199 252 289
#     4   9  17  32  51  74 102 134 164 201 250 296
#     4   9  15  31  53  74 100 130 170 201 243 297
#
# _framework density 16.078605
#
# number of rings (size 3 to 8) (size 9 to 14) (size 15 to 20)
#    0.857    1.714    2.857    2.143    2.000    1.714 
#    0.000    0.000    0.000    0.000    0.000    4.000 
#    0.000    0.000    0.000    0.000    0.000    0.000 
#
# Total GULP energy -173465.275162 kJ/mol
# GULP energy per Si atom -12390.376797 kJ/mol
# Density = 1.604201 g / cm^3
# Si number density = 16.078605 Si / 1000 Ang^3
#
#
#
# Elastic Constant Matrix: (Units=GPa)
#
#
# Indices 1 2 3 4 5 6 
#
# 1 101.3254 46.2821 36.3607 0.0394 7.4010 0.0080
# 2 46.2821 98.7096 37.9303 0.0142 -9.4723 -0.0065
# 3 36.3607 37.9303 65.2890 0.2275 -7.9659 0.0744
# 4 0.0394 0.0142 0.2275 25.6095 -0.0242 -10.6627
# 5 7.4010 -9.4723 -7.9659 -0.0242 30.7295 -0.0039
# 6 0.0080 -0.0065 0.0744 -10.6627 -0.0039 26.9222
#
#
#
# Elastic Compliance Matrix: (Units=1/GPa)
#
#
# Indices 1 2 3 4 5 6 
#
# 1 0.014993 -0.005351 -0.006075 0.000038 -0.006835 0.000025
# 2 -0.005351 0.015088 -0.005226 0.000071 0.004585 0.000048
# 3 -0.006075 -0.005226 0.022428 -0.000248 0.005666 -0.000159
# 4 0.000038 0.000071 -0.000248 0.046761 -0.000012 0.018521
# 5 -0.006835 0.004585 0.005666 -0.000012 0.037070 -0.000012
# 6 0.000025 0.000048 -0.000159 0.018521 -0.000012 0.044480
#
#
# Mechanical properties :
#
#
# Convention : Reuss Voigt Hill
#
# Bulk Modulus (GPa) = 52.07192 56.27445 54.17319
# Shear Modulus (GPa) = 22.67296 26.30229 24.48763
#
# Velocity S-wave (km/s) = 3.75925 4.04896 3.90679
# Velocity P-wave (km/s) = 7.16231 7.54548 7.35639
#
# Compressibility (1/GPa) = 0.01920421
#
# Stress axis : x y z
#
# Youngs Moduli (GPa) = 66.69908 66.27815 44.58632
#
# Poissons Ratio (x) = 0.35467 0.27086
# Poissons Ratio (y) = 0.35692 0.23302
# Poissons Ratio (z) = 0.40520 0.34638
#
# Static dielectric constant tensor:
#      x y z
#    x 3.001770 0.000020 -0.214960 
#    y 0.000020 2.823970 0.000200 
#    z -0.214960 0.000200 2.918180 
# 
# 
# High freq. dielectric constant tensor:
#      x y z
#    x 1.615150 0.000000 -0.018640 
#    y 0.000000 1.595000 0.000020 
#    z -0.018640 0.000020 1.612690 
# 
# From -- ./inp_files/69968.got.cif
#   From: 2010.06.25/outbox.cif.g09.slc.cpg/sg12_35_cif.got.tgz:69968.got - 2010.06.28 00:19:55.
