data_PCOD8085440
_publ_section_title
;
Structure prediction by ZEFSAII (Michael W. Deem and Ramdas Pophale) SiO2 
 PCOD8085440
Probable space group: C 2/M
;
_chemical_formula_sum "Si O2"
_cell_formula_units_Z 40
_cell_length_a 11.675044
_cell_length_b 25.447839
_cell_length_c 14.797119
_cell_angle_alpha 90.000000
_cell_angle_beta 28.188482
_cell_angle_gamma 90.000000
_cell_volume 2076.692570
_symmetry_space_group_name_H-M "C 2/M"
_symmetry_group_IT_number 12
_symmetry_cell_setting 'monoclinic'
loop_
_space_group_symop_operation_xyz
x,y,z
-x,y,-z
-x,-y,-z
x,-y,z
1/2+x,1/2+y,z
1/2-x,1/2+y,-z
1/2-x,1/2-y,-z
1/2+x,1/2-y,z
loop_
_atom_site_type_symbol
_atom_site_label
_atom_site_fract_x
_atom_site_fract_y
_atom_site_fract_z
Si Si1 0.512388 0.861957 0.762381
Si Si2 0.835820 0.439635 0.026024
Si Si3 0.083445 0.206627 0.070194
Si Si4 0.778856 0.213591 0.713551
Si Si5 0.955667 0.145478 0.325901
O O1 0.618019 0.825800 0.767394
O O2 0.699638 0.867686 0.550262
O O3 0.462706 0.917416 0.846531
O O4 0.262561 0.835802 0.897544
O O5 0.775103 0.500000 0.049301
O O6 0.585087 0.409924 0.219693
O O7 0.000000 0.432774 0.000000
O O8 0.886536 0.236070 0.142540
O O9 0.917904 0.176049 0.258898
O O10 0.250000 0.250000 0.000000
O O11 0.000000 0.234636 0.500000
O O12 0.870840 0.183907 0.737538
#
# Coordination Sequence:
#
# PCOD8085440 Si02
#       5
#     8   8   8   8   8
#     4   9  18  31  45  65  92 125 162 196 233 280
#     4  10  19  30  47  69  93 126 165 200 236 282
#     4   9  19  30  45  67  91 128 168 199 231 277
#     4   9  17  29  46  66  92 129 166 193 231 277
#     4  10  19  33  48  66 100 131 162 199 235 279
#
# _framework density 19.261398
#
# number of rings (size 3 to 8) (size 9 to 14) (size 15 to 20)
#    0.000    2.600    2.000    0.000    0.000    8.000 
#    0.000    6.000    0.000    0.000    0.000    0.000 
#    0.000   12.800    0.000  174.400    0.000    5.600 
#
# Total GULP energy -247828.270251 kJ/mol
# GULP energy per Si atom -12391.413513 kJ/mol
# Density = 1.921756 g / cm^3
# Si number density = 19.261398 Si / 1000 Ang^3
#
#
#
# Elastic Constant Matrix: (Units=GPa)
#
#
# Indices 1 2 3 4 5 6 
#
# 1 18.1503 28.2481 29.8808 -0.0022 -3.9542 -0.0079
# 2 28.2481 130.6378 77.2087 0.0039 -3.2910 -0.0066
# 3 29.8808 77.2087 166.2822 -0.0024 15.6850 -0.0304
# 4 -0.0022 0.0039 -0.0024 23.9443 -0.0005 -2.4662
# 5 -3.9542 -3.2910 15.6850 -0.0005 22.5288 0.0112
# 6 -0.0079 -0.0066 -0.0304 -2.4662 0.0112 27.2235
#
#
#
# Elastic Compliance Matrix: (Units=1/GPa)
#
#
# Indices 1 2 3 4 5 6 
#
# 1 0.108036 -0.013247 -0.015914 0.000011 0.028107 0.000000
# 2 -0.013247 0.012801 -0.003768 -0.000004 0.002168 -0.000006
# 3 -0.015914 -0.003768 0.011707 0.000001 -0.011494 0.000012
# 4 0.000011 -0.000004 0.000001 0.042157 -0.000001 0.003819
# 5 0.028107 0.002168 -0.011494 -0.000001 0.057640 -0.000028
# 6 0.000000 -0.000006 0.000012 0.003819 -0.000028 0.037079
#
#
# Mechanical properties :
#
#
# Convention : Reuss Voigt Hill
#
# Bulk Modulus (GPa) = 14.99577 65.08282 40.03929
# Shear Modulus (GPa) = 13.98579 26.72152 20.35365
#
# Velocity S-wave (km/s) = 2.69756 3.72870 3.25423
# Velocity P-wave (km/s) = 4.18386 7.23880 5.91206
#
# Compressibility (1/GPa) = 0.06668549
#
# Stress axis : x y z
#
# Youngs Moduli (GPa) = 9.25621 78.12191 85.41720
#
# Poissons Ratio (x) = 1.03490 1.35935
# Poissons Ratio (y) = 0.12262 0.32181
# Poissons Ratio (z) = 0.14731 0.29433
#
# Static dielectric constant tensor:
#      x y z
#    x 3.265910 -0.000130 -0.149710 
#    y -0.000130 3.521280 0.000090 
#    z -0.149710 0.000090 3.916640 
# 
# 
# High freq. dielectric constant tensor:
#      x y z
#    x 1.712600 0.000000 0.005440 
#    y 0.000000 1.729750 0.000000 
#    z 0.005440 0.000000 1.770340 
# 
# From -- ./inp_files/135127.got.cif
#   From: 2010.06.25/outbox.cif.g09.slc.cpg/sg12_68_cif.got.tgz:135127.got - 2010.06.28 00:19:55.
