data_PCOD8085455
_publ_section_title
;
Structure prediction by ZEFSAII (Michael W. Deem and Ramdas Pophale) SiO2 
 PCOD8085455
Probable space group: C 2/M
;
_chemical_formula_sum "Si O2"
_cell_formula_units_Z 56
_cell_length_a 19.100743
_cell_length_b 9.235156
_cell_length_c 18.018806
_cell_angle_alpha 90.000000
_cell_angle_beta 91.623326
_cell_angle_gamma 90.000000
_cell_volume 3177.211852
_symmetry_space_group_name_H-M "C 2/M"
_symmetry_group_IT_number 12
_symmetry_cell_setting 'monoclinic'
loop_
_space_group_symop_operation_xyz
x,y,z
-x,y,-z
-x,-y,-z
x,-y,z
1/2+x,1/2+y,z
1/2-x,1/2+y,-z
1/2-x,1/2-y,-z
1/2+x,1/2-y,z
loop_
_atom_site_type_symbol
_atom_site_label
_atom_site_fract_x
_atom_site_fract_y
_atom_site_fract_z
Si Si1 0.344066 0.168836 0.293352
Si Si2 0.940285 0.329371 0.160141
Si Si3 0.416832 0.668743 0.858279
Si Si4 0.083245 0.659492 0.000504
Si Si5 0.683259 0.333424 0.279237
Si Si6 0.162371 0.163661 0.562362
Si Si7 0.671095 0.836553 0.421478
O O1 0.392199 0.219168 0.226847
O O2 0.264387 0.205807 0.269395
O O3 0.368668 0.257414 0.366233
O O4 0.353144 0.000000 0.311543
O O5 0.956997 0.500000 0.161655
O O6 0.897938 0.290017 0.082863
O O7 0.013142 0.245360 0.168073
O O8 0.432354 0.500000 0.867926
O O9 0.355838 0.701281 0.798099
O O10 0.389387 0.729297 0.936636
O O11 0.114788 0.500000 0.018173
O O12 0.000000 0.652304 0.000000
O O13 0.674604 0.500000 0.302734
O O14 0.649297 0.238030 0.343619
O O15 0.245781 0.165570 0.568030
O O16 0.136477 0.248727 0.488459
O O17 0.133650 0.000000 0.558408
O O18 0.642024 0.000000 0.421582
#
# Coordination Sequence:
#
# PCOD8085455 Si02
#       7
#     8   8   8   8   8   8   8
#     4   9  17  31  49  67  91 122 155 188 223 269
#     4   9  18  32  50  69  89 119 156 191 226 266
#     4  10  19  30  47  70  94 120 150 187 231 274
#     4   8  15  29  47  66  88 117 155 191 222 263
#     4   9  18  31  46  67  95 123 150 185 230 273
#     4   9  16  26  42  66  94 120 149 187 228 267
#     4   9  16  26  43  66  90 120 156 188 220 263
#
# _framework density 17.625515
#
# number of rings (size 3 to 8) (size 9 to 14) (size 15 to 20)
#    0.000    3.000    0.000    2.143    0.000    7.714 
#    0.000    0.714    0.000    0.857    0.000    6.000 
#    0.000    0.000    0.000    0.000    0.000    0.000 
#
# Total GULP energy -347127.771711 kJ/mol
# GULP energy per Si atom -12397.420418 kJ/mol
# Density = 1.758540 g / cm^3
# Si number density = 17.625515 Si / 1000 Ang^3
#
#
#
# Elastic Constant Matrix: (Units=GPa)
#
#
# Indices 1 2 3 4 5 6 
#
# 1 23.1967 14.0886 10.6628 0.0000 -10.3890 0.0000
# 2 14.0886 82.3960 38.9451 0.0000 -10.5905 0.0000
# 3 10.6628 38.9451 88.1248 0.0000 -29.7288 0.0000
# 4 0.0000 0.0000 0.0000 37.0623 0.0000 1.8800
# 5 -10.3890 -10.5905 -29.7288 0.0000 22.7955 0.0000
# 6 0.0000 0.0000 0.0000 1.8800 0.0000 14.7992
#
#
#
# Elastic Compliance Matrix: (Units=1/GPa)
#
#
# Indices 1 2 3 4 5 6 
#
# 1 0.060560 -0.010049 0.008659 0.000000 0.034224 0.000000
# 2 -0.010049 0.017129 -0.009311 0.000000 -0.008764 0.000000
# 3 0.008659 -0.009311 0.025509 0.000000 0.032889 0.000000
# 4 0.000000 0.000000 0.000000 0.027157 0.000000 -0.003450
# 5 0.034224 -0.008764 0.032889 0.000000 0.098286 0.000000
# 6 0.000000 0.000000 0.000000 -0.003450 0.000000 0.068009
#
#
# Mechanical properties :
#
#
# Convention : Reuss Voigt Hill
#
# Bulk Modulus (GPa) = 12.22532 35.67897 23.95214
# Shear Modulus (GPa) = 14.47942 23.59946 19.03944
#
# Velocity S-wave (km/s) = 2.86930 3.66312 3.29024
# Velocity P-wave (km/s) = 4.23419 6.17883 5.29653
#
# Compressibility (1/GPa) = 0.08179745
#
# Stress axis : x y z
#
# Youngs Moduli (GPa) = 16.51247 58.38074 39.20112
#
# Poissons Ratio (x) = 0.58665 -0.33943
# Poissons Ratio (y) = 0.16593 0.36498
# Poissons Ratio (z) = -0.14298 0.54355
#
# Static dielectric constant tensor:
#      x y z
#    x 2.785520 0.000000 -0.102380 
#    y 0.000000 3.370570 0.000000 
#    z -0.102380 0.000000 3.654090 
# 
# 
# High freq. dielectric constant tensor:
#      x y z
#    x 1.623250 0.000000 -0.003580 
#    y 0.000000 1.686430 0.000000 
#    z -0.003580 0.000000 1.698720 
# 
# From -- ./inp_files/280296.got.cif
#   From: 2010.06.25/outbox.cif.g09.slc.cpg/sg12_141_cif.got.tgz:280296.got - 2010.06.28 00:19:55.
