data_PCOD8085004
_publ_section_title
;
Structure prediction by ZEFSAII (Michael W. Deem and Ramdas Pophale) SiO2 
 PCOD8085004
Probable space group: C 2/M
;
_chemical_formula_sum "Si O2"
_cell_formula_units_Z 56
_cell_length_a 22.425355
_cell_length_b 8.941337
_cell_length_c 25.558930
_cell_angle_alpha 90.000000
_cell_angle_beta 39.724515
_cell_angle_gamma 90.000000
_cell_volume 3275.300948
_symmetry_space_group_name_H-M "C 2/M"
_symmetry_group_IT_number 12
_symmetry_cell_setting 'monoclinic'
loop_
_space_group_symop_operation_xyz
x,y,z
-x,y,-z
-x,-y,-z
x,-y,z
1/2+x,1/2+y,z
1/2-x,1/2+y,-z
1/2-x,1/2-y,-z
1/2+x,1/2-y,z
loop_
_atom_site_type_symbol
_atom_site_label
_atom_site_fract_x
_atom_site_fract_y
_atom_site_fract_z
Si Si1 0.383204 0.827470 0.241540
Si Si2 0.488050 0.172823 0.935255
Si Si3 0.180161 0.824951 0.617007
Si Si4 0.867268 0.172765 0.086906
Si Si5 0.261445 0.173750 0.736633
Si Si6 0.367328 0.324623 0.467856
Si Si7 0.526040 0.825116 0.423831
O O1 0.483543 0.805254 0.144662
O O2 0.388437 0.736985 0.292034
O O3 0.298645 0.772152 0.262469
O O4 0.365292 0.000000 0.266404
O O5 0.556477 0.276937 0.922269
O O6 0.499469 0.000000 0.943535
O O7 0.383633 0.231376 0.021876
O O8 0.281909 0.752432 0.555843
O O9 0.136095 0.781721 0.591035
O O10 0.192457 0.000000 0.615625
O O11 0.768132 0.202588 0.182541
O O12 0.879393 0.000000 0.064452
O O13 0.368134 0.221609 0.658860
O O14 0.246225 0.000000 0.732086
O O15 0.358867 0.500000 0.482361
O O16 0.464137 0.265880 0.424834
O O17 0.500000 0.777226 0.500000
O O18 0.508642 0.000000 0.426531
#
# Coordination Sequence:
#
# PCOD8085004 Si02
#       7
#     8   8   8   8   8   8   8
#     4  10  19  29  45  70  96 122 153 190 231 272
#     4   9  16  25  38  60  90 119 148 185 228 270
#     4  10  20  34  51  69  92 121 151 187 230 273
#     4   9  15  24  39  59  86 121 156 186 220 267
#     4   9  18  30  44  66  96 127 158 190 227 273
#     4  10  21  35  51  71  92 118 154 191 227 267
#     4  10  20  33  49  69  94 125 156 186 225 270
#
# _framework density 17.097664999999999
#
# number of rings (size 3 to 8) (size 9 to 14) (size 15 to 20)
#    0.000    2.429    0.000    3.857    0.000    6.000 
#    0.000    0.000    0.000    0.000    0.000    1.000 
#    0.000    0.000    0.000    0.000    0.000    0.000 
#
# Total GULP energy -347054.767749 kJ/mol
# GULP energy per Si atom -12394.813134 kJ/mol
# Density = 1.705875 g / cm^3
# Si number density = 17.097665 Si / 1000 Ang^3
#
#
#
# Elastic Constant Matrix: (Units=GPa)
#
#
# Indices 1 2 3 4 5 6 
#
# 1 51.2222 27.1439 38.0271 -0.0001 3.2090 0.0026
# 2 27.1439 66.5338 46.6961 -0.0006 6.7482 0.0048
# 3 38.0271 46.6961 153.4436 0.0000 7.5958 0.0000
# 4 -0.0001 -0.0006 0.0000 30.2755 -0.0001 3.0558
# 5 3.2090 6.7482 7.5958 -0.0001 19.0752 -0.0009
# 6 0.0026 0.0048 0.0000 3.0558 -0.0009 23.1212
#
#
#
# Elastic Compliance Matrix: (Units=1/GPa)
#
#
# Indices 1 2 3 4 5 6 
#
# 1 0.026908 -0.008007 -0.004231 0.000000 -0.000009 -0.000001
# 2 -0.008007 0.021887 -0.004447 0.000001 -0.004625 -0.000004
# 3 -0.004231 -0.004447 0.008983 0.000000 -0.001292 0.000001
# 4 0.000000 0.000001 0.000000 0.033477 0.000000 -0.004424
# 5 -0.000009 -0.004625 -0.001292 0.000000 0.054576 0.000003
# 6 -0.000001 -0.000004 0.000001 -0.004424 0.000003 0.043835
#
#
# Mechanical properties :
#
#
# Convention : Reuss Voigt Hill
#
# Bulk Modulus (GPa) = 40.97269 54.99265 47.98267
# Shear Modulus (GPa) = 21.62887 25.11654 23.37270
#
# Velocity S-wave (km/s) = 3.56057 3.83692 3.70132
# Velocity P-wave (km/s) = 6.39683 7.20159 6.81111
#
# Compressibility (1/GPa) = 0.02440650
#
# Stress axis : x y z
#
# Youngs Moduli (GPa) = 37.16409 45.68917 111.32075
#
# Poissons Ratio (x) = 0.36583 0.47103
# Poissons Ratio (y) = 0.29757 0.49509
# Poissons Ratio (z) = 0.15725 0.20320
#
# Static dielectric constant tensor:
#      x y z
#    x 2.720260 0.000000 0.081760 
#    y 0.000000 3.255210 0.000000 
#    z 0.081760 0.000000 4.005110 
# 
# 
# High freq. dielectric constant tensor:
#      x y z
#    x 1.596700 0.000000 0.011310 
#    y 0.000000 1.672970 0.000000 
#    z 0.011310 0.000000 1.683490 
# 
# From -- ./inp_files/345495.got.cif
#   From: 2010.06.25/outbox.cif.g09.slc.cpg/sg12_173_cif.got.tgz:345495.got - 2010.06.28 00:19:55.
