data_PCOD8085563
_publ_section_title
;
Structure prediction by ZEFSAII (Michael W. Deem and Ramdas Pophale) SiO2 
 PCOD8085563
Probable space group: C 2/M
;
_chemical_formula_sum "Si O2"
_cell_formula_units_Z 56
_cell_length_a 25.473514
_cell_length_b 8.715954
_cell_length_c 22.285693
_cell_angle_alpha 90.000000
_cell_angle_beta 40.556405
_cell_angle_gamma 90.000000
_cell_volume 3217.173163
_symmetry_space_group_name_H-M "C 2/M"
_symmetry_group_IT_number 12
_symmetry_cell_setting 'monoclinic'
loop_
_space_group_symop_operation_xyz
x,y,z
-x,y,-z
-x,-y,-z
x,-y,z
1/2+x,1/2+y,z
1/2-x,1/2+y,-z
1/2-x,1/2-y,-z
1/2+x,1/2-y,z
loop_
_atom_site_type_symbol
_atom_site_label
_atom_site_fract_x
_atom_site_fract_y
_atom_site_fract_z
Si Si1 0.291950 0.818371 0.405186
Si Si2 0.879553 0.677627 0.895965
Si Si3 0.343022 0.319135 0.710908
Si Si4 0.987707 0.182542 0.388589
Si Si5 0.538572 0.680372 0.723799
Si Si6 0.733252 0.678203 0.102389
Si Si7 0.671837 0.317471 0.408307
O O1 0.250000 0.750000 0.500000
O O2 0.383151 0.763227 0.317843
O O3 0.243982 0.759112 0.388083
O O4 0.288151 0.000000 0.413968
O O5 0.902521 0.500000 0.872361
O O6 0.830545 0.722318 0.879091
O O7 0.961427 0.774894 0.831228
O O8 0.824459 0.713674 0.002244
O O9 0.352990 0.500000 0.695770
O O10 0.429568 0.250061 0.655757
O O11 0.275673 0.278667 0.819604
O O12 0.316188 0.251539 0.669641
O O13 0.977170 0.241146 0.329793
O O14 0.913380 0.244755 0.492521
O O15 0.990099 0.000000 0.386154
O O16 0.553349 0.500000 0.713097
O O17 0.711191 0.500000 0.110258
O O18 0.670500 0.500000 0.409305
#
# Coordination Sequence:
#
# PCOD8085563 Si02
#       7
#     8   8   8   8   8   8   8
#     4  11  21  34  51  74 101 132 169 207 246 289
#     4  10  19  30  47  74 104 131 162 203 251 297
#     4   9  15  26  47  73 101 130 161 202 245 288
#     4   9  15  25  44  72 100 124 155 195 239 287
#     4  11  20  33  52  73  99 132 170 207 248 293
#     4   9  17  30  49  74 102 131 164 201 245 299
#     4   9  17  28  45  72 101 129 165 204 242 286
#
# _framework density 17.406586000000001
#
# number of rings (size 3 to 8) (size 9 to 14) (size 15 to 20)
#    0.000    2.286    2.857    1.714    0.000    2.286 
#    0.000    0.000    0.000    2.571    0.000    8.000 
#    0.000    0.000    0.000    0.000    0.000    0.000 
#
# Total GULP energy -347139.844689 kJ/mol
# GULP energy per Si atom -12397.851596 kJ/mol
# Density = 1.736697 g / cm^3
# Si number density = 17.406586 Si / 1000 Ang^3
#
#
#
# Elastic Constant Matrix: (Units=GPa)
#
#
# Indices 1 2 3 4 5 6 
#
# 1 138.2515 21.6711 76.9341 -0.0035 5.8170 0.0013
# 2 21.6711 31.1813 20.1760 -0.0169 0.5316 0.0070
# 3 76.9341 20.1760 141.1801 -0.0093 4.8805 0.0047
# 4 -0.0035 -0.0169 -0.0093 23.5013 0.0068 -4.1831
# 5 5.8170 0.5316 4.8805 0.0068 26.0547 -0.0012
# 6 0.0013 0.0070 0.0047 -4.1831 -0.0012 18.2534
#
#
#
# Elastic Compliance Matrix: (Units=1/GPa)
#
#
# Indices 1 2 3 4 5 6 
#
# 1 0.010882 -0.004113 -0.005295 -0.000003 -0.001354 0.000001
# 2 -0.004113 0.036895 -0.003057 0.000023 0.000738 -0.000008
# 3 -0.005295 -0.003057 0.010430 0.000001 -0.000709 -0.000001
# 4 -0.000003 0.000023 0.000001 0.044360 -0.000011 0.010166
# 5 -0.001354 0.000738 -0.000709 -0.000011 0.038801 0.000000
# 6 0.000001 -0.000008 -0.000001 0.010166 0.000000 0.057114
#
#
# Mechanical properties :
#
#
# Convention : Reuss Voigt Hill
#
# Bulk Modulus (GPa) = 30.05176 60.90835 45.48005
# Shear Modulus (GPa) = 21.32164 26.35065 23.83614
#
# Velocity S-wave (km/s) = 3.50368 3.89502 3.70452
# Velocity P-wave (km/s) = 5.80257 7.43611 6.66954
#
# Compressibility (1/GPa) = 0.03327592
#
# Stress axis : x y z
#
# Youngs Moduli (GPa) = 91.89863 27.10429 95.87753
#
# Poissons Ratio (x) = 0.11149 0.50768
# Poissons Ratio (y) = 0.37802 0.29305
# Poissons Ratio (z) = 0.48661 0.08285
#
# Static dielectric constant tensor:
#      x y z
#    x 3.351350 0.000000 0.045600 
#    y 0.000000 2.934200 0.000000 
#    z 0.045600 0.000000 3.460090 
# 
# 
# High freq. dielectric constant tensor:
#      x y z
#    x 1.653950 0.000000 -0.000810 
#    y 0.000000 1.639130 0.000000 
#    z -0.000810 0.000000 1.680010 
# 
# From -- ./inp_files/348465.got.cif
#   From: 2010.06.25/outbox.cif.g09.slc.cpg/sg12_175_cif.got.tgz:348465.got - 2010.06.28 00:19:55.
