data_PCOD8085540
_publ_section_title
;
Structure prediction by ZEFSAII (Michael W. Deem and Ramdas Pophale) SiO2 
 PCOD8085540
Probable space group: C 2/M
;
_chemical_formula_sum "Si O2"
_cell_formula_units_Z 64
_cell_length_a 29.950699
_cell_length_b 8.822738
_cell_length_c 23.042681
_cell_angle_alpha 90.000000
_cell_angle_beta 39.556961
_cell_angle_gamma 90.000000
_cell_volume 3877.725932
_symmetry_space_group_name_H-M "C 2/M"
_symmetry_group_IT_number 12
_symmetry_cell_setting 'monoclinic'
loop_
_space_group_symop_operation_xyz
x,y,z
-x,y,-z
-x,-y,-z
x,-y,z
1/2+x,1/2+y,z
1/2-x,1/2+y,-z
1/2-x,1/2-y,-z
1/2+x,1/2-y,z
loop_
_atom_site_type_symbol
_atom_site_label
_atom_site_fract_x
_atom_site_fract_y
_atom_site_fract_z
Si Si1 0.499189 0.820477 0.388594
Si Si2 0.149030 0.677895 0.409175
Si Si3 0.851054 0.674915 0.385183
Si Si4 0.004257 0.322099 0.252978
Si Si5 0.725277 0.674606 0.433691
Si Si6 0.226629 0.326795 0.113419
Si Si7 0.636351 0.678346 0.300949
Si Si8 0.150572 0.325652 0.068165
O O1 0.425657 0.771273 0.490080
O O2 0.502052 0.754293 0.320334
O O3 0.560993 0.751366 0.364683
O O4 0.508011 0.000000 0.380580
O O5 0.152093 0.500000 0.394291
O O6 0.209991 0.723198 0.393165
O O7 0.164004 0.766114 0.335153
O O8 0.844543 0.500000 0.412602
O O9 0.932280 0.716291 0.291172
O O10 0.806115 0.702328 0.371952
O O11 0.824743 0.780850 0.463080
O O12 0.015627 0.500000 0.248507
O O13 0.070812 0.260596 0.149763
O O14 0.711669 0.500000 0.431848
O O15 0.227910 0.500000 0.132940
O O16 0.193817 0.225003 0.196258
O O17 0.180145 0.305706 0.103028
O O18 0.305903 0.272900 0.021396
O O19 0.627890 0.500000 0.309174
O O20 0.154419 0.500000 0.044370
#
# Coordination Sequence:
#
# PCOD8085540 Si02
#       8
#     8   8   8   8   8   8   8   8
#     4  10  19  34  51  69  96 135 175 201 232 289
#     4  11  22  36  53  68  94 136 176 204 242 295
#     4   9  17  31  50  71  98 134 167 199 246 298
#     4   9  15  29  51  73  97 131 169 198 234 292
#     4  10  19  30  47  73 101 127 165 212 249 283
#     4  10  19  33  50  70  97 129 165 199 242 295
#     4  12  24  35  49  71 100 129 167 211 249 284
#     4   9  17  30  50  72  96 125 162 205 243 282
#
# _framework density 16.504518000000001
#
# number of rings (size 3 to 8) (size 9 to 14) (size 15 to 20)
#    0.000    2.000    2.500    2.625    0.000    3.500 
#    0.000    0.625    0.000    0.000    0.000    0.875 
#    0.000    7.000    0.000    0.000    0.000    0.000 
#
# Total GULP energy -396813.233942 kJ/mol
# GULP energy per Si atom -12400.413561 kJ/mol
# Density = 1.646695 g / cm^3
# Si number density = 16.504518 Si / 1000 Ang^3
#
#
#
# Elastic Constant Matrix: (Units=GPa)
#
#
# Indices 1 2 3 4 5 6 
#
# 1 88.8852 19.0066 37.8825 0.0067 -10.2913 -0.0051
# 2 19.0066 36.0201 25.3317 -0.0074 -1.1946 -0.0158
# 3 37.8825 25.3317 70.4784 -0.0025 -12.3699 -0.0017
# 4 0.0067 -0.0074 -0.0025 23.1146 -0.0030 1.8799
# 5 -10.2913 -1.1946 -12.3699 -0.0030 25.8554 0.0046
# 6 -0.0051 -0.0158 -0.0017 1.8799 0.0046 23.9368
#
#
#
# Elastic Compliance Matrix: (Units=1/GPa)
#
#
# Indices 1 2 3 4 5 6 
#
# 1 0.015003 -0.003339 -0.006379 -0.000006 0.002766 0.000000
# 2 -0.003339 0.038523 -0.013070 0.000009 -0.005802 0.000024
# 3 -0.006379 -0.013070 0.023758 0.000002 0.008224 -0.000010
# 4 -0.000006 0.000009 0.000002 0.043541 0.000005 -0.003420
# 5 0.002766 -0.005802 0.008224 0.000005 0.043444 -0.000011
# 6 0.000000 0.000024 -0.000010 -0.003420 -0.000011 0.042045
#
#
# Mechanical properties :
#
#
# Convention : Reuss Voigt Hill
#
# Bulk Modulus (GPa) = 31.53611 39.98058 35.75835
# Shear Modulus (GPa) = 19.05052 22.12556 20.58804
#
# Velocity S-wave (km/s) = 3.40113 3.66536 3.53571
# Velocity P-wave (km/s) = 5.87985 6.49536 6.19525
#
# Compressibility (1/GPa) = 0.03170968
#
# Stress axis : x y z
#
# Youngs Moduli (GPa) = 66.65195 25.95832 42.09044
#
# Poissons Ratio (x) = 0.08668 0.26849
# Poissons Ratio (y) = 0.22255 0.55011
# Poissons Ratio (z) = 0.42516 0.33927
#
# Static dielectric constant tensor:
#      x y z
#    x 3.136130 -0.000020 -0.170770 
#    y -0.000020 3.062050 0.000030 
#    z -0.170770 0.000030 3.114310 
# 
# 
# High freq. dielectric constant tensor:
#      x y z
#    x 1.621800 0.000000 -0.013060 
#    y 0.000000 1.631330 0.000000 
#    z -0.013060 0.000000 1.620270 
# 
# From -- ./inp_files/326817.got.cif
#   From: 2010.06.25/outbox.cif.g09.slc.cpg/sg12_164_cif.got.tgz:326817.got - 2010.06.28 00:19:55.
