data_PCOD8085512
_publ_section_title
;
Structure prediction by ZEFSAII (Michael W. Deem and Ramdas Pophale) SiO2 
 PCOD8085512
Probable space group: C 2/M
;
_chemical_formula_sum "Si O2"
_cell_formula_units_Z 64
_cell_length_a 24.953884
_cell_length_b 9.002710
_cell_length_c 23.763582
_cell_angle_alpha 90.000000
_cell_angle_beta 45.526131
_cell_angle_gamma 90.000000
_cell_volume 3809.429359
_symmetry_space_group_name_H-M "C 2/M"
_symmetry_group_IT_number 12
_symmetry_cell_setting 'monoclinic'
loop_
_space_group_symop_operation_xyz
x,y,z
-x,y,-z
-x,-y,-z
x,-y,z
1/2+x,1/2+y,z
1/2-x,1/2+y,-z
1/2-x,1/2-y,-z
1/2+x,1/2-y,z
loop_
_atom_site_type_symbol
_atom_site_label
_atom_site_fract_x
_atom_site_fract_y
_atom_site_fract_z
Si Si1 0.905170 0.828631 0.426916
Si Si2 0.535375 0.673628 0.414076
Si Si3 0.810615 0.323992 0.687106
Si Si4 0.667792 0.174706 0.840775
Si Si5 0.064638 0.832403 0.998518
Si Si6 0.776748 0.325043 0.586057
Si Si7 0.107649 0.827549 0.691934
Si Si8 0.540942 0.825983 0.844219
O O1 0.831062 0.741966 0.499427
O O2 0.921672 0.799670 0.349399
O O3 0.977368 0.775392 0.408731
O O4 0.888684 0.000000 0.451531
O O5 0.500000 0.714462 0.500000
O O6 0.555486 0.500000 0.395462
O O7 0.609456 0.769570 0.349205
O O8 0.803719 0.500000 0.697398
O O9 0.747584 0.249737 0.771883
O O10 0.800753 0.269623 0.630161
O O11 0.613205 0.213959 0.828958
O O12 0.677747 0.000000 0.840930
O O13 0.635332 0.241345 0.922614
O O14 0.033671 0.752927 0.077191
O O15 0.089547 0.000000 0.994840
O O16 0.000000 0.831577 0.000000
O O17 0.782404 0.500000 0.576886
O O18 0.692835 0.269711 0.634907
O O19 0.054458 0.733064 0.771628
O O20 0.102676 0.000000 0.712931
O O21 0.525489 0.000000 0.854680
#
# Coordination Sequence:
#
# PCOD8085512 Si02
#       8
#     8   8   8   8   8   8   8   8
#     4  10  21  35  52  70  93 130 173 211 251 297
#     4  10  20  35  52  70  94 127 168 213 256 296
#     4  11  21  32  50  74  98 130 167 204 251 300
#     4  10  19  31  48  72 102 132 165 204 243 292
#     4   9  17  29  47  70 100 135 165 198 241 291
#     4  10  20  32  48  70  99 129 163 207 252 297
#     4  10  20  34  49  70 100 133 168 206 247 297
#     4  10  19  30  47  72 101 134 167 199 242 294
#
# _framework density 16.800416999999999
#
# number of rings (size 3 to 8) (size 9 to 14) (size 15 to 20)
#    0.000    2.000    2.500    1.875    0.000    4.750 
#    0.000    0.000    0.000    0.000    0.000    0.875 
#    0.000    0.000    0.000    0.000    0.000    0.000 
#
# Total GULP energy -396930.969041 kJ/mol
# GULP energy per Si atom -12404.092783 kJ/mol
# Density = 1.676218 g / cm^3
# Si number density = 16.800417 Si / 1000 Ang^3
#
#
#
# Elastic Constant Matrix: (Units=GPa)
#
#
# Indices 1 2 3 4 5 6 
#
# 1 74.6818 28.1281 43.5487 0.0001 5.2911 -0.0002
# 2 28.1281 73.6614 56.5471 -0.0004 -3.7636 0.0010
# 3 43.5487 56.5471 130.6938 -0.0001 -4.0511 0.0001
# 4 0.0001 -0.0004 -0.0001 36.3191 0.0001 -4.1106
# 5 5.2911 -3.7636 -4.0511 0.0001 19.4314 0.0000
# 6 -0.0002 0.0010 0.0001 -4.1106 0.0000 18.4866
#
#
#
# Elastic Compliance Matrix: (Units=1/GPa)
#
#
# Indices 1 2 3 4 5 6 
#
# 1 0.017904 -0.003647 -0.004591 0.000000 -0.006539 0.000000
# 2 -0.003647 0.021157 -0.007832 0.000000 0.003458 -0.000001
# 3 -0.004591 -0.007832 0.012643 0.000000 0.002369 0.000000
# 4 0.000000 0.000000 0.000000 0.028245 0.000000 0.006280
# 5 -0.006539 0.003458 0.002369 0.000000 0.054407 0.000000
# 6 0.000000 -0.000001 0.000000 0.006280 0.000000 0.055490
#
#
# Mechanical properties :
#
#
# Convention : Reuss Voigt Hill
#
# Bulk Modulus (GPa) = 51.10946 59.49829 55.30388
# Shear Modulus (GPa) = 21.88137 24.90163 23.39150
#
# Velocity S-wave (km/s) = 3.61283 3.85412 3.73542
# Velocity P-wave (km/s) = 6.92033 7.43621 7.18291
#
# Compressibility (1/GPa) = 0.01956585
#
# Stress axis : x y z
#
# Youngs Moduli (GPa) = 55.85415 47.26602 79.09492
#
# Poissons Ratio (x) = 0.17237 0.36309
# Poissons Ratio (y) = 0.20368 0.61944
# Poissons Ratio (z) = 0.25640 0.37017
#
# Static dielectric constant tensor:
#      x y z
#    x 2.958360 0.000000 -0.002530 
#    y 0.000000 3.145150 0.000000 
#    z -0.002530 0.000000 3.164630 
# 
# 
# High freq. dielectric constant tensor:
#      x y z
#    x 1.611180 0.000000 -0.003830 
#    y 0.000000 1.654210 0.000000 
#    z -0.003830 0.000000 1.651970 
# 
# From -- ./inp_files/324152.got.cif
#   From: 2010.06.25/outbox.cif.g09.slc.cpg/sg12_163_cif.got.tgz:324152.got - 2010.06.28 00:19:55.
