data_PCOD8085984
_publ_section_title
;
Structure prediction by ZEFSAII (Michael W. Deem and Ramdas Pophale) SiO2 
 PCOD8085984
Probable space group: C 2/M
;
_chemical_formula_sum "Si O2"
_cell_formula_units_Z 64
_cell_length_a 29.899114
_cell_length_b 9.033643
_cell_length_c 30.807143
_cell_angle_alpha 90.000000
_cell_angle_beta 151.459358
_cell_angle_gamma 90.000000
_cell_volume 3975.598034
_symmetry_space_group_name_H-M "C 2/M"
_symmetry_group_IT_number 12
_symmetry_cell_setting 'monoclinic'
loop_
_space_group_symop_operation_xyz
x,y,z
-x,y,-z
-x,-y,-z
x,-y,z
1/2+x,1/2+y,z
1/2-x,1/2+y,-z
1/2-x,1/2-y,-z
1/2+x,1/2-y,z
loop_
_atom_site_type_symbol
_atom_site_label
_atom_site_fract_x
_atom_site_fract_y
_atom_site_fract_z
Si Si1 0.877988 0.671248 0.075065
Si Si2 0.343458 0.328406 0.809096
Si Si3 0.127310 0.173811 0.747428
Si Si4 0.671120 0.175808 0.113286
Si Si5 0.642426 0.825364 0.612402
Si Si6 0.037332 0.828004 0.930689
Si Si7 0.484144 0.174950 0.416998
Si Si8 0.837137 0.829338 0.125196
O O1 0.906055 0.500000 0.097434
O O2 0.948558 0.763841 0.105366
O O3 0.887529 0.728446 0.132400
O O4 0.773784 0.698717 0.968490
O O5 0.334150 0.500000 0.814973
O O6 0.359033 0.233360 0.865435
O O7 0.250162 0.273033 0.704243
O O8 0.428932 0.303076 0.849580
O O9 0.224463 0.230424 0.809270
O O10 0.039222 0.249541 0.648759
O O11 0.122638 0.218123 0.793940
O O12 0.118987 0.000000 0.734588
O O13 0.663361 0.000000 0.105019
O O14 0.600256 0.240226 0.018041
O O15 0.591985 0.767154 0.612920
O O16 0.586662 0.771713 0.521673
O O17 0.633853 0.000000 0.605832
O O18 0.064881 0.000000 0.955523
O O19 0.479866 0.000000 0.406743
O O20 0.858144 0.000000 0.132279
#
# Coordination Sequence:
#
# PCOD8085984 Si02
#       8
#     8   8   8   8   8   8   8   8
#     4  10  19  33  50  70  94 121 156 197 237 277
#     4  10  20  34  49  67  93 128 167 200 231 274
#     4  10  19  31  46  69  99 127 153 188 235 283
#     4  11  21  33  46  66  97 131 164 197 232 269
#     4   8  15  29  47  68  92 120 157 199 235 272
#     4  11  22  33  48  68  93 129 167 197 231 276
#     4   9  16  28  49  70  90 121 158 194 235 279
#     4   9  18  33  49  67  94 124 155 190 234 285
#
# _framework density 16.098206999999999
#
# number of rings (size 3 to 8) (size 9 to 14) (size 15 to 20)
#    0.000    2.250    2.500    2.250    0.000    4.000 
#    0.000    1.875    0.000    0.000    0.000    0.875 
#    0.000    0.000    0.000    0.000    0.000    0.000 
#
# Total GULP energy -396781.961510 kJ/mol
# GULP energy per Si atom -12399.436297 kJ/mol
# Density = 1.606157 g / cm^3
# Si number density = 16.098207 Si / 1000 Ang^3
#
#
#
# Elastic Constant Matrix: (Units=GPa)
#
#
# Indices 1 2 3 4 5 6 
#
# 1 94.1278 42.4433 49.7177 0.0000 -9.1395 -0.0001
# 2 42.4433 54.9495 30.8454 -0.0002 -3.9218 -0.0015
# 3 49.7177 30.8454 91.2093 0.0004 -15.0857 0.0001
# 4 0.0000 -0.0002 0.0004 20.4876 0.0002 -5.3275
# 5 -9.1395 -3.9218 -15.0857 0.0002 23.0969 0.0000
# 6 -0.0001 -0.0015 0.0001 -5.3275 0.0000 24.4909
#
#
#
# Elastic Compliance Matrix: (Units=1/GPa)
#
#
# Indices 1 2 3 4 5 6 
#
# 1 0.019176 -0.011079 -0.006460 0.000000 0.001488 -0.000001
# 2 -0.011079 0.028898 -0.004089 0.000001 -0.002148 0.000002
# 3 -0.006460 -0.004089 0.017187 -0.000001 0.007975 -0.000001
# 4 0.000000 0.000001 -0.000001 0.051736 -0.000001 0.011254
# 5 0.001488 -0.002148 0.007975 -0.000001 0.048729 0.000000
# 6 -0.000001 0.000002 -0.000001 0.011254 0.000000 0.043280
#
#
# Mechanical properties :
#
#
# Convention : Reuss Voigt Hill
#
# Bulk Modulus (GPa) = 45.44421 54.03327 49.73874
# Shear Modulus (GPa) = 19.26060 21.43377 20.34719
#
# Velocity S-wave (km/s) = 3.46272 3.65285 3.55905
# Velocity P-wave (km/s) = 6.65416 7.17138 6.91761
#
# Compressibility (1/GPa) = 0.02200500
#
# Stress axis : x y z
#
# Youngs Moduli (GPa) = 52.14795 34.60414 58.18392
#
# Poissons Ratio (x) = 0.38339 0.37586
# Poissons Ratio (y) = 0.57777 0.23790
# Poissons Ratio (z) = 0.33687 0.14149
#
# Static dielectric constant tensor:
#      x y z
#    x 2.976630 0.000000 -0.061050 
#    y 0.000000 2.971100 0.000000 
#    z -0.061050 0.000000 3.213830 
# 
# 
# High freq. dielectric constant tensor:
#      x y z
#    x 1.600520 0.000000 -0.011820 
#    y 0.000000 1.614250 0.000000 
#    z -0.011820 0.000000 1.608480 
# 
# From -- ./inp_files/248256.got.cif
#   From: 2010.06.25/outbox.cif.g09.slc.cpg/sg12_125_cif.got.tgz:248256.got - 2010.06.28 00:19:55.
