data_PCOD8085906
_publ_section_title
;
Structure prediction by ZEFSAII (Michael W. Deem and Ramdas Pophale) SiO2 
 PCOD8085906
Probable space group: C 2/M
;
_chemical_formula_sum "Si O2"
_cell_formula_units_Z 56
_cell_length_a 28.323530
_cell_length_b 8.802385
_cell_length_c 11.884370
_cell_angle_alpha 90.000000
_cell_angle_beta 107.152421
_cell_angle_gamma 90.000000
_cell_volume 2831.165892
_symmetry_space_group_name_H-M "C 2/M"
_symmetry_group_IT_number 12
_symmetry_cell_setting 'monoclinic'
loop_
_space_group_symop_operation_xyz
x,y,z
-x,y,-z
-x,-y,-z
x,-y,z
1/2+x,1/2+y,z
1/2-x,1/2+y,-z
1/2-x,1/2-y,-z
1/2+x,1/2-y,z
loop_
_atom_site_type_symbol
_atom_site_label
_atom_site_fract_x
_atom_site_fract_y
_atom_site_fract_z
Si Si1 0.580734 0.176341 0.296385
Si Si2 0.755220 0.825117 0.323906
Si Si3 0.822240 0.825311 0.580311
Si Si4 0.014077 0.679273 0.631448
Si Si5 0.214798 0.678980 0.882776
Si Si6 0.554702 0.821528 0.030673
Si Si7 0.396011 0.181303 0.160308
O O1 0.620889 0.277688 0.388499
O O2 0.527364 0.222907 0.306483
O O3 0.591526 0.000000 0.328390
O O4 0.583646 0.213535 0.166013
O O5 0.799224 0.795038 0.442174
O O6 0.703508 0.778601 0.343703
O O7 0.764578 0.720081 0.224261
O O8 0.751938 0.000000 0.283994
O O9 0.816200 0.000000 0.611173
O O10 0.018025 0.500000 0.620638
O O11 0.066687 0.740731 0.715477
O O12 0.000000 0.751657 0.500000
O O13 0.215008 0.500000 0.899188
O O14 0.159020 0.744152 0.856078
O O15 0.250000 0.750000 0.000000
O O16 0.585362 0.753896 0.947202
O O17 0.548453 0.000000 0.006784
O O18 0.500000 0.748275 0.000000
O O19 0.395754 0.000000 0.158673
#
# Coordination Sequence:
#
# PCOD8085906 Si02
#       7
#     8   8   8   8   8   8   8
#     4  10  19  30  55  86 111 146 188 234 285 341
#     4  10  22  42  63  82 110 149 197 245 292 349
#     4  10  22  39  60  86 116 148 185 239 301 359
#     4   9  17  29  48  81 118 148 189 240 284 334
#     4  11  24  39  59  86 120 158 199 245 295 350
#     4   9  15  28  49  77 110 141 185 234 274 322
#     4   9  18  32  50  77 113 152 190 237 287 333
#
# _framework density 19.779837000000001
#
# number of rings (size 3 to 8) (size 9 to 14) (size 15 to 20)
#    0.000    2.286    1.429    1.286    4.000    1.714 
#    0.000    0.000    0.000    2.571    0.000    0.000 
#    0.000    0.000    0.000    0.000    0.000    0.000 
#
# Total GULP energy -347202.713270 kJ/mol
# GULP energy per Si atom -12400.096902 kJ/mol
# Density = 1.973482 g / cm^3
# Si number density = 19.779837 Si / 1000 Ang^3
#
#
#
# Elastic Constant Matrix: (Units=GPa)
#
#
# Indices 1 2 3 4 5 6 
#
# 1 107.4558 25.0444 66.4506 0.0000 19.6586 0.0000
# 2 25.0444 36.1571 29.1518 0.0000 6.0726 0.0000
# 3 66.4506 29.1518 128.1841 0.0000 2.5738 0.0000
# 4 0.0000 0.0000 0.0000 20.9236 0.0000 4.5247
# 5 19.6586 6.0726 2.5738 0.0000 37.4751 0.0000
# 6 0.0000 0.0000 0.0000 4.5247 0.0000 19.1776
#
#
#
# Elastic Compliance Matrix: (Units=1/GPa)
#
#
# Indices 1 2 3 4 5 6 
#
# 1 0.016075 -0.004055 -0.007265 0.000000 -0.007277 0.000000
# 2 -0.004055 0.035838 -0.005983 0.000000 -0.003269 0.000000
# 3 -0.007265 -0.005983 0.012850 0.000000 0.003898 0.000000
# 4 0.000000 0.000000 0.000000 0.050363 0.000000 -0.011882
# 5 -0.007277 -0.003269 0.003898 0.000000 0.030764 0.000000
# 6 0.000000 0.000000 0.000000 -0.011882 0.000000 0.054948
#
#
# Mechanical properties :
#
#
# Convention : Reuss Voigt Hill
#
# Bulk Modulus (GPa) = 33.15877 57.01007 45.08442
# Shear Modulus (GPa) = 20.36699 25.59193 22.97946
#
# Velocity S-wave (km/s) = 3.21235 3.60090 3.41216
# Velocity P-wave (km/s) = 5.52804 6.79511 6.19406
#
# Compressibility (1/GPa) = 0.03015794
#
# Stress axis : x y z
#
# Youngs Moduli (GPa) = 62.20779 27.90305 77.82217
#
# Poissons Ratio (x) = 0.11315 0.56538
# Poissons Ratio (y) = 0.25225 0.46559
# Poissons Ratio (z) = 0.45194 0.16694
#
# Static dielectric constant tensor:
#      x y z
#    x 3.732950 0.000000 0.035620 
#    y 0.000000 3.105210 0.000000 
#    z 0.035620 0.000000 3.773340 
# 
# 
# High freq. dielectric constant tensor:
#      x y z
#    x 1.778830 0.000000 0.003430 
#    y 0.000000 1.719880 0.000000 
#    z 0.003430 0.000000 1.783340 
# 
# From -- ./inp_files/186832.got.cif
#   From: 2010.06.25/outbox.cif.g09.slc.cpg/sg12_94_cif.got.tgz:186832.got - 2010.06.28 00:19:55.
