data_PCOD8085135
_publ_section_title
;
Structure prediction by ZEFSAII (Michael W. Deem and Ramdas Pophale) SiO2 
 PCOD8085135
Probable space group: C 2/M
;
_chemical_formula_sum "Si O2"
_cell_formula_units_Z 48
_cell_length_a 28.463513
_cell_length_b 9.134449
_cell_length_c 12.329231
_cell_angle_alpha 90.000000
_cell_angle_beta 110.951485
_cell_angle_gamma 90.000000
_cell_volume 2993.639947
_symmetry_space_group_name_H-M "C 2/M"
_symmetry_group_IT_number 12
_symmetry_cell_setting 'monoclinic'
loop_
_space_group_symop_operation_xyz
x,y,z
-x,y,-z
-x,-y,-z
x,-y,z
1/2+x,1/2+y,z
1/2-x,1/2+y,-z
1/2-x,1/2-y,-z
1/2+x,1/2-y,z
loop_
_atom_site_type_symbol
_atom_site_label
_atom_site_fract_x
_atom_site_fract_y
_atom_site_fract_z
Si Si1 0.163123 0.667080 0.251569
Si Si2 0.864067 0.673297 0.526386
Si Si3 0.032851 0.171644 0.422909
Si Si4 0.003948 0.827332 0.836723
Si Si5 0.919318 0.172786 0.929585
Si Si6 0.730915 0.670469 0.590360
O O1 0.147503 0.500000 0.223754
O O2 0.145194 0.719415 0.356321
O O3 0.135385 0.757544 0.134399
O O4 0.223456 0.687586 0.285417
O O5 0.861603 0.500000 0.507683
O O6 0.916765 0.734613 0.528228
O O7 0.820634 0.749367 0.416028
O O8 0.000000 0.209026 0.500000
O O9 0.000325 0.222758 0.291414
O O10 0.046523 0.000000 0.427275
O O11 0.955989 0.768856 0.864283
O O12 0.002970 0.000000 0.846571
O O13 0.056319 0.774049 0.935458
O O14 0.912428 0.000000 0.920877
O O15 0.720403 0.500000 0.557799
O O16 0.750000 0.750000 0.500000
#
# Coordination Sequence:
#
# PCOD8085135 Si02
#       6
#     8   8   8   8   8   8
#     4   9  17  27  40  64  92 115 142 176 218 263
#     4  10  19  30  43  62  90 120 149 184 222 262
#     4  10  19  31  48  66  86 117 154 187 219 259
#     4   8  15  27  41  63  87 112 148 181 215 258
#     4   9  15  25  44  62  85 118 145 176 214 259
#     4   9  17  28  42  62  90 119 147 180 219 267
#
# _framework density 16.033992000000001
#
# number of rings (size 3 to 8) (size 9 to 14) (size 15 to 20)
#    0.000    2.833    1.667    3.000    0.000    3.667 
#    0.000    2.500    0.000    0.000    0.000    1.167 
#    0.000    0.000    0.000    0.000    0.000    0.000 
#
# Total GULP energy -297399.769923 kJ/mol
# GULP energy per Si atom -12391.657080 kJ/mol
# Density = 1.599750 g / cm^3
# Si number density = 16.033992 Si / 1000 Ang^3
#
#
#
# Elastic Constant Matrix: (Units=GPa)
#
#
# Indices 1 2 3 4 5 6 
#
# 1 93.4112 49.7383 60.9588 0.0000 26.0304 0.0000
# 2 49.7383 66.5523 38.3549 0.0000 18.1004 0.0000
# 3 60.9588 38.3549 100.4293 0.0000 20.9594 0.0000
# 4 0.0000 0.0000 0.0000 18.2226 0.0000 9.3902
# 5 26.0304 18.1004 20.9594 0.0000 30.1067 0.0000
# 6 0.0000 0.0000 0.0000 9.3902 0.0000 25.9495
#
#
#
# Elastic Compliance Matrix: (Units=1/GPa)
#
#
# Indices 1 2 3 4 5 6 
#
# 1 0.024925 -0.011040 -0.009126 0.000000 -0.008559 0.000000
# 2 -0.011040 0.025748 -0.002216 0.000000 -0.004392 0.000000
# 3 -0.009126 -0.002216 0.016869 0.000000 -0.002521 0.000000
# 4 0.000000 0.000000 0.000000 0.067455 0.000000 -0.024410
# 5 -0.008559 -0.004392 -0.002521 0.000000 0.045011 0.000000
# 6 0.000000 0.000000 0.000000 -0.024410 0.000000 0.047369
#
#
# Mechanical properties :
#
#
# Convention : Reuss Voigt Hill
#
# Bulk Modulus (GPa) = 43.90248 62.05520 52.97884
# Shear Modulus (GPa) = 17.87409 22.27847 20.07628
#
# Velocity S-wave (km/s) = 3.34243 3.73158 3.54235
# Velocity P-wave (km/s) = 6.50662 7.57315 7.06005
#
# Compressibility (1/GPa) = 0.02277776
#
# Stress axis : x y z
#
# Youngs Moduli (GPa) = 40.12091 38.83766 59.28026
#
# Poissons Ratio (x) = 0.42878 0.54100
# Poissons Ratio (y) = 0.44294 0.13134
# Poissons Ratio (z) = 0.36615 0.08605
#
# Static dielectric constant tensor:
#      x y z
#    x 4.360890 0.000000 1.593620 
#    y 0.000000 2.925600 0.000000 
#    z 1.593620 0.000000 4.190970 
# 
# 
# High freq. dielectric constant tensor:
#      x y z
#    x 1.593900 0.000000 0.041560 
#    y 0.000000 1.608040 0.000000 
#    z 0.041560 0.000000 1.593020 
# 
# From -- ./inp_files/185734.got.cif
#   From: 2010.06.25/outbox.cif.g09.slc.cpg/sg12_93_cif.got.tgz:185734.got - 2010.06.28 00:19:55.
