data_PCOD8085286
_publ_section_title
;
Structure prediction by ZEFSAII (Michael W. Deem and Ramdas Pophale) SiO2 
 PCOD8085286
Probable space group: C 2/M
;
_chemical_formula_sum "Si O2"
_cell_formula_units_Z 56
_cell_length_a 28.693655
_cell_length_b 9.202729
_cell_length_c 17.638415
_cell_angle_alpha 90.000000
_cell_angle_beta 136.863750
_cell_angle_gamma 90.000000
_cell_volume 3184.565993
_symmetry_space_group_name_H-M "C 2/M"
_symmetry_group_IT_number 12
_symmetry_cell_setting 'monoclinic'
loop_
_space_group_symop_operation_xyz
x,y,z
-x,y,-z
-x,-y,-z
x,-y,z
1/2+x,1/2+y,z
1/2-x,1/2+y,-z
1/2-x,1/2-y,-z
1/2+x,1/2-y,z
loop_
_atom_site_type_symbol
_atom_site_label
_atom_site_fract_x
_atom_site_fract_y
_atom_site_fract_z
Si Si1 0.033140 0.167405 0.230548
Si Si2 0.906644 0.827581 0.258484
Si Si3 0.102336 0.668837 0.902367
Si Si4 0.426494 0.332283 0.885355
Si Si5 0.317330 0.831598 0.853658
Si Si6 0.060714 0.830322 0.427951
Si Si7 0.164453 0.826682 0.673045
O O1 0.080432 0.191680 0.213453
O O2 0.075428 0.207380 0.356997
O O3 0.966797 0.266718 0.144769
O O4 0.008132 0.000000 0.205758
O O5 0.874735 0.751117 0.146683
O O6 0.865749 0.772225 0.282959
O O7 0.985152 0.776029 0.360448
O O8 0.901670 0.000000 0.241325
O O9 0.091065 0.500000 0.871054
O O10 0.161080 0.693789 0.033917
O O11 0.419770 0.500000 0.900401
O O12 0.365725 0.247694 0.852043
O O13 0.500000 0.272904 0.000000
O O14 0.241124 0.768235 0.753935
O O15 0.320363 0.000000 0.835928
O O16 0.118093 0.759314 0.550188
O O17 0.064164 0.000000 0.447303
O O18 0.164405 0.000000 0.672305
#
# Coordination Sequence:
#
# PCOD8085286 Si02
#       7
#     8   8   8   8   8   8   8
#     4   9  17  31  52  76  94 118 160 203 241 278
#     4   9  17  30  52  75  93 122 166 205 236 274
#     4  10  19  30  45  70 101 128 156 194 241 288
#     4  10  19  32  52  74  97 124 158 200 241 282
#     4  10  21  33  47  70 101 132 160 191 237 293
#     4   8  14  27  51  76  94 117 160 208 237 267
#     4   9  17  31  49  71  98 128 162 200 236 277
#
# _framework density 17.584814000000001
#
# number of rings (size 3 to 8) (size 9 to 14) (size 15 to 20)
#    0.000    2.714    1.429    1.714    0.000    3.714 
#    0.000    1.429    0.000   10.286    0.000    0.000 
#    0.000    0.000    0.000    0.000    0.000    0.000 
#
# Total GULP energy -347117.186519 kJ/mol
# GULP energy per Si atom -12397.042376 kJ/mol
# Density = 1.754479 g / cm^3
# Si number density = 17.584814 Si / 1000 Ang^3
#
#
#
# Elastic Constant Matrix: (Units=GPa)
#
#
# Indices 1 2 3 4 5 6 
#
# 1 147.1536 36.5277 87.3762 0.0000 -6.1148 0.0000
# 2 36.5277 41.8144 36.9758 0.0000 -2.6242 0.0000
# 3 87.3762 36.9758 114.9762 0.0000 0.2833 0.0000
# 4 0.0000 0.0000 0.0000 15.0724 0.0000 -3.4106
# 5 -6.1148 -2.6242 0.2833 0.0000 25.4344 0.0000
# 6 0.0000 0.0000 0.0000 -3.4106 0.0000 23.1800
#
#
#
# Elastic Compliance Matrix: (Units=1/GPa)
#
#
# Indices 1 2 3 4 5 6 
#
# 1 0.012962 -0.003391 -0.008767 0.000000 0.002864 0.000000
# 2 -0.003391 0.034633 -0.008568 0.000000 0.002853 0.000000
# 3 -0.008767 -0.008568 0.018123 0.000000 -0.003194 0.000000
# 4 0.000000 0.000000 0.000000 0.068631 0.000000 0.010098
# 5 0.002864 0.002853 -0.003194 0.000000 0.040335 0.000000
# 6 0.000000 0.000000 0.000000 0.010098 0.000000 0.044626
#
#
# Mechanical properties :
#
#
# Convention : Reuss Voigt Hill
#
# Bulk Modulus (GPa) = 41.20912 69.52261 55.36586
# Shear Modulus (GPa) = 18.59763 22.27502 20.43632
#
# Velocity S-wave (km/s) = 3.25560 3.56296 3.41274
# Velocity P-wave (km/s) = 6.13329 7.51982 6.86167
#
# Compressibility (1/GPa) = 0.02426647
#
# Stress axis : x y z
#
# Youngs Moduli (GPa) = 77.14857 28.87432 55.17784
#
# Poissons Ratio (x) = 0.09791 0.48375
# Poissons Ratio (y) = 0.26160 0.47276
# Poissons Ratio (z) = 0.67636 0.24739
#
# Static dielectric constant tensor:
#      x y z
#    x 3.283250 0.000000 -0.163660 
#    y 0.000000 2.973780 0.000000 
#    z -0.163660 0.000000 3.507270 
# 
# 
# High freq. dielectric constant tensor:
#      x y z
#    x 1.677860 0.000000 -0.017500 
#    y 0.000000 1.645580 0.000000 
#    z -0.017500 0.000000 1.679480 
# 
# From -- ./inp_files/288240.got.cif
#   From: 2010.06.25/outbox.cif.g09.slc.cpg/sg12_145_cif.got.tgz:288240.got - 2010.06.28 00:19:55.
