data_PCOD8085911
_publ_section_title
;
Structure prediction by ZEFSAII (Michael W. Deem and Ramdas Pophale) SiO2 
 PCOD8085911
Probable space group: C 2/M
;
_chemical_formula_sum "Si O2"
_cell_formula_units_Z 56
_cell_length_a 32.858348
_cell_length_b 14.087792
_cell_length_c 12.602893
_cell_angle_alpha 90.000000
_cell_angle_beta 40.029634
_cell_angle_gamma 90.000000
_cell_volume 3752.268909
_symmetry_space_group_name_H-M "C 2/M"
_symmetry_group_IT_number 12
_symmetry_cell_setting 'monoclinic'
loop_
_space_group_symop_operation_xyz
x,y,z
-x,y,-z
-x,-y,-z
x,-y,z
1/2+x,1/2+y,z
1/2-x,1/2+y,-z
1/2-x,1/2-y,-z
1/2+x,1/2-y,z
loop_
_atom_site_type_symbol
_atom_site_label
_atom_site_fract_x
_atom_site_fract_y
_atom_site_fract_z
Si Si1 0.992270 0.108462 0.231890
Si Si2 0.275533 0.610476 0.737246
Si Si3 0.044599 0.209893 0.323438
Si Si4 0.867671 0.887617 0.370531
Si Si5 0.668613 0.741721 0.980366
Si Si6 0.841243 0.891699 0.823713
Si Si7 0.129734 0.109162 0.871452
O O1 0.998790 0.166097 0.327226
O O2 0.933956 0.153390 0.282529
O O3 0.977546 0.000000 0.292357
O O4 0.054508 0.115824 0.035874
O O5 0.257981 0.500000 0.767671
O O6 0.310475 0.644759 0.560756
O O7 0.210052 0.666140 0.877973
O O8 0.321974 0.633238 0.742290
O O9 0.083726 0.126604 0.307179
O O10 0.000000 0.262794 0.500000
O O11 0.097716 0.276300 0.159657
O O12 0.854183 0.851907 0.278268
O O13 0.873837 0.000000 0.355498
O O14 0.665739 0.677067 0.881191
O O15 0.697791 0.675475 0.016090
O O16 0.825009 0.000000 0.883285
O O17 0.152137 0.000000 0.843636
#
# Coordination Sequence:
#
# PCOD8085911 Si02
#       7
#     8   8   8   8   8   8   8
#     4   9  15  24  38  61  90 115 134 156 197 251
#     4  10  19  31  43  59  82 112 149 180 207 234
#     4   9  17  25  40  63  89 111 135 166 200 252
#     4   9  17  26  41  62  87 115 141 166 198 248
#     4   9  19  29  43  60  85 112 143 172 207 244
#     4   9  17  28  44  63  87 113 136 164 204 254
#     4   9  16  28  43  63  90 115 136 162 203 254
#
# _framework density 14.924303999999999
#
# number of rings (size 3 to 8) (size 9 to 14) (size 15 to 20)
#    0.857    2.000    0.000    2.571    0.000    4.571 
#    0.000    0.000    0.000    0.429    0.000    0.000 
#    0.000    9.143    0.000    0.000    0.000    0.000 
#
# Total GULP energy -346896.958191 kJ/mol
# GULP energy per Si atom -12389.177078 kJ/mol
# Density = 1.489034 g / cm^3
# Si number density = 14.924304 Si / 1000 Ang^3
#
#
#
# Elastic Constant Matrix: (Units=GPa)
#
#
# Indices 1 2 3 4 5 6 
#
# 1 72.7997 23.9028 43.5034 0.0000 18.7193 0.0000
# 2 23.9028 32.9157 27.6967 0.0000 2.3019 0.0000
# 3 43.5034 27.6967 88.4715 0.0000 20.8466 0.0000
# 4 0.0000 0.0000 0.0000 17.2845 0.0000 -2.3457
# 5 18.7193 2.3019 20.8466 0.0000 23.3922 0.0000
# 6 0.0000 0.0000 0.0000 -2.3457 0.0000 11.0346
#
#
#
# Elastic Compliance Matrix: (Units=1/GPa)
#
#
# Indices 1 2 3 4 5 6 
#
# 1 0.024323 -0.012767 -0.004649 0.000000 -0.014065 0.000000
# 2 -0.012767 0.049658 -0.013321 0.000000 0.017202 0.000000
# 3 -0.004649 -0.013321 0.020979 0.000000 -0.013665 0.000000
# 4 0.000000 0.000000 0.000000 0.059574 0.000000 0.012664
# 5 -0.014065 0.017202 -0.013665 0.000000 0.064489 0.000000
# 6 0.000000 0.000000 0.000000 0.012664 0.000000 0.093316
#
#
# Mechanical properties :
#
#
# Convention : Reuss Voigt Hill
#
# Bulk Modulus (GPa) = 29.86405 42.71030 36.28717
# Shear Modulus (GPa) = 12.98780 16.94787 14.96783
#
# Velocity S-wave (km/s) = 2.95319 3.37351 3.17032
# Velocity P-wave (km/s) = 5.62870 6.62224 6.14558
#
# Compressibility (1/GPa) = 0.03348507
#
# Stress axis : x y z
#
# Youngs Moduli (GPa) = 41.11329 20.13774 47.66580
#
# Poissons Ratio (x) = 0.25710 0.22161
# Poissons Ratio (y) = 0.52491 0.63496
# Poissons Ratio (z) = 0.19114 0.26826
#
# Static dielectric constant tensor:
#      x y z
#    x 2.955850 0.000000 0.204780 
#    y 0.000000 2.404470 0.000000 
#    z 0.204780 0.000000 2.930470 
# 
# 
# High freq. dielectric constant tensor:
#      x y z
#    x 1.577010 0.000000 0.017170 
#    y 0.000000 1.511550 0.000000 
#    z 0.017170 0.000000 1.572640 
# 
# From -- ./inp_files/189172.got.cif
#   From: 2010.06.25/outbox.cif.g09.slc.cpg/sg12_95_cif.got.tgz:189172.got - 2010.06.28 00:19:55.
