data_PCOD8086484
_publ_section_title
;
Structure prediction by ZEFSAII (Michael W. Deem and Ramdas Pophale) SiO2 
 PCOD8086484
Probable space group: C 2/M
;
_chemical_formula_sum "Si O2"
_cell_formula_units_Z 64
_cell_length_a 24.271432
_cell_length_b 9.035455
_cell_length_c 16.545720
_cell_angle_alpha 90.000000
_cell_angle_beta 87.437077
_cell_angle_gamma 90.000000
_cell_volume 3624.903610
_symmetry_space_group_name_H-M "C 2/M"
_symmetry_group_IT_number 12
_symmetry_cell_setting 'monoclinic'
loop_
_space_group_symop_operation_xyz
x,y,z
-x,y,-z
-x,-y,-z
x,-y,z
1/2+x,1/2+y,z
1/2-x,1/2+y,-z
1/2-x,1/2-y,-z
1/2+x,1/2-y,z
loop_
_atom_site_type_symbol
_atom_site_label
_atom_site_fract_x
_atom_site_fract_y
_atom_site_fract_z
Si Si1 0.440869 0.173629 0.836059
Si Si2 0.663228 0.673135 0.869598
Si Si3 0.144772 0.172038 0.053915
Si Si4 0.552057 0.674170 0.785804
Si Si5 0.357435 0.173821 0.700284
Si Si6 0.460820 0.674631 0.392374
Si Si7 0.771513 0.826831 0.811760
Si Si8 0.419733 0.675218 0.562360
O O1 0.408700 0.236188 0.915761
O O2 0.500725 0.245867 0.830254
O O3 0.407253 0.215713 0.757484
O O4 0.447457 0.000000 0.845985
O O5 0.676160 0.500000 0.859329
O O6 0.605895 0.717071 0.832100
O O7 0.710137 0.764915 0.821669
O O8 0.661013 0.720932 0.963044
O O9 0.196554 0.210100 0.107378
O O10 0.128956 0.000000 0.059065
O O11 0.540295 0.500000 0.788280
O O12 0.560518 0.731403 0.692987
O O13 0.301225 0.247596 0.734879
O O14 0.370780 0.239617 0.611208
O O15 0.348037 0.000000 0.694763
O O16 0.464263 0.500000 0.394693
O O17 0.419507 0.723152 0.467519
O O18 0.522607 0.732775 0.403823
O O19 0.769723 0.000000 0.794211
O O20 0.411531 0.500000 0.574172
#
# Coordination Sequence:
#
# PCOD8086484 Si02
#       8
#     8   8   8   8   8   8   8   8
#     4  10  20  32  48  73 102 132 164 203 247 286
#     4  10  21  35  52  74  98 128 166 207 247 289
#     4   9  19  35  53  73  97 127 164 205 250 296
#     4  10  19  33  52  71 100 138 167 194 238 298
#     4  10  19  31  49  75 104 129 159 205 253 289
#     4   8  15  27  47  74 101 131 163 196 234 287
#     4  10  20  34  54  74  95 128 166 206 249 293
#     4   9  15  27  49  75 101 128 163 200 236 287
#
# _framework density 17.655640999999999
#
# number of rings (size 3 to 8) (size 9 to 14) (size 15 to 20)
#    0.000    2.500    1.250    2.250    0.000    3.000 
#    0.000    4.375    0.000    0.750    0.000    0.000 
#    0.000    0.000    0.000    0.000    0.000    0.000 
#
# Total GULP energy -396814.828200 kJ/mol
# GULP energy per Si atom -12400.463381 kJ/mol
# Density = 1.761546 g / cm^3
# Si number density = 17.655641 Si / 1000 Ang^3
#
#
#
# Elastic Constant Matrix: (Units=GPa)
#
#
# Indices 1 2 3 4 5 6 
#
# 1 96.0052 46.5022 36.0312 0.0000 -27.0641 0.0000
# 2 46.5022 61.8031 28.8265 0.0000 -17.8630 0.0000
# 3 36.0312 28.8265 65.4487 0.0000 -29.4150 0.0000
# 4 0.0000 0.0000 0.0000 21.3549 0.0000 -8.7682
# 5 -27.0641 -17.8630 -29.4150 0.0000 28.3930 0.0000
# 6 0.0000 0.0000 0.0000 -8.7682 0.0000 27.4469
#
#
#
# Elastic Compliance Matrix: (Units=1/GPa)
#
#
# Indices 1 2 3 4 5 6 
#
# 1 0.018901 -0.010786 -0.001137 0.000000 0.010053 0.000000
# 2 -0.010786 0.027199 -0.005561 0.000000 0.001070 0.000000
# 3 -0.001137 -0.005561 0.030493 0.000000 0.027008 0.000000
# 4 0.000000 0.000000 0.000000 0.053897 0.000000 0.017218
# 5 0.010053 0.001070 0.027008 0.000000 0.073455 0.000000
# 6 0.000000 0.000000 0.000000 0.017218 0.000000 0.041934
#
#
# Mechanical properties :
#
#
# Convention : Reuss Voigt Hill
#
# Bulk Modulus (GPa) = 24.02388 49.55298 36.78843
# Shear Modulus (GPa) = 16.96516 22.89878 19.93197
#
# Velocity S-wave (km/s) = 3.10319 3.60525 3.36360
# Velocity P-wave (km/s) = 5.14550 6.74224 5.99724
#
# Compressibility (1/GPa) = 0.04162526
#
# Stress axis : x y z
#
# Youngs Moduli (GPa) = 52.90711 36.76631 32.79485
#
# Poissons Ratio (x) = 0.39655 0.03728
# Poissons Ratio (y) = 0.57064 0.18237
# Poissons Ratio (z) = 0.06015 0.20446
#
# Static dielectric constant tensor:
#      x y z
#    x 3.054960 0.000000 -0.070600 
#    y 0.000000 3.086350 0.000000 
#    z -0.070600 0.000000 3.497610 
# 
# 
# High freq. dielectric constant tensor:
#      x y z
#    x 1.660170 0.000000 -0.019190 
#    y 0.000000 1.671230 0.000000 
#    z -0.019190 0.000000 1.685830 
# 
# From -- ./inp_files/287608.got.cif
#   From: 2010.06.25/outbox.cif.g09.slc.cpg/sg12_144_cif.got.tgz:287608.got - 2010.06.28 00:19:55.
