data_PCOD8086496
_publ_section_title
;
Structure prediction by ZEFSAII (Michael W. Deem and Ramdas Pophale) SiO2 
 PCOD8086496
Probable space group: C 2/M
;
_chemical_formula_sum "Si O2"
_cell_formula_units_Z 56
_cell_length_a 27.627381
_cell_length_b 13.051667
_cell_length_c 10.160676
_cell_angle_alpha 90.000000
_cell_angle_beta 57.972346
_cell_angle_gamma 90.000000
_cell_volume 3106.116471
_symmetry_space_group_name_H-M "C 2/M"
_symmetry_group_IT_number 12
_symmetry_cell_setting 'monoclinic'
loop_
_space_group_symop_operation_xyz
x,y,z
-x,y,-z
-x,-y,-z
x,-y,z
1/2+x,1/2+y,z
1/2-x,1/2+y,-z
1/2-x,1/2-y,-z
1/2+x,1/2-y,z
loop_
_atom_site_type_symbol
_atom_site_label
_atom_site_fract_x
_atom_site_fract_y
_atom_site_fract_z
Si Si1 0.469850 0.306494 0.685147
Si Si2 0.033122 0.884219 0.828886
Si Si3 0.350655 0.615373 0.870056
Si Si4 0.162230 0.737976 0.352744
Si Si5 0.934549 0.387164 0.633293
Si Si6 0.722461 0.379113 0.777949
Si Si7 0.661473 0.617060 0.605933
O O1 0.500000 0.319339 0.500000
O O2 0.519311 0.317648 0.720331
O O3 0.419697 0.388589 0.779803
O O4 0.438178 0.195189 0.746861
O O5 0.099704 0.880917 0.762568
O O6 0.011846 0.000000 0.834620
O O7 0.000000 0.835702 0.000000
O O8 0.329515 0.500000 0.871233
O O9 0.330468 0.687548 0.781400
O O10 0.323214 0.656240 0.045873
O O11 0.105582 0.665814 0.421289
O O12 0.216241 0.664870 0.276384
O O13 0.161474 0.806608 0.483850
O O14 0.909994 0.500000 0.707971
O O15 0.000000 0.401801 0.500000
O O16 0.726882 0.500000 0.770326
O O17 0.703739 0.342333 0.658940
O O18 0.676010 0.500000 0.539897
#
# Coordination Sequence:
#
# PCOD8086496 Si02
#       7
#     8   8   8   8   8   8   8
#     4  10  19  31  51  78 103 131 166 205 247 294
#     4  10  19  31  49  75 107 138 163 194 246 307
#     4  10  20  33  50  74 104 133 162 202 251 300
#     4  11  20  33  53  75  97 128 170 211 249 291
#     4   9  18  32  50  73  98 124 160 207 251 288
#     4  10  21  36  51  70  99 135 170 203 246 298
#     4  10  20  33  50  74 103 131 164 206 248 295
#
# _framework density 18.028943000000002
#
# number of rings (size 3 to 8) (size 9 to 14) (size 15 to 20)
#    0.000    2.000    0.000    5.571    0.000    4.571 
#    0.000    0.000    0.000    1.714    0.000   14.000 
#    0.000    0.000    0.000    0.000    0.000    0.000 
#
# Total GULP energy -346960.998304 kJ/mol
# GULP energy per Si atom -12391.464225 kJ/mol
# Density = 1.798791 g / cm^3
# Si number density = 18.028943 Si / 1000 Ang^3
#
#
#
# Elastic Constant Matrix: (Units=GPa)
#
#
# Indices 1 2 3 4 5 6 
#
# 1 111.0372 36.9400 32.3270 0.0000 4.7682 0.0000
# 2 36.9400 70.8485 35.3450 0.0000 11.3201 0.0000
# 3 32.3270 35.3450 87.1367 0.0000 3.8430 0.0000
# 4 0.0000 0.0000 0.0000 -1.1659 0.0000 -21.1309
# 5 4.7682 11.3201 3.8430 0.0000 26.8550 0.0000
# 6 0.0000 0.0000 0.0000 -21.1309 0.0000 7.3338
#
#
#
# Elastic Compliance Matrix: (Units=1/GPa)
#
#
# Indices 1 2 3 4 5 6 
#
# 1 0.011239 -0.004799 -0.002238 0.000000 0.000348 0.000000
# 2 -0.004799 0.020938 -0.006401 0.000000 -0.007058 0.000000
# 3 -0.002238 -0.006401 0.014860 0.000000 0.000969 0.000000
# 4 0.000000 0.000000 0.000000 -0.016116 0.000000 -0.046435
# 5 0.000348 -0.007058 0.000969 0.000000 0.040012 0.000000
# 6 0.000000 0.000000 0.000000 -0.046435 0.000000 0.002562
#
#
# Mechanical properties :
#
#
# Convention : Reuss Voigt Hill
#
# Bulk Modulus (GPa) = 49.60253 53.13849 51.37051
# Shear Modulus (GPa) = 46.68841 17.56527 32.12684
#
# Velocity S-wave (km/s) = 5.09437 3.12473 4.22591
# Velocity P-wave (km/s) = 7.88517 6.52354 7.23645
#
# Compressibility (1/GPa) = 0.02016026
#
# Stress axis : x y z
#
# Youngs Moduli (GPa) = 88.97376 47.76022 67.29258
#
# Poissons Ratio (x) = 0.22920 0.15063
# Poissons Ratio (y) = 0.42698 0.43076
# Poissons Ratio (z) = 0.19916 0.30573
#
# Static dielectric constant tensor:
#      x y z
#    x 3.497350 0.000000 0.004530 
#    y 0.000000 3.632240 0.000000 
#    z 0.004530 0.000000 3.204600 
# 
# 
# High freq. dielectric constant tensor:
#      x y z
#    x 1.710990 0.000000 -0.003750 
#    y 0.000000 1.692640 0.000000 
#    z -0.003750 0.000000 1.680430 
# 
# From -- ./inp_files/104426.got.cif
#   From: 2010.06.25/outbox.cif.g09.slc.cpg/sg12_53_cif.got.tgz:104426.got - 2010.06.28 00:19:55.
