data_PCOD8086027
_publ_section_title
;
Structure prediction by ZEFSAII (Michael W. Deem and Ramdas Pophale) SiO2 
 PCOD8086027
Probable space group: C 2/M
;
_chemical_formula_sum "Si O2"
_cell_formula_units_Z 64
_cell_length_a 20.516115
_cell_length_b 8.975751
_cell_length_c 26.016113
_cell_angle_alpha 90.000000
_cell_angle_beta 129.785218
_cell_angle_gamma 90.000000
_cell_volume 3681.486219
_symmetry_space_group_name_H-M "C 2/M"
_symmetry_group_IT_number 12
_symmetry_cell_setting 'monoclinic'
loop_
_space_group_symop_operation_xyz
x,y,z
-x,y,-z
-x,-y,-z
x,-y,z
1/2+x,1/2+y,z
1/2-x,1/2+y,-z
1/2-x,1/2-y,-z
1/2+x,1/2-y,z
loop_
_atom_site_type_symbol
_atom_site_label
_atom_site_fract_x
_atom_site_fract_y
_atom_site_fract_z
Si Si1 0.482036 0.176507 0.836092
Si Si2 0.964978 0.171824 0.037886
Si Si3 0.644729 0.332719 0.296985
Si Si4 0.762423 0.832335 0.426965
Si Si5 0.118470 0.177346 0.832162
Si Si6 0.730435 0.674249 0.044054
Si Si7 0.494646 0.335146 0.684867
Si Si8 0.120440 0.333551 0.442716
O O1 0.486180 0.221971 0.897682
O O2 0.392752 0.234268 0.768240
O O3 0.561027 0.254368 0.848123
O O4 0.487757 0.000000 0.831917
O O5 0.983516 0.000000 0.061370
O O6 0.865263 0.204826 0.987829
O O7 0.000000 0.213690 0.000000
O O8 0.664079 0.500000 0.287259
O O9 0.731576 0.259334 0.361578
O O10 0.577735 0.337378 0.308907
O O11 0.848692 0.761847 0.492944
O O12 0.690725 0.829054 0.434121
O O13 0.782266 0.000000 0.419662
O O14 0.211288 0.249314 0.882837
O O15 0.080814 0.218205 0.756771
O O16 0.121023 0.000000 0.841736
O O17 0.751387 0.500000 0.050737
O O18 0.750000 0.750000 0.000000
O O19 0.506406 0.500000 0.667706
O O20 0.468340 0.228509 0.624656
O O21 0.104088 0.500000 0.453863
#
# Coordination Sequence:
#
# PCOD8086027 Si02
#       8
#     8   8   8   8   8   8   8   8
#     4  11  20  30  47  69  92 119 154 197 242 287
#     4  10  22  39  55  71  96 130 163 196 242 297
#     4   9  16  26  39  55  79 110 147 189 232 278
#     4   9  15  22  32  48  72 104 145 187 225 271
#     4  10  19  31  47  67  93 122 156 196 239 286
#     4  11  21  33  53  76  98 124 158 201 245 289
#     4   8  15  25  36  52  76 109 145 184 227 272
#     4   9  15  21  31  47  71 105 143 183 226 273
#
# _framework density 17.384283
#
# number of rings (size 3 to 8) (size 9 to 14) (size 15 to 20)
#    0.000    2.375    1.250    3.750    0.000    7.250 
#    0.000    0.000    0.000    0.000    0.000    0.000 
#    0.000    0.000    0.000    1.125    0.000   22.250 
#
# Total GULP energy -396744.707698 kJ/mol
# GULP energy per Si atom -12398.272116 kJ/mol
# Density = 1.734472 g / cm^3
# Si number density = 17.384283 Si / 1000 Ang^3
#
#
#
# Elastic Constant Matrix: (Units=GPa)
#
#
# Indices 1 2 3 4 5 6 
#
# 1 40.8683 24.8817 29.2832 0.0000 0.7102 0.0000
# 2 24.8817 136.0687 80.1734 0.0000 5.2016 0.0000
# 3 29.2832 80.1734 162.5155 0.0000 13.9934 0.0000
# 4 0.0000 0.0000 0.0000 40.0331 0.0000 2.5884
# 5 0.7102 5.2016 13.9934 0.0000 9.5066 0.0000
# 6 0.0000 0.0000 0.0000 2.5884 0.0000 11.0696
#
#
#
# Elastic Compliance Matrix: (Units=1/GPa)
#
#
# Indices 1 2 3 4 5 6 
#
# 1 0.029288 -0.003065 -0.004261 0.000000 0.005762 0.000000
# 2 -0.003065 0.010719 -0.004867 0.000000 0.001529 0.000000
# 3 -0.004261 -0.004867 0.010381 0.000000 -0.012300 0.000000
# 4 0.000000 0.000000 0.000000 0.025363 0.000000 -0.005931
# 5 0.005762 0.001529 -0.012300 0.000000 0.122028 0.000000
# 6 0.000000 0.000000 0.000000 -0.005931 0.000000 0.091725
#
#
# Mechanical properties :
#
#
# Convention : Reuss Voigt Hill
#
# Bulk Modulus (GPa) = 38.45997 67.56991 53.01494
# Shear Modulus (GPa) = 15.50104 25.79612 20.64858
#
# Velocity S-wave (km/s) = 2.98932 3.85629 3.45015
# Velocity P-wave (km/s) = 5.83834 7.66686 6.81421
#
# Compressibility (1/GPa) = 0.02600106
#
# Stress axis : x y z
#
# Youngs Moduli (GPa) = 34.14340 93.29032 96.32613
#
# Poissons Ratio (x) = 0.28594 0.41049
# Poissons Ratio (y) = 0.10465 0.46886
# Poissons Ratio (z) = 0.14550 0.45408
#
# Static dielectric constant tensor:
#      x y z
#    x 2.575580 0.000000 0.174540 
#    y 0.000000 3.412740 0.000000 
#    z 0.174540 0.000000 3.644090 
# 
# 
# High freq. dielectric constant tensor:
#      x y z
#    x 1.580510 0.000000 0.012040 
#    y 0.000000 1.686550 0.000000 
#    z 0.012040 0.000000 1.694520 
# 
# From -- ./inp_files/365229.got.cif
#   From: 2010.06.25/outbox.cif.g09.slc.cpg/sg12_183_cif.got.tgz:365229.got - 2010.06.28 00:19:55.
