data_PCOD8086170
_publ_section_title
;
Structure prediction by ZEFSAII (Michael W. Deem and Ramdas Pophale) SiO2 
 PCOD8086170
Probable space group: C 2/M
;
_chemical_formula_sum "Si O2"
_cell_formula_units_Z 40
_cell_length_a 22.955846
_cell_length_b 9.114573
_cell_length_c 28.723942
_cell_angle_alpha 90.000000
_cell_angle_beta 157.587621
_cell_angle_gamma 90.000000
_cell_volume 2291.429194
_symmetry_space_group_name_H-M "C 2/M"
_symmetry_group_IT_number 12
_symmetry_cell_setting 'monoclinic'
loop_
_space_group_symop_operation_xyz
x,y,z
-x,y,-z
-x,-y,-z
x,-y,z
1/2+x,1/2+y,z
1/2-x,1/2+y,-z
1/2-x,1/2-y,-z
1/2+x,1/2-y,z
loop_
_atom_site_type_symbol
_atom_site_label
_atom_site_fract_x
_atom_site_fract_y
_atom_site_fract_z
Si Si1 0.055583 0.171489 0.398343
Si Si2 0.408165 0.326318 0.106322
Si Si3 0.484065 0.673415 0.060374
Si Si4 0.643334 0.329213 0.359357
Si Si5 0.253254 0.673820 0.812345
O O1 0.202193 0.237644 0.532695
O O2 0.063015 0.207624 0.348994
O O3 0.906716 0.244789 0.310201
O O4 0.050468 0.000000 0.404470
O O5 0.382740 0.500000 0.087206
O O6 0.469710 0.267084 0.102191
O O7 0.529488 0.278693 0.234773
O O8 0.250000 0.250000 0.000000
O O9 0.480006 0.500000 0.056476
O O10 0.644803 0.723326 0.156699
O O11 0.340953 0.728277 0.923702
O O12 0.685128 0.500000 0.386690
O O13 0.224953 0.500000 0.792173
#
# Coordination Sequence:
#
# PCOD8086170 Si02
#       5
#     8   8   8   8   8
#     4  10  19  31  48  70  94 121 156 196 234 270
#     4  10  19  32  50  72  97 122 151 189 233 277
#     4   8  16  30  49  72  95 122 156 189 223 274
#     4   9  19  33  48  68  94 124 157 190 227 277
#     4   9  16  30  51  71  93 123 157 189 225 272
#
# _framework density 17.456354999999999
#
# number of rings (size 3 to 8) (size 9 to 14) (size 15 to 20)
#    0.000    2.800    0.000    3.000    0.000    1.600 
#    0.000    4.000    0.000    6.000    0.000    0.000 
#    0.000    0.000    0.000    0.000    0.000    0.000 
#
# Total GULP energy -247990.636314 kJ/mol
# GULP energy per Si atom -12399.531816 kJ/mol
# Density = 1.741662 g / cm^3
# Si number density = 17.456355 Si / 1000 Ang^3
#
#
#
# Elastic Constant Matrix: (Units=GPa)
#
#
# Indices 1 2 3 4 5 6 
#
# 1 125.4722 37.1913 90.8298 0.0034 1.8491 -0.0001
# 2 37.1913 50.2221 57.4317 0.0023 8.9820 -0.0002
# 3 90.8298 57.4317 160.2130 0.0182 11.2357 -0.0016
# 4 0.0034 0.0023 0.0182 28.9062 0.0000 7.5473
# 5 1.8491 8.9820 11.2357 0.0000 34.0066 -0.0007
# 6 -0.0001 -0.0002 -0.0016 7.5473 -0.0007 21.3278
#
#
#
# Elastic Compliance Matrix: (Units=1/GPa)
#
#
# Indices 1 2 3 4 5 6 
#
# 1 0.013814 -0.002537 -0.007081 0.000003 0.002258 -0.000002
# 2 -0.002537 0.035073 -0.010744 0.000005 -0.005576 -0.000002
# 3 -0.007081 -0.010744 0.014211 -0.000008 -0.001473 0.000004
# 4 0.000003 0.000005 -0.000008 0.038116 0.000001 -0.013488
# 5 0.002258 -0.005576 -0.001473 0.000001 0.031243 0.000001
# 6 -0.000002 -0.000002 0.000004 -0.013488 0.000001 0.051660
#
#
# Mechanical properties :
#
#
# Convention : Reuss Voigt Hill
#
# Bulk Modulus (GPa) = 44.69076 78.53477 61.61276
# Shear Modulus (GPa) = 21.52406 26.87841 24.20124
#
# Velocity S-wave (km/s) = 3.51525 3.92822 3.72746
# Velocity P-wave (km/s) = 6.49099 8.10317 7.34147
#
# Compressibility (1/GPa) = 0.02237599
#
# Stress axis : x y z
#
# Youngs Moduli (GPa) = 72.38848 28.51190 70.37004
#
# Poissons Ratio (x) = 0.07232 0.49828
# Poissons Ratio (y) = 0.18362 0.75603
# Poissons Ratio (z) = 0.51257 0.30632
#
# Static dielectric constant tensor:
#      x y z
#    x 3.606040 0.000000 -0.080390 
#    y 0.000000 2.998850 0.000000 
#    z -0.080390 0.000000 3.240910 
# 
# 
# High freq. dielectric constant tensor:
#      x y z
#    x 1.672270 0.000000 0.006550 
#    y 0.000000 1.653260 0.000000 
#    z 0.006550 0.000000 1.677410 
# 
# From -- ./inp_files/162352.got.cif
#   From: 2010.06.25/outbox.cif.g09.slc.cpg/sg12_82_cif.got.tgz:162352.got - 2010.06.28 00:19:55.
