data_PCOD8086524
_publ_section_title
;
Structure prediction by ZEFSAII (Michael W. Deem and Ramdas Pophale) SiO2 
 PCOD8086524
Probable space group: C 2/M
;
_chemical_formula_sum "Si O2"
_cell_formula_units_Z 64
_cell_length_a 17.507653
_cell_length_b 14.321636
_cell_length_c 14.427627
_cell_angle_alpha 90.000000
_cell_angle_beta 62.089462
_cell_angle_gamma 90.000000
_cell_volume 3196.761775
_symmetry_space_group_name_H-M "C 2/M"
_symmetry_group_IT_number 12
_symmetry_cell_setting 'monoclinic'
loop_
_space_group_symop_operation_xyz
x,y,z
-x,y,-z
-x,-y,-z
x,-y,z
1/2+x,1/2+y,z
1/2-x,1/2+y,-z
1/2-x,1/2-y,-z
1/2+x,1/2-y,z
loop_
_atom_site_type_symbol
_atom_site_label
_atom_site_fract_x
_atom_site_fract_y
_atom_site_fract_z
Si Si1 0.705540 0.892842 0.723608
Si Si2 0.320872 0.605167 0.117733
Si Si3 0.821544 0.394356 0.658437
Si Si4 0.368640 0.607188 0.746493
Si Si5 0.266776 0.106162 0.022418
Si Si6 0.975169 0.733114 0.618595
Si Si7 0.132644 0.607584 0.571013
Si Si8 0.401473 0.207221 0.064354
O O1 0.803331 0.869266 0.698520
O O2 0.697033 0.871701 0.619474
O O3 0.636606 0.832055 0.818729
O O4 0.685186 0.000000 0.759351
O O5 0.359116 0.500000 0.089314
O O6 0.271703 0.621805 0.242680
O O7 0.397758 0.679781 0.067779
O O8 0.251654 0.622648 0.074963
O O9 0.852995 0.500000 0.656126
O O10 0.890839 0.330672 0.669694
O O11 0.814257 0.372057 0.553155
O O12 0.400005 0.500000 0.725803
O O13 0.319828 0.629995 0.870250
O O14 0.453308 0.672134 0.687475
O O15 0.346566 0.170689 0.007699
O O16 0.293961 0.000000 0.028187
O O17 0.000000 0.759496 0.500000
O O18 0.051232 0.676526 0.625725
O O19 0.099917 0.500000 0.591830
O O20 0.500000 0.174927 0.000000
#
# Coordination Sequence:
#
# PCOD8086524 Si02
#       8
#     8   8   8   8   8   8   8   8
#     4   9  19  36  56  77 103 136 171 208 255 309
#     4  10  21  37  56  76 100 137 181 214 246 299
#     4   9  17  31  52  76 102 132 169 213 255 300
#     4   9  18  34  54  74 102 139 175 210 247 297
#     4   9  19  36  57  78 100 132 175 218 256 299
#     4  10  19  31  49  77 108 136 168 211 258 301
#     4   9  18  33  54  80 106 131 164 211 265 308
#     4  11  22  34  52  79 110 137 164 210 263 309
#
# _framework density 20.020258999999999
#
# number of rings (size 3 to 8) (size 9 to 14) (size 15 to 20)
#    0.000    2.500    0.000    3.375    0.000    5.000 
#    0.000    8.125    0.000    0.750    0.000    0.000 
#    0.000    0.000    0.000    0.000    0.000    0.000 
#
# Total GULP energy -396793.246301 kJ/mol
# GULP energy per Si atom -12399.788947 kJ/mol
# Density = 1.997469 g / cm^3
# Si number density = 20.020259 Si / 1000 Ang^3
#
#
#
# Elastic Constant Matrix: (Units=GPa)
#
#
# Indices 1 2 3 4 5 6 
#
# 1 44.1815 28.8817 31.9526 0.0000 5.8666 0.0000
# 2 28.8817 99.2508 38.3032 0.0000 -9.5996 0.0000
# 3 31.9526 38.3032 70.1650 0.0000 9.4297 0.0000
# 4 0.0000 0.0000 0.0000 25.6677 0.0000 -6.1082
# 5 5.8666 -9.5996 9.4297 0.0000 28.0487 0.0000
# 6 0.0000 0.0000 0.0000 -6.1082 0.0000 22.3479
#
#
#
# Elastic Compliance Matrix: (Units=1/GPa)
#
#
# Indices 1 2 3 4 5 6 
#
# 1 0.036520 -0.006399 -0.012376 0.000000 -0.005668 0.000000
# 2 -0.006399 0.015362 -0.006659 0.000000 0.008835 0.000000
# 3 -0.012376 -0.006659 0.024593 0.000000 -0.007959 0.000000
# 4 0.000000 0.000000 0.000000 0.041670 0.000000 0.011389
# 5 -0.005668 0.008835 -0.007959 0.000000 0.042537 0.000000
# 6 0.000000 0.000000 0.000000 0.011389 0.000000 0.047860
#
#
# Mechanical properties :
#
#
# Convention : Reuss Voigt Hill
#
# Bulk Modulus (GPa) = 39.05312 45.76359 42.40836
# Shear Modulus (GPa) = 18.66040 22.84351 20.75196
#
# Velocity S-wave (km/s) = 3.05630 3.38156 3.22304
# Velocity P-wave (km/s) = 5.65719 6.17696 5.92278
#
# Compressibility (1/GPa) = 0.02560615
#
# Stress axis : x y z
#
# Youngs Moduli (GPa) = 27.38208 65.09465 40.66201
#
# Poissons Ratio (x) = 0.41656 0.50323
# Poissons Ratio (y) = 0.17523 0.27079
# Poissons Ratio (z) = 0.33888 0.43349
#
# Static dielectric constant tensor:
#      x y z
#    x 3.309380 0.000000 0.179520 
#    y 0.000000 3.813380 0.000000 
#    z 0.179520 0.000000 3.597000 
# 
# 
# High freq. dielectric constant tensor:
#      x y z
#    x 1.743240 0.000000 0.013670 
#    y 0.000000 1.795910 0.000000 
#    z 0.013670 0.000000 1.778950 
# 
# From -- ./inp_files/225240.got.cif
#   From: 2010.06.25/outbox.cif.g09.slc.cpg/sg12_113_cif.got.tgz:225240.got - 2010.06.28 00:19:55.
