data_PCOD8086220
_publ_section_title
;
Structure prediction by ZEFSAII (Michael W. Deem and Ramdas Pophale) SiO2 
 PCOD8086220
Probable space group: C 2/M
;
_chemical_formula_sum "Si O2"
_cell_formula_units_Z 64
_cell_length_a 17.217769
_cell_length_b 13.916479
_cell_length_c 18.574814
_cell_angle_alpha 90.000000
_cell_angle_beta 125.844343
_cell_angle_gamma 90.000000
_cell_volume 3607.805667
_symmetry_space_group_name_H-M "C 2/M"
_symmetry_group_IT_number 12
_symmetry_cell_setting 'monoclinic'
loop_
_space_group_symop_operation_xyz
x,y,z
-x,y,-z
-x,-y,-z
x,-y,z
1/2+x,1/2+y,z
1/2-x,1/2+y,-z
1/2-x,1/2-y,-z
1/2+x,1/2-y,z
loop_
_atom_site_type_symbol
_atom_site_label
_atom_site_fract_x
_atom_site_fract_y
_atom_site_fract_z
Si Si1 0.051561 0.252842 0.165275
Si Si2 0.481161 0.610920 0.568400
Si Si3 0.295814 0.780333 0.638797
Si Si4 0.360335 0.109270 0.895734
Si Si5 0.714875 0.386335 0.468480
Si Si6 0.689429 0.609007 0.701847
Si Si7 0.607505 0.606378 0.086198
Si Si8 0.654167 0.746393 0.992377
O O1 0.097809 0.278043 0.267784
O O2 0.063441 0.340304 0.115512
O O3 0.109194 0.161385 0.163569
O O4 0.938043 0.230100 0.109960
O O5 0.500000 0.657948 0.500000
O O6 0.455625 0.500000 0.543309
O O7 0.389148 0.652753 0.559910
O O8 0.579374 0.627132 0.666465
O O9 0.266778 0.673630 0.594940
O O10 0.293833 0.856061 0.571204
O O11 0.219639 0.815693 0.656793
O O12 0.253073 0.121994 0.806948
O O13 0.361669 0.153262 0.975679
O O14 0.392483 0.000000 0.919232
O O15 0.719918 0.500000 0.454865
O O16 0.700173 0.500000 0.676484
O O17 0.650601 0.500000 0.120364
O O18 0.668290 0.662000 0.058787
O O19 0.500000 0.602722 0.000000
O O20 0.750000 0.750000 0.000000
#
# Coordination Sequence:
#
# PCOD8086220 Si02
#       8
#     8   8   8   8   8   8   8   8
#     4   9  19  33  49  70  93 123 164 198 230 282
#     4   9  15  26  46  69  94 119 148 194 242 279
#     4  10  19  31  48  71  96 127 157 191 243 284
#     4   9  18  32  50  71  97 129 163 196 229 276
#     4  10  20  32  47  72 101 124 154 196 242 289
#     4   9  16  29  51  76  97 121 158 198 238 285
#     4   8  15  31  52  69  88 120 156 189 230 278
#     4  10  20  32  47  71 101 125 154 198 240 281
#
# _framework density 17.739314
#
# number of rings (size 3 to 8) (size 9 to 14) (size 15 to 20)
#    0.000    2.750    1.250    1.500    0.000    3.500 
#    0.000    0.000    0.000    0.000    0.000    7.875 
#    0.000    0.000    0.000    0.000    0.000    0.000 
#
# Total GULP energy -396577.350641 kJ/mol
# GULP energy per Si atom -12393.042208 kJ/mol
# Density = 1.769894 g / cm^3
# Si number density = 17.739314 Si / 1000 Ang^3
#
#
#
# Elastic Constant Matrix: (Units=GPa)
#
#
# Indices 1 2 3 4 5 6 
#
# 1 77.7906 36.3510 44.3498 0.0000 8.8789 0.0000
# 2 36.3510 117.2513 25.5601 0.0000 -5.0006 0.0000
# 3 44.3498 25.5601 89.7198 0.0000 8.5109 0.0000
# 4 0.0000 0.0000 0.0000 20.6116 0.0000 -0.1013
# 5 8.8789 -5.0006 8.5109 0.0000 22.4089 0.0000
# 6 0.0000 0.0000 0.0000 -0.1013 0.0000 15.1466
#
#
#
# Elastic Compliance Matrix: (Units=1/GPa)
#
#
# Indices 1 2 3 4 5 6 
#
# 1 0.020455 -0.004822 -0.008161 0.000000 -0.006081 0.000000
# 2 -0.004822 0.010446 -0.001032 0.000000 0.004634 0.000000
# 3 -0.008161 -0.001032 0.015756 0.000000 -0.002981 0.000000
# 4 0.000000 0.000000 0.000000 0.048518 0.000000 0.000324
# 5 -0.006081 0.004634 -0.002981 0.000000 0.049201 0.000000
# 6 0.000000 0.000000 0.000000 0.000324 0.000000 0.066024
#
#
# Mechanical properties :
#
#
# Convention : Reuss Voigt Hill
#
# Bulk Modulus (GPa) = 53.68090 55.25372 54.46731
# Shear Modulus (GPa) = 20.43832 23.53348 21.98590
#
# Velocity S-wave (km/s) = 3.39801 3.64624 3.52431
# Velocity P-wave (km/s) = 6.76180 6.99586 6.87983
#
# Compressibility (1/GPa) = 0.01862860
#
# Stress axis : x y z
#
# Youngs Moduli (GPa) = 48.88810 95.72854 63.46589
#
# Poissons Ratio (x) = 0.46160 0.51792
# Poissons Ratio (y) = 0.23574 0.06550
# Poissons Ratio (z) = 0.39895 0.09879
#
# Static dielectric constant tensor:
#      x y z
#    x 3.088290 0.000000 0.144320 
#    y 0.000000 3.628470 0.000000 
#    z 0.144320 0.000000 3.373970 
# 
# 
# High freq. dielectric constant tensor:
#      x y z
#    x 1.653790 0.000000 0.010380 
#    y 0.000000 1.675050 0.000000 
#    z 0.010380 0.000000 1.688930 
# 
# From -- ./inp_files/270351.got.cif
#   From: 2010.06.25/outbox.cif.g09.slc.cpg/sg12_136_cif.got.tgz:270351.got - 2010.06.28 00:19:55.
