data_PCOD8086583
_publ_section_title
;
Structure prediction by ZEFSAII (Michael W. Deem and Ramdas Pophale) SiO2 
 PCOD8086583
Probable space group: C 2/M
;
_chemical_formula_sum "Si O2"
_cell_formula_units_Z 52
_cell_length_a 18.915916
_cell_length_b 21.566793
_cell_length_c 14.770395
_cell_angle_alpha 90.000000
_cell_angle_beta 149.952297
_cell_angle_gamma 90.000000
_cell_volume 3017.176653
_symmetry_space_group_name_H-M "C 2/M"
_symmetry_group_IT_number 12
_symmetry_cell_setting 'monoclinic'
loop_
_space_group_symop_operation_xyz
x,y,z
-x,y,-z
-x,-y,-z
x,-y,z
1/2+x,1/2+y,z
1/2-x,1/2+y,-z
1/2-x,1/2-y,-z
1/2+x,1/2-y,z
loop_
_atom_site_type_symbol
_atom_site_label
_atom_site_fract_x
_atom_site_fract_y
_atom_site_fract_z
Si Si1 0.622411 0.322345 0.484071
Si Si2 0.366220 0.071525 0.073300
Si Si3 0.500000 0.763465 0.500000
Si Si4 0.815544 0.327111 0.148939
Si Si5 0.453427 0.258631 0.154403
Si Si6 0.944882 0.349120 0.841715
Si Si7 0.060589 0.069087 0.667073
O O1 0.596775 0.280949 0.545231
O O2 0.592792 0.281905 0.361573
O O3 0.776681 0.350940 0.654590
O O4 0.513449 0.379292 0.354226
O O5 0.338771 0.101908 0.142285
O O6 0.499624 0.102435 0.171318
O O7 0.401547 0.000000 0.129457
O O8 0.228890 0.080620 0.856779
O O9 0.403954 0.809546 0.335370
O O10 0.862250 0.286771 0.115325
O O11 0.650640 0.314705 0.989418
O O12 0.503521 0.220900 0.121844
O O13 0.000000 0.370385 0.000000
O O14 0.000000 0.077219 0.500000
O O15 0.026596 0.000000 0.666369
#
# Coordination Sequence:
#
# PCOD8086583 Si02
#       7
#     8   8   4   8   8   8   8
#     4  11  19  32  51  75 106 134 174 207 255 306
#     4  10  21  37  53  72 102 140 175 212 252 299
#     4  10  20  30  56  80 104 130 170 212 258 310
#     4   9  17  33  53  76 100 133 171 211 256 298
#     4   9  18  31  50  72 103 136 167 209 253 306
#     4  11  22  31  48  75 108 136 166 207 263 307
#     4  10  19  31  50  73  99 135 176 208 243 297
#
# _framework density 17.234655
#
# number of rings (size 3 to 8) (size 9 to 14) (size 15 to 20)
#    0.000    2.000    2.308    2.308    2.154    0.923 
#    0.000    0.385    0.000    0.000    0.000    0.000 
#    0.000    3.692    0.000    0.000    0.000    0.000 
#
# Total GULP energy -322345.749490 kJ/mol
# GULP energy per Si atom -12397.913442 kJ/mol
# Density = 1.719543 g / cm^3
# Si number density = 17.234655 Si / 1000 Ang^3
#
#
#
# Elastic Constant Matrix: (Units=GPa)
#
#
# Indices 1 2 3 4 5 6 
#
# 1 51.8085 38.4299 29.9370 0.0000 1.4753 0.0000
# 2 38.4299 103.4634 34.2677 0.0000 2.1964 0.0000
# 3 29.9370 34.2677 88.7666 0.0000 9.8897 0.0000
# 4 0.0000 0.0000 0.0000 15.1492 0.0000 -2.6741
# 5 1.4753 2.1964 9.8897 0.0000 25.2303 0.0000
# 6 0.0000 0.0000 0.0000 -2.6741 0.0000 17.0838
#
#
#
# Elastic Compliance Matrix: (Units=1/GPa)
#
#
# Indices 1 2 3 4 5 6 
#
# 1 0.029735 -0.008825 -0.006811 0.000000 0.001699 0.000000
# 2 -0.008825 0.013715 -0.002345 0.000000 0.000241 0.000000
# 3 -0.006811 -0.002345 0.015058 0.000000 -0.005300 0.000000
# 4 0.000000 0.000000 0.000000 0.067886 0.000000 0.010626
# 5 0.001699 0.000241 -0.005300 0.000000 0.041592 0.000000
# 6 0.000000 0.000000 0.000000 0.010626 0.000000 0.060198
#
#
# Mechanical properties :
#
#
# Convention : Reuss Voigt Hill
#
# Bulk Modulus (GPa) = 44.35300 49.92306 47.13803
# Shear Modulus (GPa) = 18.40527 20.91959 19.66243
#
# Velocity S-wave (km/s) = 3.27145 3.48776 3.38133
# Velocity P-wave (km/s) = 6.32934 6.72672 6.53105
#
# Compressibility (1/GPa) = 0.02254639
#
# Stress axis : x y z
#
# Youngs Moduli (GPa) = 33.63027 72.91426 66.40863
#
# Poissons Ratio (x) = 0.64346 0.45230
# Poissons Ratio (y) = 0.29679 0.15573
# Poissons Ratio (z) = 0.22905 0.17099
#
# Static dielectric constant tensor:
#      x y z
#    x 3.060920 0.000000 0.047850 
#    y 0.000000 3.337080 0.000000 
#    z 0.047850 0.000000 3.190590 
# 
# 
# High freq. dielectric constant tensor:
#      x y z
#    x 1.638070 0.000000 0.006860 
#    y 0.000000 1.657870 0.000000 
#    z 0.006860 0.000000 1.672180 
# 
# From -- ./inp_files/113550.got.cif
#   From: 2010.06.25/outbox.cif.g09.slc.cpg/sg12_57_cif.got.tgz:113550.got - 2010.06.28 00:19:55.
