data_PCOD8086659
_publ_section_title
;
Structure prediction by ZEFSAII (Michael W. Deem and Ramdas Pophale) SiO2 
 PCOD8086659
Probable space group: C 2/M
;
_chemical_formula_sum "Si O2"
_cell_formula_units_Z 64
_cell_length_a 24.017038
_cell_length_b 9.038979
_cell_length_c 25.201690
_cell_angle_alpha 90.000000
_cell_angle_beta 135.589873
_cell_angle_gamma 90.000000
_cell_volume 3828.564598
_symmetry_space_group_name_H-M "C 2/M"
_symmetry_group_IT_number 12
_symmetry_cell_setting 'monoclinic'
loop_
_space_group_symop_operation_xyz
x,y,z
-x,y,-z
-x,-y,-z
x,-y,z
1/2+x,1/2+y,z
1/2-x,1/2+y,-z
1/2-x,1/2-y,-z
1/2+x,1/2-y,z
loop_
_atom_site_type_symbol
_atom_site_label
_atom_site_fract_x
_atom_site_fract_y
_atom_site_fract_z
Si Si1 0.700847 0.824586 0.312688
Si Si2 0.114991 0.670749 0.968116
Si Si3 0.751771 0.326311 0.127323
Si Si4 0.476320 0.671576 0.925593
Si Si5 0.292442 0.328739 0.786674
Si Si6 0.279731 0.667490 0.571812
Si Si7 0.435413 0.332829 0.730905
Si Si8 0.097459 0.329620 0.835911
O O1 0.740175 0.769797 0.284338
O O2 0.750707 0.754633 0.396033
O O3 0.609213 0.763008 0.253516
O O4 0.702041 0.000000 0.317122
O O5 0.114203 0.500000 0.983013
O O6 0.027702 0.738104 0.918023
O O7 0.133890 0.695783 0.919046
O O8 0.180605 0.748384 0.048406
O O9 0.736700 0.500000 0.110157
O O10 0.752528 0.282689 0.189908
O O11 0.836023 0.276962 0.160515
O O12 0.496256 0.500000 0.931439
O O13 0.384588 0.707780 0.856330
O O14 0.500000 0.725919 0.000000
O O15 0.277815 0.500000 0.763134
O O16 0.246322 0.500000 0.549587
O O17 0.250000 0.750000 0.500000
O O18 0.376752 0.666842 0.639435
O O19 0.447159 0.500000 0.760576
O O20 0.519399 0.266014 0.771553
O O21 0.074229 0.500000 0.811413
#
# Coordination Sequence:
#
# PCOD8086659 Si02
#       8
#     8   8   8   8   8   8   8   8
#     4  10  19  31  50  75 105 133 159 197 243 292
#     4  11  22  33  47  71  96 123 165 219 268 306
#     4  10  21  37  52  66  91 132 177 216 255 305
#     4  10  19  33  50  66  87 124 167 206 256 312
#     4  10  19  33  50  68  93 127 169 210 250 301
#     4   9  18  32  52  81 111 137 163 191 236 292
#     4   9  19  33  51  76 104 133 165 197 240 297
#     4  10  21  35  51  71  96 129 171 215 258 299
#
# _framework density 16.716446999999999
#
# number of rings (size 3 to 8) (size 9 to 14) (size 15 to 20)
#    0.750    1.375    1.250    3.000    0.000    4.750 
#    0.000    0.000    0.000    0.000    0.000    0.875 
#    0.000    7.000    0.000    0.000    0.000    0.000 
#
# Total GULP energy -396682.434738 kJ/mol
# GULP energy per Si atom -12396.326086 kJ/mol
# Density = 1.667840 g / cm^3
# Si number density = 16.716447 Si / 1000 Ang^3
#
#
#
# Elastic Constant Matrix: (Units=GPa)
#
#
# Indices 1 2 3 4 5 6 
#
# 1 102.7769 42.5990 28.7265 0.0000 -22.2024 0.0000
# 2 42.5990 95.7849 34.5696 0.0000 -16.2480 0.0000
# 3 28.7265 34.5696 62.9676 0.0000 -24.8761 0.0000
# 4 0.0000 0.0000 0.0000 28.8472 0.0000 -2.0605
# 5 -22.2024 -16.2480 -24.8761 0.0000 22.9391 0.0000
# 6 0.0000 0.0000 0.0000 -2.0605 0.0000 22.6907
#
#
#
# Elastic Compliance Matrix: (Units=1/GPa)
#
#
# Indices 1 2 3 4 5 6 
#
# 1 0.013755 -0.004450 0.000319 0.000000 0.010507 0.000000
# 2 -0.004450 0.014547 -0.006276 0.000000 -0.000809 0.000000
# 3 0.000319 -0.006276 0.030699 0.000000 0.029155 0.000000
# 4 0.000000 0.000000 0.000000 0.034892 0.000000 0.003168
# 5 0.010507 -0.000809 0.029155 0.000000 0.084807 0.000000
# 6 0.000000 0.000000 0.000000 0.003168 0.000000 0.044359
#
#
# Mechanical properties :
#
#
# Convention : Reuss Voigt Hill
#
# Bulk Modulus (GPa) = 26.18707 52.59108 39.38907
# Shear Modulus (GPa) = 19.48548 25.27101 22.37825
#
# Velocity S-wave (km/s) = 3.41786 3.89234 3.66279
# Velocity P-wave (km/s) = 5.59242 7.19231 6.44222
#
# Compressibility (1/GPa) = 0.03818679
#
# Stress axis : x y z
#
# Youngs Moduli (GPa) = 72.70126 68.74304 32.57420
#
# Poissons Ratio (x) = 0.30591 -0.01039
# Poissons Ratio (y) = 0.32353 0.20443
# Poissons Ratio (z) = -0.02318 0.43142
#
# Static dielectric constant tensor:
#      x y z
#    x 3.165230 0.000000 -0.179630 
#    y 0.000000 3.135850 0.000000 
#    z -0.179630 0.000000 2.930620 
# 
# 
# High freq. dielectric constant tensor:
#      x y z
#    x 1.626770 0.000000 -0.019100 
#    y 0.000000 1.650710 0.000000 
#    z -0.019100 0.000000 1.623000 
# 
# From -- ./inp_files/348616.got.cif
#   From: 2010.06.25/outbox.cif.g09.slc.cpg/sg12_175_cif.got.tgz:348616.got - 2010.06.28 00:19:55.
