data_PCOD8086207
_publ_section_title
;
Structure prediction by ZEFSAII (Michael W. Deem and Ramdas Pophale) SiO2 
 PCOD8086207
Probable space group: C 2/M
;
_chemical_formula_sum "Si O2"
_cell_formula_units_Z 64
_cell_length_a 27.655363
_cell_length_b 8.930399
_cell_length_c 26.153355
_cell_angle_alpha 90.000000
_cell_angle_beta 146.404171
_cell_angle_gamma 90.000000
_cell_volume 3574.066007
_symmetry_space_group_name_H-M "C 2/M"
_symmetry_group_IT_number 12
_symmetry_cell_setting 'monoclinic'
loop_
_space_group_symop_operation_xyz
x,y,z
-x,y,-z
-x,-y,-z
x,-y,z
1/2+x,1/2+y,z
1/2-x,1/2+y,-z
1/2-x,1/2-y,-z
1/2+x,1/2-y,z
loop_
_atom_site_type_symbol
_atom_site_label
_atom_site_fract_x
_atom_site_fract_y
_atom_site_fract_z
Si Si1 0.005009 0.667166 0.944079
Si Si2 0.681683 0.676581 0.105964
Si Si3 0.172005 0.176290 0.214677
Si Si4 0.672796 0.328236 0.460268
Si Si5 0.272399 0.823748 0.641768
Si Si6 0.065999 0.176680 0.274792
Si Si7 0.771128 0.825944 0.097011
Si Si8 0.114509 0.674242 0.882091
O O1 0.006244 0.500000 0.920861
O O2 0.922191 0.759628 0.851185
O O3 0.092423 0.753583 0.005296
O O4 0.000000 0.655280 0.000000
O O5 0.677055 0.500000 0.094546
O O6 0.696538 0.720255 0.178316
O O7 0.760803 0.745760 0.142892
O O8 0.242110 0.251491 0.314847
O O9 0.170318 0.000000 0.220447
O O10 0.693112 0.500000 0.470131
O O11 0.750000 0.250000 0.500000
O O12 0.683048 0.290634 0.530020
O O13 0.582681 0.289719 0.350851
O O14 0.355601 0.745293 0.688980
O O15 0.290168 0.000000 0.662742
O O16 0.976579 0.255974 0.179560
O O17 0.059265 0.000000 0.257864
O O18 0.854587 0.755372 0.142517
O O19 0.789128 0.000000 0.121578
O O20 0.684154 0.795563 0.987806
O O21 0.103163 0.500000 0.860429
#
# Coordination Sequence:
#
# PCOD8086207 Si02
#       8
#     8   8   8   8   8   8   8   8
#     4   9  17  29  44  62  87 120 159 199 234 274
#     4  10  20  33  49  67  93 127 162 200 243 287
#     4  10  20  32  45  67  96 128 164 199 237 286
#     4   8  16  30  47  69  96 127 160 196 237 285
#     4  10  19  31  48  71 101 132 164 201 239 282
#     4  10  19  32  51  73  99 130 163 197 241 293
#     4  10  21  36  53  71  95 126 163 204 245 284
#     4  10  21  36  52  73  98 124 160 202 244 288
#
# _framework density 17.906777000000002
#
# number of rings (size 3 to 8) (size 9 to 14) (size 15 to 20)
#    0.000    2.375    0.000    2.625    1.750    5.500 
#    0.000    0.000    0.000    0.000    0.000    0.875 
#    0.000    7.000    0.000    0.000    0.000    0.000 
#
# Total GULP energy -396593.868605 kJ/mol
# GULP energy per Si atom -12393.558394 kJ/mol
# Density = 1.786602 g / cm^3
# Si number density = 17.906777 Si / 1000 Ang^3
#
#
#
# Elastic Constant Matrix: (Units=GPa)
#
#
# Indices 1 2 3 4 5 6 
#
# 1 66.2274 28.9306 5.4826 0.0000 -8.5331 0.0000
# 2 28.9306 90.8114 21.7945 0.0000 -8.7711 0.0000
# 3 5.4826 21.7945 40.5110 0.0000 -14.6489 0.0000
# 4 0.0000 0.0000 0.0000 21.9105 0.0000 -2.9270
# 5 -8.5331 -8.7711 -14.6489 0.0000 24.0680 0.0000
# 6 0.0000 0.0000 0.0000 -2.9270 0.0000 29.5105
#
#
#
# Elastic Compliance Matrix: (Units=1/GPa)
#
#
# Indices 1 2 3 4 5 6 
#
# 1 0.018227 -0.005920 0.002916 0.000000 0.006080 0.000000
# 2 -0.005920 0.014574 -0.007536 0.000000 -0.001375 0.000000
# 3 0.002916 -0.007536 0.035549 0.000000 0.019924 0.000000
# 4 0.000000 0.000000 0.000000 0.046253 0.000000 0.004588
# 5 0.006080 -0.001375 0.019924 0.000000 0.055330 0.000000
# 6 0.000000 0.000000 0.000000 0.004588 0.000000 0.034341
#
#
# Mechanical properties :
#
#
# Convention : Reuss Voigt Hill
#
# Bulk Modulus (GPa) = 21.15457 34.44059 27.79758
# Shear Modulus (GPa) = 20.73734 24.52062 22.62898
#
# Velocity S-wave (km/s) = 3.40674 3.70449 3.55873
# Velocity P-wave (km/s) = 5.22627 6.12965 5.69590
#
# Compressibility (1/GPa) = 0.04727112
#
# Stress axis : x y z
#
# Youngs Moduli (GPa) = 54.86270 68.61712 28.13001
#
# Poissons Ratio (x) = 0.40618 -0.08204
# Poissons Ratio (y) = 0.32476 0.21200
# Poissons Ratio (z) = -0.16000 0.51713
#
# Static dielectric constant tensor:
#      x y z
#    x 3.228530 0.000000 -0.385920 
#    y 0.000000 3.397390 0.000000 
#    z -0.385920 0.000000 3.566490 
# 
# 
# High freq. dielectric constant tensor:
#      x y z
#    x 1.671670 0.000000 -0.030010 
#    y 0.000000 1.711700 0.000000 
#    z -0.030010 0.000000 1.668220 
# 
# From -- ./inp_files/384585.got.cif
#   From: 2010.06.25/outbox.cif.g09.slc.cpg/sg12_193_cif.got.tgz:384585.got - 2010.06.28 00:19:55.
