data_PCOD8086713
_publ_section_title
;
Structure prediction by ZEFSAII (Michael W. Deem and Ramdas Pophale) SiO2 
 PCOD8086713
Probable space group: C 2/M
;
_chemical_formula_sum "Si O2"
_cell_formula_units_Z 56
_cell_length_a 21.512561
_cell_length_b 9.462814
_cell_length_c 28.196075
_cell_angle_alpha 90.000000
_cell_angle_beta 30.027599
_cell_angle_gamma 90.000000
_cell_volume 2872.322618
_symmetry_space_group_name_H-M "C 2/M"
_symmetry_group_IT_number 12
_symmetry_cell_setting 'monoclinic'
loop_
_space_group_symop_operation_xyz
x,y,z
-x,y,-z
-x,-y,-z
x,-y,z
1/2+x,1/2+y,z
1/2-x,1/2+y,-z
1/2-x,1/2-y,-z
1/2+x,1/2-y,z
loop_
_atom_site_type_symbol
_atom_site_label
_atom_site_fract_x
_atom_site_fract_y
_atom_site_fract_z
Si Si1 0.104006 0.160181 0.397942
Si Si2 0.839787 0.659269 0.802855
Si Si3 0.489386 0.845926 0.615446
Si Si4 0.267419 0.664751 0.440571
Si Si5 0.029721 0.331966 0.752577
Si Si6 0.620612 0.839561 0.789951
Si Si7 0.369025 0.163828 0.111307
O O1 0.100037 0.232625 0.349534
O O2 0.243848 0.174601 0.324497
O O3 0.000000 0.233604 0.500000
O O4 0.064179 0.000000 0.415994
O O5 0.786174 0.500000 0.838665
O O6 0.964282 0.669985 0.688220
O O7 0.731801 0.760114 0.855389
O O8 0.893823 0.700115 0.819374
O O9 0.631832 0.825834 0.506201
O O10 0.444161 0.000000 0.628459
O O11 0.303876 0.500000 0.425788
O O12 0.250000 0.750000 0.500000
O O13 0.365909 0.738464 0.341605
O O14 0.061549 0.500000 0.727094
O O15 0.027000 0.284647 0.810444
O O16 0.618561 0.766620 0.843592
O O17 0.585581 0.000000 0.824183
O O18 0.328663 0.000000 0.141310
O O19 0.500000 0.183391 0.000000
#
# Coordination Sequence:
#
# PCOD8086713 Si02
#       7
#     8   8   8   8   8   8   8
#     4  10  19  31  50  77 105 141 189 228 267 322
#     4  10  20  36  57  81 109 142 181 226 279 334
#     4  10  20  33  48  73 107 144 185 227 273 321
#     4  11  21  33  49  75 113 154 197 233 272 324
#     4  10  20  37  57  79 112 150 191 232 276 331
#     4   9  18  34  56  81 110 145 184 231 282 328
#     4  10  21  39  63  88 111 140 184 234 284 340
#
# _framework density 19.496417999999998
#
# number of rings (size 3 to 8) (size 9 to 14) (size 15 to 20)
#    0.000    2.000    2.857    1.286    0.000    3.429 
#    0.000    2.143    0.000    0.000    0.000    0.000 
#    0.000    0.000    0.000    0.000    0.000    0.000 
#
# Total GULP energy -346871.823181 kJ/mol
# GULP energy per Si atom -12388.279399 kJ/mol
# Density = 1.945204 g / cm^3
# Si number density = 19.496418 Si / 1000 Ang^3
#
#
#
# Elastic Constant Matrix: (Units=GPa)
#
#
# Indices 1 2 3 4 5 6 
#
# 1 168.4526 53.3685 43.8465 -0.0036 -7.8191 0.0068
# 2 53.3685 69.6884 27.8003 -0.0076 -8.2161 0.0193
# 3 43.8465 27.8003 65.0704 -0.0047 -2.7573 -0.0025
# 4 -0.0036 -0.0076 -0.0047 20.9902 0.0002 -4.3031
# 5 -7.8191 -8.2161 -2.7573 0.0002 22.1906 -0.0024
# 6 0.0068 0.0193 -0.0025 -4.3031 -0.0024 26.5346
#
#
#
# Elastic Compliance Matrix: (Units=1/GPa)
#
#
# Indices 1 2 3 4 5 6 
#
# 1 0.008474 -0.004992 -0.003548 -0.000001 0.000697 0.000001
# 2 -0.004992 0.020937 -0.005356 0.000003 0.005328 -0.000013
# 3 -0.003548 -0.005356 0.020015 0.000003 -0.000746 0.000007
# 4 -0.000001 0.000003 0.000003 0.049280 0.000001 0.007992
# 5 0.000697 0.005328 -0.000746 0.000001 0.047190 0.000000
# 6 0.000001 -0.000013 0.000007 0.007992 0.000000 0.038983
#
#
# Mechanical properties :
#
#
# Convention : Reuss Voigt Hill
#
# Bulk Modulus (GPa) = 46.22032 61.47134 53.84583
# Shear Modulus (GPa) = 22.73974 25.82281 24.28127
#
# Velocity S-wave (km/s) = 3.41890 3.64330 3.53288
# Velocity P-wave (km/s) = 6.27246 7.02113 6.65732
#
# Compressibility (1/GPa) = 0.02163551
#
# Stress axis : x y z
#
# Youngs Moduli (GPa) = 118.01306 47.76227 49.96279
#
# Poissons Ratio (x) = 0.23842 0.17725
# Poissons Ratio (y) = 0.58911 0.26758
# Poissons Ratio (z) = 0.41866 0.25579
#
# Static dielectric constant tensor:
#      x y z
#    x 3.755230 0.000000 0.067850 
#    y 0.000000 3.459100 0.000000 
#    z 0.067850 0.000000 3.392560 
# 
# 
# High freq. dielectric constant tensor:
#      x y z
#    x 1.769510 0.000000 -0.002000 
#    y 0.000000 1.739380 0.000000 
#    z -0.002000 0.000000 1.731780 
# 
# From -- ./inp_files/380613.got.cif
#   From: 2010.06.25/outbox.cif.g09.slc.cpg/sg12_191_cif.got.tgz:380613.got - 2010.06.28 00:19:55.
