data_PCOD8086721
_publ_section_title
;
Structure prediction by ZEFSAII (Michael W. Deem and Ramdas Pophale) SiO2 
 PCOD8086721
Probable space group: C 2/M
;
_chemical_formula_sum "Si O2"
_cell_formula_units_Z 60
_cell_length_a 19.097098
_cell_length_b 14.203857
_cell_length_c 23.673353
_cell_angle_alpha 90.000000
_cell_angle_beta 31.883682
_cell_angle_gamma 90.000000
_cell_volume 3391.790198
_symmetry_space_group_name_H-M "C 2/M"
_symmetry_group_IT_number 12
_symmetry_cell_setting 'monoclinic'
loop_
_space_group_symop_operation_xyz
x,y,z
-x,y,-z
-x,-y,-z
x,-y,z
1/2+x,1/2+y,z
1/2-x,1/2+y,-z
1/2-x,1/2-y,-z
1/2+x,1/2-y,z
loop_
_atom_site_type_symbol
_atom_site_label
_atom_site_fract_x
_atom_site_fract_y
_atom_site_fract_z
Si Si1 0.312150 0.735234 0.018153
Si Si2 0.144190 0.392830 0.923504
Si Si3 0.433811 0.769312 0.205204
Si Si4 0.915432 0.392419 0.811002
Si Si5 0.771172 0.893564 0.720705
Si Si6 0.324808 0.891564 0.432590
Si Si7 0.784144 0.728781 0.566740
Si Si8 0.000000 0.198570 0.500000
O O1 0.307387 0.830568 0.057577
O O2 0.225023 0.655993 0.109892
O O3 0.250000 0.750000 0.000000
O O4 0.466872 0.705847 0.901439
O O5 0.133191 0.500000 0.952674
O O6 0.256387 0.383739 0.798232
O O7 0.000000 0.359266 0.000000
O O8 0.523624 0.846637 0.174847
O O9 0.333297 0.824444 0.235119
O O10 0.351138 0.705791 0.306070
O O11 0.885017 0.500000 0.845340
O O12 0.019738 0.380943 0.688377
O O13 0.917795 0.866431 0.599630
O O14 0.740213 0.000000 0.722689
O O15 0.233829 0.828941 0.453200
O O16 0.307258 0.857208 0.508658
O O17 0.278425 0.000000 0.458611
O O18 0.906332 0.735302 0.526171
#
# Coordination Sequence:
#
# PCOD8086721 Si02
#       8
#     8   8   8   8   8   8   8   4
#     4  10  20  32  51  75 105 136 172 216 261 302
#     4  10  20  34  54  80 105 137 174 214 262 318
#     4   9  17  32  50  74 104 142 171 206 260 314
#     4   9  18  31  52  76  99 133 180 219 252 301
#     4  10  19  31  50  77 109 140 173 209 261 318
#     4   9  18  35  56  74 100 139 177 216 259 309
#     4   9  19  34  53  77 106 135 177 213 259 313
#     4  10  21  32  51  78 112 140 168 214 266 304
#
# _framework density 17.689774
#
# number of rings (size 3 to 8) (size 9 to 14) (size 15 to 20)
#    0.000    2.533    1.333    0.600    1.867    5.867 
#    0.000    1.000    0.000    0.400    0.000    0.000 
#    0.000    0.000    0.000    0.000    0.000    0.000 
#
# Total GULP energy -371827.592274 kJ/mol
# GULP energy per Si atom -12394.253076 kJ/mol
# Density = 1.764951 g / cm^3
# Si number density = 17.689774 Si / 1000 Ang^3
#
#
#
# Elastic Constant Matrix: (Units=GPa)
#
#
# Indices 1 2 3 4 5 6 
#
# 1 71.5741 28.7824 36.2274 0.0017 1.7071 0.0001
# 2 28.7824 67.2976 40.9607 0.0018 -2.4697 -0.0003
# 3 36.2274 40.9607 128.5991 0.0045 -0.5755 -0.0003
# 4 0.0017 0.0018 0.0045 26.7658 -0.0014 1.0789
# 5 1.7071 -2.4697 -0.5755 -0.0014 25.2726 -0.0001
# 6 0.0001 -0.0003 -0.0003 1.0789 -0.0001 23.9737
#
#
#
# Elastic Compliance Matrix: (Units=1/GPa)
#
#
# Indices 1 2 3 4 5 6 
#
# 1 0.017979 -0.005793 -0.003228 0.000000 -0.001854 0.000000
# 2 -0.005793 0.020370 -0.004846 0.000000 0.002272 0.000000
# 3 -0.003228 -0.004846 0.010229 -0.000001 -0.000023 0.000000
# 4 0.000000 0.000000 -0.000001 0.037429 0.000002 -0.001684
# 5 -0.001854 0.002272 -0.000023 0.000002 0.039915 0.000000
# 6 0.000000 0.000000 0.000000 -0.001684 0.000000 0.041788
#
#
# Mechanical properties :
#
#
# Convention : Reuss Voigt Hill
#
# Bulk Modulus (GPa) = 47.97528 53.26800 50.62164
# Shear Modulus (GPa) = 24.70454 25.96910 25.33682
#
# Velocity S-wave (km/s) = 3.74109 3.83564 3.78866
# Velocity P-wave (km/s) = 6.77054 7.05648 6.91499
#
# Compressibility (1/GPa) = 0.02084407
#
# Stress axis : x y z
#
# Youngs Moduli (GPa) = 55.62012 49.09234 97.76201
#
# Poissons Ratio (x) = 0.28438 0.31558
# Poissons Ratio (y) = 0.32219 0.47376
# Poissons Ratio (z) = 0.17955 0.23790
#
# Static dielectric constant tensor:
#      x y z
#    x 3.068540 0.000000 0.069240 
#    y 0.000000 3.113590 0.000000 
#    z 0.069240 0.000000 4.121030 
# 
# 
# High freq. dielectric constant tensor:
#      x y z
#    x 1.665610 0.000000 0.009520 
#    y 0.000000 1.649790 0.000000 
#    z 0.009520 0.000000 1.710260 
# 
# From -- ./inp_files/366311.got.cif
#   From: 2010.06.25/outbox.cif.g09.slc.cpg/sg12_184_cif.got.tgz:366311.got - 2010.06.28 00:19:55.
