data_PCOD8086774
_publ_section_title
;
Structure prediction by ZEFSAII (Michael W. Deem and Ramdas Pophale) SiO2 
 PCOD8086774
Probable space group: C 2/M
;
_chemical_formula_sum "Si O2"
_cell_formula_units_Z 64
_cell_length_a 30.854326
_cell_length_b 8.931539
_cell_length_c 14.176060
_cell_angle_alpha 90.000000
_cell_angle_beta 90.764977
_cell_angle_gamma 90.000000
_cell_volume 3906.242456
_symmetry_space_group_name_H-M "C 2/M"
_symmetry_group_IT_number 12
_symmetry_cell_setting 'monoclinic'
loop_
_space_group_symop_operation_xyz
x,y,z
-x,y,-z
-x,-y,-z
x,-y,z
1/2+x,1/2+y,z
1/2-x,1/2+y,-z
1/2-x,1/2-y,-z
1/2+x,1/2-y,z
loop_
_atom_site_type_symbol
_atom_site_label
_atom_site_fract_x
_atom_site_fract_y
_atom_site_fract_z
Si Si1 0.792014 0.670773 0.603336
Si Si2 0.408893 0.822475 0.104918
Si Si3 0.663647 0.827493 0.207191
Si Si4 0.495855 0.835683 0.888660
Si Si5 0.702598 0.172577 0.608485
Si Si6 0.833936 0.176770 0.219307
Si Si7 0.250204 0.324477 0.100828
Si Si8 0.589204 0.675475 0.096675
O O1 0.774452 0.500000 0.611394
O O2 0.829732 0.698084 0.680803
O O3 0.752368 0.780328 0.623529
O O4 0.811721 0.700386 0.500312
O O5 0.456957 0.780162 0.145562
O O6 0.375858 0.755261 0.178234
O O7 0.403288 0.000000 0.096652
O O8 0.400148 0.755771 0.001312
O O9 0.707325 0.777401 0.155545
O O10 0.624892 0.721454 0.173955
O O11 0.652286 0.000000 0.184262
O O12 0.457691 0.720606 0.861730
O O13 0.484565 0.000000 0.846112
O O14 0.500000 0.850189 0.000000
O O15 0.671130 0.270806 0.672883
O O16 0.698004 0.000000 0.637209
O O17 0.791835 0.231162 0.160330
O O18 0.840203 0.000000 0.215604
O O19 0.252619 0.500000 0.086053
O O20 0.250000 0.250000 0.000000
O O21 0.590256 0.500000 0.079184
#
# Coordination Sequence:
#
# PCOD8086774 Si02
#       8
#     8   8   8   8   8   8   8   8
#     4   9  18  34  52  70  93 124 165 207 246 287
#     4  10  20  34  51  72  97 129 168 202 239 287
#     4  10  19  34  50  65  93 133 168 200 239 283
#     4   8  16  32  51  69  93 126 162 200 241 286
#     4  10  19  31  51  74  95 123 160 205 250 291
#     4  11  21  34  49  70  99 130 164 200 242 290
#     4  10  21  33  45  62  91 130 166 197 229 275
#     4  11  21  31  47  74 102 128 163 202 243 290
#
# _framework density 16.384032000000001
#
# number of rings (size 3 to 8) (size 9 to 14) (size 15 to 20)
#    0.000    2.125    1.250    3.750    0.000    7.250 
#    0.000    0.000    0.000    0.000    0.000    0.875 
#    0.000    7.000    0.000    0.000    0.000    0.000 
#
# Total GULP energy -396801.697060 kJ/mol
# GULP energy per Si atom -12400.053033 kJ/mol
# Density = 1.634674 g / cm^3
# Si number density = 16.384032 Si / 1000 Ang^3
#
#
#
# Elastic Constant Matrix: (Units=GPa)
#
#
# Indices 1 2 3 4 5 6 
#
# 1 116.5524 52.0148 52.6079 0.0000 -7.7158 0.0000
# 2 52.0148 79.8051 41.6824 0.0000 -2.9749 0.0000
# 3 52.6079 41.6824 97.4670 0.0000 -3.9671 0.0000
# 4 0.0000 0.0000 0.0000 24.2769 0.0000 -2.8625
# 5 -7.7158 -2.9749 -3.9671 0.0000 10.6833 0.0000
# 6 0.0000 0.0000 0.0000 -2.8625 0.0000 25.5055
#
#
#
# Elastic Compliance Matrix: (Units=1/GPa)
#
#
# Indices 1 2 3 4 5 6 
#
# 1 0.013937 -0.006501 -0.004474 0.000000 0.006594 0.000000
# 2 -0.006501 0.019208 -0.004750 0.000000 -0.001111 0.000000
# 3 -0.004474 -0.004750 0.014744 0.000000 0.000921 0.000000
# 4 0.000000 0.000000 0.000000 0.041744 0.000000 0.004685
# 5 0.006594 -0.001111 0.000921 0.000000 0.098399 0.000000
# 6 0.000000 0.000000 0.000000 0.004685 0.000000 0.039733
#
#
# Mechanical properties :
#
#
# Convention : Reuss Voigt Hill
#
# Bulk Modulus (GPa) = 60.83721 65.15941 62.99831
# Shear Modulus (GPa) = 18.88972 21.92777 20.40874
#
# Velocity S-wave (km/s) = 3.39917 3.66233 3.53320
# Velocity P-wave (km/s) = 7.25386 7.59868 7.42827
#
# Compressibility (1/GPa) = 0.01643731
#
# Stress axis : x y z
#
# Youngs Moduli (GPa) = 71.75090 52.06257 67.82573
#
# Poissons Ratio (x) = 0.33848 0.30344
# Poissons Ratio (y) = 0.46648 0.32220
# Poissons Ratio (z) = 0.32100 0.24732
#
# Static dielectric constant tensor:
#      x y z
#    x 3.243980 0.000000 -0.040520 
#    y 0.000000 3.134470 0.000000 
#    z -0.040520 0.000000 3.038100 
# 
# 
# High freq. dielectric constant tensor:
#      x y z
#    x 1.619040 0.000000 -0.002800 
#    y 0.000000 1.637360 0.000000 
#    z -0.002800 0.000000 1.611400 
# 
# From -- ./inp_files/248382.got.cif
#   From: 2010.06.25/outbox.cif.g09.slc.cpg/sg12_125_cif.got.tgz:248382.got - 2010.06.28 00:19:55.
