data_PCOD8086425
_publ_section_title
;
Structure prediction by ZEFSAII (Michael W. Deem and Ramdas Pophale) SiO2 
 PCOD8086425
Probable space group: C 2/M
;
_chemical_formula_sum "Si O2"
_cell_formula_units_Z 56
_cell_length_a 15.310682
_cell_length_b 9.155555
_cell_length_c 31.371862
_cell_angle_alpha 90.000000
_cell_angle_beta 136.446383
_cell_angle_gamma 90.000000
_cell_volume 3030.118252
_symmetry_space_group_name_H-M "C 2/M"
_symmetry_group_IT_number 12
_symmetry_cell_setting 'monoclinic'
loop_
_space_group_symop_operation_xyz
x,y,z
-x,y,-z
-x,-y,-z
x,-y,z
1/2+x,1/2+y,z
1/2-x,1/2+y,-z
1/2-x,1/2-y,-z
1/2+x,1/2-y,z
loop_
_atom_site_type_symbol
_atom_site_label
_atom_site_fract_x
_atom_site_fract_y
_atom_site_fract_z
Si Si1 0.768397 0.828819 0.571067
Si Si2 0.408649 0.160034 0.007619
Si Si3 0.709640 0.673300 0.871865
Si Si4 0.572607 0.673177 0.211655
Si Si5 0.721758 0.174043 0.649272
Si Si6 0.604946 0.672740 0.126765
Si Si7 0.057160 0.328788 0.429205
O O1 0.754488 0.767901 0.613854
O O2 0.888689 0.749790 0.593210
O O3 0.640332 0.790498 0.500183
O O4 0.795451 0.000000 0.579993
O O5 0.466570 0.276292 0.061013
O O6 0.396025 0.000000 0.025149
O O7 0.500000 0.145257 0.000000
O O8 0.273874 0.212395 0.940447
O O9 0.718554 0.500000 0.866792
O O10 0.565983 0.731782 0.823896
O O11 0.779508 0.752876 0.857484
O O12 0.568805 0.500000 0.212238
O O13 0.675222 0.736596 0.281121
O O14 0.613502 0.722549 0.178898
O O15 0.583542 0.232702 0.613229
O O16 0.720420 0.000000 0.648719
O O17 0.614496 0.500000 0.124382
O O18 0.057177 0.500000 0.420144
#
# Coordination Sequence:
#
# PCOD8086425 Si02
#       7
#     8   8   8   8   8   8   8
#     4   9  17  30  50  75  98 123 159 197 232 276
#     4   8  15  29  49  70  92 121 154 189 236 288
#     4   9  18  34  52  68  92 126 159 191 233 287
#     4   9  19  33  48  69  96 128 162 192 231 282
#     4   9  17  31  50  69  94 130 165 192 225 279
#     4  10  19  31  49  73  97 119 152 200 242 276
#     4   9  17  30  50  75  99 123 155 197 240 276
#
# _framework density 18.481126
#
# number of rings (size 3 to 8) (size 9 to 14) (size 15 to 20)
#    0.000    3.000    0.000    1.714    0.000    6.000 
#    0.000    2.143    0.000    6.857    0.000    0.000 
#    0.000    0.000    0.000    0.000    0.000    0.000 
#
# Total GULP energy -347109.567824 kJ/mol
# GULP energy per Si atom -12396.770279 kJ/mol
# Density = 1.843906 g / cm^3
# Si number density = 18.481126 Si / 1000 Ang^3
#
#
#
# Elastic Constant Matrix: (Units=GPa)
#
#
# Indices 1 2 3 4 5 6 
#
# 1 147.9844 40.3408 96.7782 0.0000 -0.9440 0.0000
# 2 40.3408 38.7419 34.4866 0.0000 -3.3747 0.0000
# 3 96.7782 34.4866 148.6827 0.0000 0.3478 0.0000
# 4 0.0000 0.0000 0.0000 17.7735 0.0000 -1.3266
# 5 -0.9440 -3.3747 0.3478 0.0000 24.3237 0.0000
# 6 0.0000 0.0000 0.0000 -1.3266 0.0000 23.9479
#
#
#
# Elastic Compliance Matrix: (Units=1/GPa)
#
#
# Indices 1 2 3 4 5 6 
#
# 1 0.013414 -0.007861 -0.006907 0.000000 -0.000471 0.000000
# 2 -0.007861 0.037662 -0.003631 0.000000 0.004972 0.000000
# 3 -0.006907 -0.003631 0.012066 0.000000 -0.000944 0.000000
# 4 0.000000 0.000000 0.000000 0.056497 0.000000 0.003130
# 5 -0.000471 0.004972 -0.000944 0.000000 0.041797 0.000000
# 6 0.000000 0.000000 0.000000 0.003130 0.000000 0.041931
#
#
# Mechanical properties :
#
#
# Convention : Reuss Voigt Hill
#
# Bulk Modulus (GPa) = 37.95742 75.40225 56.67983
# Shear Modulus (GPa) = 20.08469 24.12923 22.10696
#
# Velocity S-wave (km/s) = 3.30019 3.61725 3.46235
# Velocity P-wave (km/s) = 5.92493 7.63768 6.83516
#
# Compressibility (1/GPa) = 0.02634531
#
# Stress axis : x y z
#
# Youngs Moduli (GPa) = 74.54706 26.55211 82.87772
#
# Poissons Ratio (x) = 0.20871 0.57245
# Poissons Ratio (y) = 0.58598 0.30091
# Poissons Ratio (z) = 0.51491 0.09640
#
# Static dielectric constant tensor:
#      x y z
#    x 3.439340 0.000000 0.116930 
#    y 0.000000 3.070530 0.000000 
#    z 0.116930 0.000000 3.737060 
# 
# 
# High freq. dielectric constant tensor:
#      x y z
#    x 1.718030 0.000000 0.003720 
#    y 0.000000 1.681310 0.000000 
#    z 0.003720 0.000000 1.718810 
# 
# From -- ./inp_files/377777.got.cif
#   From: 2010.06.25/outbox.cif.g09.slc.cpg/sg12_189_cif.got.tgz:377777.got - 2010.06.28 00:19:55.
