data_PCOD8086560
_publ_section_title
;
Structure prediction by ZEFSAII (Michael W. Deem and Ramdas Pophale) SiO2 
 PCOD8086560
Probable space group: C 2/M
;
_chemical_formula_sum "Si O2"
_cell_formula_units_Z 48
_cell_length_a 18.705435
_cell_length_b 8.937754
_cell_length_c 15.478886
_cell_angle_alpha 90.000000
_cell_angle_beta 89.366219
_cell_angle_gamma 90.000000
_cell_volume 2587.672681
_symmetry_space_group_name_H-M "C 2/M"
_symmetry_group_IT_number 12
_symmetry_cell_setting 'monoclinic'
loop_
_space_group_symop_operation_xyz
x,y,z
-x,y,-z
-x,-y,-z
x,-y,z
1/2+x,1/2+y,z
1/2-x,1/2+y,-z
1/2-x,1/2-y,-z
1/2+x,1/2-y,z
loop_
_atom_site_type_symbol
_atom_site_label
_atom_site_fract_x
_atom_site_fract_y
_atom_site_fract_z
Si Si1 0.894694 0.674560 0.849166
Si Si2 0.302735 0.175015 0.693573
Si Si3 0.583725 0.331369 0.980963
Si Si4 0.440340 0.826212 0.188817
Si Si5 0.326395 0.824398 0.506392
Si Si6 0.357041 0.677676 0.340173
O O1 0.881085 0.500000 0.864993
O O2 0.843764 0.744248 0.775353
O O3 0.875580 0.758869 0.938230
O O4 0.975681 0.703370 0.819572
O O5 0.349698 0.205513 0.605778
O O6 0.221814 0.237404 0.686776
O O7 0.296961 0.000000 0.709094
O O8 0.611533 0.500000 0.967053
O O9 0.500000 0.327691 0.000000
O O10 0.600704 0.236786 0.894835
O O11 0.415031 0.736945 0.272750
O O12 0.421837 0.000000 0.198645
O O13 0.250000 0.750000 0.500000
O O14 0.377131 0.745528 0.434592
O O15 0.321940 0.000000 0.486767
O O16 0.360189 0.500000 0.345774
#
# Coordination Sequence:
#
# PCOD8086560 Si02
#       6
#     8   8   8   8   8   8
#     4   9  17  32  52  72  94 121 158 198 234 277
#     4   8  16  31  51  72  93 122 158 196 235 275
#     4   9  17  30  48  70  96 125 156 190 232 283
#     4  10  19  31  50  73  95 123 158 196 236 279
#     4   9  16  29  49  71  95 125 161 195 232 280
#     4  10  19  32  50  71  97 127 159 196 236 279
#
# _framework density 18.549486999999999
#
# number of rings (size 3 to 8) (size 9 to 14) (size 15 to 20)
#    0.000    2.833    0.000    3.000    0.000    2.667 
#    0.000    6.667    0.000    5.000    0.000    0.000 
#    0.000    0.000    0.000    0.000    0.000    0.000 
#
# Total GULP energy -297460.280573 kJ/mol
# GULP energy per Si atom -12394.178357 kJ/mol
# Density = 1.850727 g / cm^3
# Si number density = 18.549487 Si / 1000 Ang^3
#
#
#
# Elastic Constant Matrix: (Units=GPa)
#
#
# Indices 1 2 3 4 5 6 
#
# 1 15.5822 8.5306 -4.3465 0.0000 4.2218 0.0000
# 2 8.5306 77.8987 13.0141 0.0000 -3.9825 0.0000
# 3 -4.3465 13.0141 41.9607 0.0000 1.5414 0.0000
# 4 0.0000 0.0000 0.0000 35.0477 0.0000 -6.5764
# 5 4.2218 -3.9825 1.5414 0.0000 29.2701 0.0000
# 6 0.0000 0.0000 0.0000 -6.5764 0.0000 17.0295
#
#
#
# Elastic Compliance Matrix: (Units=1/GPa)
#
#
# Indices 1 2 3 4 5 6 
#
# 1 0.077193 -0.011126 0.011934 0.000000 -0.013276 0.000000
# 2 -0.011126 0.015268 -0.006035 0.000000 0.004000 0.000000
# 3 0.011934 -0.006035 0.027086 0.000000 -0.003969 0.000000
# 4 0.000000 0.000000 0.000000 0.030762 0.000000 0.011879
# 5 -0.013276 0.004000 -0.003969 0.000000 0.036833 0.000000
# 6 0.000000 0.000000 0.000000 0.011879 0.000000 0.063309
#
#
# Mechanical properties :
#
#
# Convention : Reuss Voigt Hill
#
# Bulk Modulus (GPa) = 9.16640 18.87088 14.01864
# Shear Modulus (GPa) = 16.81988 24.15236 20.48612
#
# Velocity S-wave (km/s) = 3.01451 3.61231 3.32686
# Velocity P-wave (km/s) = 4.13142 5.25297 4.72559
#
# Compressibility (1/GPa) = 0.10909403
#
# Stress axis : x y z
#
# Youngs Moduli (GPa) = 12.95459 65.49526 36.92000
#
# Poissons Ratio (x) = 0.72869 -0.44062
# Poissons Ratio (y) = 0.14413 0.22281
# Poissons Ratio (z) = -0.15461 0.39526
#
# Static dielectric constant tensor:
#      x y z
#    x 3.082390 0.000000 0.119030 
#    y 0.000000 3.440270 0.000000 
#    z 0.119030 0.000000 3.974350 
# 
# 
# High freq. dielectric constant tensor:
#      x y z
#    x 1.670190 0.000000 -0.002380 
#    y 0.000000 1.715370 0.000000 
#    z -0.002380 0.000000 1.740610 
# 
# From -- ./inp_files/172338.got.cif
#   From: 2010.06.25/outbox.cif.g09.slc.cpg/sg12_87_cif.got.tgz:172338.got - 2010.06.28 00:19:55.
