data_PCOD8086133
_publ_section_title
;
Structure prediction by ZEFSAII (Michael W. Deem and Ramdas Pophale) SiO2 
 PCOD8086133
Probable space group: C 2/M
;
_chemical_formula_sum "Si O2"
_cell_formula_units_Z 64
_cell_length_a 12.722265
_cell_length_b 13.233158
_cell_length_c 26.873137
_cell_angle_alpha 90.000000
_cell_angle_beta 58.859127
_cell_angle_gamma 90.000000
_cell_volume 3872.295666
_symmetry_space_group_name_H-M "C 2/M"
_symmetry_group_IT_number 12
_symmetry_cell_setting 'monoclinic'
loop_
_space_group_symop_operation_xyz
x,y,z
-x,y,-z
-x,-y,-z
x,-y,z
1/2+x,1/2+y,z
1/2-x,1/2+y,-z
1/2-x,1/2-y,-z
1/2+x,1/2-y,z
loop_
_atom_site_type_symbol
_atom_site_label
_atom_site_fract_x
_atom_site_fract_y
_atom_site_fract_z
Si Si1 0.668379 0.882745 0.765230
Si Si2 0.576131 0.231003 0.061819
Si Si3 0.217227 0.383405 0.550422
Si Si4 0.267272 0.881261 0.049579
Si Si5 0.889992 0.382905 0.846526
Si Si6 0.449892 0.271889 0.458611
Si Si7 0.815983 0.117897 0.632596
Si Si8 0.295532 0.224354 0.142302
O O1 0.524687 0.861908 0.791091
O O2 0.740684 0.845456 0.698962
O O3 0.720106 0.822372 0.799521
O O4 0.691192 0.000000 0.770446
O O5 0.648747 0.336406 0.050084
O O6 0.613818 0.152432 0.095605
O O7 0.433953 0.259411 0.097700
O O8 0.611966 0.174883 0.001731
O O9 0.192028 0.500000 0.546794
O O10 0.340952 0.353063 0.491058
O O11 0.098776 0.325249 0.558880
O O12 0.232716 0.358630 0.604907
O O13 0.256876 0.859146 0.110938
O O14 0.275011 0.000000 0.038343
O O15 0.854460 0.500000 0.852723
O O16 0.791222 0.322042 0.838329
O O17 0.500000 0.237140 0.500000
O O18 0.556854 0.321697 0.399849
O O19 0.848509 0.000000 0.626806
#
# Coordination Sequence:
#
# PCOD8086133 Si02
#       8
#     8   8   8   8   8   8   8   8
#     4   9  18  32  48  67  90 116 150 191 228 261
#     4   9  19  32  45  67  94 117 146 183 225 273
#     4   9  17  29  46  69  96 124 154 186 222 268
#     4  10  19  31  48  68  91 118 147 183 226 272
#     4   9  18  32  48  66  90 119 150 185 226 271
#     4   9  17  29  46  70  96 122 151 186 227 265
#     4   9  17  30  48  67  89 120 155 188 222 264
#     4  10  19  31  48  69  90 116 150 186 225 269
#
# _framework density 16.527663
#
# number of rings (size 3 to 8) (size 9 to 14) (size 15 to 20)
#    0.000    2.750    0.000    1.500    0.000    5.250 
#    0.000    0.000    0.000    4.500    0.000    0.000 
#    0.000    0.000    0.000    0.000    0.000    0.000 
#
# Total GULP energy -396832.998071 kJ/mol
# GULP energy per Si atom -12401.031190 kJ/mol
# Density = 1.649005 g / cm^3
# Si number density = 16.527663 Si / 1000 Ang^3
#
#
#
# Elastic Constant Matrix: (Units=GPa)
#
#
# Indices 1 2 3 4 5 6 
#
# 1 101.2618 65.5438 47.6292 0.0000 -1.9357 0.0000
# 2 65.5438 93.6321 50.2347 0.0000 2.8454 0.0000
# 3 47.6292 50.2347 111.0399 0.0000 -5.2596 0.0000
# 4 0.0000 0.0000 0.0000 21.2487 0.0000 0.4948
# 5 -1.9357 2.8454 -5.2596 0.0000 18.8079 0.0000
# 6 0.0000 0.0000 0.0000 0.4948 0.0000 28.3035
#
#
#
# Elastic Compliance Matrix: (Units=1/GPa)
#
#
# Indices 1 2 3 4 5 6 
#
# 1 0.018846 -0.011917 -0.002549 0.000000 0.003030 0.000000
# 2 -0.011917 0.021937 -0.005096 0.000000 -0.005970 0.000000
# 3 -0.002549 -0.005096 0.012595 0.000000 0.004031 0.000000
# 4 0.000000 0.000000 0.000000 0.047081 0.000000 -0.000823
# 5 0.003030 -0.005970 0.004031 0.000000 0.055512 0.000000
# 6 0.000000 0.000000 0.000000 -0.000823 0.000000 0.035346
#
#
# Mechanical properties :
#
#
# Convention : Reuss Voigt Hill
#
# Bulk Modulus (GPa) = 70.14852 70.30545 70.22698
# Shear Modulus (GPa) = 21.25932 23.17374 22.21653
#
# Velocity S-wave (km/s) = 3.59038 3.74855 3.67031
# Velocity P-wave (km/s) = 7.72806 7.83364 7.78103
#
# Compressibility (1/GPa) = 0.01425547
#
# Stress axis : x y z
#
# Youngs Moduli (GPa) = 53.06299 45.58445 79.39424
#
# Poissons Ratio (x) = 0.54321 0.20237
# Poissons Ratio (y) = 0.63233 0.40457
# Poissons Ratio (z) = 0.13525 0.23229
#
# Static dielectric constant tensor:
#      x y z
#    x 3.112460 0.000000 -0.028870 
#    y 0.000000 2.979390 0.000000 
#    z -0.028870 0.000000 3.141360 
# 
# 
# High freq. dielectric constant tensor:
#      x y z
#    x 1.636170 0.000000 -0.001260 
#    y 0.000000 1.625880 0.000000 
#    z -0.001260 0.000000 1.635080 
# 
# From -- ./inp_files/335637.got.cif
#   From: 2010.06.25/outbox.cif.g09.slc.cpg/sg12_168_cif.got.tgz:335637.got - 2010.06.28 00:19:55.
