data_PCOD8086134
_publ_section_title
;
Structure prediction by ZEFSAII (Michael W. Deem and Ramdas Pophale) SiO2 
 PCOD8086134
Probable space group: C 2/M
;
_chemical_formula_sum "Si O2"
_cell_formula_units_Z 64
_cell_length_a 19.765892
_cell_length_b 9.354592
_cell_length_c 25.164348
_cell_angle_alpha 90.000000
_cell_angle_beta 125.481265
_cell_angle_gamma 90.000000
_cell_volume 3788.909596
_symmetry_space_group_name_H-M "C 2/M"
_symmetry_group_IT_number 12
_symmetry_cell_setting 'monoclinic'
loop_
_space_group_symop_operation_xyz
x,y,z
-x,y,-z
-x,-y,-z
x,-y,z
1/2+x,1/2+y,z
1/2-x,1/2+y,-z
1/2-x,1/2-y,-z
1/2+x,1/2-y,z
loop_
_atom_site_type_symbol
_atom_site_label
_atom_site_fract_x
_atom_site_fract_y
_atom_site_fract_z
Si Si1 0.681882 0.658033 0.181286
Si Si2 0.765089 0.333270 0.427156
Si Si3 0.127836 0.333045 0.424111
Si Si4 0.295784 0.829748 0.323408
Si Si5 0.908773 0.666865 0.942480
Si Si6 0.254904 0.831426 0.946997
Si Si7 0.339615 0.841209 0.177622
Si Si8 0.444128 0.169537 0.321228
O O1 0.642247 0.500000 0.169022
O O2 0.713077 0.717901 0.252761
O O3 0.613850 0.760481 0.123885
O O4 0.762452 0.648813 0.181598
O O5 0.742570 0.500000 0.415000
O O6 0.841138 0.303376 0.501873
O O7 0.683690 0.249179 0.407397
O O8 0.791263 0.273712 0.381490
O O9 0.132013 0.500000 0.412120
O O10 0.035112 0.270295 0.376181
O O11 0.378819 0.765139 0.333989
O O12 0.300574 0.000000 0.323783
O O13 0.909606 0.500000 0.931500
O O14 0.842762 0.704736 0.958710
O O15 0.000000 0.722625 0.000000
O O16 0.178264 0.773249 0.876699
O O17 0.243632 0.000000 0.950615
O O18 0.250000 0.750000 0.000000
O O19 0.418251 0.789184 0.248858
O O20 0.355635 0.000000 0.160378
O O21 0.443686 0.000000 0.326594
#
# Coordination Sequence:
#
# PCOD8086134 Si02
#       8
#     8   8   8   8   8   8   8   8
#     4   8  14  26  45  66  87 113 144 178 218 263
#     4   9  17  29  45  64  90 122 149 178 219 264
#     4   9  17  29  45  65  89 119 152 181 215 263
#     4   8  14  26  45  68  89 110 143 186 225 256
#     4   9  18  32  48  66  89 116 145 178 217 259
#     4  10  19  31  48  68  91 118 148 182 218 261
#     4   8  14  27  46  65  87 115 145 180 223 265
#     4   8  14  26  46  69  88 109 145 190 225 256
#
# _framework density 16.891404000000001
#
# number of rings (size 3 to 8) (size 9 to 14) (size 15 to 20)
#    0.000    3.375    0.000    1.875    0.000    1.250 
#    0.000    5.000    0.000    6.750    0.000    3.500 
#    0.000    0.000    0.000    0.000    0.000    0.000 
#
# Total GULP energy -396599.662728 kJ/mol
# GULP energy per Si atom -12393.739460 kJ/mol
# Density = 1.685296 g / cm^3
# Si number density = 16.891404 Si / 1000 Ang^3
#
#
#
# Elastic Constant Matrix: (Units=GPa)
#
#
# Indices 1 2 3 4 5 6 
#
# 1 79.2959 34.5848 80.2346 0.0000 4.0023 0.0000
# 2 34.5848 47.3524 49.0617 0.0000 -1.7106 0.0000
# 3 80.2346 49.0617 157.6695 0.0000 6.0498 0.0000
# 4 0.0000 0.0000 0.0000 22.0070 0.0000 0.8151
# 5 4.0023 -1.7106 6.0498 0.0000 29.5481 0.0000
# 6 0.0000 0.0000 0.0000 0.8151 0.0000 19.0856
#
#
#
# Elastic Compliance Matrix: (Units=1/GPa)
#
#
# Indices 1 2 3 4 5 6 
#
# 1 0.028213 -0.008676 -0.011582 0.000000 -0.001952 0.000000
# 2 -0.008676 0.034268 -0.006420 0.000000 0.004473 0.000000
# 3 -0.011582 -0.006420 0.014300 0.000000 -0.001731 0.000000
# 4 0.000000 0.000000 0.000000 0.045512 0.000000 -0.001944
# 5 -0.001952 0.004473 -0.001731 0.000000 0.034721 0.000000
# 6 0.000000 0.000000 0.000000 -0.001944 0.000000 0.052478
#
#
# Mechanical properties :
#
#
# Convention : Reuss Voigt Hill
#
# Bulk Modulus (GPa) = 42.68900 68.00889 55.34894
# Shear Modulus (GPa) = 18.47350 22.15725 20.31538
#
# Velocity S-wave (km/s) = 3.31065 3.62573 3.47177
# Velocity P-wave (km/s) = 6.31991 7.60774 6.99354
#
# Compressibility (1/GPa) = 0.02342524
#
# Stress axis : x y z
#
# Youngs Moduli (GPa) = 35.44445 29.18174 69.92786
#
# Poissons Ratio (x) = 0.25318 0.80994
# Poissons Ratio (y) = 0.30752 0.44892
# Poissons Ratio (z) = 0.41053 0.18734
#
# Static dielectric constant tensor:
#      x y z
#    x 3.097870 0.000000 0.057930 
#    y 0.000000 2.987120 0.000000 
#    z 0.057930 0.000000 3.580130 
# 
# 
# High freq. dielectric constant tensor:
#      x y z
#    x 1.622950 0.000000 0.000740 
#    y 0.000000 1.624180 0.000000 
#    z 0.000740 0.000000 1.665220 
# 
# From -- ./inp_files/346301.got.cif
#   From: 2010.06.25/outbox.cif.g09.slc.cpg/sg12_174_cif.got.tgz:346301.got - 2010.06.28 00:19:55.
