data_PCOD8086395
_publ_section_title
;
Structure prediction by ZEFSAII (Michael W. Deem and Ramdas Pophale) SiO2 
 PCOD8086395
Probable space group: C 2/M
;
_chemical_formula_sum "Si O2"
_cell_formula_units_Z 56
_cell_length_a 14.261134
_cell_length_b 17.544062
_cell_length_c 14.395643
_cell_angle_alpha 90.000000
_cell_angle_beta 119.760366
_cell_angle_gamma 90.000000
_cell_volume 3126.724041
_symmetry_space_group_name_H-M "C 2/M"
_symmetry_group_IT_number 12
_symmetry_cell_setting 'monoclinic'
loop_
_space_group_symop_operation_xyz
x,y,z
-x,y,-z
-x,-y,-z
x,-y,z
1/2+x,1/2+y,z
1/2-x,1/2+y,-z
1/2-x,1/2-y,-z
1/2+x,1/2-y,z
loop_
_atom_site_type_symbol
_atom_site_label
_atom_site_fract_x
_atom_site_fract_y
_atom_site_fract_z
Si Si1 0.504754 0.590509 0.651722
Si Si2 0.123588 0.588152 0.881569
Si Si3 0.665004 0.410096 0.574432
Si Si4 0.006099 0.909173 0.861647
Si Si5 0.382096 0.911078 0.760321
Si Si6 0.124145 0.315367 0.062131
Si Si7 0.170491 0.147496 0.091563
O O1 0.503820 0.500000 0.659131
O O2 0.393972 0.620785 0.547639
O O3 0.605142 0.619762 0.638628
O O4 0.513390 0.623285 0.760264
O O5 0.127676 0.500000 0.912394
O O6 0.212227 0.606870 0.846702
O O7 0.003101 0.609053 0.784930
O O8 0.155181 0.637658 0.986330
O O9 0.650506 0.500000 0.566614
O O10 0.792026 0.386971 0.639204
O O11 0.894487 0.878319 0.849478
O O12 0.007308 0.000000 0.868275
O O13 0.108047 0.877060 0.967524
O O14 0.351375 0.868603 0.839131
O O15 0.372129 0.000000 0.778263
O O16 0.192521 0.237938 0.101930
O O17 0.000000 0.289586 0.000000
#
# Coordination Sequence:
#
# PCOD8086395 Si02
#       7
#     8   8   8   8   8   8   8
#     4   8  15  27  48  75  99 122 159 209 258 293
#     4  10  20  32  48  70  99 135 170 203 239 293
#     4   8  14  28  48  74 100 122 158 211 257 293
#     4  10  19  31  49  72  99 134 166 204 247 294
#     4   9  18  31  50  73 100 130 162 203 250 298
#     4  10  19  33  47  70 101 131 169 203 250 290
#     4  11  20  33  47  70 104 136 169 201 239 295
#
# _framework density 17.910119000000002
#
# number of rings (size 3 to 8) (size 9 to 14) (size 15 to 20)
#    0.000    2.571    1.429    3.429    2.000    1.714 
#    0.000    0.000    0.000    1.714    0.000    5.000 
#    0.000    0.000    0.000    0.000    0.000    0.000 
#
# Total GULP energy -347039.444498 kJ/mol
# GULP energy per Si atom -12394.265875 kJ/mol
# Density = 1.786936 g / cm^3
# Si number density = 17.910119 Si / 1000 Ang^3
#
#
#
# Elastic Constant Matrix: (Units=GPa)
#
#
# Indices 1 2 3 4 5 6 
#
# 1 103.9751 20.4314 49.3119 0.0000 12.4047 0.0000
# 2 20.4314 54.4876 10.7406 0.0000 5.9631 0.0000
# 3 49.3119 10.7406 94.0019 0.0000 1.5628 0.0000
# 4 0.0000 0.0000 0.0000 0.9578 0.0000 3.4959
# 5 12.4047 5.9631 1.5628 0.0000 29.9211 0.0000
# 6 0.0000 0.0000 0.0000 3.4959 0.0000 16.7640
#
#
#
# Elastic Compliance Matrix: (Units=1/GPa)
#
#
# Indices 1 2 3 4 5 6 
#
# 1 0.014165 -0.003411 -0.006961 0.000000 -0.004829 0.000000
# 2 -0.003411 0.020000 -0.000453 0.000000 -0.002548 0.000000
# 3 -0.006961 -0.000453 0.014304 0.000000 0.002229 0.000000
# 4 0.000000 0.000000 0.000000 4.370950 0.000000 -0.911512
# 5 -0.004829 -0.002548 0.002229 0.000000 0.035815 0.000000
# 6 0.000000 0.000000 0.000000 -0.911512 0.000000 0.249737
#
#
# Mechanical properties :
#
#
# Convention : Reuss Voigt Hill
#
# Bulk Modulus (GPa) = 37.28685 45.93695 41.61190
# Shear Modulus (GPa) = 1.05584 20.99396 11.02490
#
# Velocity S-wave (km/s) = 0.76864 3.42743 2.48376
# Velocity P-wave (km/s) = 4.65315 6.43174 5.61334
#
# Compressibility (1/GPa) = 0.02681911
#
# Stress axis : x y z
#
# Youngs Moduli (GPa) = 70.59414 49.99981 69.90832
#
# Poissons Ratio (x) = 0.17055 0.48663
# Poissons Ratio (y) = 0.24080 0.03170
# Poissons Ratio (z) = 0.49140 0.02267
#
# Static dielectric constant tensor:
#      x y z
#    x 3.401810 0.000000 0.130020 
#    y 0.000000 3.063340 0.000000 
#    z 0.130020 0.000000 3.408650 
# 
# 
# High freq. dielectric constant tensor:
#      x y z
#    x 1.693600 0.000000 0.012990 
#    y 0.000000 1.669440 0.000000 
#    z 0.012990 0.000000 1.670610 
# 
# From -- ./inp_files/216008.got.cif
#   From: 2010.06.25/outbox.cif.g09.slc.cpg/sg12_109_cif.got.tgz:216008.got - 2010.06.28 00:19:55.
