data_PCOD8086346
_publ_section_title
;
Structure prediction by ZEFSAII (Michael W. Deem and Ramdas Pophale) SiO2 
 PCOD8086346
Probable space group: C 2/M
;
_chemical_formula_sum "Si O2"
_cell_formula_units_Z 48
_cell_length_a 19.036179
_cell_length_b 8.974410
_cell_length_c 18.353136
_cell_angle_alpha 90.000000
_cell_angle_beta 122.082735
_cell_angle_gamma 90.000000
_cell_volume 2656.586458
_symmetry_space_group_name_H-M "C 2/M"
_symmetry_group_IT_number 12
_symmetry_cell_setting 'monoclinic'
loop_
_space_group_symop_operation_xyz
x,y,z
-x,y,-z
-x,-y,-z
x,-y,z
1/2+x,1/2+y,z
1/2-x,1/2+y,-z
1/2-x,1/2-y,-z
1/2+x,1/2-y,z
loop_
_atom_site_type_symbol
_atom_site_label
_atom_site_fract_x
_atom_site_fract_y
_atom_site_fract_z
Si Si1 0.981297 0.674584 0.572036
Si Si2 0.668713 0.326871 0.926107
Si Si3 0.086811 0.335819 0.759441
Si Si4 0.502817 0.325164 0.918255
Si Si5 0.666353 0.677372 0.426105
Si Si6 0.086005 0.667414 0.252528
O O1 0.957527 0.500000 0.567390
O O2 0.906204 0.774668 0.558957
O O3 0.000000 0.719468 0.500000
O O4 0.065484 0.709580 0.664437
O O5 0.685198 0.500000 0.935318
O O6 0.650242 0.277514 0.832628
O O7 0.592369 0.280764 0.935651
O O8 0.750000 0.250000 0.000000
O O9 0.127444 0.500000 0.785101
O O10 0.999850 0.335622 0.752508
O O11 0.486737 0.500000 0.901461
O O12 0.428992 0.242277 0.834526
O O13 0.500000 0.272211 0.000000
O O14 0.673680 0.500000 0.428600
O O15 0.750000 0.750000 0.500000
O O16 0.650495 0.735741 0.335163
O O17 0.120729 0.500000 0.260962
#
# Coordination Sequence:
#
# PCOD8086346 Si02
#       6
#     8   8   8   8   8   8
#     4   9  18  34  55  78 104 134 167 204 249 301
#     4  10  19  31  49  71  96 126 161 200 241 287
#     4   8  15  29  49  71  96 127 162 197 236 288
#     4   9  18  33  52  74  99 129 165 203 245 295
#     4  11  21  34  53  76 103 134 171 212 254 301
#     4   9  17  31  51  74  99 129 166 205 249 300
#
# _framework density 18.068300000000001
#
# number of rings (size 3 to 8) (size 9 to 14) (size 15 to 20)
#    0.000    2.667    0.000    3.500    0.000    5.333 
#    0.000    1.667    0.000    4.000    0.000    0.000 
#    0.000    0.000    0.000    0.000    0.000    0.000 
#
# Total GULP energy -297540.272226 kJ/mol
# GULP energy per Si atom -12397.511343 kJ/mol
# Density = 1.802718 g / cm^3
# Si number density = 18.068300 Si / 1000 Ang^3
#
#
#
# Elastic Constant Matrix: (Units=GPa)
#
#
# Indices 1 2 3 4 5 6 
#
# 1 43.3515 40.5542 58.7676 0.0000 -2.5109 0.0000
# 2 40.5542 116.5975 82.4574 0.0000 7.9549 0.0000
# 3 58.7676 82.4574 191.8706 0.0000 -6.3097 0.0000
# 4 0.0000 0.0000 0.0000 37.9586 0.0000 3.5254
# 5 -2.5109 7.9549 -6.3097 0.0000 32.2097 0.0000
# 6 0.0000 0.0000 0.0000 3.5254 0.0000 22.0111
#
#
#
# Elastic Compliance Matrix: (Units=1/GPa)
#
#
# Indices 1 2 3 4 5 6 
#
# 1 0.044946 -0.008972 -0.009786 0.000000 0.003803 0.000000
# 2 -0.008972 0.014677 -0.003726 0.000000 -0.005054 0.000000
# 3 -0.009786 -0.003726 0.009879 0.000000 0.002093 0.000000
# 4 0.000000 0.000000 0.000000 0.026742 0.000000 -0.004283
# 5 0.003803 -0.005054 0.002093 0.000000 0.033001 0.000000
# 6 0.000000 0.000000 0.000000 -0.004283 0.000000 0.046118
#
#
# Mechanical properties :
#
#
# Convention : Reuss Voigt Hill
#
# Bulk Modulus (GPa) = 40.75761 79.48643 60.12202
# Shear Modulus (GPa) = 21.88120 29.77192 25.82656
#
# Velocity S-wave (km/s) = 3.48376 4.06364 3.78482
# Velocity P-wave (km/s) = 6.22805 8.13052 7.24203
#
# Compressibility (1/GPa) = 0.02453530
#
# Stress axis : x y z
#
# Youngs Moduli (GPa) = 22.24902 68.13594 101.22540
#
# Poissons Ratio (x) = 0.61130 0.99055
# Poissons Ratio (y) = 0.19961 0.37712
# Poissons Ratio (z) = 0.21772 0.25384
#
# Static dielectric constant tensor:
#      x y z
#    x 2.970490 0.000000 -0.143340 
#    y 0.000000 3.447050 0.000000 
#    z -0.143340 0.000000 3.817200 
# 
# 
# High freq. dielectric constant tensor:
#      x y z
#    x 1.652500 0.000000 -0.002990 
#    y 0.000000 1.704630 0.000000 
#    z -0.002990 0.000000 1.720970 
# 
# From -- ./inp_files/280075.got.cif
#   From: 2010.06.25/outbox.cif.g09.slc.cpg/sg12_141_cif.got.tgz:280075.got - 2010.06.28 00:19:55.
