data_PCOD8086794
_publ_section_title
;
Structure prediction by ZEFSAII (Michael W. Deem and Ramdas Pophale) SiO2 
 PCOD8086794
Probable space group: C 2/M
;
_chemical_formula_sum "Si O2"
_cell_formula_units_Z 56
_cell_length_a 20.469272
_cell_length_b 17.332528
_cell_length_c 18.633431
_cell_angle_alpha 90.000000
_cell_angle_beta 28.835318
_cell_angle_gamma 90.000000
_cell_volume 3188.370427
_symmetry_space_group_name_H-M "C 2/M"
_symmetry_group_IT_number 12
_symmetry_cell_setting 'monoclinic'
loop_
_space_group_symop_operation_xyz
x,y,z
-x,y,-z
-x,-y,-z
x,-y,z
1/2+x,1/2+y,z
1/2-x,1/2+y,-z
1/2-x,1/2-y,-z
1/2+x,1/2-y,z
loop_
_atom_site_type_symbol
_atom_site_label
_atom_site_fract_x
_atom_site_fract_y
_atom_site_fract_z
Si Si1 0.945538 0.672108 0.976378
Si Si2 0.043219 0.412758 0.755183
Si Si3 0.344182 0.909496 0.635745
Si Si4 0.246169 0.413322 0.931047
Si Si5 0.891534 0.850491 0.047286
Si Si6 0.965519 0.910114 0.826185
Si Si7 0.265336 0.091851 0.554110
O O1 0.798713 0.634784 0.096791
O O2 0.927641 0.763156 0.993144
O O3 0.000000 0.641784 0.000000
O O4 0.058774 0.643827 0.809355
O O5 0.092988 0.500000 0.726142
O O6 0.128367 0.377670 0.607284
O O7 0.882822 0.414912 0.889830
O O8 0.500000 0.891761 0.500000
O O9 0.257583 0.860444 0.776104
O O10 0.308114 0.878405 0.591209
O O11 0.310856 0.000000 0.676626
O O12 0.282274 0.500000 0.871254
O O13 0.371438 0.373811 0.853443
O O14 0.898755 0.898804 0.967790
O O15 0.000000 0.883705 0.000000
O O16 0.116631 0.874741 0.677838
O O17 0.971323 0.000000 0.804988
O O18 0.265265 0.000000 0.555134
#
# Coordination Sequence:
#
# PCOD8086794 Si02
#       7
#     8   8   8   8   8   8   8
#     4   9  19  34  55  75 104 132 176 218 259 310
#     4   8  16  32  54  77  99 126 169 220 264 302
#     4  10  21  33  51  78 105 138 178 214 251 301
#     4   8  17  32  53  78  98 126 173 222 262 301
#     4  11  21  34  52  73 110 146 176 207 251 308
#     4  10  19  31  51  76 105 137 172 212 256 311
#     4   9  17  31  50  75 105 132 164 211 262 307
#
# _framework density 17.563832000000001
#
# number of rings (size 3 to 8) (size 9 to 14) (size 15 to 20)
#    0.857    1.857    1.429    0.429    2.000    2.286 
#    0.000    0.714    6.286    0.000    0.000    4.000 
#    0.000    0.000    0.000    0.000    0.000    0.000 
#
# Total GULP energy -346918.762502 kJ/mol
# GULP energy per Si atom -12389.955804 kJ/mol
# Density = 1.752386 g / cm^3
# Si number density = 17.563832 Si / 1000 Ang^3
#
#
#
# Elastic Constant Matrix: (Units=GPa)
#
#
# Indices 1 2 3 4 5 6 
#
# 1 134.2535 20.5701 36.3269 -0.0013 -16.0449 0.0012
# 2 20.5701 29.7797 26.6901 -0.0021 2.3162 0.0010
# 3 36.3269 26.6901 98.7668 -0.0048 -0.1077 0.0044
# 4 -0.0013 -0.0021 -0.0048 14.0948 0.0012 1.2253
# 5 -16.0449 2.3162 -0.1077 0.0012 26.7141 0.0001
# 6 0.0012 0.0010 0.0044 1.2253 0.0001 17.9012
#
#
#
# Elastic Compliance Matrix: (Units=1/GPa)
#
#
# Indices 1 2 3 4 5 6 
#
# 1 0.009552 -0.005194 -0.002103 -0.000001 0.006179 0.000000
# 2 -0.005194 0.047544 -0.010946 0.000003 -0.007286 0.000000
# 3 -0.002103 -0.010946 0.013856 0.000003 -0.000258 -0.000003
# 4 -0.000001 0.000003 0.000003 0.071373 -0.000004 -0.004886
# 5 0.006179 -0.007286 -0.000258 -0.000004 0.041775 0.000000
# 6 0.000000 0.000000 -0.000003 -0.004886 0.000000 0.056197
#
#
# Mechanical properties :
#
#
# Convention : Reuss Voigt Hill
#
# Bulk Modulus (GPa) = 29.01299 47.77493 38.39396
# Shear Modulus (GPa) = 17.34479 23.68952 20.51716
#
# Velocity S-wave (km/s) = 3.14591 3.67654 3.42153
# Velocity P-wave (km/s) = 5.45436 6.72922 6.12505
#
# Compressibility (1/GPa) = 0.03446732
#
# Stress axis : x y z
#
# Youngs Moduli (GPa) = 104.69189 21.03302 72.17107
#
# Poissons Ratio (x) = 0.10924 0.15177
# Poissons Ratio (y) = 0.54373 0.78997
# Poissons Ratio (z) = 0.22016 0.23022
#
# Static dielectric constant tensor:
#      x y z
#    x 3.386870 0.000000 -0.108240 
#    y 0.000000 2.920590 0.000000 
#    z -0.108240 0.000000 3.209830 
# 
# 
# High freq. dielectric constant tensor:
#      x y z
#    x 1.679890 0.000000 -0.004390 
#    y 0.000000 1.648790 0.000000 
#    z -0.004390 0.000000 1.664620 
# 
# From -- ./inp_files/285607.got.cif
#   From: 2010.06.25/outbox.cif.g09.slc.cpg/sg12_143_cif.got.tgz:285607.got - 2010.06.28 00:19:55.
