data_PCOD8086640
_publ_section_title
;
Structure prediction by ZEFSAII (Michael W. Deem and Ramdas Pophale) SiO2 
 PCOD8086640
Probable space group: C 2/M
;
_chemical_formula_sum "Si O2"
_cell_formula_units_Z 64
_cell_length_a 21.137485
_cell_length_b 9.265893
_cell_length_c 19.313934
_cell_angle_alpha 90.000000
_cell_angle_beta 112.865759
_cell_angle_gamma 90.000000
_cell_volume 3485.522805
_symmetry_space_group_name_H-M "C 2/M"
_symmetry_group_IT_number 12
_symmetry_cell_setting 'monoclinic'
loop_
_space_group_symop_operation_xyz
x,y,z
-x,y,-z
-x,-y,-z
x,-y,z
1/2+x,1/2+y,z
1/2-x,1/2+y,-z
1/2-x,1/2-y,-z
1/2+x,1/2-y,z
loop_
_atom_site_type_symbol
_atom_site_label
_atom_site_fract_x
_atom_site_fract_y
_atom_site_fract_z
Si Si1 0.921111 0.157313 0.478138
Si Si2 0.729178 0.338125 0.383970
Si Si3 0.184930 0.165842 0.679547
Si Si4 0.699939 0.331491 0.843035
Si Si5 0.966167 0.335103 0.910656
Si Si6 0.342769 0.332625 0.914394
Si Si7 0.651433 0.839223 0.451819
Si Si8 0.588778 0.665566 0.908133
O O1 0.884066 0.207252 0.391597
O O2 0.912857 0.267843 0.537426
O O3 0.000000 0.143690 0.500000
O O4 0.890694 0.000000 0.486670
O O5 0.705658 0.500000 0.356716
O O6 0.753393 0.264159 0.323214
O O7 0.665832 0.248202 0.387732
O O8 0.787041 0.335051 0.467236
O O9 0.171692 0.198275 0.754097
O O10 0.206171 0.000000 0.677155
O O11 0.717318 0.500000 0.862847
O O12 0.768238 0.239373 0.883141
O O13 0.639890 0.279781 0.869421
O O14 0.952403 0.500000 0.881401
O O15 0.893828 0.248944 0.882477
O O16 0.018937 0.260206 0.879059
O O17 0.000000 0.330178 0.000000
O O18 0.337370 0.500000 0.889883
O O19 0.371113 0.317182 0.003419
O O20 0.632295 0.000000 0.421411
O O21 0.567061 0.500000 0.886312
#
# Coordination Sequence:
#
# PCOD8086640 Si02
#       8
#     8   8   8   8   8   8   8   8
#     4   9  17  30  49  71  95 124 161 201 242 290
#     4   9  16  27  45  68  93 118 151 192 232 280
#     4   9  18  32  49  69  95 128 160 195 244 298
#     4  10  20  33  50  72 102 136 168 207 257 309
#     4   9  17  30  50  74  99 129 167 211 257 302
#     4  10  19  31  50  75 102 131 170 215 255 300
#     4   9  16  26  44  70  94 118 149 190 237 281
#     4   9  18  32  50  74 102 134 171 212 256 302
#
# _framework density 18.361664999999999
#
# number of rings (size 3 to 8) (size 9 to 14) (size 15 to 20)
#    0.000    2.750    0.000    1.875    0.000    6.250 
#    0.000    0.000    2.750    0.000    0.000    0.000 
#    0.000    0.000    0.000    0.000    0.000    0.000 
#
# Total GULP energy -396692.143080 kJ/mol
# GULP energy per Si atom -12396.629471 kJ/mol
# Density = 1.831987 g / cm^3
# Si number density = 18.361665 Si / 1000 Ang^3
#
#
#
# Elastic Constant Matrix: (Units=GPa)
#
#
# Indices 1 2 3 4 5 6 
#
# 1 131.8698 76.1430 42.0838 0.0000 -30.0722 0.0000
# 2 76.1430 128.7282 36.1367 0.0000 -21.1174 0.0000
# 3 42.0838 36.1367 46.4161 0.0000 -18.1154 0.0000
# 4 0.0000 0.0000 0.0000 17.7932 0.0000 -6.0356
# 5 -30.0722 -21.1174 -18.1154 0.0000 19.5490 0.0000
# 6 0.0000 0.0000 0.0000 -6.0356 0.0000 34.2235
#
#
#
# Elastic Compliance Matrix: (Units=1/GPa)
#
#
# Indices 1 2 3 4 5 6 
#
# 1 0.015245 -0.005632 -0.004166 0.000000 0.013507 0.000000
# 2 -0.005632 0.012427 -0.004246 0.000000 0.000825 0.000000
# 3 -0.004166 -0.004246 0.038124 0.000000 0.024333 0.000000
# 4 0.000000 0.000000 0.000000 0.059777 0.000000 0.010542
# 5 0.013507 0.000825 0.024333 0.000000 0.095371 0.000000
# 6 0.000000 0.000000 0.000000 0.010542 0.000000 0.031079
#
#
# Mechanical properties :
#
#
# Convention : Reuss Voigt Hill
#
# Bulk Modulus (GPa) = 26.51999 68.41569 47.46784
# Shear Modulus (GPa) = 17.08344 24.48984 20.78664
#
# Velocity S-wave (km/s) = 3.05353 3.65601 3.36827
# Velocity P-wave (km/s) = 5.18715 7.42717 6.40583
#
# Compressibility (1/GPa) = 0.03770741
#
# Stress axis : x y z
#
# Youngs Moduli (GPa) = 65.59565 80.46838 26.23035
#
# Poissons Ratio (x) = 0.45322 0.10926
# Poissons Ratio (y) = 0.36945 0.11139
# Poissons Ratio (z) = 0.27324 0.34171
#
# Static dielectric constant tensor:
#      x y z
#    x 3.333490 0.000000 -0.226330 
#    y 0.000000 3.669380 0.000000 
#    z -0.226330 0.000000 3.104880 
# 
# 
# High freq. dielectric constant tensor:
#      x y z
#    x 1.706120 0.000000 -0.020870 
#    y 0.000000 1.720090 0.000000 
#    z -0.020870 0.000000 1.676620 
# 
# From -- ./inp_files/319230.got.cif
#   From: 2010.06.25/outbox.cif.g09.slc.cpg/sg12_160_cif.got.tgz:319230.got - 2010.06.28 00:19:55.
