data_PCOD8086645
_publ_section_title
;
Structure prediction by ZEFSAII (Michael W. Deem and Ramdas Pophale) SiO2 
 PCOD8086645
Probable space group: C 2/M
;
_chemical_formula_sum "Si O2"
_cell_formula_units_Z 64
_cell_length_a 20.774075
_cell_length_b 8.842446
_cell_length_c 23.766826
_cell_angle_alpha 90.000000
_cell_angle_beta 49.053481
_cell_angle_gamma 90.000000
_cell_volume 3297.594269
_symmetry_space_group_name_H-M "C 2/M"
_symmetry_group_IT_number 12
_symmetry_cell_setting 'monoclinic'
loop_
_space_group_symop_operation_xyz
x,y,z
-x,y,-z
-x,-y,-z
x,-y,z
1/2+x,1/2+y,z
1/2-x,1/2+y,-z
1/2-x,1/2-y,-z
1/2+x,1/2-y,z
loop_
_atom_site_type_symbol
_atom_site_label
_atom_site_fract_x
_atom_site_fract_y
_atom_site_fract_z
Si Si1 0.440796 0.679321 0.415115
Si Si2 0.305743 0.319905 0.582742
Si Si3 0.748859 0.819886 0.831854
Si Si4 0.060577 0.679899 0.916239
Si Si5 0.190962 0.178815 0.081017
Si Si6 0.512385 0.824412 0.160481
Si Si7 0.128233 0.180346 0.336031
Si Si8 0.116717 0.675274 0.665269
O O1 0.440219 0.500000 0.415870
O O2 0.369010 0.743068 0.498507
O O3 0.532335 0.740821 0.382895
O O4 0.424111 0.733331 0.361960
O O5 0.307322 0.500000 0.583620
O O6 0.335557 0.255675 0.625948
O O7 0.211065 0.261061 0.623602
O O8 0.655267 0.755071 0.871516
O O9 0.777369 0.761176 0.876632
O O10 0.814013 0.756247 0.747861
O O11 0.748500 0.000000 0.830720
O O12 0.063522 0.500000 0.916172
O O13 0.024261 0.735461 0.877557
O O14 0.000000 0.743813 0.000000
O O15 0.093772 0.226234 0.129267
O O16 0.198823 0.000000 0.072525
O O17 0.250000 0.250000 0.000000
O O18 0.439338 0.796902 0.247729
O O19 0.538981 0.000000 0.141595
O O20 0.129780 0.000000 0.335394
O O21 0.120168 0.500000 0.646619
#
# Coordination Sequence:
#
# PCOD8086645 Si02
#       8
#     8   8   8   8   8   8   8   8
#     4  10  19  31  50  75 102 133 170 213 258 304
#     4   9  17  30  49  74 102 132 169 213 259 303
#     4   9  17  29  48  74 100 128 167 214 257 298
#     4   9  16  28  48  72  96 123 161 209 254 298
#     4  11  22  36  55  79 107 137 169 206 250 301
#     4  10  20  34  53  77 103 132 168 210 256 303
#     4   9  16  28  48  74 100 126 165 217 263 298
#     4  10  20  33  50  73 103 137 169 205 252 307
#
# _framework density 19.408087999999999
#
# number of rings (size 3 to 8) (size 9 to 14) (size 15 to 20)
#    0.000    2.375    0.000    3.375    0.000    8.000 
#    0.000    0.000    0.000    6.375    0.000    0.000 
#    0.000    0.000    0.000    0.000    0.000    0.000 
#
# Total GULP energy -396852.312356 kJ/mol
# GULP energy per Si atom -12401.634761 kJ/mol
# Density = 1.936391 g / cm^3
# Si number density = 19.408088 Si / 1000 Ang^3
#
#
#
# Elastic Constant Matrix: (Units=GPa)
#
#
# Indices 1 2 3 4 5 6 
#
# 1 151.2463 17.5277 43.2929 -0.0002 0.0420 0.0009
# 2 17.5277 17.6453 16.0868 -0.0005 -0.4604 0.0019
# 3 43.2929 16.0868 116.0871 -0.0002 -0.2694 0.0005
# 4 -0.0002 -0.0005 -0.0002 19.0015 0.0001 2.1445
# 5 0.0420 -0.4604 -0.2694 0.0001 47.7042 -0.0001
# 6 0.0009 0.0019 0.0005 2.1445 -0.0001 23.4495
#
#
#
# Elastic Compliance Matrix: (Units=1/GPa)
#
#
# Indices 1 2 3 4 5 6 
#
# 1 0.007907 -0.005915 -0.002129 0.000000 -0.000076 0.000000
# 2 -0.005915 0.069308 -0.007397 0.000002 0.000632 -0.000005
# 3 -0.002129 -0.007397 0.010433 0.000000 -0.000011 0.000000
# 4 0.000000 0.000002 0.000000 0.053176 0.000000 -0.004863
# 5 -0.000076 0.000632 -0.000011 0.000000 0.020969 0.000000
# 6 0.000000 -0.000005 0.000000 -0.004863 0.000000 0.043090
#
#
# Mechanical properties :
#
#
# Convention : Reuss Voigt Hill
#
# Bulk Modulus (GPa) = 17.61621 48.75484 33.18553
# Shear Modulus (GPa) = 19.63196 31.90247 25.76721
#
# Velocity S-wave (km/s) = 3.18391 4.05874 3.64765
# Velocity P-wave (km/s) = 4.75530 6.86585 5.90563
#
# Compressibility (1/GPa) = 0.05676589
#
# Stress axis : x y z
#
# Youngs Moduli (GPa) = 126.47531 14.42831 95.84697
#
# Poissons Ratio (x) = 0.08534 0.20408
# Poissons Ratio (y) = 0.74808 0.70899
# Poissons Ratio (z) = 0.26929 0.10673
#
# Static dielectric constant tensor:
#      x y z
#    x 3.944970 0.000000 -0.195240 
#    y 0.000000 2.959560 0.000000 
#    z -0.195240 0.000000 3.968780 
# 
# 
# High freq. dielectric constant tensor:
#      x y z
#    x 1.775810 0.000000 -0.000850 
#    y 0.000000 1.691750 0.000000 
#    z -0.000850 0.000000 1.777390 
# 
# From -- ./inp_files/346081.got.cif
#   From: 2010.06.25/outbox.cif.g09.slc.cpg/sg12_174_cif.got.tgz:346081.got - 2010.06.28 00:19:55.
