data_PCOD8087234
_publ_section_title
;
Structure prediction by ZEFSAII (Michael W. Deem and Ramdas Pophale) SiO2 
 PCOD8087234
Probable space group: C 2/M
;
_chemical_formula_sum "Si O2"
_cell_formula_units_Z 64
_cell_length_a 20.352927
_cell_length_b 9.780675
_cell_length_c 24.717721
_cell_angle_alpha 90.000000
_cell_angle_beta 51.001706
_cell_angle_gamma 90.000000
_cell_volume 3823.993933
_symmetry_space_group_name_H-M "C 2/M"
_symmetry_group_IT_number 12
_symmetry_cell_setting 'monoclinic'
loop_
_space_group_symop_operation_xyz
x,y,z
-x,y,-z
-x,-y,-z
x,-y,z
1/2+x,1/2+y,z
1/2-x,1/2+y,-z
1/2-x,1/2-y,-z
1/2+x,1/2-y,z
loop_
_atom_site_type_symbol
_atom_site_label
_atom_site_fract_x
_atom_site_fract_y
_atom_site_fract_z
Si Si1 0.725155 0.341859 0.797085
Si Si2 0.119224 0.839994 0.656897
Si Si3 0.136515 0.653835 0.919893
Si Si4 0.065386 0.155090 0.805278
Si Si5 0.124019 0.661543 0.353754
Si Si6 0.975569 0.653375 0.926277
Si Si7 0.188738 0.661861 0.433434
Si Si8 0.059225 0.338147 0.591851
O O1 0.729717 0.500000 0.811593
O O2 0.707940 0.256484 0.860763
O O3 0.653868 0.315915 0.788960
O O4 0.812806 0.287722 0.726127
O O5 0.076945 0.812342 0.736515
O O6 0.215815 0.787427 0.607440
O O7 0.067673 0.747493 0.642043
O O8 0.114185 0.000000 0.643688
O O9 0.173269 0.500000 0.901741
O O10 0.056470 0.661040 0.922498
O O11 0.106601 0.697373 0.995829
O O12 0.989321 0.247343 0.868176
O O13 0.037127 0.000000 0.829370
O O14 0.133029 0.500000 0.353379
O O15 0.150546 0.725774 0.397943
O O16 0.029109 0.704909 0.389354
O O17 0.963289 0.500000 0.910482
O O18 0.186770 0.500000 0.429431
O O19 0.132795 0.709677 0.513064
O O20 0.062900 0.500000 0.602446
#
# Coordination Sequence:
#
# PCOD8087234 Si02
#       8
#     8   8   8   8   8   8   8   8
#     4   9  15  25  43  64  86 115 152 189 222 260
#     4  10  19  32  48  66  94 127 153 186 234 279
#     4   8  14  24  37  58  90 121 145 174 222 274
#     4   9  16  26  42  63  86 117 154 186 219 265
#     4   9  16  29  48  70  93 118 154 197 233 266
#     4   8  14  24  38  58  88 121 146 177 222 267
#     4   9  16  30  51  70  89 119 157 194 232 273
#     4  10  20  31  48  72  93 117 155 197 232 272
#
# _framework density 16.736428
#
# number of rings (size 3 to 8) (size 9 to 14) (size 15 to 20)
#    0.000    3.000    1.250    1.500    0.000    2.500 
#    0.000    3.125    0.000    3.000    0.000    0.875 
#    0.000    0.000    0.000    0.000    0.000    0.000 
#
# Total GULP energy -396674.823438 kJ/mol
# GULP energy per Si atom -12396.088232 kJ/mol
# Density = 1.669834 g / cm^3
# Si number density = 16.736428 Si / 1000 Ang^3
#
#
#
# Elastic Constant Matrix: (Units=GPa)
#
#
# Indices 1 2 3 4 5 6 
#
# 1 44.7252 24.2593 27.1564 0.0000 10.1351 -0.0001
# 2 24.2593 55.6648 50.5032 -0.0001 8.7542 -0.0003
# 3 27.1564 50.5032 111.7128 0.0000 12.4554 0.0000
# 4 0.0000 -0.0001 0.0000 26.1002 0.0000 5.7324
# 5 10.1351 8.7542 12.4554 0.0000 9.7370 0.0000
# 6 -0.0001 -0.0003 0.0000 5.7324 0.0000 16.0349
#
#
#
# Elastic Compliance Matrix: (Units=1/GPa)
#
#
# Indices 1 2 3 4 5 6 
#
# 1 0.034098 -0.010040 -0.000932 0.000000 -0.025273 0.000000
# 2 -0.010040 0.034537 -0.012685 0.000000 -0.004374 0.000001
# 3 -0.000932 -0.012685 0.015784 0.000000 -0.007816 0.000000
# 4 0.000000 0.000000 0.000000 0.041578 0.000000 -0.014864
# 5 -0.025273 -0.004374 -0.007816 0.000000 0.142938 0.000000
# 6 0.000000 0.000001 0.000000 -0.014864 0.000000 0.067678
#
#
# Mechanical properties :
#
#
# Convention : Reuss Voigt Hill
#
# Bulk Modulus (GPa) = 26.95095 46.21562 36.58329
# Shear Modulus (GPa) = 12.61685 17.72002 15.16844
#
# Velocity S-wave (km/s) = 2.74862 3.25740 3.01377
# Velocity P-wave (km/s) = 5.11970 6.46694 5.83235
#
# Compressibility (1/GPa) = 0.03710444
#
# Stress axis : x y z
#
# Youngs Moduli (GPa) = 29.32765 28.95456 63.35405
#
# Poissons Ratio (x) = 0.29069 0.05906
# Poissons Ratio (y) = 0.29444 0.80366
# Poissons Ratio (z) = 0.02734 0.36729
#
# Static dielectric constant tensor:
#      x y z
#    x 2.812630 0.000000 -0.021870 
#    y 0.000000 2.975940 0.000000 
#    z -0.021870 0.000000 3.478130 
# 
# 
# High freq. dielectric constant tensor:
#      x y z
#    x 1.603300 0.000000 0.001300 
#    y 0.000000 1.617700 0.000000 
#    z 0.001300 0.000000 1.661880 
# 
# From -- ./inp_files/315706.got.cif
#   From: 2010.06.25/outbox.cif.g09.slc.cpg/sg12_158_cif.got.tgz:315706.got - 2010.06.28 00:19:55.
