data_PCOD8087535
_publ_section_title
;
Structure prediction by ZEFSAII (Michael W. Deem and Ramdas Pophale) SiO2 
 PCOD8087535
Probable space group: C 2/M
;
_chemical_formula_sum "Si O2"
_cell_formula_units_Z 56
_cell_length_a 19.027479
_cell_length_b 8.926595
_cell_length_c 24.137552
_cell_angle_alpha 90.000000
_cell_angle_beta 47.329563
_cell_angle_gamma 90.000000
_cell_volume 3014.420599
_symmetry_space_group_name_H-M "C 2/M"
_symmetry_group_IT_number 12
_symmetry_cell_setting 'monoclinic'
loop_
_space_group_symop_operation_xyz
x,y,z
-x,y,-z
-x,-y,-z
x,-y,z
1/2+x,1/2+y,z
1/2-x,1/2+y,-z
1/2-x,1/2-y,-z
1/2+x,1/2-y,z
loop_
_atom_site_type_symbol
_atom_site_label
_atom_site_fract_x
_atom_site_fract_y
_atom_site_fract_z
Si Si1 0.946991 0.822900 0.758090
Si Si2 0.038613 0.326074 0.812621
Si Si3 0.222463 0.326147 0.207333
Si Si4 0.740201 0.328049 0.308904
Si Si5 0.194851 0.173098 0.454678
Si Si6 0.056665 0.174237 0.915449
Si Si7 0.396220 0.825222 0.399569
O O1 0.839950 0.768435 0.802328
O O2 0.974242 0.762871 0.803755
O O3 0.015359 0.761773 0.673496
O O4 0.951672 0.000000 0.756089
O O5 0.013001 0.500000 0.821812
O O6 0.148682 0.294748 0.739138
O O7 0.014753 0.268458 0.886820
O O8 0.197723 0.500000 0.214198
O O9 0.199120 0.277448 0.282870
O O10 0.332092 0.289961 0.134547
O O11 0.726644 0.500000 0.297721
O O12 0.682478 0.293441 0.396102
O O13 0.302358 0.215943 0.414652
O O14 0.118872 0.272800 0.528891
O O15 0.175135 0.000000 0.478951
O O16 0.040732 0.000000 0.910821
O O17 0.000000 0.225694 0.000000
O O18 0.419775 0.000000 0.385198
#
# Coordination Sequence:
#
# PCOD8087535 Si02
#       7
#     8   8   8   8   8   8   8
#     4  12  23  36  54  78 110 147 185 225 273 324
#     4  10  19  34  57  84 111 142 182 224 266 317
#     4  10  21  36  56  81 110 143 178 220 270 322
#     4   9  17  33  54  77 107 141 180 225 270 321
#     4   9  17  31  50  76 107 141 180 225 275 322
#     4   9  19  38  62  88 115 142 175 216 264 322
#     4  10  19  32  50  76 108 142 181 229 276 319
#
# _framework density 18.577366999999999
#
# number of rings (size 3 to 8) (size 9 to 14) (size 15 to 20)
#    0.000    2.143    1.429    2.571    0.000    2.571 
#    0.000    1.429    0.000    4.286    0.000    0.000 
#    0.000    0.000    0.000    0.000    0.000    0.000 
#
# Total GULP energy -347297.151716 kJ/mol
# GULP energy per Si atom -12403.469704 kJ/mol
# Density = 1.853508 g / cm^3
# Si number density = 18.577367 Si / 1000 Ang^3
#
#
#
# Elastic Constant Matrix: (Units=GPa)
#
#
# Indices 1 2 3 4 5 6 
#
# 1 97.9046 60.1342 51.5783 0.0000 9.5230 0.0001
# 2 60.1342 112.8869 51.9972 0.0001 8.2972 0.0003
# 3 51.5783 51.9972 109.2655 0.0000 19.8017 0.0000
# 4 0.0000 0.0001 0.0000 28.6029 0.0000 5.1133
# 5 9.5230 8.2972 19.8017 0.0000 19.5039 0.0000
# 6 0.0001 0.0003 0.0000 5.1133 0.0000 33.3246
#
#
#
# Elastic Compliance Matrix: (Units=1/GPa)
#
#
# Indices 1 2 3 4 5 6 
#
# 1 0.016903 -0.006833 -0.004606 0.000000 -0.000670 0.000000
# 2 -0.006833 0.014118 -0.003688 0.000000 0.001074 0.000000
# 3 -0.004606 -0.003688 0.015183 0.000000 -0.011597 0.000000
# 4 0.000000 0.000000 0.000000 0.035947 0.000000 -0.005516
# 5 -0.000670 0.001074 -0.011597 0.000000 0.062916 0.000000
# 6 0.000000 0.000000 0.000000 -0.005516 0.000000 0.030854
#
#
# Mechanical properties :
#
#
# Convention : Reuss Voigt Hill
#
# Bulk Modulus (GPa) = 62.69431 71.94180 67.31805
# Shear Modulus (GPa) = 23.64176 26.70946 25.17561
#
# Velocity S-wave (km/s) = 3.57124 3.79587 3.68527
# Velocity P-wave (km/s) = 7.12923 7.61716 7.37723
#
# Compressibility (1/GPa) = 0.01595041
#
# Stress axis : x y z
#
# Youngs Moduli (GPa) = 59.16253 70.83139 65.86512
#
# Poissons Ratio (x) = 0.48401 0.30335
# Poissons Ratio (y) = 0.40427 0.24288
# Poissons Ratio (z) = 0.27248 0.26119
#
# Static dielectric constant tensor:
#      x y z
#    x 3.320610 0.000000 0.138040 
#    y 0.000000 3.437080 0.000000 
#    z 0.138040 0.000000 3.404100 
# 
# 
# High freq. dielectric constant tensor:
#      x y z
#    x 1.708690 0.000000 0.013520 
#    y 0.000000 1.726450 0.000000 
#    z 0.013520 0.000000 1.710870 
# 
# From -- ./inp_files/342346.got.cif
#   From: 2010.06.25/outbox.cif.g09.slc.cpg/sg12_172_cif.got.tgz:342346.got - 2010.06.28 00:19:55.
