data_PCOD8087672
_publ_section_title
;
Structure prediction by ZEFSAII (Michael W. Deem and Ramdas Pophale) SiO2 
 PCOD8087672
Probable space group: C 2/M
;
_chemical_formula_sum "Si O2"
_cell_formula_units_Z 56
_cell_length_a 15.762467
_cell_length_b 9.463759
_cell_length_c 25.394380
_cell_angle_alpha 90.000000
_cell_angle_beta 129.521766
_cell_angle_gamma 90.000000
_cell_volume 2922.102714
_symmetry_space_group_name_H-M "C 2/M"
_symmetry_group_IT_number 12
_symmetry_cell_setting 'monoclinic'
loop_
_space_group_symop_operation_xyz
x,y,z
-x,y,-z
-x,-y,-z
x,-y,z
1/2+x,1/2+y,z
1/2-x,1/2+y,-z
1/2-x,1/2-y,-z
1/2+x,1/2-y,z
loop_
_atom_site_type_symbol
_atom_site_label
_atom_site_fract_x
_atom_site_fract_y
_atom_site_fract_z
Si Si1 0.975330 0.836507 0.572023
Si Si2 0.444658 0.338760 0.289034
Si Si3 0.184577 0.165878 0.930551
Si Si4 0.728732 0.167628 0.150340
Si Si5 0.177993 0.163242 0.576379
Si Si6 0.431214 0.666092 0.845378
Si Si7 0.143958 0.840649 0.296631
O O1 0.871300 0.773149 0.498200
O O2 0.995823 0.763072 0.637209
O O3 0.086782 0.815307 0.584423
O O4 0.946318 0.000000 0.567063
O O5 0.424950 0.500000 0.298410
O O6 0.325968 0.275503 0.227249
O O7 0.518607 0.330220 0.266427
O O8 0.237233 0.208598 0.895359
O O9 0.056900 0.210328 0.884387
O O10 0.197964 0.000000 0.945792
O O11 0.250000 0.250000 0.000000
O O12 0.617358 0.247528 0.124055
O O13 0.711014 0.000000 0.148370
O O14 0.285230 0.244878 0.636856
O O15 0.210064 0.000000 0.582891
O O16 0.422610 0.500000 0.853915
O O17 0.358663 0.707234 0.765213
O O18 0.188555 0.000000 0.319155
#
# Coordination Sequence:
#
# PCOD8087672 Si02
#       7
#     8   8   8   8   8   8   8
#     4   8  15  28  47  69  97 134 177 223 272 320
#     4   9  16  30  52  74 100 140 184 223 267 323
#     4  10  22  41  62  86 118 150 182 222 271 329
#     4  10  20  37  62  87 110 145 193 232 263 321
#     4   9  17  30  47  71 100 132 176 229 273 317
#     4  10  21  38  58  83 116 149 181 226 282 329
#     4  10  19  32  51  74 103 140 179 221 273 329
#
# _framework density 19.164282
#
# number of rings (size 3 to 8) (size 9 to 14) (size 15 to 20)
#    0.000    2.571    1.429    1.714    0.000    4.000 
#    0.000    5.000    0.000    1.714    0.000    0.000 
#    0.000    0.000    0.000    0.000    0.000    0.000 
#
# Total GULP energy -346987.601654 kJ/mol
# GULP energy per Si atom -12392.414345 kJ/mol
# Density = 1.912066 g / cm^3
# Si number density = 19.164282 Si / 1000 Ang^3
#
#
#
# Elastic Constant Matrix: (Units=GPa)
#
#
# Indices 1 2 3 4 5 6 
#
# 1 103.0938 37.8054 56.9327 0.0000 -11.4812 0.0000
# 2 37.8054 39.5757 42.0602 0.0000 -1.1052 0.0000
# 3 56.9327 42.0602 131.0357 0.0000 -8.0784 0.0000
# 4 0.0000 0.0000 0.0000 25.7738 0.0000 0.3383
# 5 -11.4812 -1.1052 -8.0784 0.0000 27.8182 0.0000
# 6 0.0000 0.0000 0.0000 0.3383 0.0000 26.2779
#
#
#
# Elastic Compliance Matrix: (Units=1/GPa)
#
#
# Indices 1 2 3 4 5 6 
#
# 1 0.016475 -0.012654 -0.002758 0.000000 0.005496 0.000000
# 2 -0.012654 0.048189 -0.010359 0.000000 -0.006317 0.000000
# 3 -0.002758 -0.010359 0.012279 0.000000 0.002016 0.000000
# 4 0.000000 0.000000 0.000000 0.038806 0.000000 -0.000500
# 5 0.005496 -0.006317 0.002016 0.000000 0.038551 0.000000
# 6 0.000000 0.000000 0.000000 -0.000500 0.000000 0.038061
#
#
# Mechanical properties :
#
#
# Convention : Reuss Voigt Hill
#
# Bulk Modulus (GPa) = 39.36758 60.81131 50.08944
# Shear Modulus (GPa) = 19.81213 25.10109 22.45661
#
# Velocity S-wave (km/s) = 3.21877 3.62302 3.42686
# Velocity P-wave (km/s) = 5.86522 7.02155 6.46927
#
# Compressibility (1/GPa) = 0.02540161
#
# Stress axis : x y z
#
# Youngs Moduli (GPa) = 60.69736 20.75146 81.43881
#
# Poissons Ratio (x) = 0.26259 0.22458
# Poissons Ratio (y) = 0.76806 0.84366
# Poissons Ratio (z) = 0.16738 0.21497
#
# Static dielectric constant tensor:
#      x y z
#    x 3.393330 0.000000 -0.092200 
#    y 0.000000 3.095540 0.000000 
#    z -0.092200 0.000000 3.729040 
# 
# 
# High freq. dielectric constant tensor:
#      x y z
#    x 1.744880 0.000000 -0.004760 
#    y 0.000000 1.699940 0.000000 
#    z -0.004760 0.000000 1.759960 
# 
# From -- ./inp_files/339102.got.cif
#   From: 2010.06.25/outbox.cif.g09.slc.cpg/sg12_170_cif.got.tgz:339102.got - 2010.06.28 00:19:55.
