data_PCOD8087309
_publ_section_title
;
Structure prediction by ZEFSAII (Michael W. Deem and Ramdas Pophale) SiO2 
 PCOD8087309
Probable space group: C 2/M
;
_chemical_formula_sum "Si O2"
_cell_formula_units_Z 40
_cell_length_a 20.810004
_cell_length_b 9.095793
_cell_length_c 14.385806
_cell_angle_alpha 90.000000
_cell_angle_beta 120.201920
_cell_angle_gamma 90.000000
_cell_volume 2353.370537
_symmetry_space_group_name_H-M "C 2/M"
_symmetry_group_IT_number 12
_symmetry_cell_setting 'monoclinic'
loop_
_space_group_symop_operation_xyz
x,y,z
-x,y,-z
-x,-y,-z
x,-y,z
1/2+x,1/2+y,z
1/2-x,1/2+y,-z
1/2-x,1/2-y,-z
1/2+x,1/2-y,z
loop_
_atom_site_type_symbol
_atom_site_label
_atom_site_fract_x
_atom_site_fract_y
_atom_site_fract_z
Si Si1 0.181231 0.671999 0.498300
Si Si2 0.270317 0.670664 0.732249
Si Si3 0.296796 0.674772 0.954535
Si Si4 0.034822 0.826185 0.930749
Si Si5 0.905552 0.173562 0.705413
O O1 0.181666 0.500000 0.475442
O O2 0.250000 0.750000 0.500000
O O3 0.193615 0.698250 0.618487
O O4 0.105863 0.745764 0.403098
O O5 0.287476 0.500000 0.756061
O O6 0.264640 0.734430 0.832259
O O7 0.341903 0.733788 0.729326
O O8 0.290333 0.500000 0.960298
O O9 0.250000 0.750000 0.000000
O O10 0.381786 0.730450 0.024738
O O11 0.985051 0.780538 0.805612
O O12 0.035433 0.000000 0.942470
O O13 0.000000 0.758110 0.000000
O O14 0.899056 0.000000 0.684101
#
# Coordination Sequence:
#
# PCOD8087309 Si02
#       5
#     8   8   8   8   8
#     4   9  16  26  42  67  94 122 152 189 234 278
#     4   8  14  26  45  65  89 120 155 188 223 274
#     4  10  19  32  49  70  95 124 158 195 233 281
#     4   9  15  27  51  73  90 121 164 198 228 276
#     4   9  15  26  46  72  93 115 152 197 237 273
#
# _framework density 16.996898000000002
#
# number of rings (size 3 to 8) (size 9 to 14) (size 15 to 20)
#    0.000    3.000    2.000    1.800    0.000    0.000 
#    0.000    6.000    0.000    2.400    0.000    8.400 
#    0.000    0.000    0.000    0.000    0.000    0.000 
#
# Total GULP energy -247772.615814 kJ/mol
# GULP energy per Si atom -12388.630791 kJ/mol
# Density = 1.695821 g / cm^3
# Si number density = 16.996898 Si / 1000 Ang^3
#
#
#
# Elastic Constant Matrix: (Units=GPa)
#
#
# Indices 1 2 3 4 5 6 
#
# 1 87.2113 22.2017 67.8027 0.0000 2.5561 0.0000
# 2 22.2017 42.3837 48.3486 0.0000 2.1498 0.0000
# 3 67.8027 48.3486 191.8998 0.0000 8.8394 0.0000
# 4 0.0000 0.0000 0.0000 26.6348 0.0000 -0.0847
# 5 2.5561 2.1498 8.8394 0.0000 19.6513 0.0000
# 6 0.0000 0.0000 0.0000 -0.0847 0.0000 18.6920
#
#
#
# Elastic Compliance Matrix: (Units=1/GPa)
#
#
# Indices 1 2 3 4 5 6 
#
# 1 0.016033 -0.002716 -0.005002 0.000000 0.000462 0.000000
# 2 -0.002716 0.033570 -0.007501 0.000000 0.000055 0.000000
# 3 -0.005002 -0.007501 0.008987 0.000000 -0.002571 0.000000
# 4 0.000000 0.000000 0.000000 0.037545 0.000000 0.000170
# 5 0.000462 0.000055 -0.002571 0.000000 0.051978 0.000000
# 6 0.000000 0.000000 0.000000 0.000170 0.000000 0.053500
#
#
# Mechanical properties :
#
#
# Convention : Reuss Voigt Hill
#
# Bulk Modulus (GPa) = 35.52098 66.46679 50.99389
# Shear Modulus (GPa) = 20.70958 25.20509 22.95734
#
# Velocity S-wave (km/s) = 3.49439 3.85505 3.67914
# Velocity P-wave (km/s) = 6.10122 7.68150 6.93651
#
# Compressibility (1/GPa) = 0.02815237
#
# Stress axis : x y z
#
# Youngs Moduli (GPa) = 62.37147 29.78811 111.27783
#
# Poissons Ratio (x) = 0.08091 0.55658
# Poissons Ratio (y) = 0.16942 0.83467
# Poissons Ratio (z) = 0.31197 0.22343
#
# Static dielectric constant tensor:
#      x y z
#    x 2.846260 0.000000 0.136560 
#    y 0.000000 2.919800 0.000000 
#    z 0.136560 0.000000 3.977660 
# 
# 
# High freq. dielectric constant tensor:
#      x y z
#    x 1.601510 0.000000 0.009340 
#    y 0.000000 1.617690 0.000000 
#    z 0.009340 0.000000 1.684960 
# 
# From -- ./inp_files/179666.got.cif
#   From: 2010.06.25/outbox.cif.g09.slc.cpg/sg12_90_cif.got.tgz:179666.got - 2010.06.28 00:19:55.
