data_PCOD8087312
_publ_section_title
;
Structure prediction by ZEFSAII (Michael W. Deem and Ramdas Pophale) SiO2 
 PCOD8087312
Probable space group: C 2/M
;
_chemical_formula_sum "Si O2"
_cell_formula_units_Z 64
_cell_length_a 20.027683
_cell_length_b 9.285296
_cell_length_c 21.068072
_cell_angle_alpha 90.000000
_cell_angle_beta 68.777071
_cell_angle_gamma 90.000000
_cell_volume 3652.166553
_symmetry_space_group_name_H-M "C 2/M"
_symmetry_group_IT_number 12
_symmetry_cell_setting 'monoclinic'
loop_
_space_group_symop_operation_xyz
x,y,z
-x,y,-z
-x,-y,-z
x,-y,z
1/2+x,1/2+y,z
1/2-x,1/2+y,-z
1/2-x,1/2-y,-z
1/2+x,1/2-y,z
loop_
_atom_site_type_symbol
_atom_site_label
_atom_site_fract_x
_atom_site_fract_y
_atom_site_fract_z
Si Si1 0.079275 0.829776 0.969014
Si Si2 0.179994 0.828048 0.820357
Si Si3 0.676642 0.331702 0.191288
Si Si4 0.683309 0.669521 0.552603
Si Si5 0.027619 0.171503 0.296110
Si Si6 0.967748 0.170486 0.447125
Si Si7 0.880305 0.170800 0.293127
Si Si8 0.681239 0.334533 0.043563
O O1 0.124610 0.772157 0.893152
O O2 0.073214 0.000000 0.964202
O O3 0.115956 0.782698 0.022120
O O4 0.000000 0.760920 0.000000
O O5 0.256952 0.758554 0.805939
O O6 0.151687 0.771229 0.762011
O O7 0.188286 0.000000 0.819285
O O8 0.690059 0.500000 0.201219
O O9 0.604801 0.269858 0.248500
O O10 0.662388 0.304375 0.122361
O O11 0.697912 0.500000 0.545232
O O12 0.750000 0.750000 0.500000
O O13 0.615162 0.712469 0.532936
O O14 0.668881 0.720127 0.630306
O O15 0.013946 0.228408 0.372007
O O16 0.962125 0.227393 0.274032
O O17 0.028184 0.000000 0.292997
O O18 0.000000 0.240769 0.500000
O O19 0.975079 0.000000 0.446952
O O20 0.882178 0.000000 0.291356
O O21 0.698076 0.500000 0.024416
O O22 0.750000 0.250000 0.000000
#
# Coordination Sequence:
#
# PCOD8087312 Si02
#       8
#     8   8   8   8   8   8   8   8
#     4   9  18  30  47  72  93 115 158 203 229 262
#     4  10  19  32  50  69  94 126 157 192 232 276
#     4  10  20  31  48  72  98 123 151 193 238 279
#     4   9  17  30  48  71  96 123 155 191 232 277
#     4   8  15  28  45  67  92 120 155 192 231 270
#     4   8  14  26  45  68  93 120 154 192 226 268
#     4   8  16  30  48  69  93 123 160 196 227 267
#     4  10  19  32  49  70  96 123 152 192 237 276
#
# _framework density 17.523844
#
# number of rings (size 3 to 8) (size 9 to 14) (size 15 to 20)
#    0.000    3.000    1.250    1.500    1.750    1.000 
#    0.000    1.875    0.000    5.625    0.000    0.000 
#    0.000    0.000    0.000    0.000    0.000    0.000 
#
# Total GULP energy -396612.457568 kJ/mol
# GULP energy per Si atom -12394.139299 kJ/mol
# Density = 1.748396 g / cm^3
# Si number density = 17.523844 Si / 1000 Ang^3
#
#
#
# Elastic Constant Matrix: (Units=GPa)
#
#
# Indices 1 2 3 4 5 6 
#
# 1 176.7353 32.7369 111.1395 0.0000 -0.3937 -0.0001
# 2 32.7369 19.2232 29.4512 -0.0001 -3.1485 -0.0003
# 3 111.1395 29.4512 144.6067 0.0000 -6.6815 0.0000
# 4 0.0000 -0.0001 0.0000 18.5778 0.0000 -4.8331
# 5 -0.3937 -3.1485 -6.6815 0.0000 43.3710 0.0000
# 6 -0.0001 -0.0003 0.0000 -4.8331 0.0000 22.9901
#
#
#
# Elastic Compliance Matrix: (Units=1/GPa)
#
#
# Indices 1 2 3 4 5 6 
#
# 1 0.012087 -0.009466 -0.007442 0.000000 -0.001724 0.000000
# 2 -0.009466 0.083454 -0.009513 0.000001 0.004507 0.000001
# 3 -0.007442 -0.009513 0.014641 0.000000 0.001497 0.000000
# 4 0.000000 0.000001 0.000000 0.056942 0.000000 0.011971
# 5 -0.001724 0.004507 0.001497 0.000000 0.023599 0.000000
# 6 0.000000 0.000001 0.000000 0.011971 0.000000 0.046013
#
#
# Mechanical properties :
#
#
# Convention : Reuss Voigt Hill
#
# Bulk Modulus (GPa) = 17.43951 76.35784 46.89868
# Shear Modulus (GPa) = 16.19735 28.13696 22.16716
#
# Velocity S-wave (km/s) = 3.04353 4.01139 3.56050
# Velocity P-wave (km/s) = 4.72486 8.06990 6.61240
#
# Compressibility (1/GPa) = 0.05734105
#
# Stress axis : x y z
#
# Youngs Moduli (GPa) = 82.73038 11.98268 68.29921
#
# Poissons Ratio (x) = 0.11343 0.50827
# Poissons Ratio (y) = 0.78312 0.64974
# Poissons Ratio (z) = 0.61566 0.11399
#
# Static dielectric constant tensor:
#      x y z
#    x 3.514110 0.000000 0.182110 
#    y 0.000000 2.733520 0.000000 
#    z 0.182110 0.000000 3.585860 
# 
# 
# High freq. dielectric constant tensor:
#      x y z
#    x 1.689540 0.000000 0.002320 
#    y 0.000000 1.617110 0.000000 
#    z 0.002320 0.000000 1.689210 
# 
# From -- ./inp_files/315345.got.cif
#   From: 2010.06.25/outbox.cif.g09.slc.cpg/sg12_158_cif.got.tgz:315345.got - 2010.06.28 00:19:55.
