data_PCOD8087220
_publ_section_title
;
Structure prediction by ZEFSAII (Michael W. Deem and Ramdas Pophale) SiO2 
 PCOD8087220
Probable space group: C 2/M
;
_chemical_formula_sum "Si O2"
_cell_formula_units_Z 44
_cell_length_a 15.506737
_cell_length_b 17.370261
_cell_length_c 9.177604
_cell_angle_alpha 90.000000
_cell_angle_beta 77.561107
_cell_angle_gamma 90.000000
_cell_volume 2414.015304
_symmetry_space_group_name_H-M "C 2/M"
_symmetry_group_IT_number 12
_symmetry_cell_setting 'monoclinic'
loop_
_space_group_symop_operation_xyz
x,y,z
-x,y,-z
-x,-y,-z
x,-y,z
1/2+x,1/2+y,z
1/2-x,1/2+y,-z
1/2-x,1/2-y,-z
1/2+x,1/2-y,z
loop_
_atom_site_type_symbol
_atom_site_label
_atom_site_fract_x
_atom_site_fract_y
_atom_site_fract_z
Si Si1 0.635928 0.590585 0.406202
Si Si2 0.469090 0.590634 0.281323
Si Si3 0.916282 0.663836 0.947780
Si Si4 0.003012 0.590169 0.664935
Si Si5 0.500000 0.688487 0.000000
Si Si6 0.321363 0.090720 0.226225
O O1 0.641342 0.500000 0.421123
O O2 0.566622 0.610949 0.304712
O O3 0.602476 0.621642 0.575158
O O4 0.731943 0.623980 0.331214
O O5 0.458757 0.500000 0.255401
O O6 0.453102 0.635664 0.137416
O O7 0.923705 0.634849 0.778217
O O8 0.924192 0.756904 0.955525
O O9 0.830632 0.632517 0.065047
O O10 0.000000 0.624367 0.000000
O O11 0.983662 0.500000 0.684137
O O12 0.098771 0.612246 0.694502
O O13 0.000000 0.618459 0.500000
O O14 0.314902 0.000000 0.200602
#
# Coordination Sequence:
#
# PCOD8087220 Si02
#       6
#     8   8   8   8   4   8
#     4   8  16  31  53  75  91 117 161 203 243 286
#     4   9  17  33  52  70  92 123 166 210 244 277
#     4   8  17  30  45  66 102 124 159 183 229 292
#     4   9  16  28  48  72  98 130 162 192 229 277
#     4  10  19  32  47  70  94 130 164 196 239 290
#     4   9  15  29  52  74  98 126 153 190 237 288
#
# _framework density 18.226893
#
# number of rings (size 3 to 8) (size 9 to 14) (size 15 to 20)
#    0.545    2.727    0.000    1.909    0.000    2.182 
#    3.273    3.636    0.000    6.545    0.000    0.000 
#    0.000    0.000    0.000    0.000    0.000    0.000 
#
# Total GULP energy -272613.849614 kJ/mol
# GULP energy per Si atom -12391.538619 kJ/mol
# Density = 1.818541 g / cm^3
# Si number density = 18.226893 Si / 1000 Ang^3
#
#
#
# Elastic Constant Matrix: (Units=GPa)
#
#
# Indices 1 2 3 4 5 6 
#
# 1 63.5859 21.4716 53.8585 0.0000 -25.2830 0.0000
# 2 21.4716 61.5093 60.3011 0.0000 -6.2230 0.0000
# 3 53.8585 60.3011 178.6492 0.0000 -20.0564 0.0000
# 4 0.0000 0.0000 0.0000 16.3912 0.0000 5.4744
# 5 -25.2830 -6.2230 -20.0564 0.0000 28.0404 0.0000
# 6 0.0000 0.0000 0.0000 5.4744 0.0000 9.5912
#
#
#
# Elastic Compliance Matrix: (Units=1/GPa)
#
#
# Indices 1 2 3 4 5 6 
#
# 1 0.030612 -0.002753 -0.005729 0.000000 0.022892 0.000000
# 2 -0.002753 0.024553 -0.007746 0.000000 -0.002574 0.000000
# 3 -0.005729 -0.007746 0.009967 0.000000 0.000244 0.000000
# 4 0.000000 0.000000 0.000000 0.075377 0.000000 -0.043023
# 5 0.022892 -0.002574 0.000244 0.000000 0.055907 0.000000
# 6 0.000000 0.000000 0.000000 -0.043023 0.000000 0.128818
#
#
# Mechanical properties :
#
#
# Convention : Reuss Voigt Hill
#
# Bulk Modulus (GPa) = 30.60577 63.88963 47.24770
# Shear Modulus (GPa) = 13.56546 22.01211 17.78879
#
# Velocity S-wave (km/s) = 2.73106 3.47893 3.12743
# Velocity P-wave (km/s) = 5.17426 7.16001 6.24655
#
# Compressibility (1/GPa) = 0.03267358
#
# Stress axis : x y z
#
# Youngs Moduli (GPa) = 32.66719 40.72888 100.33139
#
# Poissons Ratio (x) = 0.11212 0.57484
# Poissons Ratio (y) = 0.08993 0.77722
# Poissons Ratio (z) = 0.18716 0.31551
#
# Static dielectric constant tensor:
#      x y z
#    x 3.273000 0.000000 -0.330370 
#    y 0.000000 3.014020 0.000000 
#    z -0.330370 0.000000 3.596250 
# 
# 
# High freq. dielectric constant tensor:
#      x y z
#    x 1.663140 0.000000 -0.016940 
#    y 0.000000 1.681180 0.000000 
#    z -0.016940 0.000000 1.719900 
# 
# From -- ./inp_files/74403.got.cif
#   From: 2010.06.25/outbox.cif.g09.slc.cpg/sg12_38_cif.got.tgz:74403.got - 2010.06.28 00:19:55.
