data_PCOD8087044
_publ_section_title
;
Structure prediction by ZEFSAII (Michael W. Deem and Ramdas Pophale) SiO2 
 PCOD8087044
Probable space group: C 2/M
;
_chemical_formula_sum "Si O2"
_cell_formula_units_Z 64
_cell_length_a 18.087467
_cell_length_b 13.866565
_cell_length_c 19.176048
_cell_angle_alpha 90.000000
_cell_angle_beta 45.648261
_cell_angle_gamma 90.000000
_cell_volume 3439.135652
_symmetry_space_group_name_H-M "C 2/M"
_symmetry_group_IT_number 12
_symmetry_cell_setting 'monoclinic'
loop_
_space_group_symop_operation_xyz
x,y,z
-x,y,-z
-x,-y,-z
x,-y,z
1/2+x,1/2+y,z
1/2-x,1/2+y,-z
1/2-x,1/2-y,-z
1/2+x,1/2-y,z
loop_
_atom_site_type_symbol
_atom_site_label
_atom_site_fract_x
_atom_site_fract_y
_atom_site_fract_z
Si Si1 0.081713 0.608361 0.504708
Si Si2 0.398757 0.110116 0.108187
Si Si3 0.726812 0.708444 0.829093
Si Si4 0.090965 0.608530 0.738131
Si Si5 0.729660 0.266401 0.594585
Si Si6 0.572053 0.605702 0.019484
Si Si7 0.433888 0.889927 0.728957
Si Si8 0.616653 0.614095 0.771308
O O1 0.128383 0.500000 0.463871
O O2 0.167609 0.690284 0.438841
O O3 0.000000 0.631766 0.500000
O O4 0.029919 0.617008 0.613590
O O5 0.299128 0.177447 0.158885
O O6 0.432521 0.120161 0.165554
O O7 0.369358 0.000000 0.107748
O O8 0.500000 0.146479 0.000000
O O9 0.847177 0.687091 0.763595
O O10 0.694419 0.655587 0.778938
O O11 0.668432 0.672808 0.937620
O O12 0.116859 0.500000 0.699281
O O13 0.195876 0.664852 0.649072
O O14 0.985701 0.641197 0.768130
O O15 0.750000 0.250000 0.500000
O O16 0.639617 0.341608 0.679211
O O17 0.615740 0.500000 0.009605
O O18 0.500867 0.644197 0.130331
O O19 0.500000 0.598535 0.000000
O O20 0.389183 0.000000 0.759564
O O21 0.630070 0.500000 0.761002
#
# Coordination Sequence:
#
# PCOD8087044 Si02
#       8
#     8   8   8   8   8   8   8   8
#     4  10  21  36  56  86 119 146 183 238 291 341
#     4  10  21  38  62  85 110 151 202 244 274 327
#     4  11  18  31  59  91 114 146 183 229 287 347
#     4  10  22  40  58  80 113 152 198 240 278 333
#     4  12  22  35  57  80 111 154 194 232 280 339
#     4   8  15  27  47  81 118 140 165 218 285 347
#     4  10  20  35  55  83 120 152 182 232 293 344
#     4  10  19  31  52  84 117 142 180 236 290 341
#
# _framework density 18.609327
#
# number of rings (size 3 to 8) (size 9 to 14) (size 15 to 20)
#    0.000    1.875    2.500    4.125    0.000    1.500 
#    0.000    0.625    0.000    2.625    0.000    0.000 
#    0.000    0.000    0.000    0.000    0.000    0.000 
#
# Total GULP energy -396537.653630 kJ/mol
# GULP energy per Si atom -12391.801676 kJ/mol
# Density = 1.856697 g / cm^3
# Si number density = 18.609327 Si / 1000 Ang^3
#
#
#
# Elastic Constant Matrix: (Units=GPa)
#
#
# Indices 1 2 3 4 5 6 
#
# 1 68.0844 48.4919 27.5775 0.0000 -3.8422 0.0000
# 2 48.4919 106.5162 37.9313 0.0000 -5.4772 0.0000
# 3 27.5775 37.9313 102.5846 0.0000 14.3363 0.0000
# 4 0.0000 0.0000 0.0000 34.7867 0.0000 -4.0031
# 5 -3.8422 -5.4772 14.3363 0.0000 24.0497 0.0000
# 6 0.0000 0.0000 0.0000 -4.0031 0.0000 27.4194
#
#
#
# Elastic Compliance Matrix: (Units=1/GPa)
#
#
# Indices 1 2 3 4 5 6 
#
# 1 0.022567 -0.008935 -0.003254 0.000000 0.003510 0.000000
# 2 -0.008935 0.015002 -0.003734 0.000000 0.004215 0.000000
# 3 -0.003254 -0.003734 0.013303 0.000000 -0.009301 0.000000
# 4 0.000000 0.000000 0.000000 0.029238 0.000000 0.004269
# 5 0.003510 0.004215 -0.009301 0.000000 0.048646 0.000000
# 6 0.000000 0.000000 0.000000 0.004269 0.000000 0.037094
#
#
# Mechanical properties :
#
#
# Convention : Reuss Voigt Hill
#
# Bulk Modulus (GPa) = 52.55551 56.13184 54.34367
# Shear Modulus (GPa) = 24.50527 28.13014 26.31771
#
# Velocity S-wave (km/s) = 3.63275 3.89217 3.76469
# Velocity P-wave (km/s) = 6.77485 7.10122 6.93996
#
# Compressibility (1/GPa) = 0.01902750
#
# Stress axis : x y z
#
# Youngs Moduli (GPa) = 44.31221 66.65591 75.16935
#
# Poissons Ratio (x) = 0.59555 0.24457
# Poissons Ratio (y) = 0.39592 0.28072
# Poissons Ratio (z) = 0.14417 0.24892
#
# Static dielectric constant tensor:
#      x y z
#    x 3.159240 0.000000 0.186970 
#    y 0.000000 3.623560 0.000000 
#    z 0.186970 0.000000 3.910990 
# 
# 
# High freq. dielectric constant tensor:
#      x y z
#    x 1.678740 0.000000 0.009530 
#    y 0.000000 1.722180 0.000000 
#    z 0.009530 0.000000 1.737850 
# 
# From -- ./inp_files/270665.got.cif
#   From: 2010.06.25/outbox.cif.g09.slc.cpg/sg12_136_cif.got.tgz:270665.got - 2010.06.28 00:19:55.
