data_PCOD8087641
_publ_section_title
;
Structure prediction by ZEFSAII (Michael W. Deem and Ramdas Pophale) SiO2 
 PCOD8087641
Probable space group: C 2/M
;
_chemical_formula_sum "Si O2"
_cell_formula_units_Z 56
_cell_length_a 19.092548
_cell_length_b 8.936893
_cell_length_c 26.176632
_cell_angle_alpha 90.000000
_cell_angle_beta 39.976491
_cell_angle_gamma 90.000000
_cell_volume 2869.586103
_symmetry_space_group_name_H-M "C 2/M"
_symmetry_group_IT_number 12
_symmetry_cell_setting 'monoclinic'
loop_
_space_group_symop_operation_xyz
x,y,z
-x,y,-z
-x,-y,-z
x,-y,z
1/2+x,1/2+y,z
1/2-x,1/2+y,-z
1/2-x,1/2-y,-z
1/2+x,1/2-y,z
loop_
_atom_site_type_symbol
_atom_site_label
_atom_site_fract_x
_atom_site_fract_y
_atom_site_fract_z
Si Si1 0.385086 0.330426 0.670509
Si Si2 0.889270 0.823801 0.085598
Si Si3 0.227111 0.322211 0.567598
Si Si4 0.566587 0.172922 0.513898
Si Si5 0.178859 0.167977 0.176981
Si Si6 0.828787 0.824732 0.232182
Si Si7 0.049056 0.175960 0.733872
O O1 0.402576 0.500000 0.641962
O O2 0.494361 0.235390 0.600683
O O3 0.363302 0.321436 0.742139
O O4 0.284597 0.260317 0.695134
O O5 0.786052 0.768647 0.110062
O O6 0.881845 0.772524 0.148870
O O7 0.890759 0.000000 0.080316
O O8 0.000000 0.755422 0.000000
O O9 0.227029 0.500000 0.562692
O O10 0.250000 0.250000 0.500000
O O11 0.321787 0.265570 0.552791
O O12 0.113096 0.267700 0.654833
O O13 0.500000 0.199354 0.500000
O O14 0.594407 0.000000 0.508259
O O15 0.078833 0.221346 0.196996
O O16 0.213325 0.000000 0.143600
O O17 0.910683 0.782169 0.231905
O O18 0.801978 0.000000 0.246458
O O19 0.063762 0.000000 0.713872
#
# Coordination Sequence:
#
# PCOD8087641 Si02
#       7
#     8   8   8   8   8   8   8
#     4  10  19  32  51  74 100 132 175 223 267 316
#     4   9  18  34  56  81 108 138 173 211 253 309
#     4  12  25  39  56  78 107 144 185 229 277 325
#     4  11  23  37  53  75 105 141 181 226 276 325
#     4   9  19  34  53  76 101 132 168 209 258 312
#     4   9  18  33  54  77 104 141 178 216 266 320
#     4  10  20  36  55  76 105 139 178 221 267 320
#
# _framework density 19.515008999999999
#
# number of rings (size 3 to 8) (size 9 to 14) (size 15 to 20)
#    0.000    2.000    0.000    3.857    0.000    7.714 
#    0.000    0.714    0.000    0.000    0.000    0.000 
#    0.000    0.000    0.000    0.000    0.000    0.000 
#
# Total GULP energy -347248.384829 kJ/mol
# GULP energy per Si atom -12401.728030 kJ/mol
# Density = 1.947059 g / cm^3
# Si number density = 19.515009 Si / 1000 Ang^3
#
#
#
# Elastic Constant Matrix: (Units=GPa)
#
#
# Indices 1 2 3 4 5 6 
#
# 1 105.8364 27.8471 24.3416 0.0001 -17.4755 0.0001
# 2 27.8471 66.4817 23.3328 0.0002 -3.3676 0.0001
# 3 24.3416 23.3328 83.9968 0.0000 -17.4719 0.0000
# 4 0.0001 0.0002 0.0000 26.8232 0.0000 -7.4343
# 5 -17.4755 -3.3676 -17.4719 0.0000 26.9881 0.0001
# 6 0.0001 0.0001 0.0000 -7.4343 0.0001 27.6385
#
#
#
# Elastic Compliance Matrix: (Units=1/GPa)
#
#
# Indices 1 2 3 4 5 6 
#
# 1 0.011877 -0.004337 -0.000867 0.000000 0.006588 0.000000
# 2 -0.004337 0.018277 -0.004541 0.000000 -0.003468 0.000000
# 3 -0.000867 -0.004541 0.015235 0.000000 0.008735 0.000000
# 4 0.000000 0.000000 0.000000 0.040284 0.000000 0.010836
# 5 0.006588 -0.003468 0.008735 0.000000 0.046542 0.000000
# 6 0.000000 0.000000 0.000000 0.010836 0.000000 0.039096
#
#
# Mechanical properties :
#
#
# Convention : Reuss Voigt Hill
#
# Bulk Modulus (GPa) = 38.61272 45.26198 41.93735
# Shear Modulus (GPa) = 25.07105 28.34286 26.70695
#
# Velocity S-wave (km/s) = 3.58817 3.81512 3.70338
# Velocity P-wave (km/s) = 6.08241 6.53075 6.31056
#
# Compressibility (1/GPa) = 0.02589820
#
# Stress axis : x y z
#
# Youngs Moduli (GPa) = 84.19752 54.71488 65.63903
#
# Poissons Ratio (x) = 0.23729 0.05689
# Poissons Ratio (y) = 0.36516 0.29809
# Poissons Ratio (z) = 0.07297 0.24848
#
# Static dielectric constant tensor:
#      x y z
#    x 3.760740 0.000000 -0.191260 
#    y 0.000000 3.591100 0.000000 
#    z -0.191260 0.000000 3.625770 
# 
# 
# High freq. dielectric constant tensor:
#      x y z
#    x 1.767400 0.000000 -0.012430 
#    y 0.000000 1.755440 0.000000 
#    z -0.012430 0.000000 1.745600 
# 
# From -- ./inp_files/342598.got.cif
#   From: 2010.06.25/outbox.cif.g09.slc.cpg/sg12_172_cif.got.tgz:342598.got - 2010.06.28 00:19:55.
