data_PCOD8087422
_publ_section_title
;
Structure prediction by ZEFSAII (Michael W. Deem and Ramdas Pophale) SiO2 
 PCOD8087422
Probable space group: C 2/M
;
_chemical_formula_sum "Si O2"
_cell_formula_units_Z 48
_cell_length_a 27.523472
_cell_length_b 8.997728
_cell_length_c 11.366115
_cell_angle_alpha 90.000000
_cell_angle_beta 78.441128
_cell_angle_gamma 90.000000
_cell_volume 2757.717678
_symmetry_space_group_name_H-M "C 2/M"
_symmetry_group_IT_number 12
_symmetry_cell_setting 'monoclinic'
loop_
_space_group_symop_operation_xyz
x,y,z
-x,y,-z
-x,-y,-z
x,-y,z
1/2+x,1/2+y,z
1/2-x,1/2+y,-z
1/2-x,1/2-y,-z
1/2+x,1/2-y,z
loop_
_atom_site_type_symbol
_atom_site_label
_atom_site_fract_x
_atom_site_fract_y
_atom_site_fract_z
Si Si1 0.085568 0.172115 0.283184
Si Si2 0.488849 0.167231 0.368130
Si Si3 0.608240 0.327392 0.543195
Si Si4 0.794501 0.323790 0.408880
Si Si5 0.677594 0.324730 0.086107
Si Si6 0.219788 0.674455 0.851414
O O1 0.035897 0.263549 0.277837
O O2 0.104198 0.198291 0.406242
O O3 0.128168 0.231027 0.175406
O O4 0.073454 0.000000 0.268401
O O5 0.500000 0.168155 0.500000
O O6 0.440599 0.267261 0.366494
O O7 0.479619 0.000000 0.326778
O O8 0.615565 0.500000 0.570671
O O9 0.654095 0.232331 0.564876
O O10 0.790559 0.500000 0.424088
O O11 0.750000 0.250000 0.500000
O O12 0.790822 0.273490 0.275410
O O13 0.676744 0.500000 0.071621
O O14 0.724740 0.274257 0.141003
O O15 0.679923 0.252022 0.956179
O O16 0.213329 0.500000 0.869236
#
# Coordination Sequence:
#
# PCOD8087422 Si02
#       6
#     8   8   8   8   8   8
#     4   9  17  30  49  73 100 129 161 199 244 289
#     4   9  17  29  46  71 100 128 162 201 240 285
#     4  10  19  32  50  72 101 133 162 196 242 290
#     4  11  22  35  51  72 100 131 163 198 238 287
#     4   9  17  31  51  72  95 125 162 200 237 284
#     4   9  19  34  49  69  98 129 160 197 241 284
#
# _framework density 17.405698000000001
#
# number of rings (size 3 to 8) (size 9 to 14) (size 15 to 20)
#    0.000    2.500    0.000    2.500    0.000    7.333 
#    0.000    3.333    0.000    1.000    0.000    7.000 
#    0.000    0.000    0.000    0.000    0.000    0.000 
#
# Total GULP energy -297630.089044 kJ/mol
# GULP energy per Si atom -12401.253710 kJ/mol
# Density = 1.736608 g / cm^3
# Si number density = 17.405698 Si / 1000 Ang^3
#
#
#
# Elastic Constant Matrix: (Units=GPa)
#
#
# Indices 1 2 3 4 5 6 
#
# 1 110.7216 42.9529 59.6675 0.0000 -27.1756 0.0000
# 2 42.9529 68.8538 47.0401 0.0000 -9.3751 0.0000
# 3 59.6675 47.0401 100.9123 0.0000 -25.7947 0.0000
# 4 0.0000 0.0000 0.0000 27.1703 0.0000 -4.0915
# 5 -27.1756 -9.3751 -25.7947 0.0000 31.5721 0.0000
# 6 0.0000 0.0000 0.0000 -4.0915 0.0000 34.3314
#
#
#
# Elastic Compliance Matrix: (Units=1/GPa)
#
#
# Indices 1 2 3 4 5 6 
#
# 1 0.015630 -0.005496 -0.004623 0.000000 0.008044 0.000000
# 2 -0.005496 0.023371 -0.008949 0.000000 -0.005102 0.000000
# 3 -0.004623 -0.008949 0.019109 0.000000 0.008975 0.000000
# 4 0.000000 0.000000 0.000000 0.037477 0.000000 0.004466
# 5 0.008044 -0.005102 0.008975 0.000000 0.044415 0.000000
# 6 0.000000 0.000000 0.000000 0.004466 0.000000 0.029660
#
#
# Mechanical properties :
#
#
# Convention : Reuss Voigt Hill
#
# Bulk Modulus (GPa) = 50.06759 64.42318 57.24539
# Shear Modulus (GPa) = 23.31466 27.33657 25.32561
#
# Velocity S-wave (km/s) = 3.66387 3.96732 3.81861
# Velocity P-wave (km/s) = 6.83565 7.62097 7.23897
#
# Compressibility (1/GPa) = 0.01997300
#
# Stress axis : x y z
#
# Youngs Moduli (GPa) = 63.98094 42.78745 52.33146
#
# Poissons Ratio (x) = 0.23518 0.24194
# Poissons Ratio (y) = 0.35167 0.46830
# Poissons Ratio (z) = 0.29580 0.38290
#
# Static dielectric constant tensor:
#      x y z
#    x 3.421830 0.000000 -0.197300 
#    y 0.000000 3.298880 0.000000 
#    z -0.197300 0.000000 3.172130 
# 
# 
# High freq. dielectric constant tensor:
#      x y z
#    x 1.671730 0.000000 -0.019340 
#    y 0.000000 1.678180 0.000000 
#    z -0.019340 0.000000 1.651180 
# 
# From -- ./inp_files/172186.got.cif
#   From: 2010.06.25/outbox.cif.g09.slc.cpg/sg12_87_cif.got.tgz:172186.got - 2010.06.28 00:19:55.
