data_PCOD8087123
_publ_section_title
;
Structure prediction by ZEFSAII (Michael W. Deem and Ramdas Pophale) SiO2 
 PCOD8087123
Probable space group: C 2/M
;
_chemical_formula_sum "Si O2"
_cell_formula_units_Z 52
_cell_length_a 23.103934
_cell_length_b 10.701705
_cell_length_c 11.682537
_cell_angle_alpha 90.000000
_cell_angle_beta 80.169143
_cell_angle_gamma 90.000000
_cell_volume 2846.109793
_symmetry_space_group_name_H-M "C 2/M"
_symmetry_group_IT_number 12
_symmetry_cell_setting 'monoclinic'
loop_
_space_group_symop_operation_xyz
x,y,z
-x,y,-z
-x,-y,-z
x,-y,z
1/2+x,1/2+y,z
1/2-x,1/2+y,-z
1/2-x,1/2-y,-z
1/2+x,1/2-y,z
loop_
_atom_site_type_symbol
_atom_site_label
_atom_site_fract_x
_atom_site_fract_y
_atom_site_fract_z
Si Si1 0.310965 0.361474 0.865619
Si Si2 0.138191 0.640310 0.587003
Si Si3 0.409283 0.000000 0.786600
Si Si4 0.180722 0.718833 0.920228
Si Si5 0.203969 0.138685 0.694985
Si Si6 0.662717 0.811491 0.331262
Si Si7 0.403007 0.000000 0.059226
Si Si8 0.958377 0.500000 0.267418
O O1 0.334693 0.500000 0.876625
O O2 0.241262 0.356945 0.909477
O O3 0.327366 0.323846 0.729537
O O4 0.340288 0.271437 0.950115
O O5 0.168483 0.500000 0.578722
O O6 0.178870 0.747577 0.627716
O O7 0.125864 0.686034 0.461038
O O8 0.075115 0.624278 0.671871
O O9 0.372956 0.117693 0.755217
O O10 0.474843 0.000000 0.712013
O O11 0.416477 0.000000 0.920905
O O12 0.186837 0.835133 0.831968
O O13 0.132732 0.622534 0.891267
O O14 0.274101 0.130337 0.659898
O O15 0.179368 0.000000 0.669296
O O16 0.458365 0.000000 0.127461
#
# Coordination Sequence:
#
# PCOD8087123 Si02
#       8
#     8   8   4   8   8   8   4   4
#     4  10  20  31  50  85 122 162 191 235 302 368
#     4  10  21  39  59  84 119 155 207 240 294 350
#     4  12  22  40  61  89 118 148 204 259 293 354
#     4  10  19  31  54  80 122 155 191 240 296 367
#     4  11  21  34  56  88 124 155 193 234 302 363
#     4  11  22  34  56  87 119 158 190 246 296 349
#     4  12  19  38  60  90 108 148 199 249 306 338
#     4  10  24  40  63  85 114 156 205 255 298 340
#
# _framework density 18.270553
#
# number of rings (size 3 to 8) (size 9 to 14) (size 15 to 20)
#    0.462    0.923    5.385    1.154    0.000    2.462 
#    0.000    0.000    0.000    0.923    0.000    4.308 
#    0.000    0.000    0.000    0.000    0.000    0.000 
#
# Total GULP energy -322128.832139 kJ/mol
# GULP energy per Si atom -12389.570467 kJ/mol
# Density = 1.822897 g / cm^3
# Si number density = 18.270553 Si / 1000 Ang^3
#
#
#
# Elastic Constant Matrix: (Units=GPa)
#
#
# Indices 1 2 3 4 5 6 
#
# 1 64.6075 29.0627 17.7738 0.0000 -6.1616 0.0000
# 2 29.0627 111.0741 29.3733 0.0000 3.7853 0.0000
# 3 17.7738 29.3733 106.6417 0.0000 7.9404 0.0000
# 4 0.0000 0.0000 0.0000 19.9350 0.0000 2.9351
# 5 -6.1616 3.7853 7.9404 0.0000 18.5423 0.0000
# 6 0.0000 0.0000 0.0000 2.9351 0.0000 18.2925
#
#
#
# Elastic Compliance Matrix: (Units=1/GPa)
#
#
# Indices 1 2 3 4 5 6 
#
# 1 0.019038 -0.004597 -0.002528 0.000000 0.008347 0.000000
# 2 -0.004597 0.010834 -0.002003 0.000000 -0.002881 0.000000
# 3 -0.002528 -0.002003 0.010724 0.000000 -0.005024 0.000000
# 4 0.000000 0.000000 0.000000 0.051377 0.000000 -0.008244
# 5 0.008347 -0.002881 -0.005024 0.000000 0.059444 0.000000
# 6 0.000000 0.000000 0.000000 -0.008244 0.000000 0.055990
#
#
# Mechanical properties :
#
#
# Convention : Reuss Voigt Hill
#
# Bulk Modulus (GPa) = 44.76581 48.30476 46.53528
# Shear Modulus (GPa) = 21.44912 25.09489 23.27200
#
# Velocity S-wave (km/s) = 3.43004 3.71012 3.57283
# Velocity P-wave (km/s) = 6.34364 6.69696 6.52269
#
# Compressibility (1/GPa) = 0.02233848
#
# Stress axis : x y z
#
# Youngs Moduli (GPa) = 52.52754 92.30361 93.24507
#
# Poissons Ratio (x) = 0.42433 0.23575
# Poissons Ratio (y) = 0.24147 0.18680
# Poissons Ratio (z) = 0.13280 0.18491
#
# Static dielectric constant tensor:
#      x y z
#    x 2.993450 0.000000 0.113500 
#    y 0.000000 3.259000 0.000000 
#    z 0.113500 0.000000 3.475660 
# 
# 
# High freq. dielectric constant tensor:
#      x y z
#    x 1.663820 0.000000 0.015410 
#    y 0.000000 1.698960 0.000000 
#    z 0.015410 0.000000 1.724310 
# 
# From -- ./inp_files/164813.got.cif
#   From: 2010.06.25/outbox.cif.g09.slc.cpg/sg12_83_cif.got.tgz:164813.got - 2010.06.28 00:19:55.
