data_PCOD8087435
_publ_section_title
;
Structure prediction by ZEFSAII (Michael W. Deem and Ramdas Pophale) SiO2 
 PCOD8087435
Probable space group: C 2/M
;
_chemical_formula_sum "Si O2"
_cell_formula_units_Z 56
_cell_length_a 15.036636
_cell_length_b 9.207696
_cell_length_c 20.291142
_cell_angle_alpha 90.000000
_cell_angle_beta 100.612275
_cell_angle_gamma 90.000000
_cell_volume 2761.313270
_symmetry_space_group_name_H-M "C 2/M"
_symmetry_group_IT_number 12
_symmetry_cell_setting 'monoclinic'
loop_
_space_group_symop_operation_xyz
x,y,z
-x,y,-z
-x,-y,-z
x,-y,z
1/2+x,1/2+y,z
1/2-x,1/2+y,-z
1/2-x,1/2-y,-z
1/2+x,1/2-y,z
loop_
_atom_site_type_symbol
_atom_site_label
_atom_site_fract_x
_atom_site_fract_y
_atom_site_fract_z
Si Si1 0.216347 0.337142 0.932702
Si Si2 0.006931 0.339795 0.929083
Si Si3 0.461764 0.327787 0.660240
Si Si4 0.724253 0.331288 0.430791
Si Si5 0.978160 0.159038 0.806957
Si Si6 0.311212 0.663284 0.193243
Si Si7 0.853423 0.328064 0.327940
O O1 0.258320 0.500000 0.937488
O O2 0.109088 0.349347 0.919722
O O3 0.245032 0.249049 0.870821
O O4 0.250000 0.250000 0.000000
O O5 0.963532 0.500000 0.929288
O O6 0.949202 0.256383 0.865444
O O7 0.000000 0.262087 0.000000
O O8 0.484151 0.500000 0.661637
O O9 0.376789 0.285365 0.603965
O O10 0.438224 0.281078 0.732449
O O11 0.547546 0.238588 0.645703
O O12 0.727564 0.500000 0.446787
O O13 0.750000 0.250000 0.500000
O O14 0.794810 0.290528 0.383761
O O15 0.085569 0.152113 0.814656
O O16 0.938283 0.000000 0.815778
O O17 0.271858 0.500000 0.196894
O O18 0.303191 0.753502 0.259585
O O19 0.860850 0.500000 0.315859
#
# Coordination Sequence:
#
# PCOD8087435 Si02
#       7
#     8   8   8   8   8   8   8
#     4  10  19  32  50  72 103 140 180 227 278 331
#     4   9  18  32  48  68 100 135 170 218 271 319
#     4   9  19  38  60  82 112 151 190 230 281 342
#     4  10  23  41  60  85 121 154 187 234 285 343
#     4   8  15  29  51  74  97 131 177 220 261 317
#     4   9  17  32  54  77 104 140 183 227 275 336
#     4  10  20  36  59  87 116 147 188 238 287 335
#
# _framework density 20.280204000000001
#
# number of rings (size 3 to 8) (size 9 to 14) (size 15 to 20)
#    0.000    2.714    0.000    2.143    0.000    6.571 
#    2.571    2.857    0.000    0.000    0.000    0.000 
#    0.000    0.000    0.000    0.000    0.000    0.000 
#
# Total GULP energy -347111.229192 kJ/mol
# GULP energy per Si atom -12396.829614 kJ/mol
# Density = 2.023405 g / cm^3
# Si number density = 20.280204 Si / 1000 Ang^3
#
#
#
# Elastic Constant Matrix: (Units=GPa)
#
#
# Indices 1 2 3 4 5 6 
#
# 1 52.3299 44.7104 51.7775 0.0000 -2.0116 0.0000
# 2 44.7104 129.4440 93.3458 0.0000 -0.0596 0.0000
# 3 51.7775 93.3458 191.7083 0.0000 4.4944 0.0000
# 4 0.0000 0.0000 0.0000 41.9082 0.0000 -0.3891
# 5 -2.0116 -0.0596 4.4944 0.0000 26.7702 0.0000
# 6 0.0000 0.0000 0.0000 -0.3891 0.0000 20.4223
#
#
#
# Elastic Compliance Matrix: (Units=1/GPa)
#
#
# Indices 1 2 3 4 5 6 
#
# 1 0.029812 -0.006840 -0.004792 0.000000 0.003030 0.000000
# 2 -0.006840 0.013502 -0.004734 0.000000 0.000311 0.000000
# 3 -0.004792 -0.004734 0.008859 0.000000 -0.001858 0.000000
# 4 0.000000 0.000000 0.000000 0.023866 0.000000 0.000455
# 5 0.003030 0.000311 -0.001858 0.000000 0.037895 0.000000
# 6 0.000000 0.000000 0.000000 0.000455 0.000000 0.048975
#
#
# Mechanical properties :
#
#
# Convention : Reuss Voigt Hill
#
# Bulk Modulus (GPa) = 51.43979 83.68328 67.56153
# Shear Modulus (GPa) = 24.73759 30.06339 27.40049
#
# Velocity S-wave (km/s) = 3.49634 3.85437 3.67971
# Velocity P-wave (km/s) = 6.45901 7.82057 7.17217
#
# Compressibility (1/GPa) = 0.01944020
#
# Stress axis : x y z
#
# Youngs Moduli (GPa) = 33.54401 74.06294 112.87505
#
# Poissons Ratio (x) = 0.50657 0.54093
# Poissons Ratio (y) = 0.22943 0.53439
# Poissons Ratio (z) = 0.16075 0.35064
#
# Static dielectric constant tensor:
#      x y z
#    x 3.310250 0.000000 0.056340 
#    y 0.000000 3.946580 0.000000 
#    z 0.056340 0.000000 3.789720 
# 
# 
# High freq. dielectric constant tensor:
#      x y z
#    x 1.766770 0.000000 0.001790 
#    y 0.000000 1.793630 0.000000 
#    z 0.001790 0.000000 1.798960 
# 
# From -- ./inp_files/313318.got.cif
#   From: 2010.06.25/outbox.cif.g09.slc.cpg/sg12_157_cif.got.tgz:313318.got - 2010.06.28 00:19:55.
