data_PCOD8087412
_publ_section_title
;
Structure prediction by ZEFSAII (Michael W. Deem and Ramdas Pophale) SiO2 
 PCOD8087412
Probable space group: C 2/M
;
_chemical_formula_sum "Si O2"
_cell_formula_units_Z 64
_cell_length_a 30.900894
_cell_length_b 8.909487
_cell_length_c 14.177676
_cell_angle_alpha 90.000000
_cell_angle_beta 89.742650
_cell_angle_gamma 90.000000
_cell_volume 3903.232391
_symmetry_space_group_name_H-M "C 2/M"
_symmetry_group_IT_number 12
_symmetry_cell_setting 'monoclinic'
loop_
_space_group_symop_operation_xyz
x,y,z
-x,y,-z
-x,-y,-z
x,-y,z
1/2+x,1/2+y,z
1/2-x,1/2+y,-z
1/2-x,1/2-y,-z
1/2+x,1/2-y,z
loop_
_atom_site_type_symbol
_atom_site_label
_atom_site_fract_x
_atom_site_fract_y
_atom_site_fract_z
Si Si1 0.499921 0.331462 0.611957
Si Si2 0.913147 0.676113 0.385963
Si Si3 0.252242 0.323237 0.398988
Si Si4 0.670618 0.823441 0.278820
Si Si5 0.700249 0.323831 0.095904
Si Si6 0.413788 0.174864 0.603853
Si Si7 0.665120 0.677748 0.719694
Si Si8 0.800024 0.676451 0.098598
O O1 0.500000 0.330813 0.500000
O O2 0.504858 0.500000 0.651721
O O3 0.539406 0.229356 0.648062
O O4 0.454544 0.262771 0.647333
O O5 0.908243 0.500000 0.367809
O O6 0.905039 0.718187 0.495262
O O7 0.879150 0.765566 0.324071
O O8 0.251273 0.500000 0.412494
O O9 0.250000 0.250000 0.500000
O O10 0.211376 0.268015 0.339141
O O11 0.295579 0.268302 0.346879
O O12 0.670231 0.735815 0.180322
O O13 0.627773 0.778197 0.335750
O O14 0.673151 0.000000 0.258615
O O15 0.693969 0.500000 0.082855
O O16 0.749976 0.281598 0.117784
O O17 0.684701 0.242288 0.001325
O O18 0.424361 0.000000 0.611453
O O19 0.664293 0.500000 0.729940
O O20 0.670428 0.748909 0.822353
O O21 0.807721 0.500000 0.098592
#
# Coordination Sequence:
#
# PCOD8087412 Si02
#       8
#     8   8   8   8   8   8   8   8
#     4   9  17  30  48  70  97 126 162 207 252 291
#     4  10  19  32  50  71  99 132 169 205 244 295
#     4  10  21  33  46  65  96 135 170 202 236 281
#     4  10  19  33  49  69  98 132 167 202 244 292
#     4  10  20  33  51  73  95 123 162 208 252 293
#     4   9  18  31  49  71  98 133 169 204 243 291
#     4  11  21  33  49  71  99 130 166 206 247 289
#     4  10  20  34  52  71  94 126 163 205 251 297
#
# _framework density 16.396664999999999
#
# number of rings (size 3 to 8) (size 9 to 14) (size 15 to 20)
#    0.000    2.125    1.250    2.625    0.000    6.000 
#    0.000    0.000    0.000    0.000    0.000    0.875 
#    0.000    7.000    0.000    0.000    0.000    0.000 
#
# Total GULP energy -396911.529369 kJ/mol
# GULP energy per Si atom -12403.485293 kJ/mol
# Density = 1.635935 g / cm^3
# Si number density = 16.396665 Si / 1000 Ang^3
#
#
#
# Elastic Constant Matrix: (Units=GPa)
#
#
# Indices 1 2 3 4 5 6 
#
# 1 103.9582 37.0629 51.4496 0.0000 5.8201 0.0000
# 2 37.0629 65.7340 43.4505 0.0000 2.6172 0.0000
# 3 51.4496 43.4505 105.0247 0.0000 5.7206 0.0000
# 4 0.0000 0.0000 0.0000 30.1804 0.0000 1.6753
# 5 5.8201 2.6172 5.7206 0.0000 8.7469 0.0000
# 6 0.0000 0.0000 0.0000 1.6753 0.0000 28.5337
#
#
#
# Elastic Compliance Matrix: (Units=1/GPa)
#
#
# Indices 1 2 3 4 5 6 
#
# 1 0.013789 -0.004530 -0.004619 0.000000 -0.004798 0.000000
# 2 -0.004530 0.022431 -0.007113 0.000000 0.000955 0.000000
# 3 -0.004619 -0.007113 0.014977 0.000000 -0.004593 0.000000
# 4 0.000000 0.000000 0.000000 0.033242 0.000000 -0.001952
# 5 -0.004798 0.000955 -0.004593 0.000000 0.120238 0.000000
# 6 0.000000 0.000000 0.000000 -0.001952 0.000000 0.035161
#
#
# Mechanical properties :
#
#
# Convention : Reuss Voigt Hill
#
# Bulk Modulus (GPa) = 53.55469 59.84919 56.70194
# Shear Modulus (GPa) = 17.94769 23.00912 20.47841
#
# Velocity S-wave (km/s) = 3.31205 3.75010 3.53786
# Velocity P-wave (km/s) = 6.88180 7.43849 7.16555
#
# Compressibility (1/GPa) = 0.01867250
#
# Stress axis : x y z
#
# Youngs Moduli (GPa) = 72.52059 44.58196 66.76742
#
# Poissons Ratio (x) = 0.20197 0.30843
# Poissons Ratio (y) = 0.32854 0.47489
# Poissons Ratio (z) = 0.33501 0.31710
#
# Static dielectric constant tensor:
#      x y z
#    x 3.099710 0.000000 -0.010290 
#    y 0.000000 3.147070 0.000000 
#    z -0.010290 0.000000 2.959420 
# 
# 
# High freq. dielectric constant tensor:
#      x y z
#    x 1.620890 0.000000 0.001510 
#    y 0.000000 1.641720 0.000000 
#    z 0.001510 0.000000 1.611580 
# 
# From -- ./inp_files/187488.got.cif
#   From: 2010.06.25/outbox.cif.g09.slc.cpg/sg12_94_cif.got.tgz:187488.got - 2010.06.28 00:19:55.
