data_PCOD8087230
_publ_section_title
;
Structure prediction by ZEFSAII (Michael W. Deem and Ramdas Pophale) SiO2 
 PCOD8087230
Probable space group: C 2/M
;
_chemical_formula_sum "Si O2"
_cell_formula_units_Z 64
_cell_length_a 31.474114
_cell_length_b 9.345592
_cell_length_c 12.300877
_cell_angle_alpha 90.000000
_cell_angle_beta 102.953361
_cell_angle_gamma 90.000000
_cell_volume 3526.158288
_symmetry_space_group_name_H-M "C 2/M"
_symmetry_group_IT_number 12
_symmetry_cell_setting 'monoclinic'
loop_
_space_group_symop_operation_xyz
x,y,z
-x,y,-z
-x,-y,-z
x,-y,z
1/2+x,1/2+y,z
1/2-x,1/2+y,-z
1/2-x,1/2-y,-z
1/2+x,1/2-y,z
loop_
_atom_site_type_symbol
_atom_site_label
_atom_site_fract_x
_atom_site_fract_y
_atom_site_fract_z
Si Si1 0.066942 0.829646 0.008374
Si Si2 0.034032 0.171117 0.429771
Si Si3 0.729678 0.663860 0.209638
Si Si4 0.316449 0.331958 0.228604
Si Si5 0.660540 0.670384 0.997071
Si Si6 0.129544 0.831996 0.535100
Si Si7 0.487442 0.670016 0.821590
Si Si8 0.708324 0.335937 0.437887
O O1 0.033873 0.776266 0.895124
O O2 0.068328 0.000000 0.007158
O O3 0.114617 0.764891 0.011724
O O4 0.050610 0.777571 0.117732
O O5 0.081826 0.234296 0.486318
O O6 0.020384 0.232100 0.303511
O O7 0.000000 0.228482 0.500000
O O8 0.034251 0.000000 0.429772
O O9 0.742908 0.500000 0.193835
O O10 0.772941 0.756339 0.244348
O O11 0.699229 0.726015 0.096566
O O12 0.702394 0.676104 0.305184
O O13 0.306878 0.500000 0.220309
O O14 0.355400 0.294730 0.333944
O O15 0.330322 0.273412 0.118880
O O16 0.658333 0.500000 0.999169
O O17 0.164939 0.771324 0.469365
O O18 0.125913 0.000000 0.515449
O O19 0.487104 0.500000 0.816234
O O20 0.715074 0.500000 0.478664
O O21 0.750000 0.250000 0.500000
#
# Coordination Sequence:
#
# PCOD8087230 Si02
#       8
#     8   8   8   8   8   8   8   8
#     4   8  14  24  37  54  77 112 151 181 217 269
#     4   9  17  25  37  58  86 118 151 186 226 276
#     4  10  20  32  47  68  92 120 156 194 230 268
#     4  10  19  32  48  65  92 126 155 187 230 277
#     4   9  18  28  43  63  86 119 156 190 226 270
#     4   9  18  29  42  62  88 123 157 185 229 281
#     4   8  14  23  35  52  79 113 146 181 221 265
#     4  10  19  32  49  68  93 124 158 194 231 276
#
# _framework density 18.150064
#
# number of rings (size 3 to 8) (size 9 to 14) (size 15 to 20)
#    0.000    2.875    1.250    1.125    3.500    0.000 
#    0.000    0.000    0.000    0.000    0.000    0.000 
#    0.000    2.000    0.000    9.750    0.000   10.250 
#
# Total GULP energy -396682.851865 kJ/mol
# GULP energy per Si atom -12396.339121 kJ/mol
# Density = 1.810875 g / cm^3
# Si number density = 18.150064 Si / 1000 Ang^3
#
#
#
# Elastic Constant Matrix: (Units=GPa)
#
#
# Indices 1 2 3 4 5 6 
#
# 1 140.8569 16.5558 67.0310 0.0000 1.3986 0.0000
# 2 16.5558 14.4775 15.5860 0.0000 1.0523 0.0000
# 3 67.0310 15.5860 151.6560 0.0000 -0.7306 0.0000
# 4 0.0000 0.0000 0.0000 10.6269 0.0000 -0.1002
# 5 1.3986 1.0523 -0.7306 0.0000 31.3126 0.0000
# 6 0.0000 0.0000 0.0000 -0.1002 0.0000 13.1130
#
#
#
# Elastic Compliance Matrix: (Units=1/GPa)
#
#
# Indices 1 2 3 4 5 6 
#
# 1 0.009620 -0.007199 -0.003514 0.000000 -0.000270 0.000000
# 2 -0.007199 0.083299 -0.005391 0.000000 -0.002604 0.000000
# 3 -0.003514 -0.005391 0.008704 0.000000 0.000541 0.000000
# 4 0.000000 0.000000 0.000000 0.094108 0.000000 0.000719
# 5 -0.000270 -0.002604 0.000541 0.000000 0.032048 0.000000
# 6 0.000000 0.000000 0.000000 0.000719 0.000000 0.076266
#
#
# Mechanical properties :
#
#
# Convention : Reuss Voigt Hill
#
# Bulk Modulus (GPa) = 14.40617 56.14846 35.27731
# Shear Modulus (GPa) = 13.91242 24.86499 19.38871
#
# Velocity S-wave (km/s) = 2.77162 3.70532 3.27195
# Velocity P-wave (km/s) = 4.26579 7.02202 5.80972
#
# Compressibility (1/GPa) = 0.06941470
#
# Stress axis : x y z
#
# Youngs Moduli (GPa) = 103.94723 12.00493 114.89608
#
# Poissons Ratio (x) = 0.08643 0.40369
# Poissons Ratio (y) = 0.74833 0.61945
# Poissons Ratio (z) = 0.36522 0.06472
#
# Static dielectric constant tensor:
#      x y z
#    x 3.607130 0.000000 -0.055840 
#    y 0.000000 2.645770 0.000000 
#    z -0.055840 0.000000 3.677150 
# 
# 
# High freq. dielectric constant tensor:
#      x y z
#    x 1.712450 0.000000 -0.003180 
#    y 0.000000 1.618790 0.000000 
#    z -0.003180 0.000000 1.721670 
# 
# From -- ./inp_files/182135.got.cif
#   From: 2010.06.25/outbox.cif.g09.slc.cpg/sg12_92_cif.got.tgz:182135.got - 2010.06.28 00:19:55.
