data_PCOD8087658
_publ_section_title
;
Structure prediction by ZEFSAII (Michael W. Deem and Ramdas Pophale) SiO2 
 PCOD8087658
Probable space group: C 2/M
;
_chemical_formula_sum "Si O2"
_cell_formula_units_Z 56
_cell_length_a 18.307706
_cell_length_b 9.128529
_cell_length_c 22.862094
_cell_angle_alpha 90.000000
_cell_angle_beta 52.221813
_cell_angle_gamma 90.000000
_cell_volume 3019.890771
_symmetry_space_group_name_H-M "C 2/M"
_symmetry_group_IT_number 12
_symmetry_cell_setting 'monoclinic'
loop_
_space_group_symop_operation_xyz
x,y,z
-x,y,-z
-x,-y,-z
x,-y,z
1/2+x,1/2+y,z
1/2-x,1/2+y,-z
1/2-x,1/2-y,-z
1/2+x,1/2-y,z
loop_
_atom_site_type_symbol
_atom_site_label
_atom_site_fract_x
_atom_site_fract_y
_atom_site_fract_z
Si Si1 0.014043 0.331058 0.927558
Si Si2 0.124340 0.164968 0.783517
Si Si3 0.410156 0.168451 0.505509
Si Si4 0.767257 0.671539 0.362182
Si Si5 0.060880 0.670221 0.641869
Si Si6 0.338937 0.170074 0.932059
Si Si7 0.948278 0.834490 0.786612
O O1 0.043990 0.500000 0.912684
O O2 0.098117 0.241231 0.857524
O O3 0.919529 0.306652 0.939341
O O4 0.000000 0.272193 0.000000
O O5 0.207280 0.251597 0.711592
O O6 0.036010 0.168616 0.785473
O O7 0.157411 0.000000 0.779850
O O8 0.500000 0.194107 0.500000
O O9 0.330763 0.271589 0.568589
O O10 0.432931 0.216109 0.428437
O O11 0.376824 0.000000 0.524054
O O12 0.761682 0.500000 0.353131
O O13 0.842234 0.710154 0.375047
O O14 0.037532 0.500000 0.661581
O O15 0.976546 0.760885 0.711400
O O16 0.366157 0.242428 0.856715
O O17 0.317468 0.000000 0.931996
O O18 0.250000 0.250000 0.000000
O O19 0.914142 0.000000 0.792100
#
# Coordination Sequence:
#
# PCOD8087658 Si02
#       7
#     8   8   8   8   8   8   8
#     4   9  18  33  52  74 101 132 165 203 247 292
#     4   9  17  30  50  75 101 128 162 205 248 290
#     4  10  21  36  52  72 102 135 163 197 245 297
#     4  10  19  32  53  77  99 126 164 207 246 289
#     4   9  18  33  53  76  99 126 163 205 247 290
#     4  10  19  32  51  74 102 133 165 203 246 293
#     4   9  17  30  50  75 100 127 163 206 248 289
#
# _framework density 18.543717000000001
#
# number of rings (size 3 to 8) (size 9 to 14) (size 15 to 20)
#    0.000    2.571    0.000    2.143    0.000    5.714 
#    0.000    1.429    0.000    0.000    0.000    0.000 
#    0.000    0.000    0.000    0.000    0.000    0.000 
#
# Total GULP energy -347259.395065 kJ/mol
# GULP energy per Si atom -12402.121252 kJ/mol
# Density = 1.850151 g / cm^3
# Si number density = 18.543717 Si / 1000 Ang^3
#
#
#
# Elastic Constant Matrix: (Units=GPa)
#
#
# Indices 1 2 3 4 5 6 
#
# 1 39.9688 35.1433 49.0763 0.0000 7.9185 -0.0002
# 2 35.1433 129.1929 97.1194 0.0000 -1.1555 -0.0002
# 3 49.0763 97.1194 188.7572 0.0000 10.0439 0.0000
# 4 0.0000 0.0000 0.0000 44.8467 0.0000 -3.7445
# 5 7.9185 -1.1555 10.0439 0.0000 26.8985 0.0000
# 6 -0.0002 -0.0002 0.0000 -3.7445 0.0000 17.6904
#
#
#
# Elastic Compliance Matrix: (Units=1/GPa)
#
#
# Indices 1 2 3 4 5 6 
#
# 1 0.040756 -0.005856 -0.007072 0.000000 -0.009609 0.000000
# 2 -0.005856 0.013710 -0.005769 0.000000 0.004467 0.000000
# 3 -0.007072 -0.005769 0.010210 0.000000 -0.001979 0.000000
# 4 0.000000 0.000000 0.000000 0.022699 0.000000 0.004805
# 5 -0.009609 0.004467 -0.001979 0.000000 0.040936 0.000000
# 6 0.000000 0.000000 0.000000 0.004805 0.000000 0.057545
#
#
# Mechanical properties :
#
#
# Convention : Reuss Voigt Hill
#
# Bulk Modulus (GPa) = 36.65505 80.06631 58.36068
# Shear Modulus (GPa) = 21.51968 29.65911 25.58940
#
# Velocity S-wave (km/s) = 3.41028 4.00361 3.71880
# Velocity P-wave (km/s) = 5.94276 8.04006 7.06962
#
# Compressibility (1/GPa) = 0.02728137
#
# Stress axis : x y z
#
# Youngs Moduli (GPa) = 24.53643 72.93733 97.94071
#
# Poissons Ratio (x) = 0.42713 0.69264
# Poissons Ratio (y) = 0.14369 0.56506
# Poissons Ratio (z) = 0.17352 0.42081
#
# Static dielectric constant tensor:
#      x y z
#    x 3.105600 0.000000 0.152890 
#    y 0.000000 3.532410 0.000000 
#    z 0.152890 0.000000 3.610670 
# 
# 
# High freq. dielectric constant tensor:
#      x y z
#    x 1.679000 0.000000 0.005110 
#    y 0.000000 1.727380 0.000000 
#    z 0.005110 0.000000 1.736050 
# 
# From -- ./inp_files/342222.got.cif
#   From: 2010.06.25/outbox.cif.g09.slc.cpg/sg12_172_cif.got.tgz:342222.got - 2010.06.28 00:19:55.
