data_PCOD8087231
_publ_section_title
;
Structure prediction by ZEFSAII (Michael W. Deem and Ramdas Pophale) SiO2 
 PCOD8087231
Probable space group: C 2/M
;
_chemical_formula_sum "Si O2"
_cell_formula_units_Z 56
_cell_length_a 25.417923
_cell_length_b 8.876726
_cell_length_c 18.838977
_cell_angle_alpha 90.000000
_cell_angle_beta 52.904907
_cell_angle_gamma 90.000000
_cell_volume 3390.429453
_symmetry_space_group_name_H-M "C 2/M"
_symmetry_group_IT_number 12
_symmetry_cell_setting 'monoclinic'
loop_
_space_group_symop_operation_xyz
x,y,z
-x,y,-z
-x,-y,-z
x,-y,z
1/2+x,1/2+y,z
1/2-x,1/2+y,-z
1/2-x,1/2-y,-z
1/2+x,1/2-y,z
loop_
_atom_site_type_symbol
_atom_site_label
_atom_site_fract_x
_atom_site_fract_y
_atom_site_fract_z
Si Si1 0.947558 0.819937 0.743935
Si Si2 0.246031 0.666855 0.894467
Si Si3 0.348795 0.333571 0.938159
Si Si4 0.675991 0.679145 0.410831
Si Si5 0.217453 0.822923 0.594555
Si Si6 0.652608 0.821454 0.282195
Si Si7 0.905268 0.175785 0.386858
O O1 0.915700 0.773922 0.846063
O O2 0.908925 0.740533 0.711868
O O3 0.021965 0.755232 0.682686
O O4 0.941940 0.000000 0.738232
O O5 0.236231 0.500000 0.870371
O O6 0.293368 0.660787 0.923148
O O7 0.277506 0.773153 0.808889
O O8 0.174576 0.728295 0.977921
O O9 0.359893 0.500000 0.960773
O O10 0.678540 0.500000 0.402360
O O11 0.750833 0.741865 0.362484
O O12 0.645754 0.750913 0.365327
O O13 0.629948 0.737139 0.513173
O O14 0.250000 0.750000 0.500000
O O15 0.138852 0.792558 0.648051
O O16 0.232513 0.000000 0.585390
O O17 0.649455 0.000000 0.288669
O O18 0.914177 0.000000 0.390784
#
# Coordination Sequence:
#
# PCOD8087231 Si02
#       7
#     8   8   8   8   8   8   8
#     4   9  17  31  47  65  91 123 154 180 214 265
#     4   9  16  27  43  61  84 115 148 181 219 264
#     4   8  14  24  41  63  86 112 144 182 218 254
#     4  10  19  32  48  66  89 120 155 189 226 265
#     4   9  16  29  48  69  89 113 149 191 229 261
#     4  11  21  31  43  64  93 121 151 187 225 267
#     4   8  16  30  49  68  88 118 153 185 217 261
#
# _framework density 16.517081000000001
#
# number of rings (size 3 to 8) (size 9 to 14) (size 15 to 20)
#    0.000    2.857    0.000    4.286    0.000    4.000 
#    0.000    7.143    0.000    0.000    0.000    1.000 
#    0.000    8.000    0.000    0.000    0.000    0.000 
#
# Total GULP energy -346959.794411 kJ/mol
# GULP energy per Si atom -12391.421229 kJ/mol
# Density = 1.647949 g / cm^3
# Si number density = 16.517081 Si / 1000 Ang^3
#
#
#
# Elastic Constant Matrix: (Units=GPa)
#
#
# Indices 1 2 3 4 5 6 
#
# 1 69.9063 32.7759 46.7692 0.0007 -22.2539 0.0000
# 2 32.7759 82.8110 30.3683 0.0009 -11.8356 -0.0002
# 3 46.7692 30.3683 92.0878 0.0008 -25.2786 -0.0003
# 4 0.0007 0.0009 0.0008 22.8868 -0.0004 3.2426
# 5 -22.2539 -11.8356 -25.2786 -0.0004 12.0074 -0.0001
# 6 0.0000 -0.0002 -0.0003 3.2426 -0.0001 22.2720
#
#
#
# Elastic Compliance Matrix: (Units=1/GPa)
#
#
# Indices 1 2 3 4 5 6 
#
# 1 0.037053 -0.005713 0.000878 0.000000 0.064890 0.000000
# 2 -0.005713 0.015089 -0.002128 0.000000 -0.000195 0.000000
# 3 0.000878 -0.002128 0.026027 0.000000 0.054324 0.000001
# 4 0.000000 0.000000 0.000000 0.044614 0.000001 -0.006495
# 5 0.064890 -0.000195 0.054324 0.000001 0.317720 0.000002
# 6 0.000000 0.000000 0.000001 -0.006495 0.000002 0.045845
#
#
# Mechanical properties :
#
#
# Convention : Reuss Voigt Hill
#
# Bulk Modulus (GPa) = 15.56571 51.62577 33.59574
# Shear Modulus (GPa) = 9.58428 20.42602 15.00515
#
# Velocity S-wave (km/s) = 2.41148 3.52043 3.01734
# Velocity P-wave (km/s) = 4.14706 6.91726 5.70292
#
# Compressibility (1/GPa) = 0.06424376
#
# Stress axis : x y z
#
# Youngs Moduli (GPa) = 26.98853 66.27163 38.42146
#
# Poissons Ratio (x) = 0.37861 -0.03375
# Poissons Ratio (y) = 0.15419 0.08177
# Poissons Ratio (z) = -0.02371 0.14104
#
# Static dielectric constant tensor:
#      x y z
#    x 3.152680 0.000000 -0.243820 
#    y 0.000000 3.201280 0.000000 
#    z -0.243820 0.000000 3.317540 
# 
# 
# High freq. dielectric constant tensor:
#      x y z
#    x 1.602990 0.000000 -0.008760 
#    y 0.000000 1.635040 0.000000 
#    z -0.008760 0.000000 1.624120 
# 
# From -- ./inp_files/291957.got.cif
#   From: 2010.06.25/outbox.cif.g09.slc.cpg/sg12_146_cif.got.tgz:291957.got - 2010.06.28 00:19:55.
