data_PCOD8087746
_publ_section_title
;
Structure prediction by ZEFSAII (Michael W. Deem and Ramdas Pophale) SiO2 
 PCOD8087746
Probable space group: C 2/M
;
_chemical_formula_sum "Si O2"
_cell_formula_units_Z 56
_cell_length_a 19.022820
_cell_length_b 9.133267
_cell_length_c 26.386848
_cell_angle_alpha 90.000000
_cell_angle_beta 42.471297
_cell_angle_gamma 90.000000
_cell_volume 3095.525342
_symmetry_space_group_name_H-M "C 2/M"
_symmetry_group_IT_number 12
_symmetry_cell_setting 'monoclinic'
loop_
_space_group_symop_operation_xyz
x,y,z
-x,y,-z
-x,-y,-z
x,-y,z
1/2+x,1/2+y,z
1/2-x,1/2+y,-z
1/2-x,1/2-y,-z
1/2+x,1/2-y,z
loop_
_atom_site_type_symbol
_atom_site_label
_atom_site_fract_x
_atom_site_fract_y
_atom_site_fract_z
Si Si1 0.142417 0.329556 0.559521
Si Si2 0.469704 0.174347 0.572418
Si Si3 0.668125 0.832883 0.077627
Si Si4 0.952443 0.834356 0.191406
Si Si5 0.260157 0.169604 0.738583
Si Si6 0.342291 0.835178 0.802964
Si Si7 0.542515 0.662073 0.696499
O O1 0.160742 0.500000 0.543272
O O2 0.250000 0.250000 0.500000
O O3 0.061581 0.270506 0.560462
O O4 0.100939 0.291146 0.636795
O O5 0.500000 0.232841 0.500000
O O6 0.359284 0.235611 0.653917
O O7 0.465153 0.000000 0.574878
O O8 0.553859 0.764906 0.130102
O O9 0.709732 0.823817 0.113726
O O10 0.661526 0.000000 0.063127
O O11 0.750000 0.750000 0.000000
O O12 0.852012 0.762496 0.216811
O O13 0.916350 0.838556 0.268572
O O14 0.977525 0.000000 0.158957
O O15 0.266339 0.193043 0.795986
O O16 0.256074 0.000000 0.726355
O O17 0.422201 0.702710 0.758393
O O18 0.391372 0.000000 0.770832
O O19 0.558463 0.500000 0.663874
#
# Coordination Sequence:
#
# PCOD8087746 Si02
#       7
#     8   8   8   8   8   8   8
#     4  11  22  35  52  73 101 135 177 225 269 315
#     4   9  18  31  52  77 102 136 179 224 264 302
#     4  10  20  35  57  81 110 139 172 212 260 314
#     4   9  19  33  55  82 107 136 176 217 256 308
#     4   9  16  31  54  78 104 136 179 223 258 303
#     4   9  17  33  56  79 101 135 175 214 255 301
#     4  10  19  32  51  76 103 134 172 214 260 312
#
# _framework density 18.090627999999999
#
# number of rings (size 3 to 8) (size 9 to 14) (size 15 to 20)
#    0.000    2.429    1.429    1.286    2.000    1.143 
#    0.000    1.429    0.000    6.000    0.000    0.000 
#    0.000    0.000    0.000    0.000    0.000    0.000 
#
# Total GULP energy -346917.659390 kJ/mol
# GULP energy per Si atom -12389.916407 kJ/mol
# Density = 1.804945 g / cm^3
# Si number density = 18.090628 Si / 1000 Ang^3
#
#
#
# Elastic Constant Matrix: (Units=GPa)
#
#
# Indices 1 2 3 4 5 6 
#
# 1 138.2485 43.4174 70.5424 0.0000 -11.2356 0.0001
# 2 43.4174 60.9302 38.4523 0.0000 -0.6859 0.0001
# 3 70.5424 38.4523 119.2039 0.0000 0.0686 0.0000
# 4 0.0000 0.0000 0.0000 29.8374 0.0000 -0.1031
# 5 -11.2356 -0.6859 0.0686 0.0000 22.9303 0.0000
# 6 0.0001 0.0001 0.0000 -0.1031 0.0000 20.5320
#
#
#
# Elastic Compliance Matrix: (Units=1/GPa)
#
#
# Indices 1 2 3 4 5 6 
#
# 1 0.012129 -0.005079 -0.005542 0.000000 0.005807 0.000000
# 2 -0.005079 0.022744 -0.004330 0.000000 -0.001796 0.000000
# 3 -0.005542 -0.004330 0.013067 0.000000 -0.002884 0.000000
# 4 0.000000 0.000000 0.000000 0.033516 0.000000 0.000168
# 5 0.005807 -0.001796 -0.002884 0.000000 0.046411 0.000000
# 6 0.000000 0.000000 0.000000 0.000168 0.000000 0.048705
#
#
# Mechanical properties :
#
#
# Convention : Reuss Voigt Hill
#
# Bulk Modulus (GPa) = 55.44238 69.24519 62.34378
# Shear Modulus (GPa) = 23.53092 25.72465 24.62779
#
# Velocity S-wave (km/s) = 3.61047 3.77502 3.69366
# Velocity P-wave (km/s) = 6.93500 7.57370 7.26137
#
# Compressibility (1/GPa) = 0.01803674
#
# Stress axis : x y z
#
# Youngs Moduli (GPa) = 82.45022 43.96777 76.52826
#
# Poissons Ratio (x) = 0.22333 0.42414
# Poissons Ratio (y) = 0.41880 0.33134
# Poissons Ratio (z) = 0.45696 0.19037
#
# Static dielectric constant tensor:
#      x y z
#    x 3.508750 0.000000 0.032290 
#    y 0.000000 3.220810 0.000000 
#    z 0.032290 0.000000 3.169920 
# 
# 
# High freq. dielectric constant tensor:
#      x y z
#    x 1.704020 0.000000 0.005680 
#    y 0.000000 1.677520 0.000000 
#    z 0.005680 0.000000 1.691150 
# 
# From -- ./inp_files/280452.got.cif
#   From: 2010.06.25/outbox.cif.g09.slc.cpg/sg12_141_cif.got.tgz:280452.got - 2010.06.28 00:19:55.
