data_PCOD8087038
_publ_section_title
;
Structure prediction by ZEFSAII (Michael W. Deem and Ramdas Pophale) SiO2 
 PCOD8087038
Probable space group: C 2/M
;
_chemical_formula_sum "Si O2"
_cell_formula_units_Z 64
_cell_length_a 33.414092
_cell_length_b 9.068021
_cell_length_c 18.366712
_cell_angle_alpha 90.000000
_cell_angle_beta 144.118043
_cell_angle_gamma 90.000000
_cell_volume 3261.805731
_symmetry_space_group_name_H-M "C 2/M"
_symmetry_group_IT_number 12
_symmetry_cell_setting 'monoclinic'
loop_
_space_group_symop_operation_xyz
x,y,z
-x,y,-z
-x,-y,-z
x,-y,z
1/2+x,1/2+y,z
1/2-x,1/2+y,-z
1/2-x,1/2-y,-z
1/2+x,1/2-y,z
loop_
_atom_site_type_symbol
_atom_site_label
_atom_site_fract_x
_atom_site_fract_y
_atom_site_fract_z
Si Si1 0.569609 0.329912 0.640958
Si Si2 0.421076 0.672784 0.739364
Si Si3 0.810343 0.333957 0.808646
Si Si4 0.301983 0.828107 0.631622
Si Si5 0.924167 0.172803 0.056816
Si Si6 0.332581 0.665722 0.344872
Si Si7 0.405857 0.833471 0.573778
Si Si8 0.063472 0.667734 0.778583
O O1 0.500000 0.270425 0.500000
O O2 0.558369 0.500000 0.645396
O O3 0.635291 0.305670 0.686695
O O4 0.588795 0.242257 0.741877
O O5 0.409241 0.500000 0.732644
O O6 0.378321 0.761118 0.736716
O O7 0.500688 0.716835 0.861705
O O8 0.390934 0.721300 0.617101
O O9 0.840207 0.500000 0.854583
O O10 0.780846 0.299703 0.684375
O O11 0.749321 0.317626 0.777395
O O12 0.870512 0.221537 0.916724
O O13 0.250000 0.750000 0.500000
O O14 0.302640 0.000000 0.613266
O O15 0.905744 0.251759 0.105460
O O16 0.919739 0.000000 0.063871
O O17 0.352904 0.500000 0.401127
O O18 0.359335 0.789567 0.438197
O O19 0.482593 0.819423 0.659879
O O20 0.388737 0.000000 0.573399
O O21 0.089195 0.500000 0.818169
#
# Coordination Sequence:
#
# PCOD8087038 Si02
#       8
#     8   8   8   8   8   8   8   8
#     4  10  19  32  54  85 118 151 189 234 285 345
#     4  10  21  37  58  84 114 150 191 237 286 337
#     4  10  23  41  59  81 113 152 191 235 286 337
#     4  11  23  39  61  90 122 154 189 233 286 342
#     4  10  22  40  62  84 110 149 198 242 283 337
#     4  10  20  35  55  80 114 153 190 232 288 347
#     4  10  19  31  52  83 115 148 186 232 285 344
#     4  10  20  34  55  83 117 150 185 235 289 340
#
# _framework density 19.621034000000002
#
# number of rings (size 3 to 8) (size 9 to 14) (size 15 to 20)
#    0.000    1.875    1.250    2.625    0.000    6.250 
#    0.000    3.125    0.000    0.000    0.000    0.000 
#    0.000    0.000    0.000    0.000    0.000    0.000 
#
# Total GULP energy -396865.084739 kJ/mol
# GULP energy per Si atom -12402.033898 kJ/mol
# Density = 1.957638 g / cm^3
# Si number density = 19.621034 Si / 1000 Ang^3
#
#
#
# Elastic Constant Matrix: (Units=GPa)
#
#
# Indices 1 2 3 4 5 6 
#
# 1 114.9020 47.3293 36.0482 0.0000 3.8029 0.0000
# 2 47.3293 92.1132 44.4571 0.0000 1.7663 0.0000
# 3 36.0482 44.4571 88.0729 0.0000 -3.2048 0.0000
# 4 0.0000 0.0000 0.0000 34.1436 0.0000 -4.3387
# 5 3.8029 1.7663 -3.2048 0.0000 20.0894 0.0000
# 6 0.0000 0.0000 0.0000 -4.3387 0.0000 32.1534
#
#
#
# Elastic Compliance Matrix: (Units=1/GPa)
#
#
# Indices 1 2 3 4 5 6 
#
# 1 0.011458 -0.004687 -0.002402 0.000000 -0.002140 0.000000
# 2 -0.004687 0.016389 -0.006412 0.000000 -0.001577 0.000000
# 3 -0.002402 -0.006412 0.015702 0.000000 0.003523 0.000000
# 4 0.000000 0.000000 0.000000 0.029799 0.000000 0.004021
# 5 -0.002140 -0.001577 0.003523 0.000000 0.050883 0.000000
# 6 0.000000 0.000000 0.000000 0.004021 0.000000 0.031643
#
#
# Mechanical properties :
#
#
# Convention : Reuss Voigt Hill
#
# Bulk Modulus (GPa) = 60.43029 61.19524 60.81277
# Shear Modulus (GPa) = 26.54028 28.42750 27.48389
#
# Velocity S-wave (km/s) = 3.68182 3.81048 3.74670
# Velocity P-wave (km/s) = 6.99571 7.11449 7.05535
#
# Compressibility (1/GPa) = 0.01654799
#
# Stress axis : x y z
#
# Youngs Moduli (GPa) = 87.27476 61.01504 63.68612
#
# Poissons Ratio (x) = 0.28599 0.15295
# Poissons Ratio (y) = 0.40907 0.40835
# Poissons Ratio (z) = 0.20961 0.39122
#
# Static dielectric constant tensor:
#      x y z
#    x 3.714540 0.000000 0.075260 
#    y 0.000000 3.608630 0.000000 
#    z 0.075260 0.000000 3.279160 
# 
# 
# High freq. dielectric constant tensor:
#      x y z
#    x 1.769160 0.000000 0.001790 
#    y 0.000000 1.769930 0.000000 
#    z 0.001790 0.000000 1.741720 
# 
# From -- ./inp_files/295723.got.cif
#   From: 2010.06.25/outbox.cif.g09.slc.cpg/sg12_148_cif.got.tgz:295723.got - 2010.06.28 00:19:55.
