data_PCOD8087102
_publ_section_title
;
Structure prediction by ZEFSAII (Michael W. Deem and Ramdas Pophale) SiO2 
 PCOD8087102
Probable space group: C 2/M
;
_chemical_formula_sum "Si O2"
_cell_formula_units_Z 64
_cell_length_a 32.529951
_cell_length_b 9.359930
_cell_length_c 24.126038
_cell_angle_alpha 90.000000
_cell_angle_beta 153.630755
_cell_angle_gamma 90.000000
_cell_volume 3262.690712
_symmetry_space_group_name_H-M "C 2/M"
_symmetry_group_IT_number 12
_symmetry_cell_setting 'monoclinic'
loop_
_space_group_symop_operation_xyz
x,y,z
-x,y,-z
-x,-y,-z
x,-y,z
1/2+x,1/2+y,z
1/2-x,1/2+y,-z
1/2-x,1/2-y,-z
1/2+x,1/2-y,z
loop_
_atom_site_type_symbol
_atom_site_label
_atom_site_fract_x
_atom_site_fract_y
_atom_site_fract_z
Si Si1 0.813253 0.333653 0.695396
Si Si2 0.634111 0.830457 0.504238
Si Si3 0.503480 0.836149 0.137656
Si Si4 0.361010 0.838237 0.875400
Si Si5 0.952703 0.834486 0.272315
Si Si6 0.808446 0.661755 0.305962
Si Si7 0.872506 0.836974 0.057511
Si Si8 0.835372 0.664835 0.216877
O O1 0.783098 0.500000 0.656018
O O2 0.724341 0.231775 0.582007
O O3 0.865135 0.298767 0.815794
O O4 0.887515 0.296871 0.736769
O O5 0.546209 0.751825 0.372022
O O6 0.635468 0.789383 0.571542
O O7 0.627857 0.000000 0.486489
O O8 0.454238 0.745644 0.125347
O O9 0.492755 0.000000 0.142592
O O10 0.458859 0.810001 0.023060
O O11 0.285398 0.747047 0.816333
O O12 0.328915 0.000000 0.844096
O O13 0.885289 0.818348 0.138587
O O14 0.903266 0.766116 0.265437
O O15 0.975623 0.000000 0.312331
O O16 0.777450 0.500000 0.277741
O O17 0.866087 0.678964 0.318610
O O18 0.882132 0.000000 0.050327
O O19 0.770118 0.781223 0.918815
O O20 0.845826 0.500000 0.209606
#
# Coordination Sequence:
#
# PCOD8087102 Si02
#       8
#     8   8   8   8   8   8   8   8
#     4   9  18  33  53  80 115 149 181 221 268 320
#     4  10  21  38  58  81 110 147 188 226 267 322
#     4  10  19  31  53  84 114 146 182 221 270 325
#     4   9  16  28  49  79 115 149 178 213 265 325
#     4  11  24  40  58  80 106 144 188 231 275 323
#     4   9  18  33  55  82 113 145 177 218 272 326
#     4  10  22  39  58  81 112 145 181 226 276 324
#     4  10  20  37  60  84 111 141 175 224 279 330
#
# _framework density 19.615711000000001
#
# number of rings (size 3 to 8) (size 9 to 14) (size 15 to 20)
#    0.000    2.250    1.250    1.500    0.000    5.000 
#    0.000    3.125    0.000    3.750    0.000    0.000 
#    0.000    0.000    0.000    0.000    0.000    0.000 
#
# Total GULP energy -396730.127163 kJ/mol
# GULP energy per Si atom -12397.816474 kJ/mol
# Density = 1.957106 g / cm^3
# Si number density = 19.615711 Si / 1000 Ang^3
#
#
#
# Elastic Constant Matrix: (Units=GPa)
#
#
# Indices 1 2 3 4 5 6 
#
# 1 51.0583 24.6214 6.8241 0.0000 21.4079 0.0000
# 2 24.6214 74.1277 26.5194 0.0000 17.8179 0.0000
# 3 6.8241 26.5194 58.4390 0.0000 13.2697 0.0000
# 4 0.0000 0.0000 0.0000 25.7190 0.0000 6.4977
# 5 21.4079 17.8179 13.2697 0.0000 23.8392 0.0000
# 6 0.0000 0.0000 0.0000 6.4977 0.0000 34.7108
#
#
#
# Elastic Compliance Matrix: (Units=1/GPa)
#
#
# Indices 1 2 3 4 5 6 
#
# 1 0.033990 -0.006304 0.005440 0.000000 -0.028840 0.000000
# 2 -0.006304 0.019216 -0.006877 0.000000 -0.004873 0.000000
# 3 0.005440 -0.006877 0.022367 0.000000 -0.012195 0.000000
# 4 0.000000 0.000000 0.000000 0.040812 0.000000 -0.007640
# 5 -0.028840 -0.004873 -0.012195 0.000000 0.078277 0.000000
# 6 0.000000 0.000000 0.000000 -0.007640 0.000000 0.030240
#
#
# Mechanical properties :
#
#
# Convention : Reuss Voigt Hill
#
# Bulk Modulus (GPa) = 16.64144 33.28386 24.96265
# Shear Modulus (GPa) = 19.20022 25.23116 22.21569
#
# Velocity S-wave (km/s) = 3.13200 3.59036 3.36898
# Velocity P-wave (km/s) = 4.64558 5.84742 5.28080
#
# Compressibility (1/GPa) = 0.06009097
#
# Stress axis : x y z
#
# Youngs Moduli (GPa) = 29.42000 52.04051 44.70940
#
# Poissons Ratio (x) = 0.32805 -0.24323
# Poissons Ratio (y) = 0.18546 0.30748
# Poissons Ratio (z) = -0.16005 0.35790
#
# Static dielectric constant tensor:
#      x y z
#    x 3.522190 0.000000 0.017960 
#    y 0.000000 3.549870 0.000000 
#    z 0.017960 0.000000 3.548780 
# 
# 
# High freq. dielectric constant tensor:
#      x y z
#    x 1.757750 0.000000 0.002420 
#    y 0.000000 1.760160 0.000000 
#    z 0.002420 0.000000 1.755010 
# 
# From -- ./inp_files/244176.got.cif
#   From: 2010.06.25/outbox.cif.g09.slc.cpg/sg12_123_cif.got.tgz:244176.got - 2010.06.28 00:19:55.
