data_PCOD8087980
_publ_section_title
;
Structure prediction by ZEFSAII (Michael W. Deem and Ramdas Pophale) SiO2 
 PCOD8087980
Probable space group: C 2/M
;
_chemical_formula_sum "Si O2"
_cell_formula_units_Z 48
_cell_length_a 17.927206
_cell_length_b 8.892913
_cell_length_c 23.805058
_cell_angle_alpha 90.000000
_cell_angle_beta 136.461647
_cell_angle_gamma 90.000000
_cell_volume 2614.232684
_symmetry_space_group_name_H-M "C 2/M"
_symmetry_group_IT_number 12
_symmetry_cell_setting 'monoclinic'
loop_
_space_group_symop_operation_xyz
x,y,z
-x,y,-z
-x,-y,-z
x,-y,z
1/2+x,1/2+y,z
1/2-x,1/2+y,-z
1/2-x,1/2-y,-z
1/2+x,1/2-y,z
loop_
_atom_site_type_symbol
_atom_site_label
_atom_site_fract_x
_atom_site_fract_y
_atom_site_fract_z
Si Si1 0.040602 0.674155 0.581885
Si Si2 0.965307 0.677297 0.761931
Si Si3 0.505006 0.667544 0.333809
Si Si4 0.748502 0.333589 0.826840
Si Si5 0.790643 0.827099 0.741968
Si Si6 0.690043 0.321893 0.915191
O O1 0.012006 0.500000 0.572911
O O2 0.973697 0.759724 0.593754
O O3 0.168235 0.702480 0.656179
O O4 0.000000 0.736914 0.500000
O O5 0.982787 0.500000 0.770396
O O6 0.863667 0.719198 0.744590
O O7 0.939883 0.734235 0.685029
O O8 0.070734 0.753895 0.845813
O O9 0.555022 0.500000 0.359932
O O10 0.378271 0.661601 0.253816
O O11 0.798276 0.500000 0.844465
O O12 0.805835 0.216970 0.815978
O O13 0.761975 0.282973 0.899074
O O14 0.825019 0.000000 0.753040
O O15 0.678582 0.500000 0.916325
O O16 0.750000 0.250000 0.000000
#
# Coordination Sequence:
#
# PCOD8087980 Si02
#       6
#     8   8   8   8   8   8
#     4   9  18  33  53  77 104 134 169 209 255 307
#     4  11  21  34  53  75 102 135 171 210 253 300
#     4   9  17  31  51  74 100 131 170 210 250 301
#     4   8  16  31  50  72  99 131 165 202 245 298
#     4  10  19  32  52  76 102 132 168 210 253 300
#     4  10  20  35  55  79 106 134 168 208 251 300
#
# _framework density 18.361028999999998
#
# number of rings (size 3 to 8) (size 9 to 14) (size 15 to 20)
#    0.000    2.500    0.000    4.000    0.000    5.667 
#    0.000    1.667    0.000    5.000    0.000    0.000 
#    0.000    0.000    0.000    0.000    0.000    0.000 
#
# Total GULP energy -297566.515512 kJ/mol
# GULP energy per Si atom -12398.604813 kJ/mol
# Density = 1.831924 g / cm^3
# Si number density = 18.361029 Si / 1000 Ang^3
#
#
#
# Elastic Constant Matrix: (Units=GPa)
#
#
# Indices 1 2 3 4 5 6 
#
# 1 92.4488 53.0298 45.9241 0.0000 -30.9005 0.0000
# 2 53.0298 118.4288 50.3658 0.0000 -19.9620 0.0000
# 3 45.9241 50.3658 108.4955 0.0000 -39.1332 0.0000
# 4 0.0000 0.0000 0.0000 26.4480 0.0000 -7.4986
# 5 -30.9005 -19.9620 -39.1332 0.0000 30.2709 0.0000
# 6 0.0000 0.0000 0.0000 -7.4986 0.0000 33.3611
#
#
#
# Elastic Compliance Matrix: (Units=1/GPa)
#
#
# Indices 1 2 3 4 5 6 
#
# 1 0.019714 -0.006260 0.000620 0.000000 0.016798 0.000000
# 2 -0.006260 0.012531 -0.004669 0.000000 -0.004162 0.000000
# 3 0.000620 -0.004669 0.019186 0.000000 0.022357 0.000000
# 4 0.000000 0.000000 0.000000 0.040384 0.000000 0.009077
# 5 0.016798 -0.004162 0.022357 0.000000 0.076340 0.000000
# 6 0.000000 0.000000 0.000000 0.009077 0.000000 0.032015
#
#
# Mechanical properties :
#
#
# Convention : Reuss Voigt Hill
#
# Bulk Modulus (GPa) = 32.45281 68.66804 50.56043
# Shear Modulus (GPa) = 21.63962 29.35289 25.49626
#
# Velocity S-wave (km/s) = 3.43674 4.00265 3.73044
# Velocity P-wave (km/s) = 5.78459 7.67083 6.79349
#
# Compressibility (1/GPa) = 0.03081397
#
# Stress axis : x y z
#
# Youngs Moduli (GPa) = 50.72517 79.80292 52.12217
#
# Poissons Ratio (x) = 0.49956 -0.03233
# Poissons Ratio (y) = 0.31753 0.24334
# Poissons Ratio (z) = -0.03146 0.37257
#
# Static dielectric constant tensor:
#      x y z
#    x 3.375850 0.000000 -0.435480 
#    y 0.000000 3.526960 0.000000 
#    z -0.435480 0.000000 3.421710 
# 
# 
# High freq. dielectric constant tensor:
#      x y z
#    x 1.703390 0.000000 -0.031560 
#    y 0.000000 1.721860 0.000000 
#    z -0.031560 0.000000 1.692560 
# 
# From -- ./inp_files/273583.got.cif
#   From: 2010.06.25/outbox.cif.g09.slc.cpg/sg12_137_cif.got.tgz:273583.got - 2010.06.28 00:19:55.
