data_PCOD8087859
_publ_section_title
;
Structure prediction by ZEFSAII (Michael W. Deem and Ramdas Pophale) SiO2 
 PCOD8087859
Probable space group: C 2/M
;
_chemical_formula_sum "Si O2"
_cell_formula_units_Z 40
_cell_length_a 28.344461
_cell_length_b 7.803638
_cell_length_c 10.232454
_cell_angle_alpha 90.000000
_cell_angle_beta 102.988601
_cell_angle_gamma 90.000000
_cell_volume 2205.408226
_symmetry_space_group_name_H-M "C 2/M"
_symmetry_group_IT_number 12
_symmetry_cell_setting 'monoclinic'
loop_
_space_group_symop_operation_xyz
x,y,z
-x,y,-z
-x,-y,-z
x,-y,z
1/2+x,1/2+y,z
1/2-x,1/2+y,-z
1/2-x,1/2-y,-z
1/2+x,1/2-y,z
loop_
_atom_site_type_symbol
_atom_site_label
_atom_site_fract_x
_atom_site_fract_y
_atom_site_fract_z
Si Si1 0.115606 0.809451 0.399236
Si Si2 0.227769 0.298865 0.848756
Si Si3 0.949987 0.500000 0.633875
Si Si4 0.875842 0.807516 0.293302
Si Si5 0.286289 0.803665 0.635470
Si Si6 0.942136 0.500000 0.319066
O O1 0.076111 0.670717 0.327451
O O2 0.131324 0.771264 0.557703
O O3 0.163876 0.801516 0.342116
O O4 0.093023 0.000000 0.371090
O O5 0.221294 0.500000 0.826386
O O6 0.175726 0.210160 0.807742
O O7 0.263266 0.226095 0.761560
O O8 0.250000 0.250000 0.000000
O O9 0.948937 0.500000 0.477736
O O10 0.005451 0.500000 0.717960
O O11 0.913530 0.670863 0.256509
O O12 0.895770 0.000000 0.281153
O O13 0.250000 0.750000 0.500000
O O14 0.300121 0.000000 0.624328
#
# Coordination Sequence:
#
# PCOD8087859 Si02
#       6
#     8   8   4   8   8   4
#     4  10  19  32  51  79 111 144 184 232 277 331
#     4  12  24  38  54  80 115 151 190 234 278 337
#     4   9  18  32  50  77 111 143 187 237 280 330
#     4  10  19  33  52  77 109 145 188 229 276 335
#     4  12  22  34  54  82 111 151 193 226 280 342
#     4   9  18  32  52  75 107 151 185 229 290 329
#
# _framework density 18.137232000000001
#
# number of rings (size 3 to 8) (size 9 to 14) (size 15 to 20)
#    0.000    1.400    4.000    3.600    0.000    0.800 
#    0.000    4.000    0.000    0.000    0.000    2.800 
#    0.000    4.800    0.000    0.000    0.000    0.000 
#
# Total GULP energy -248046.841606 kJ/mol
# GULP energy per Si atom -12402.342080 kJ/mol
# Density = 1.809595 g / cm^3
# Si number density = 18.137232 Si / 1000 Ang^3
#
#
#
# Elastic Constant Matrix: (Units=GPa)
#
#
# Indices 1 2 3 4 5 6 
#
# 1 149.5388 58.7679 33.5708 0.0000 8.8087 0.0000
# 2 58.7679 148.5985 15.8075 0.0000 7.3709 0.0000
# 3 33.5708 15.8075 64.1425 0.0000 0.5628 0.0000
# 4 0.0000 0.0000 0.0000 19.5500 0.0000 0.9796
# 5 8.8087 7.3709 0.5628 0.0000 13.2245 0.0000
# 6 0.0000 0.0000 0.0000 0.9796 0.0000 29.1051
#
#
#
# Elastic Compliance Matrix: (Units=1/GPa)
#
#
# Indices 1 2 3 4 5 6 
#
# 1 0.008964 -0.002919 -0.003935 0.000000 -0.004176 0.000000
# 2 -0.002919 0.008056 -0.000435 0.000000 -0.002527 0.000000
# 3 -0.003935 -0.000435 0.017739 0.000000 0.002109 0.000000
# 4 0.000000 0.000000 0.000000 0.051237 0.000000 -0.001725
# 5 -0.004176 -0.002527 0.002109 0.000000 0.079718 0.000000
# 6 0.000000 0.000000 0.000000 -0.001725 0.000000 0.034416
#
#
# Mechanical properties :
#
#
# Convention : Reuss Voigt Hill
#
# Bulk Modulus (GPa) = 49.55764 64.28579 56.92171
# Shear Modulus (GPa) = 22.57991 29.31817 25.94904
#
# Velocity S-wave (km/s) = 3.53221 4.02489 3.78657
# Velocity P-wave (km/s) = 6.63463 7.55782 7.11123
#
# Compressibility (1/GPa) = 0.02017853
#
# Stress axis : x y z
#
# Youngs Moduli (GPa) = 111.55742 124.13557 56.37367
#
# Poissons Ratio (x) = 0.36239 0.22186
# Poissons Ratio (y) = 0.32567 0.02453
# Poissons Ratio (z) = 0.43903 0.05402
#
# Static dielectric constant tensor:
#      x y z
#    x 3.515750 0.000000 -0.170510 
#    y 0.000000 3.626900 0.000000 
#    z -0.170510 0.000000 3.304300 
# 
# 
# High freq. dielectric constant tensor:
#      x y z
#    x 1.698460 0.000000 0.002280 
#    y 0.000000 1.729160 0.000000 
#    z 0.002280 0.000000 1.649470 
# 
# From -- ./inp_files/101046.got.cif
#   From: 2010.06.25/outbox.cif.g09.slc.cpg/sg12_51_cif.got.tgz:101046.got - 2010.06.28 00:19:55.
