data_PCOD8087465
_publ_section_title
;
Structure prediction by ZEFSAII (Michael W. Deem and Ramdas Pophale) SiO2 
 PCOD8087465
Probable space group: C 2/M
;
_chemical_formula_sum "Si O2"
_cell_formula_units_Z 64
_cell_length_a 28.796308
_cell_length_b 8.963835
_cell_length_c 13.910517
_cell_angle_alpha 90.000000
_cell_angle_beta 76.400016
_cell_angle_gamma 90.000000
_cell_volume 3489.978921
_symmetry_space_group_name_H-M "C 2/M"
_symmetry_group_IT_number 12
_symmetry_cell_setting 'monoclinic'
loop_
_space_group_symop_operation_xyz
x,y,z
-x,y,-z
-x,-y,-z
x,-y,z
1/2+x,1/2+y,z
1/2-x,1/2+y,-z
1/2-x,1/2-y,-z
1/2+x,1/2-y,z
loop_
_atom_site_type_symbol
_atom_site_label
_atom_site_fract_x
_atom_site_fract_y
_atom_site_fract_z
Si Si1 0.116540 0.170069 0.256049
Si Si2 0.014905 0.174938 0.386340
Si Si3 0.300355 0.672799 0.486153
Si Si4 0.396492 0.322954 0.138444
Si Si5 0.801829 0.172060 0.274269
Si Si6 0.805121 0.323705 0.670181
Si Si7 0.523093 0.823285 0.780056
Si Si8 0.934206 0.827784 0.913286
O O1 0.070495 0.213393 0.342479
O O2 0.160974 0.275984 0.258984
O O3 0.105370 0.195964 0.149478
O O4 0.131370 0.000000 0.268960
O O5 0.000000 0.226676 0.500000
O O6 0.982862 0.262498 0.325121
O O7 0.005642 0.000000 0.374808
O O8 0.294564 0.500000 0.514689
O O9 0.250000 0.750000 0.500000
O O10 0.324772 0.695149 0.370001
O O11 0.327598 0.753563 0.560967
O O12 0.401177 0.500000 0.152301
O O13 0.341547 0.267799 0.180352
O O14 0.427946 0.238943 0.201552
O O15 0.411531 0.275556 0.024320
O O16 0.748724 0.243286 0.287144
O O17 0.793166 0.000000 0.258070
O O18 0.804745 0.500000 0.659316
O O19 0.480473 0.770847 0.870341
O O20 0.524324 0.000000 0.776603
O O21 0.950848 0.000000 0.908204
#
# Coordination Sequence:
#
# PCOD8087465 Si02
#       8
#     8   8   8   8   8   8   8   8
#     4   9  18  33  52  75  99 127 168 211 251 295
#     4   9  19  37  58  78 103 137 176 212 245 293
#     4   9  16  29  48  70  97 129 164 202 245 292
#     4  10  19  35  57  75  96 131 174 216 255 298
#     4   8  17  32  50  73  99 129 168 210 248 292
#     4  10  19  32  50  73 101 136 173 204 246 303
#     4  11  22  34  51  78 110 136 161 202 258 314
#     4   9  19  36  57  76  95 128 175 216 250 301
#
# _framework density 18.338221000000001
#
# number of rings (size 3 to 8) (size 9 to 14) (size 15 to 20)
#    0.000    2.625    0.000    3.750    0.000    5.250 
#    0.000    9.375    0.000    0.000    0.000    0.000 
#    0.000    0.000    0.000    0.000    0.000    0.000 
#
# Total GULP energy -396649.087743 kJ/mol
# GULP energy per Si atom -12395.283992 kJ/mol
# Density = 1.829648 g / cm^3
# Si number density = 18.338221 Si / 1000 Ang^3
#
#
#
# Elastic Constant Matrix: (Units=GPa)
#
#
# Indices 1 2 3 4 5 6 
#
# 1 107.1393 39.4556 56.9198 0.0000 5.5090 0.0000
# 2 39.4556 72.1042 38.9257 0.0000 3.5784 0.0000
# 3 56.9198 38.9257 123.6971 0.0000 -3.6425 0.0000
# 4 0.0000 0.0000 0.0000 15.8509 0.0000 4.5924
# 5 5.5090 3.5784 -3.6425 0.0000 19.9171 0.0000
# 6 0.0000 0.0000 0.0000 4.5924 0.0000 27.3874
#
#
#
# Elastic Compliance Matrix: (Units=1/GPa)
#
#
# Indices 1 2 3 4 5 6 
#
# 1 0.013958 -0.004713 -0.005056 0.000000 -0.003938 0.000000
# 2 -0.004713 0.018619 -0.003771 0.000000 -0.002731 0.000000
# 3 -0.005056 -0.003771 0.011721 0.000000 0.004220 0.000000
# 4 0.000000 0.000000 0.000000 0.066309 0.000000 -0.011119
# 5 -0.003938 -0.002731 0.004220 0.000000 0.052560 0.000000
# 6 0.000000 0.000000 0.000000 -0.011119 0.000000 0.038378
#
#
# Mechanical properties :
#
#
# Convention : Reuss Voigt Hill
#
# Bulk Modulus (GPa) = 58.07402 63.72697 60.90050
# Shear Modulus (GPa) = 21.33437 23.80703 22.57070
#
# Velocity S-wave (km/s) = 3.41454 3.60699 3.51208
# Velocity P-wave (km/s) = 6.87623 7.22312 7.05181
#
# Compressibility (1/GPa) = 0.01721940
#
# Stress axis : x y z
#
# Youngs Moduli (GPa) = 71.64549 53.70851 85.31334
#
# Poissons Ratio (x) = 0.25312 0.43131
# Poissons Ratio (y) = 0.33766 0.32171
# Poissons Ratio (z) = 0.36221 0.20253
#
# Static dielectric constant tensor:
#      x y z
#    x 3.335160 0.000000 0.022640 
#    y 0.000000 3.241940 0.000000 
#    z 0.022640 0.000000 3.725900 
# 
# 
# High freq. dielectric constant tensor:
#      x y z
#    x 1.701660 0.000000 0.006000 
#    y 0.000000 1.695380 0.000000 
#    z 0.006000 0.000000 1.710670 
# 
# From -- ./inp_files/243795.got.cif
#   From: 2010.06.25/outbox.cif.g09.slc.cpg/sg12_122_cif.got.tgz:243795.got - 2010.06.28 00:19:55.
