data_PCOD8087460
_publ_section_title
;
Structure prediction by ZEFSAII (Michael W. Deem and Ramdas Pophale) SiO2 
 PCOD8087460
Probable space group: C 2/M
;
_chemical_formula_sum "Si O2"
_cell_formula_units_Z 56
_cell_length_a 29.610727
_cell_length_b 8.925690
_cell_length_c 18.646490
_cell_angle_alpha 90.000000
_cell_angle_beta 38.146496
_cell_angle_gamma 90.000000
_cell_volume 3044.019828
_symmetry_space_group_name_H-M "C 2/M"
_symmetry_group_IT_number 12
_symmetry_cell_setting 'monoclinic'
loop_
_space_group_symop_operation_xyz
x,y,z
-x,y,-z
-x,-y,-z
x,-y,z
1/2+x,1/2+y,z
1/2-x,1/2+y,-z
1/2-x,1/2-y,-z
1/2+x,1/2-y,z
loop_
_atom_site_type_symbol
_atom_site_label
_atom_site_fract_x
_atom_site_fract_y
_atom_site_fract_z
Si Si1 0.184484 0.175459 0.539828
Si Si2 0.537878 0.168240 0.727840
Si Si3 0.114636 0.176291 0.247180
Si Si4 0.967873 0.330256 0.435290
Si Si5 0.106325 0.826479 0.091747
Si Si6 0.179501 0.175768 0.379879
Si Si7 0.755260 0.676557 0.829452
O O1 0.250000 0.250000 0.500000
O O2 0.108182 0.238302 0.665821
O O3 0.193534 0.215745 0.444936
O O4 0.185661 0.000000 0.551809
O O5 0.532501 0.173781 0.649499
O O6 0.463556 0.238189 0.852281
O O7 0.546330 0.000000 0.746282
O O8 0.122931 0.216004 0.153116
O O9 0.186055 0.238289 0.195816
O O10 0.042806 0.256347 0.370077
O O11 0.107568 0.000000 0.269180
O O12 0.961810 0.500000 0.471857
O O13 0.899482 0.233650 0.548712
O O14 0.087103 0.000000 0.109259
O O15 0.175471 0.781003 0.957819
O O16 0.240303 0.263039 0.257537
O O17 0.184063 0.000000 0.359488
O O18 0.769736 0.500000 0.815003
#
# Coordination Sequence:
#
# PCOD8087460 Si02
#       7
#     8   8   8   8   8   8   8
#     4  10  20  35  58  84 108 130 158 199 248 303
#     4   9  17  30  52  79 104 131 165 204 249 297
#     4  10  19  32  50  72  99 133 175 220 258 294
#     4   9  17  31  50  72  99 131 168 211 254 300
#     4   9  19  34  51  72 101 137 176 214 252 293
#     4  10  21  36  52  74 103 134 166 203 252 306
#     4  11  22  34  49  71 101 138 176 214 253 296
#
# _framework density 18.396726999999998
#
# number of rings (size 3 to 8) (size 9 to 14) (size 15 to 20)
#    0.000    2.286    0.000    3.000    0.000    7.429 
#    0.000    2.857    0.000    0.857    0.000    6.000 
#    0.000    0.000    0.000    0.000    0.000    0.000 
#
# Total GULP energy -347262.074894 kJ/mol
# GULP energy per Si atom -12402.216961 kJ/mol
# Density = 1.835485 g / cm^3
# Si number density = 18.396727 Si / 1000 Ang^3
#
#
#
# Elastic Constant Matrix: (Units=GPa)
#
#
# Indices 1 2 3 4 5 6 
#
# 1 87.8664 49.1304 48.4885 0.0179 -25.8820 -0.0088
# 2 49.1304 93.8132 36.9496 0.0332 -14.7080 -0.0125
# 3 48.4885 36.9496 87.7666 -0.0067 -17.7132 0.0039
# 4 0.0179 0.0332 -0.0067 33.7206 -0.0161 -6.7091
# 5 -25.8820 -14.7080 -17.7132 -0.0161 24.8365 0.0092
# 6 -0.0088 -0.0125 0.0039 -6.7091 0.0092 30.1773
#
#
#
# Elastic Compliance Matrix: (Units=1/GPa)
#
#
# Indices 1 2 3 4 5 6 
#
# 1 0.023939 -0.007337 -0.006984 0.000001 0.015621 0.000000
# 2 -0.007337 0.015444 -0.002506 -0.000012 -0.000288 0.000002
# 3 -0.006984 -0.002506 0.016984 0.000010 0.003350 -0.000004
# 4 0.000001 -0.000012 0.000010 0.031028 0.000019 0.006898
# 5 0.015621 -0.000288 0.003350 0.000019 0.058761 -0.000010
# 6 0.000000 0.000002 -0.000004 0.006898 -0.000010 0.034671
#
#
# Mechanical properties :
#
#
# Convention : Reuss Voigt Hill
#
# Bulk Modulus (GPa) = 44.03073 59.84257 51.93665
# Shear Modulus (GPa) = 22.51728 26.73872 24.62800
#
# Velocity S-wave (km/s) = 3.50234 3.81655 3.66282
# Velocity P-wave (km/s) = 6.35147 7.21255 6.79566
#
# Compressibility (1/GPa) = 0.02271141
#
# Stress axis : x y z
#
# Youngs Moduli (GPa) = 41.77329 64.74980 58.87997
#
# Poissons Ratio (x) = 0.47508 0.41122
# Poissons Ratio (y) = 0.30649 0.14758
# Poissons Ratio (z) = 0.29174 0.16229
#
# Static dielectric constant tensor:
#      x y z
#    x 3.147310 -0.000020 -0.096210 
#    y -0.000020 3.537050 0.000030 
#    z -0.096210 0.000030 3.572900 
# 
# 
# High freq. dielectric constant tensor:
#      x y z
#    x 1.684620 0.000000 -0.013540 
#    y 0.000000 1.728790 0.000000 
#    z -0.013540 0.000000 1.712820 
# 
# From -- ./inp_files/280967.got.cif
#   From: 2010.06.25/outbox.cif.g09.slc.cpg/sg12_141_cif.got.tgz:280967.got - 2010.06.28 00:19:55.
