data_PCOD8087115
_publ_section_title
;
Structure prediction by ZEFSAII (Michael W. Deem and Ramdas Pophale) SiO2 
 PCOD8087115
Probable space group: C 2/M
;
_chemical_formula_sum "Si O2"
_cell_formula_units_Z 48
_cell_length_a 23.742309
_cell_length_b 10.750369
_cell_length_c 13.707952
_cell_angle_alpha 90.000000
_cell_angle_beta 136.046719
_cell_angle_gamma 90.000000
_cell_volume 2428.416456
_symmetry_space_group_name_H-M "C 2/M"
_symmetry_group_IT_number 12
_symmetry_cell_setting 'monoclinic'
loop_
_space_group_symop_operation_xyz
x,y,z
-x,y,-z
-x,-y,-z
x,-y,z
1/2+x,1/2+y,z
1/2-x,1/2+y,-z
1/2-x,1/2-y,-z
1/2+x,1/2-y,z
loop_
_atom_site_type_symbol
_atom_site_label
_atom_site_fract_x
_atom_site_fract_y
_atom_site_fract_z
Si Si1 0.024783 0.859652 0.304683
Si Si2 0.091541 0.632654 0.075885
Si Si3 0.867421 0.729184 0.073195
Si Si4 0.915909 0.133307 0.837113
Si Si5 0.204519 0.361391 0.825210
Si Si6 0.431113 0.142232 0.493615
O O1 0.927903 0.843982 0.169755
O O2 0.070304 0.845545 0.259297
O O3 0.060331 0.748908 0.414782
O O4 0.038893 0.000000 0.364912
O O5 0.132885 0.500000 0.155464
O O6 0.136356 0.751142 0.183369
O O7 0.092212 0.643650 0.959556
O O8 0.000000 0.631547 0.000000
O O9 0.856563 0.653155 0.159318
O O10 0.779917 0.769551 0.924661
O O11 0.870862 0.000000 0.797497
O O12 0.000000 0.128443 0.000000
O O13 0.239270 0.500000 0.869751
O O14 0.155560 0.335004 0.665300
O O15 0.500000 0.161770 0.500000
O O16 0.435819 0.000000 0.541989
#
# Coordination Sequence:
#
# PCOD8087115 Si02
#       6
#     8   8   8   8   8   8
#     4  11  21  34  56  86 114 146 186 237 287 338
#     4  10  19  31  53  87 118 145 181 234 290 335
#     4  11  20  35  57  87 118 148 189 241 287 338
#     4   9  17  31  50  79 113 141 178 229 286 334
#     4  10  22  38  55  80 117 160 194 228 285 346
#     4  10  21  38  57  78 111 156 197 235 281 343
#
# _framework density 19.765968000000001
#
# number of rings (size 3 to 8) (size 9 to 14) (size 15 to 20)
#    0.000    1.833    5.000    1.000    0.000    2.333 
#    0.000    1.667    0.000    1.000    0.000    0.000 
#    0.000    0.000    0.000    0.000    0.000    0.000 
#
# Total GULP energy -297335.286115 kJ/mol
# GULP energy per Si atom -12388.970255 kJ/mol
# Density = 1.972098 g / cm^3
# Si number density = 19.765968 Si / 1000 Ang^3
#
#
#
# Elastic Constant Matrix: (Units=GPa)
#
#
# Indices 1 2 3 4 5 6 
#
# 1 58.3736 32.3372 25.9113 0.0000 -19.2652 0.0000
# 2 32.3372 193.1033 67.3861 0.0000 -24.1854 0.0000
# 3 25.9113 67.3861 77.6393 0.0000 -15.2705 0.0000
# 4 0.0000 0.0000 0.0000 20.4110 0.0000 -11.7324
# 5 -19.2652 -24.1854 -15.2705 0.0000 25.6099 0.0000
# 6 0.0000 0.0000 0.0000 -11.7324 0.0000 14.4922
#
#
#
# Elastic Compliance Matrix: (Units=1/GPa)
#
#
# Indices 1 2 3 4 5 6 
#
# 1 0.024524 -0.000568 -0.004722 0.000000 0.015096 0.000000
# 2 -0.000568 0.007745 -0.005866 0.000000 0.003389 0.000000
# 3 -0.004722 -0.005866 0.020119 0.000000 0.002904 0.000000
# 4 0.000000 0.000000 0.000000 0.091635 0.000000 0.074184
# 5 0.015096 0.003389 0.002904 0.000000 0.055336 0.000000
# 6 0.000000 0.000000 0.000000 0.074184 0.000000 0.129060
#
#
# Mechanical properties :
#
#
# Convention : Reuss Voigt Hill
#
# Bulk Modulus (GPa) = 33.25044 64.48727 48.86886
# Shear Modulus (GPa) = 13.85973 25.66804 19.76389
#
# Velocity S-wave (km/s) = 2.65087 3.60752 3.16554
# Velocity P-wave (km/s) = 5.12134 7.07449 6.17562
#
# Compressibility (1/GPa) = 0.03007479
#
# Stress axis : x y z
#
# Youngs Moduli (GPa) = 40.77601 129.11041 49.70477
#
# Poissons Ratio (x) = 0.07336 0.23472
# Poissons Ratio (y) = 0.02317 0.29158
# Poissons Ratio (z) = 0.19256 0.75739
#
# Static dielectric constant tensor:
#      x y z
#    x 3.468110 0.000000 -0.270870 
#    y 0.000000 4.795490 0.000000 
#    z -0.270870 0.000000 3.395850 
# 
# 
# High freq. dielectric constant tensor:
#      x y z
#    x 1.755310 0.000000 -0.025550 
#    y 0.000000 1.790570 0.000000 
#    z -0.025550 0.000000 1.738100 
# 
# From -- ./inp_files/174870.got.cif
#   From: 2010.06.25/outbox.cif.g09.slc.cpg/sg12_88_cif.got.tgz:174870.got - 2010.06.28 00:19:55.
