data_PCOD8087155
_publ_section_title
;
Structure prediction by ZEFSAII (Michael W. Deem and Ramdas Pophale) SiO2 
 PCOD8087155
Probable space group: C 2/M
;
_chemical_formula_sum "Si O2"
_cell_formula_units_Z 64
_cell_length_a 25.767659
_cell_length_b 19.604727
_cell_length_c 9.614207
_cell_angle_alpha 90.000000
_cell_angle_beta 42.099017
_cell_angle_gamma 90.000000
_cell_volume 3256.058771
_symmetry_space_group_name_H-M "C 2/M"
_symmetry_group_IT_number 12
_symmetry_cell_setting 'monoclinic'
loop_
_space_group_symop_operation_xyz
x,y,z
-x,y,-z
-x,-y,-z
x,-y,z
1/2+x,1/2+y,z
1/2-x,1/2+y,-z
1/2-x,1/2-y,-z
1/2+x,1/2-y,z
loop_
_atom_site_type_symbol
_atom_site_label
_atom_site_fract_x
_atom_site_fract_y
_atom_site_fract_z
Si Si1 0.965176 0.080494 0.925058
Si Si2 0.820071 0.283249 0.126946
Si Si3 0.747127 0.421723 0.324534
Si Si4 0.683340 0.181609 0.376317
Si Si5 0.410450 0.763564 0.669740
Si Si6 0.293272 0.577838 0.274097
Si Si7 0.598218 0.352847 0.529511
Si Si8 0.588225 0.241510 0.784066
O O1 0.017249 0.105686 0.692705
O O2 0.963172 0.000000 0.934871
O O3 0.878640 0.109285 0.082177
O O4 0.000000 0.109541 0.000000
O O5 0.812035 0.365948 0.151323
O O6 0.734318 0.251548 0.281701
O O7 0.859270 0.250686 0.184359
O O8 0.875082 0.260850 0.892403
O O9 0.773437 0.500000 0.239572
O O10 0.732210 0.412516 0.517181
O O11 0.668494 0.406612 0.395552
O O12 0.636466 0.179586 0.324935
O O13 0.737550 0.116159 0.277599
O O14 0.621955 0.178917 0.625471
O O15 0.500000 0.784675 0.500000
O O16 0.399912 0.690513 0.615611
O O17 0.290965 0.500000 0.232516
O O18 0.598528 0.307069 0.667067
O O19 0.500000 0.226088 0.000000
#
# Coordination Sequence:
#
# PCOD8087155 Si02
#       8
#     8   8   8   8   8   8   8   8
#     4  10  19  31  54  91 135 170 198 236 298 379
#     4  12  22  40  62  89 123 159 209 255 305 360
#     4  11  21  36  62  93 126 161 201 253 309 366
#     4  11  22  39  62  90 120 160 203 259 304 353
#     4  11  26  42  60  86 122 163 201 258 313 363
#     4  10  21  36  60  96 130 163 200 252 310 362
#     4  11  21  36  58  92 126 162 200 244 305 373
#     4  11  22  34  60  93 122 155 200 257 307 360
#
# _framework density 19.655664000000002
#
# number of rings (size 3 to 8) (size 9 to 14) (size 15 to 20)
#    0.000    1.125    5.000    3.750    3.500    0.000 
#    0.000    0.625    0.000    6.000    0.000    0.000 
#    0.000    0.000    0.000    0.000    0.000    0.000 
#
# Total GULP energy -396765.061292 kJ/mol
# GULP energy per Si atom -12398.908165 kJ/mol
# Density = 1.961093 g / cm^3
# Si number density = 19.655664 Si / 1000 Ang^3
#
#
#
# Elastic Constant Matrix: (Units=GPa)
#
#
# Indices 1 2 3 4 5 6 
#
# 1 99.0209 14.5882 14.4642 0.0000 -7.5636 0.0000
# 2 14.5882 63.7761 10.4127 0.0000 -4.4184 0.0000
# 3 14.4642 10.4127 91.3936 0.0000 -2.4937 0.0000
# 4 0.0000 0.0000 0.0000 25.6693 0.0000 -4.3599
# 5 -7.5636 -4.4184 -2.4937 0.0000 33.4074 0.0000
# 6 0.0000 0.0000 0.0000 -4.3599 0.0000 26.8719
#
#
#
# Elastic Compliance Matrix: (Units=1/GPa)
#
#
# Indices 1 2 3 4 5 6 
#
# 1 0.010770 -0.002091 -0.001410 0.000000 0.002057 0.000000
# 2 -0.002091 0.016515 -0.001507 0.000000 0.001598 0.000000
# 3 -0.001410 -0.001507 0.011346 0.000000 0.000328 0.000000
# 4 0.000000 0.000000 0.000000 0.040061 0.000000 0.006500
# 5 0.002057 0.001598 0.000328 0.000000 0.030635 0.000000
# 6 0.000000 0.000000 0.000000 0.006500 0.000000 0.038268
#
#
# Mechanical properties :
#
#
# Convention : Reuss Voigt Hill
#
# Bulk Modulus (GPa) = 34.94757 37.01343 35.98050
# Shear Modulus (GPa) = 29.91343 31.50473 30.70908
#
# Velocity S-wave (km/s) = 3.90535 4.00788 3.95695
# Velocity P-wave (km/s) = 6.17691 6.34738 6.26273
#
# Compressibility (1/GPa) = 0.02861429
#
# Stress axis : x y z
#
# Youngs Moduli (GPa) = 92.85064 60.55139 88.14048
#
# Poissons Ratio (x) = 0.12660 0.12429
# Poissons Ratio (y) = 0.19413 0.13283
# Poissons Ratio (z) = 0.13093 0.09126
#
# Static dielectric constant tensor:
#      x y z
#    x 3.623510 0.000000 -0.176150 
#    y 0.000000 3.504910 0.000000 
#    z -0.176150 0.000000 3.704470 
# 
# 
# High freq. dielectric constant tensor:
#      x y z
#    x 1.762740 0.000000 -0.010510 
#    y 0.000000 1.748750 0.000000 
#    z -0.010510 0.000000 1.762960 
# 
# From -- ./inp_files/99078.got.cif
#   From: 2010.06.25/outbox.cif.g09.slc.cpg/sg12_50_cif.got.tgz:99078.got - 2010.06.28 00:19:55.
