data_PCOD8087049
_publ_section_title
;
Structure prediction by ZEFSAII (Michael W. Deem and Ramdas Pophale) SiO2 
 PCOD8087049
Probable space group: C 2/M
;
_chemical_formula_sum "Si O2"
_cell_formula_units_Z 64
_cell_length_a 34.556338
_cell_length_b 13.031261
_cell_length_c 10.352356
_cell_angle_alpha 90.000000
_cell_angle_beta 135.605365
_cell_angle_gamma 90.000000
_cell_volume 3261.376544
_symmetry_space_group_name_H-M "C 2/M"
_symmetry_group_IT_number 12
_symmetry_cell_setting 'monoclinic'
loop_
_space_group_symop_operation_xyz
x,y,z
-x,y,-z
-x,-y,-z
x,-y,z
1/2+x,1/2+y,z
1/2-x,1/2+y,-z
1/2-x,1/2-y,-z
1/2+x,1/2-y,z
loop_
_atom_site_type_symbol
_atom_site_label
_atom_site_fract_x
_atom_site_fract_y
_atom_site_fract_z
Si Si1 0.640317 0.885700 0.671995
Si Si2 0.487242 0.118987 0.615300
Si Si3 0.323231 0.119066 0.946596
Si Si4 0.565259 0.618974 0.143004
Si Si5 0.884561 0.884128 0.473088
Si Si6 0.083575 0.255539 0.944390
Si Si7 0.434910 0.616905 0.337088
Si Si8 0.221179 0.220735 0.798798
O O1 0.575885 0.863747 0.493899
O O2 0.677707 0.813582 0.667159
O O3 0.656056 0.000000 0.666987
O O4 0.651680 0.870971 0.850653
O O5 0.500000 0.158151 0.500000
O O6 0.525337 0.184329 0.802992
O O7 0.504294 0.000000 0.665962
O O8 0.268174 0.191530 0.806392
O O9 0.309791 0.000000 0.882272
O O10 0.366637 0.162127 0.945851
O O11 0.580912 0.500000 0.152385
O O12 0.594575 0.662627 0.342054
O O13 0.500000 0.631045 0.000000
O O14 0.588777 0.690294 0.086371
O O15 0.912890 0.829322 0.416645
O O16 0.818451 0.879033 0.292951
O O17 0.905780 0.000000 0.523461
O O18 0.090098 0.177246 0.841962
O O19 0.500000 0.621407 0.500000
O O20 0.413624 0.500000 0.273823
O O21 0.250000 0.250000 0.000000
#
# Coordination Sequence:
#
# PCOD8087049 Si02
#       8
#     8   8   8   8   8   8   8   8
#     4   9  18  32  51  82 121 153 189 242 300 358
#     4  10  19  31  52  85 120 154 195 245 302 364
#     4  10  20  35  54  82 117 151 195 248 295 350
#     4  10  23  41  58  83 123 165 202 242 296 366
#     4  10  21  38  58  81 116 161 203 241 297 366
#     4  12  21  33  59  87 117 158 200 248 296 355
#     4  10  20  31  50  84 120 148 188 251 304 348
#     4  10  20  34  57  86 114 151 199 248 298 349
#
# _framework density 19.623615999999998
#
# number of rings (size 3 to 8) (size 9 to 14) (size 15 to 20)
#    0.000    1.875    1.250    3.750    3.500    2.500 
#    0.000    1.875    0.000    3.000    0.000    0.000 
#    0.000    0.000    0.000    0.000    0.000    0.000 
#
# Total GULP energy -396631.538322 kJ/mol
# GULP energy per Si atom -12394.735573 kJ/mol
# Density = 1.957895 g / cm^3
# Si number density = 19.623616 Si / 1000 Ang^3
#
#
#
# Elastic Constant Matrix: (Units=GPa)
#
#
# Indices 1 2 3 4 5 6 
#
# 1 116.2855 53.9342 55.2917 0.0000 12.0378 0.0000
# 2 53.9342 95.9176 30.2079 0.0000 -4.6942 0.0000
# 3 55.2917 30.2079 92.0918 0.0000 -1.2542 0.0000
# 4 0.0000 0.0000 0.0000 30.5185 0.0000 9.3273
# 5 12.0378 -4.6942 -1.2542 0.0000 36.8895 0.0000
# 6 0.0000 0.0000 0.0000 9.3273 0.0000 39.4772
#
#
#
# Elastic Compliance Matrix: (Units=1/GPa)
#
#
# Indices 1 2 3 4 5 6 
#
# 1 0.016027 -0.006988 -0.007417 0.000000 -0.006371 0.000000
# 2 -0.006988 0.014741 -0.000584 0.000000 0.004136 0.000000
# 3 -0.007417 -0.000584 0.015543 0.000000 0.002875 0.000000
# 4 0.000000 0.000000 0.000000 0.035317 0.000000 -0.008344
# 5 -0.006371 0.004136 0.002875 0.000000 0.029811 0.000000
# 6 0.000000 0.000000 0.000000 -0.008344 0.000000 0.027303
#
#
# Mechanical properties :
#
#
# Convention : Reuss Voigt Hill
#
# Bulk Modulus (GPa) = 61.22395 64.79584 63.00990
# Shear Modulus (GPa) = 28.70881 32.36776 30.53828
#
# Velocity S-wave (km/s) = 3.82903 4.06572 3.94915
# Velocity P-wave (km/s) = 7.12850 7.42503 7.27828
#
# Compressibility (1/GPa) = 0.01633348
#
# Stress axis : x y z
#
# Youngs Moduli (GPa) = 62.39587 67.83804 64.33969
#
# Poissons Ratio (x) = 0.47403 0.47721
# Poissons Ratio (y) = 0.43600 0.03755
# Poissons Ratio (z) = 0.46279 0.03959
#
# Static dielectric constant tensor:
#      x y z
#    x 3.541290 0.000000 0.200570 
#    y 0.000000 3.956840 0.000000 
#    z 0.200570 0.000000 3.354910 
# 
# 
# High freq. dielectric constant tensor:
#      x y z
#    x 1.747970 0.000000 0.027030 
#    y 0.000000 1.783890 0.000000 
#    z 0.027030 0.000000 1.732350 
# 
# From -- ./inp_files/112021.got.cif
#   From: 2010.06.25/outbox.cif.g09.slc.cpg/sg12_57_cif.got.tgz:112021.got - 2010.06.28 00:19:55.
