data_PCOD8088463
_publ_section_title
;
Structure prediction by ZEFSAII (Michael W. Deem and Ramdas Pophale) SiO2 
 PCOD8088463
Probable space group: C 2/M
;
_chemical_formula_sum "Si O2"
_cell_formula_units_Z 48
_cell_length_a 23.146294
_cell_length_b 8.782328
_cell_length_c 12.421512
_cell_angle_alpha 90.000000
_cell_angle_beta 69.635942
_cell_angle_gamma 90.000000
_cell_volume 2367.211565
_symmetry_space_group_name_H-M "C 2/M"
_symmetry_group_IT_number 12
_symmetry_cell_setting 'monoclinic'
loop_
_space_group_symop_operation_xyz
x,y,z
-x,y,-z
-x,-y,-z
x,-y,z
1/2+x,1/2+y,z
1/2-x,1/2+y,-z
1/2-x,1/2-y,-z
1/2+x,1/2-y,z
loop_
_atom_site_type_symbol
_atom_site_label
_atom_site_fract_x
_atom_site_fract_y
_atom_site_fract_z
Si Si1 0.256227 0.673245 0.609014
Si Si2 0.817516 0.818843 0.972729
Si Si3 0.896285 0.825224 0.536088
Si Si4 0.442380 0.320090 0.279022
Si Si5 0.852107 0.680785 0.172336
Si Si6 0.576913 0.320606 0.252730
O O1 0.238584 0.500000 0.601598
O O2 0.250000 0.750000 0.500000
O O3 0.324476 0.694872 0.609178
O O4 0.208204 0.741657 0.725382
O O5 0.862890 0.759104 0.848612
O O6 0.811913 0.000000 0.976474
O O7 0.750000 0.750000 0.000000
O O8 0.850356 0.763589 0.059688
O O9 0.915347 0.751310 0.409379
O O10 0.928610 0.752603 0.621409
O O11 0.916236 0.000000 0.511229
O O12 0.428874 0.500000 0.276274
O O13 0.412494 0.231569 0.198736
O O14 0.514974 0.282047 0.227513
O O15 0.852109 0.500000 0.155095
O O16 0.584727 0.500000 0.260997
#
# Coordination Sequence:
#
# PCOD8088463 Si02
#       6
#     8   8   8   8   8   8
#     4  10  19  32  53  81 112 144 182 233 285 335
#     4  11  23  41  63  85 114 149 193 240 287 342
#     4   9  16  30  55  85 113 142 182 234 286 338
#     4  10  19  34  59  87 114 148 193 236 282 343
#     4  11  23  38  57  84 121 155 189 236 287 337
#     4   9  19  35  57  85 114 148 191 240 285 334
#
# _framework density 20.277023
#
# number of rings (size 3 to 8) (size 9 to 14) (size 15 to 20)
#    0.000    2.000    1.667    2.500    0.000    6.000 
#    0.000    5.000    0.000    4.000    0.000    0.000 
#    0.000    0.000    0.000    0.000    0.000    0.000 
#
# Total GULP energy -297512.737554 kJ/mol
# GULP energy per Si atom -12396.364065 kJ/mol
# Density = 2.023087 g / cm^3
# Si number density = 20.277023 Si / 1000 Ang^3
#
#
#
# Elastic Constant Matrix: (Units=GPa)
#
#
# Indices 1 2 3 4 5 6 
#
# 1 105.8727 25.9131 53.8214 0.0000 8.2279 0.0000
# 2 25.9131 40.2940 22.9534 0.0000 2.4703 0.0000
# 3 53.8214 22.9534 119.2733 0.0000 13.4204 0.0000
# 4 0.0000 0.0000 0.0000 22.8305 0.0000 2.1744
# 5 8.2279 2.4703 13.4204 0.0000 40.5746 0.0000
# 6 0.0000 0.0000 0.0000 2.1744 0.0000 29.6054
#
#
#
# Elastic Compliance Matrix: (Units=1/GPa)
#
#
# Indices 1 2 3 4 5 6 
#
# 1 0.013384 -0.005805 -0.004837 0.000000 -0.000761 0.000000
# 2 -0.005805 0.030392 -0.003275 0.000000 0.000410 0.000000
# 3 -0.004837 -0.003275 0.011492 0.000000 -0.002621 0.000000
# 4 0.000000 0.000000 0.000000 0.044110 0.000000 -0.003240
# 5 -0.000761 0.000410 -0.002621 0.000000 0.025642 0.000000
# 6 0.000000 0.000000 0.000000 -0.003240 0.000000 0.034016
#
#
# Mechanical properties :
#
#
# Convention : Reuss Voigt Hill
#
# Bulk Modulus (GPa) = 36.45250 52.31284 44.38267
# Shear Modulus (GPa) = 25.50841 29.45225 27.48033
#
# Velocity S-wave (km/s) = 3.55067 3.81529 3.68536
# Velocity P-wave (km/s) = 5.90135 6.72783 6.32810
#
# Compressibility (1/GPa) = 0.02743296
#
# Stress axis : x y z
#
# Youngs Moduli (GPa) = 74.71537 32.90382 87.01858
#
# Poissons Ratio (x) = 0.19102 0.42088
# Poissons Ratio (y) = 0.43376 0.28500
# Poissons Ratio (z) = 0.36137 0.10776
#
# Static dielectric constant tensor:
#      x y z
#    x 3.332480 0.000000 0.075080 
#    y 0.000000 3.168200 0.000000 
#    z 0.075080 0.000000 3.885950 
# 
# 
# High freq. dielectric constant tensor:
#      x y z
#    x 1.806560 0.000000 0.002960 
#    y 0.000000 1.745710 0.000000 
#    z 0.002960 0.000000 1.803280 
# 
# From -- ./inp_files/172907.got.cif
#   From: 2010.06.25/outbox.cif.g09.slc.cpg/sg12_87_cif.got.tgz:172907.got - 2010.06.28 00:19:55.
