data_PCOD8088947
_publ_section_title
;
Structure prediction by ZEFSAII (Michael W. Deem and Ramdas Pophale) SiO2 
 PCOD8088947
Probable space group: C 2/M
;
_chemical_formula_sum "Si O2"
_cell_formula_units_Z 56
_cell_length_a 20.370127
_cell_length_b 8.882660
_cell_length_c 22.877753
_cell_angle_alpha 90.000000
_cell_angle_beta 45.846507
_cell_angle_gamma 90.000000
_cell_volume 2970.008406
_symmetry_space_group_name_H-M "C 2/M"
_symmetry_group_IT_number 12
_symmetry_cell_setting 'monoclinic'
loop_
_space_group_symop_operation_xyz
x,y,z
-x,y,-z
-x,-y,-z
x,-y,z
1/2+x,1/2+y,z
1/2-x,1/2+y,-z
1/2-x,1/2-y,-z
1/2+x,1/2-y,z
loop_
_atom_site_type_symbol
_atom_site_label
_atom_site_fract_x
_atom_site_fract_y
_atom_site_fract_z
Si Si1 0.428768 0.173968 0.266687
Si Si2 0.997040 0.177349 0.338874
Si Si3 0.192106 0.676929 0.234624
Si Si4 0.929419 0.326873 0.494603
Si Si5 0.881187 0.327553 0.904835
Si Si6 0.754872 0.827033 0.323230
Si Si7 0.763680 0.326439 0.084150
O O1 0.440281 0.271221 0.317753
O O2 0.511541 0.202451 0.169954
O O3 0.337267 0.221496 0.290762
O O4 0.422677 0.000000 0.288616
O O5 0.940322 0.226153 0.430771
O O6 0.096669 0.249794 0.275902
O O7 0.007526 0.000000 0.331708
O O8 0.178971 0.500000 0.239770
O O9 0.221075 0.728944 0.280980
O O10 0.268922 0.730396 0.140592
O O11 0.952151 0.500000 0.464936
O O12 0.826490 0.307107 0.580309
O O13 0.000000 0.269735 0.500000
O O14 0.855024 0.500000 0.905215
O O15 0.826449 0.217654 0.896223
O O16 0.853922 0.293725 0.989135
O O17 0.787454 0.000000 0.300221
O O18 0.755978 0.500000 0.106321
#
# Coordination Sequence:
#
# PCOD8088947 Si02
#       7
#     8   8   8   8   8   8   8
#     4  11  23  40  61  85 119 160 195 236 294 352
#     4  12  24  37  60  91 119 150 195 246 288 343
#     4  11  21  38  60  86 118 156 195 238 295 350
#     4  10  20  40  64  86 115 155 194 238 295 346
#     4   9  19  35  55  82 118 156 192 236 293 347
#     4  10  23  41  62  85 116 155 196 240 290 350
#     4  10  19  32  56  89 116 147 195 247 289 337
#
# _framework density 18.855166000000001
#
# number of rings (size 3 to 8) (size 9 to 14) (size 15 to 20)
#    0.000    1.571    2.857    2.571    0.000    3.714 
#    0.000    0.714    0.000    4.286    0.000    0.000 
#    0.000    0.000    0.000    0.000    0.000    0.000 
#
# Total GULP energy -347314.793067 kJ/mol
# GULP energy per Si atom -12404.099752 kJ/mol
# Density = 1.881225 g / cm^3
# Si number density = 18.855166 Si / 1000 Ang^3
#
#
#
# Elastic Constant Matrix: (Units=GPa)
#
#
# Indices 1 2 3 4 5 6 
#
# 1 69.7117 36.2016 33.4336 0.0000 0.0994 0.0003
# 2 36.2016 88.4038 44.1596 -0.0003 5.7104 0.0007
# 3 33.4336 44.1596 116.3959 0.0000 9.5211 0.0000
# 4 0.0000 -0.0003 0.0000 32.8429 0.0000 1.8265
# 5 0.0994 5.7104 9.5211 0.0000 30.3188 0.0000
# 6 0.0003 0.0007 0.0000 1.8265 0.0000 31.8450
#
#
#
# Elastic Compliance Matrix: (Units=1/GPa)
#
#
# Indices 1 2 3 4 5 6 
#
# 1 0.019225 -0.006374 -0.003282 0.000000 0.002168 0.000000
# 2 -0.006374 0.016099 -0.004137 0.000000 -0.001712 0.000000
# 3 -0.003282 -0.004137 0.011330 0.000000 -0.002768 0.000000
# 4 0.000000 0.000000 0.000000 0.030545 0.000000 -0.001752
# 5 0.002168 -0.001712 -0.002768 0.000000 0.034167 0.000000
# 6 0.000000 0.000000 0.000000 -0.001752 0.000000 0.031503
#
#
# Mechanical properties :
#
#
# Convention : Reuss Voigt Hill
#
# Bulk Modulus (GPa) = 52.43880 55.78901 54.11390
# Shear Modulus (GPa) = 28.27886 29.71579 28.99733
#
# Velocity S-wave (km/s) = 3.87692 3.97420 3.92586
# Velocity P-wave (km/s) = 6.92188 7.12119 7.02224
#
# Compressibility (1/GPa) = 0.01906985
#
# Stress axis : x y z
#
# Youngs Moduli (GPa) = 52.01449 62.11619 88.26210
#
# Poissons Ratio (x) = 0.39591 0.28963
# Poissons Ratio (y) = 0.33153 0.36514
# Poissons Ratio (z) = 0.17069 0.25697
#
# Static dielectric constant tensor:
#      x y z
#    x 3.223230 0.000000 0.121840 
#    y 0.000000 3.481350 0.000000 
#    z 0.121840 0.000000 3.806840 
# 
# 
# High freq. dielectric constant tensor:
#      x y z
#    x 1.707970 0.000000 0.006260 
#    y 0.000000 1.736640 0.000000 
#    z 0.006260 0.000000 1.751470 
# 
# From -- ./inp_files/275551.got.cif
#   From: 2010.06.25/outbox.cif.g09.slc.cpg/sg12_138_cif.got.tgz:275551.got - 2010.06.28 00:19:55.
