data_PCOD8088518
_publ_section_title
;
Structure prediction by ZEFSAII (Michael W. Deem and Ramdas Pophale) SiO2 
 PCOD8088518
Probable space group: C 2/M
;
_chemical_formula_sum "Si O2"
_cell_formula_units_Z 40
_cell_length_a 20.795698
_cell_length_b 8.995276
_cell_length_c 14.792157
_cell_angle_alpha 90.000000
_cell_angle_beta 49.921825
_cell_angle_gamma 90.000000
_cell_volume 2117.266696
_symmetry_space_group_name_H-M "C 2/M"
_symmetry_group_IT_number 12
_symmetry_cell_setting 'monoclinic'
loop_
_space_group_symop_operation_xyz
x,y,z
-x,y,-z
-x,-y,-z
x,-y,z
1/2+x,1/2+y,z
1/2-x,1/2+y,-z
1/2-x,1/2-y,-z
1/2+x,1/2-y,z
loop_
_atom_site_type_symbol
_atom_site_label
_atom_site_fract_x
_atom_site_fract_y
_atom_site_fract_z
Si Si1 0.357053 0.175754 0.230544
Si Si2 0.020541 0.825260 0.757476
Si Si3 0.724474 0.831464 0.246751
Si Si4 0.553133 0.674710 0.365697
Si Si5 0.397576 0.332063 0.023830
O O1 0.395543 0.237235 0.289304
O O2 0.263615 0.244563 0.298734
O O3 0.419392 0.231403 0.092669
O O4 0.350757 0.000000 0.238932
O O5 0.998246 0.776547 0.676314
O O6 0.038390 0.000000 0.747432
O O7 0.942800 0.775987 0.892166
O O8 0.642330 0.753782 0.283558
O O9 0.795738 0.826155 0.102914
O O10 0.703670 0.000000 0.294315
O O11 0.500000 0.727260 0.500000
O O12 0.570054 0.500000 0.351521
O O13 0.425838 0.500000 0.021445
#
# Coordination Sequence:
#
# PCOD8088518 Si02
#       5
#     8   8   8   8   8
#     4  10  19  32  53  84 114 138 172 217 264 314
#     4  10  19  34  55  79 111 146 175 210 264 319
#     4   9  19  36  56  78 108 143 176 213 265 320
#     4  10  22  39  57  78 105 139 181 226 266 307
#     4   8  17  32  53  80 111 143 171 208 263 322
#
# _framework density 18.892282000000002
#
# number of rings (size 3 to 8) (size 9 to 14) (size 15 to 20)
#    1.200    1.400    0.000    2.400    0.000    5.200 
#    0.000    1.000    0.000    0.000    0.000    0.000 
#    0.000    0.000    0.000    0.000    0.000    0.000 
#
# Total GULP energy -247832.231939 kJ/mol
# GULP energy per Si atom -12391.611597 kJ/mol
# Density = 1.884928 g / cm^3
# Si number density = 18.892282 Si / 1000 Ang^3
#
#
#
# Elastic Constant Matrix: (Units=GPa)
#
#
# Indices 1 2 3 4 5 6 
#
# 1 99.4829 52.9885 24.4790 0.0000 27.4239 0.0000
# 2 52.9885 81.3598 17.1876 0.0000 13.5130 -0.0001
# 3 24.4790 17.1876 50.2961 0.0001 23.9160 0.0000
# 4 0.0000 0.0000 0.0001 8.9353 0.0000 -2.7091
# 5 27.4239 13.5130 23.9160 0.0000 23.5622 0.0000
# 6 0.0000 -0.0001 0.0000 -2.7091 0.0000 37.6077
#
#
#
# Elastic Compliance Matrix: (Units=1/GPa)
#
#
# Indices 1 2 3 4 5 6 
#
# 1 0.020968 -0.010809 0.004147 0.000000 -0.022415 0.000000
# 2 -0.010809 0.019244 -0.003962 0.000000 0.005566 0.000000
# 3 0.004147 -0.003962 0.039494 0.000000 -0.042642 0.000000
# 4 0.000000 0.000000 0.000000 0.114414 0.000000 0.008242
# 5 -0.022415 0.005566 -0.042642 0.000000 0.108619 0.000000
# 6 0.000000 0.000000 0.000000 0.008242 0.000000 0.027184
#
#
# Mechanical properties :
#
#
# Convention : Reuss Voigt Hill
#
# Bulk Modulus (GPa) = 17.10648 46.71655 31.91152
# Shear Modulus (GPa) = 13.48955 23.11996 18.30475
#
# Velocity S-wave (km/s) = 2.67502 3.50205 3.11609
# Velocity P-wave (km/s) = 4.31456 6.41358 5.46577
#
# Compressibility (1/GPa) = 0.05845738
#
# Stress axis : x y z
#
# Youngs Moduli (GPa) = 47.69175 51.96536 25.32019
#
# Poissons Ratio (x) = 0.56171 -0.10500
# Poissons Ratio (y) = 0.51552 0.10031
# Poissons Ratio (z) = -0.19778 0.20588
#
# Static dielectric constant tensor:
#      x y z
#    x 3.370060 0.000000 0.010940 
#    y 0.000000 3.294310 0.000000 
#    z 0.010940 0.000000 3.258880 
# 
# 
# High freq. dielectric constant tensor:
#      x y z
#    x 1.734870 0.000000 -0.005700 
#    y 0.000000 1.727350 0.000000 
#    z -0.005700 0.000000 1.700440 
# 
# From -- ./inp_files/229094.got.cif
#   From: 2010.06.25/outbox.cif.g09.slc.cpg/sg12_115_cif.got.tgz:229094.got - 2010.06.28 00:19:55.
