data_PCOD8088360
_publ_section_title
;
Structure prediction by ZEFSAII (Michael W. Deem and Ramdas Pophale) SiO2 
 PCOD8088360
Probable space group: C 2/M
;
_chemical_formula_sum "Si O2"
_cell_formula_units_Z 48
_cell_length_a 18.019542
_cell_length_b 13.321624
_cell_length_c 16.108042
_cell_angle_alpha 90.000000
_cell_angle_beta 141.508078
_cell_angle_gamma 90.000000
_cell_volume 2406.668382
_symmetry_space_group_name_H-M "C 2/M"
_symmetry_group_IT_number 12
_symmetry_cell_setting 'monoclinic'
loop_
_space_group_symop_operation_xyz
x,y,z
-x,y,-z
-x,-y,-z
x,-y,z
1/2+x,1/2+y,z
1/2-x,1/2+y,-z
1/2-x,1/2-y,-z
1/2+x,1/2-y,z
loop_
_atom_site_type_symbol
_atom_site_label
_atom_site_fract_x
_atom_site_fract_y
_atom_site_fract_z
Si Si1 0.605095 0.385384 0.774790
Si Si2 0.327598 0.733650 0.696624
Si Si3 0.293980 0.755589 0.846970
Si Si4 0.450385 0.386979 0.088429
Si Si5 0.418684 0.783556 0.605916
Si Si6 0.082734 0.386264 0.642651
O O1 0.587121 0.500000 0.728684
O O2 0.726111 0.341822 0.839089
O O3 0.622295 0.381211 0.888966
O O4 0.486781 0.322305 0.646832
O O5 0.331322 0.795068 0.787445
O O6 0.408427 0.632987 0.774750
O O7 0.382423 0.800260 0.669907
O O8 0.193787 0.704724 0.553581
O O9 0.210840 0.661495 0.756355
O O10 0.404966 0.705169 0.991725
O O11 0.435324 0.500000 0.037753
O O12 0.513363 0.871484 0.669143
O O13 0.105793 0.500000 0.641335
O O14 0.000000 0.334608 0.500000
#
# Coordination Sequence:
#
# PCOD8088360 Si02
#       6
#     8   8   8   8   8   8
#     4   9  20  38  60  81 106 145 192 235 274 320
#     4  10  20  34  53  76 111 148 178 220 273 325
#     4  11  20  34  57  82 112 143 183 230 275 326
#     4  10  21  36  56  85 115 147 183 223 278 338
#     4   9  19  37  54  75 110 145 180 226 276 324
#     4  10  19  32  53  79 106 139 179 225 276 325
#
# _framework density 19.944583999999999
#
# number of rings (size 3 to 8) (size 9 to 14) (size 15 to 20)
#    0.000    2.167    1.667    1.500    0.000    2.667 
#    0.000    5.000    0.000    3.000    0.000    0.000 
#    0.000    0.000    0.000    0.000    0.000    0.000 
#
# Total GULP energy -297378.812080 kJ/mol
# GULP energy per Si atom -12390.783837 kJ/mol
# Density = 1.989919 g / cm^3
# Si number density = 19.944584 Si / 1000 Ang^3
#
#
#
# Elastic Constant Matrix: (Units=GPa)
#
#
# Indices 1 2 3 4 5 6 
#
# 1 100.6883 26.6698 29.0842 0.0000 -14.0194 0.0000
# 2 26.6698 67.7617 34.6921 0.0000 2.5318 0.0000
# 3 29.0842 34.6921 91.6309 0.0000 0.7250 0.0000
# 4 0.0000 0.0000 0.0000 24.4892 0.0000 -0.1043
# 5 -14.0194 2.5318 0.7250 0.0000 32.1483 0.0000
# 6 0.0000 0.0000 0.0000 -0.1043 0.0000 15.2226
#
#
#
# Elastic Compliance Matrix: (Units=1/GPa)
#
#
# Indices 1 2 3 4 5 6 
#
# 1 0.012493 -0.003821 -0.002565 0.000000 0.005807 0.000000
# 2 -0.003821 0.019528 -0.006156 0.000000 -0.003065 0.000000
# 3 -0.002565 -0.006156 0.014066 0.000000 -0.000951 0.000000
# 4 0.000000 0.000000 0.000000 0.040836 0.000000 0.000280
# 5 0.005807 -0.003065 -0.000951 0.000000 0.033901 0.000000
# 6 0.000000 0.000000 0.000000 0.000280 0.000000 0.065694
#
#
# Mechanical properties :
#
#
# Convention : Reuss Voigt Hill
#
# Bulk Modulus (GPa) = 47.61289 48.99701 48.30495
# Shear Modulus (GPa) = 22.87266 25.68101 24.27684
#
# Velocity S-wave (km/s) = 3.39013 3.59223 3.49265
# Velocity P-wave (km/s) = 6.26486 6.46726 6.36686
#
# Compressibility (1/GPa) = 0.02100272
#
# Stress axis : x y z
#
# Youngs Moduli (GPa) = 80.04457 51.20888 71.09466
#
# Poissons Ratio (x) = 0.19567 0.18233
# Poissons Ratio (y) = 0.30585 0.43768
# Poissons Ratio (z) = 0.20529 0.31526
#
# Static dielectric constant tensor:
#      x y z
#    x 3.952580 0.000000 -0.128470 
#    y 0.000000 3.280330 0.000000 
#    z -0.128470 0.000000 3.690770 
# 
# 
# High freq. dielectric constant tensor:
#      x y z
#    x 1.801950 0.000000 0.000730 
#    y 0.000000 1.735140 0.000000 
#    z 0.000730 0.000000 1.776400 
# 
# From -- ./inp_files/225463.got.cif
#   From: 2010.06.25/outbox.cif.g09.slc.cpg/sg12_113_cif.got.tgz:225463.got - 2010.06.28 00:19:55.
