data_PCOD8088430
_publ_section_title
;
Structure prediction by ZEFSAII (Michael W. Deem and Ramdas Pophale) SiO2 
 PCOD8088430
Probable space group: C 2/M
;
_chemical_formula_sum "Si O2"
_cell_formula_units_Z 56
_cell_length_a 21.706205
_cell_length_b 14.726488
_cell_length_c 8.770193
_cell_angle_alpha 90.000000
_cell_angle_beta 100.630593
_cell_angle_gamma 90.000000
_cell_volume 2755.330701
_symmetry_space_group_name_H-M "C 2/M"
_symmetry_group_IT_number 12
_symmetry_cell_setting 'monoclinic'
loop_
_space_group_symop_operation_xyz
x,y,z
-x,y,-z
-x,-y,-z
x,-y,z
1/2+x,1/2+y,z
1/2-x,1/2+y,-z
1/2-x,1/2-y,-z
1/2+x,1/2-y,z
loop_
_atom_site_type_symbol
_atom_site_label
_atom_site_fract_x
_atom_site_fract_y
_atom_site_fract_z
Si Si1 0.021143 0.101964 0.682516
Si Si2 0.363405 0.714415 0.343635
Si Si3 0.631152 0.897667 0.173815
Si Si4 0.089861 0.774284 0.292140
Si Si5 0.253702 0.398443 0.405440
Si Si6 0.295217 0.171492 0.080309
Si Si7 0.198881 0.100865 0.251422
O O1 0.089323 0.147267 0.722857
O O2 0.000000 0.093603 0.500000
O O3 0.973170 0.166910 0.751313
O O4 0.022903 0.000000 0.754892
O O5 0.391317 0.741159 0.521926
O O6 0.296692 0.665512 0.323731
O O7 0.348360 0.799171 0.227610
O O8 0.579296 0.822339 0.199498
O O9 0.681691 0.886706 0.330936
O O10 0.602414 0.000000 0.158433
O O11 0.665582 0.879183 0.031034
O O12 0.142664 0.827036 0.218581
O O13 0.277866 0.500000 0.386275
O O14 0.259014 0.372107 0.584173
O O15 0.245682 0.101465 0.130389
O O16 0.250000 0.250000 0.000000
O O17 0.169715 0.000000 0.254405
#
# Coordination Sequence:
#
# PCOD8088430 Si02
#       7
#     8   8   8   8   8   8   8
#     4   9  18  34  59  89 115 141 177 224 278 331
#     4  10  19  33  56  81 112 145 179 222 273 331
#     4  11  22  36  54  77 108 146 187 229 277 326
#     4  10  19  35  58  83 109 143 183 230 275 323
#     4   9  17  30  51  81 109 138 177 222 270 327
#     4  12  21  34  51  76 112 151 180 224 272 327
#     4  10  19  32  53  80 112 144 180 223 274 329
#
# _framework density 20.324238999999999
#
# number of rings (size 3 to 8) (size 9 to 14) (size 15 to 20)
#    0.000    1.857    2.857    2.143    0.000    5.714 
#    0.000    1.429    0.000    7.286    0.000    0.000 
#    0.000    0.000    0.000    0.000    0.000    0.000 
#
# Total GULP energy -347060.668839 kJ/mol
# GULP energy per Si atom -12395.023887 kJ/mol
# Density = 2.027798 g / cm^3
# Si number density = 20.324239 Si / 1000 Ang^3
#
#
#
# Elastic Constant Matrix: (Units=GPa)
#
#
# Indices 1 2 3 4 5 6 
#
# 1 57.7516 42.7048 18.1762 0.0000 -18.9627 0.0000
# 2 42.7048 132.8157 31.4206 0.0000 -22.9007 0.0000
# 3 18.1762 31.4206 48.8287 0.0000 -19.3063 0.0000
# 4 0.0000 0.0000 0.0000 25.6409 0.0000 -9.3804
# 5 -18.9627 -22.9007 -19.3063 0.0000 24.4728 0.0000
# 6 0.0000 0.0000 0.0000 -9.3804 0.0000 29.3884
#
#
#
# Elastic Compliance Matrix: (Units=1/GPa)
#
#
# Indices 1 2 3 4 5 6 
#
# 1 0.026693 -0.005959 -0.000187 0.000000 0.014959 0.000000
# 2 -0.005959 0.010757 -0.003705 0.000000 0.002526 0.000000
# 3 -0.000187 -0.003705 0.031254 0.000000 0.021044 0.000000
# 4 0.000000 0.000000 0.000000 0.044156 0.000000 0.014094
# 5 0.014959 0.002526 0.021044 0.000000 0.071417 0.000000
# 6 0.000000 0.000000 0.000000 0.014094 0.000000 0.038526
#
#
# Mechanical properties :
#
#
# Convention : Reuss Voigt Hill
#
# Bulk Modulus (GPa) = 20.40758 47.11104 33.75931
# Shear Modulus (GPa) = 19.31695 25.70672 22.51183
#
# Velocity S-wave (km/s) = 3.08626 3.56030 3.33173
# Velocity P-wave (km/s) = 4.77104 6.33491 5.60776
#
# Compressibility (1/GPa) = 0.04900140
#
# Stress axis : x y z
#
# Youngs Moduli (GPa) = 37.46355 92.95948 31.99569
#
# Poissons Ratio (x) = 0.55395 0.00598
# Poissons Ratio (y) = 0.22325 0.11855
# Poissons Ratio (z) = 0.00701 0.34444
#
# Static dielectric constant tensor:
#      x y z
#    x 3.527990 0.000000 -0.122320 
#    y 0.000000 3.879170 0.000000 
#    z -0.122320 0.000000 3.610520 
# 
# 
# High freq. dielectric constant tensor:
#      x y z
#    x 1.765270 0.000000 -0.013570 
#    y 0.000000 1.799050 0.000000 
#    z -0.013570 0.000000 1.782510 
# 
# From -- ./inp_files/86346.got.cif
#   From: 2010.06.25/outbox.cif.g09.slc.cpg/sg12_44_cif.got.tgz:86346.got - 2010.06.28 00:19:55.
