data_PCOD8088839
_publ_section_title
;
Structure prediction by ZEFSAII (Michael W. Deem and Ramdas Pophale) SiO2 
 PCOD8088839
Probable space group: C 2/M
;
_chemical_formula_sum "Si O2"
_cell_formula_units_Z 64
_cell_length_a 15.155247
_cell_length_b 9.039933
_cell_length_c 23.686709
_cell_angle_alpha 90.000000
_cell_angle_beta 90.811939
_cell_angle_gamma 90.000000
_cell_volume 3244.810560
_symmetry_space_group_name_H-M "C 2/M"
_symmetry_group_IT_number 12
_symmetry_cell_setting 'monoclinic'
loop_
_space_group_symop_operation_xyz
x,y,z
-x,y,-z
-x,-y,-z
x,-y,z
1/2+x,1/2+y,z
1/2-x,1/2+y,-z
1/2-x,1/2-y,-z
1/2+x,1/2-y,z
loop_
_atom_site_type_symbol
_atom_site_label
_atom_site_fract_x
_atom_site_fract_y
_atom_site_fract_z
Si Si1 0.404596 0.830097 0.681764
Si Si2 0.858660 0.171861 0.447959
Si Si3 0.846050 0.671166 0.558310
Si Si4 0.401466 0.169660 0.338356
Si Si5 0.242730 0.323552 0.137336
Si Si6 0.254828 0.324838 0.744740
Si Si7 0.893850 0.825330 0.055465
Si Si8 0.091340 0.175380 0.071029
O O1 0.390395 0.780148 0.617088
O O2 0.508216 0.811046 0.696489
O O3 0.350146 0.725577 0.723042
O O4 0.373614 0.000000 0.689885
O O5 0.891571 0.239603 0.507606
O O6 0.756537 0.211627 0.437999
O O7 0.911271 0.239726 0.396077
O O8 0.878044 0.000000 0.449740
O O9 0.861012 0.500000 0.545510
O O10 0.320279 0.226609 0.299879
O O11 0.386736 0.000000 0.355291
O O12 0.240338 0.500000 0.140465
O O13 0.267388 0.257656 0.197807
O O14 0.316892 0.262835 0.094653
O O15 0.147906 0.263010 0.117479
O O16 0.254718 0.500000 0.754481
O O17 0.989651 0.776595 0.079598
O O18 0.891497 0.000000 0.054493
O O19 0.879146 0.770739 0.991169
O O20 0.104440 0.000000 0.079127
#
# Coordination Sequence:
#
# PCOD8088839 Si02
#       8
#     8   8   8   8   8   8   8   8
#     4  10  21  40  62  83 108 144 185 229 282 338
#     4  10  19  32  55  84 113 145 182 223 272 332
#     4   9  18  33  55  81 111 146 180 219 276 337
#     4  10  22  39  60  82 109 143 183 231 284 336
#     4  11  22  36  56  83 114 150 189 230 277 329
#     4  11  24  41  58  80 109 145 188 236 282 326
#     4   8  17  34  58  86 118 154 186 223 276 331
#     4   9  17  35  60  86 117 151 189 229 271 325
#
# _framework density 19.723803
#
# number of rings (size 3 to 8) (size 9 to 14) (size 15 to 20)
#    0.000    2.250    1.250    2.250    0.000    3.500 
#    0.000    8.125    0.000    0.000    0.000    0.000 
#    0.000    0.000    0.000    0.000    0.000    0.000 
#
# Total GULP energy -396864.240549 kJ/mol
# GULP energy per Si atom -12402.007517 kJ/mol
# Density = 1.967891 g / cm^3
# Si number density = 19.723803 Si / 1000 Ang^3
#
#
#
# Elastic Constant Matrix: (Units=GPa)
#
#
# Indices 1 2 3 4 5 6 
#
# 1 67.9371 24.0628 26.1403 0.0000 -7.7921 0.0000
# 2 24.0628 62.9905 32.6642 0.0000 -3.8382 0.0000
# 3 26.1403 32.6642 84.4856 0.0000 -4.4702 0.0000
# 4 0.0000 0.0000 0.0000 29.6267 0.0000 -1.3794
# 5 -7.7921 -3.8382 -4.4702 0.0000 17.0219 0.0000
# 6 0.0000 0.0000 0.0000 -1.3794 0.0000 25.4596
#
#
#
# Elastic Compliance Matrix: (Units=1/GPa)
#
#
# Indices 1 2 3 4 5 6 
#
# 1 0.018536 -0.004866 -0.003512 0.000000 0.006466 0.000000
# 2 -0.004866 0.021239 -0.006663 0.000000 0.000812 0.000000
# 3 -0.003512 -0.006663 0.015550 0.000000 0.000974 0.000000
# 4 0.000000 0.000000 0.000000 0.033839 0.000000 0.001833
# 5 0.006466 0.000812 0.000974 0.000000 0.062147 0.000000
# 6 0.000000 0.000000 0.000000 0.001833 0.000000 0.039377
#
#
# Mechanical properties :
#
#
# Convention : Reuss Voigt Hill
#
# Bulk Modulus (GPa) = 39.61333 42.34976 40.98154
# Shear Modulus (GPa) = 21.81662 23.25802 22.53732
#
# Velocity S-wave (km/s) = 3.32943 3.43765 3.38397
# Velocity P-wave (km/s) = 5.90828 6.10529 6.00759
#
# Compressibility (1/GPa) = 0.02524403
#
# Stress axis : x y z
#
# Youngs Moduli (GPa) = 53.94988 47.08366 64.30672
#
# Poissons Ratio (x) = 0.22910 0.22583
# Poissons Ratio (y) = 0.26251 0.42847
# Poissons Ratio (z) = 0.18946 0.31372
#
# Static dielectric constant tensor:
#      x y z
#    x 3.702270 0.000000 -0.095350 
#    y 0.000000 3.361060 0.000000 
#    z -0.095350 0.000000 3.654470 
# 
# 
# High freq. dielectric constant tensor:
#      x y z
#    x 1.772400 0.000000 -0.000030 
#    y 0.000000 1.753150 0.000000 
#    z -0.000030 0.000000 1.766220 
# 
# From -- ./inp_files/338766.got.cif
#   From: 2010.06.25/outbox.cif.g09.slc.cpg/sg12_170_cif.got.tgz:338766.got - 2010.06.28 00:19:55.
