data_PCOD8088329
_publ_section_title
;
Structure prediction by ZEFSAII (Michael W. Deem and Ramdas Pophale) SiO2 
 PCOD8088329
Probable space group: C 2/M
;
_chemical_formula_sum "Si O2"
_cell_formula_units_Z 64
_cell_length_a 25.073694
_cell_length_b 14.135236
_cell_length_c 16.926560
_cell_angle_alpha 90.000000
_cell_angle_beta 147.150189
_cell_angle_gamma 90.000000
_cell_volume 3254.174287
_symmetry_space_group_name_H-M "C 2/M"
_symmetry_group_IT_number 12
_symmetry_cell_setting 'monoclinic'
loop_
_space_group_symop_operation_xyz
x,y,z
-x,y,-z
-x,-y,-z
x,-y,z
1/2+x,1/2+y,z
1/2-x,1/2+y,-z
1/2-x,1/2-y,-z
1/2+x,1/2-y,z
loop_
_atom_site_type_symbol
_atom_site_label
_atom_site_fract_x
_atom_site_fract_y
_atom_site_fract_z
Si Si1 0.353300 0.107128 0.097001
Si Si2 0.008575 0.779707 0.714006
Si Si3 0.826330 0.893030 0.009903
Si Si4 0.388776 0.242845 0.839284
Si Si5 0.089084 0.725020 0.556923
Si Si6 0.720743 0.892855 0.609610
Si Si7 0.217075 0.713875 0.139295
Si Si8 0.853845 0.702303 0.627773
O O1 0.441148 0.176331 0.228879
O O2 0.392849 0.000000 0.140294
O O3 0.273159 0.116843 0.065244
O O4 0.306965 0.135937 0.955603
O O5 0.083914 0.865295 0.820760
O O6 0.952413 0.795984 0.561719
O O7 0.932670 0.777667 0.692269
O O8 0.841010 0.000000 0.996621
O O9 0.822388 0.818939 0.933123
O O10 0.322933 0.334834 0.737234
O O11 0.338121 0.185961 0.848208
O O12 0.387827 0.175385 0.759425
O O13 0.500000 0.271678 0.000000
O O14 0.149106 0.639272 0.591683
O O15 0.165111 0.785535 0.704302
O O16 0.000000 0.685630 0.500000
O O17 0.659352 0.884134 0.450621
O O18 0.750503 0.000000 0.661020
O O19 0.750000 0.750000 0.500000
#
# Coordination Sequence:
#
# PCOD8088329 Si02
#       8
#     8   8   8   8   8   8   8   8
#     4  10  20  35  55  78 107 142 176 210 255 315
#     4  10  19  35  57  77 103 139 180 216 254 313
#     4  10  20  35  55  79 108 141 174 210 257 317
#     4  10  19  34  55  75  99 133 170 216 267 305
#     4  10  19  32  53  78 106 138 168 207 261 310
#     4   9  20  35  52  76 104 135 172 212 255 314
#     4  10  20  35  54  78 108 136 171 217 263 310
#     4   9  19  37  54  70  99 140 178 209 255 309
#
# _framework density 19.667047
#
# number of rings (size 3 to 8) (size 9 to 14) (size 15 to 20)
#    0.000    2.250    0.000    5.250    0.000    4.500 
#    0.000    6.250    0.000    3.750    0.000    0.000 
#    0.000    0.000    0.000    0.000    0.000    0.000 
#
# Total GULP energy -396643.032268 kJ/mol
# GULP energy per Si atom -12395.094758 kJ/mol
# Density = 1.962228 g / cm^3
# Si number density = 19.667047 Si / 1000 Ang^3
#
#
#
# Elastic Constant Matrix: (Units=GPa)
#
#
# Indices 1 2 3 4 5 6 
#
# 1 84.0368 13.3916 14.7078 0.0000 2.4851 0.0000
# 2 13.3916 33.7768 6.3779 0.0000 9.8810 0.0000
# 3 14.7078 6.3779 104.3343 0.0000 4.5604 0.0000
# 4 0.0000 0.0000 0.0000 12.4670 0.0000 2.1553
# 5 2.4851 9.8810 4.5604 0.0000 42.6981 0.0000
# 6 0.0000 0.0000 0.0000 2.1553 0.0000 14.3912
#
#
#
# Elastic Compliance Matrix: (Units=1/GPa)
#
#
# Indices 1 2 3 4 5 6 
#
# 1 0.012951 -0.005010 -0.001544 0.000000 0.000571 0.000000
# 2 -0.005010 0.033972 -0.001044 0.000000 -0.007458 0.000000
# 3 -0.001544 -0.001044 0.009898 0.000000 -0.000726 0.000000
# 4 0.000000 0.000000 0.000000 0.082343 0.000000 -0.012332
# 5 0.000571 -0.007458 -0.000726 0.000000 0.025190 0.000000
# 6 0.000000 0.000000 0.000000 -0.012332 0.000000 0.071334
#
#
# Mechanical properties :
#
#
# Convention : Reuss Voigt Hill
#
# Bulk Modulus (GPa) = 24.02526 32.34473 28.18499
# Shear Modulus (GPa) = 18.88498 26.42265 22.65382
#
# Velocity S-wave (km/s) = 3.10213 3.66935 3.39760
# Velocity P-wave (km/s) = 5.00734 5.86805 5.45470
#
# Compressibility (1/GPa) = 0.04162286
#
# Stress axis : x y z
#
# Youngs Moduli (GPa) = 77.21191 29.43637 101.03216
#
# Poissons Ratio (x) = 0.14748 0.15603
# Poissons Ratio (y) = 0.38685 0.10552
# Poissons Ratio (z) = 0.11925 0.03074
#
# Static dielectric constant tensor:
#      x y z
#    x 3.914150 0.000000 -0.184450 
#    y 0.000000 3.175460 0.000000 
#    z -0.184450 0.000000 3.958680 
# 
# 
# High freq. dielectric constant tensor:
#      x y z
#    x 1.782940 0.000000 -0.001790 
#    y 0.000000 1.708830 0.000000 
#    z -0.001790 0.000000 1.788860 
# 
# From -- ./inp_files/290127.got.cif
#   From: 2010.06.25/outbox.cif.g09.slc.cpg/sg12_146_cif.got.tgz:290127.got - 2010.06.28 00:19:55.
