data_PCOD8088553
_publ_section_title
;
Structure prediction by ZEFSAII (Michael W. Deem and Ramdas Pophale) SiO2 
 PCOD8088553
Probable space group: C 2/M
;
_chemical_formula_sum "Si O2"
_cell_formula_units_Z 64
_cell_length_a 20.313819
_cell_length_b 9.003942
_cell_length_c 21.597781
_cell_angle_alpha 90.000000
_cell_angle_beta 117.670819
_cell_angle_gamma 90.000000
_cell_volume 3498.531962
_symmetry_space_group_name_H-M "C 2/M"
_symmetry_group_IT_number 12
_symmetry_cell_setting 'monoclinic'
loop_
_space_group_symop_operation_xyz
x,y,z
-x,y,-z
-x,-y,-z
x,-y,z
1/2+x,1/2+y,z
1/2-x,1/2+y,-z
1/2-x,1/2-y,-z
1/2+x,1/2-y,z
loop_
_atom_site_type_symbol
_atom_site_label
_atom_site_fract_x
_atom_site_fract_y
_atom_site_fract_z
Si Si1 0.649598 0.829695 0.699667
Si Si2 0.302352 0.328135 0.698969
Si Si3 0.171781 0.324894 0.846946
Si Si4 0.573364 0.175274 0.917872
Si Si5 0.229053 0.823815 0.555190
Si Si6 0.673415 0.824607 0.072823
Si Si7 0.579542 0.675074 0.557780
Si Si8 0.406546 0.824358 0.836060
O O1 0.734100 0.806414 0.715767
O O2 0.643971 0.770259 0.767449
O O3 0.593651 0.737899 0.632376
O O4 0.625131 0.000000 0.683997
O O5 0.315501 0.500000 0.688060
O O6 0.288076 0.236984 0.630281
O O7 0.374938 0.260409 0.762682
O O8 0.186462 0.500000 0.852030
O O9 0.109316 0.277421 0.868543
O O10 0.246918 0.247737 0.901013
O O11 0.489679 0.235885 0.883096
O O12 0.571401 0.000000 0.924358
O O13 0.619932 0.240520 0.995815
O O14 0.250000 0.750000 0.500000
O O15 0.145360 0.776526 0.539331
O O16 0.236522 0.000000 0.553308
O O17 0.640290 0.779406 0.124371
O O18 0.682158 0.000000 0.070307
O O19 0.500000 0.737197 0.500000
O O20 0.577226 0.500000 0.562968
O O21 0.404100 0.000000 0.822361
#
# Coordination Sequence:
#
# PCOD8088553 Si02
#       8
#     8   8   8   8   8   8   8   8
#     4   9  18  32  52  76 102 136 175 212 254 308
#     4  10  19  34  55  78 106 138 178 219 258 306
#     4  10  19  34  53  74 104 137 173 218 265 311
#     4   9  19  34  51  74 106 139 172 218 269 317
#     4  10  20  36  58  83 111 141 175 212 258 309
#     4  10  19  32  54  78 100 135 180 219 261 316
#     4   9  19  36  57  80 107 137 171 213 259 303
#     4  10  19  33  53  76 104 137 178 219 262 314
#
# _framework density 18.293386999999999
#
# number of rings (size 3 to 8) (size 9 to 14) (size 15 to 20)
#    0.000    2.375    1.250    1.500    0.000    3.250 
#    2.250    1.250    0.000    1.500    0.000    0.000 
#    0.000    0.000    0.000    0.000    0.000    0.000 
#
# Total GULP energy -396843.108760 kJ/mol
# GULP energy per Si atom -12401.347149 kJ/mol
# Density = 1.825175 g / cm^3
# Si number density = 18.293387 Si / 1000 Ang^3
#
#
#
# Elastic Constant Matrix: (Units=GPa)
#
#
# Indices 1 2 3 4 5 6 
#
# 1 57.1914 23.5073 38.8658 0.0000 5.9053 0.0000
# 2 23.5073 39.3053 36.4401 0.0000 -1.7018 0.0000
# 3 38.8658 36.4401 140.2231 0.0000 4.3875 0.0000
# 4 0.0000 0.0000 0.0000 30.1960 0.0000 1.9463
# 5 5.9053 -1.7018 4.3875 0.0000 34.6717 0.0000
# 6 0.0000 0.0000 0.0000 1.9463 0.0000 19.3093
#
#
#
# Elastic Compliance Matrix: (Units=1/GPa)
#
#
# Indices 1 2 3 4 5 6 
#
# 1 0.025410 -0.011840 -0.003828 0.000000 -0.004425 0.000000
# 2 -0.011840 0.039299 -0.007083 0.000000 0.004842 0.000000
# 3 -0.003828 -0.007083 0.010063 0.000000 -0.000969 0.000000
# 4 0.000000 0.000000 0.000000 0.033334 0.000000 -0.003360
# 5 -0.004425 0.004842 -0.000969 0.000000 0.029956 0.000000
# 6 0.000000 0.000000 0.000000 -0.003360 0.000000 0.052127
#
#
# Mechanical properties :
#
#
# Convention : Reuss Voigt Hill
#
# Bulk Modulus (GPa) = 34.16237 48.26068 41.21153
# Shear Modulus (GPa) = 20.37117 26.02917 23.20017
#
# Velocity S-wave (km/s) = 3.34066 3.77619 3.56508
# Velocity P-wave (km/s) = 5.79614 6.74178 6.28676
#
# Compressibility (1/GPa) = 0.02927197
#
# Stress axis : x y z
#
# Youngs Moduli (GPa) = 39.35532 25.44614 99.37153
#
# Poissons Ratio (x) = 0.30127 0.38035
# Poissons Ratio (y) = 0.46596 0.70380
# Poissons Ratio (z) = 0.15063 0.18022
#
# Static dielectric constant tensor:
#      x y z
#    x 3.400970 0.000000 0.018910 
#    y 0.000000 3.186960 0.000000 
#    z 0.018910 0.000000 3.589610 
# 
# 
# High freq. dielectric constant tensor:
#      x y z
#    x 1.701100 0.000000 -0.000880 
#    y 0.000000 1.691910 0.000000 
#    z -0.000880 0.000000 1.722610 
# 
# From -- ./inp_files/319999.got.cif
#   From: 2010.06.25/outbox.cif.g09.slc.cpg/sg12_160_cif.got.tgz:319999.got - 2010.06.28 00:19:55.
