data_PCOD8088584
_publ_section_title
;
Structure prediction by ZEFSAII (Michael W. Deem and Ramdas Pophale) SiO2 
 PCOD8088584
Probable space group: C 2/M
;
_chemical_formula_sum "Si O2"
_cell_formula_units_Z 56
_cell_length_a 33.016637
_cell_length_b 8.916097
_cell_length_c 12.479416
_cell_angle_alpha 90.000000
_cell_angle_beta 56.056127
_cell_angle_gamma 90.000000
_cell_volume 3047.633592
_symmetry_space_group_name_H-M "C 2/M"
_symmetry_group_IT_number 12
_symmetry_cell_setting 'monoclinic'
loop_
_space_group_symop_operation_xyz
x,y,z
-x,y,-z
-x,-y,-z
x,-y,z
1/2+x,1/2+y,z
1/2-x,1/2+y,-z
1/2-x,1/2-y,-z
1/2+x,1/2-y,z
loop_
_atom_site_type_symbol
_atom_site_label
_atom_site_fract_x
_atom_site_fract_y
_atom_site_fract_z
Si Si1 0.953040 0.322510 0.708772
Si Si2 0.623065 0.677135 0.032430
Si Si3 0.062299 0.322614 0.506462
Si Si4 0.849742 0.171693 0.243702
Si Si5 0.278466 0.822708 0.054382
Si Si6 0.745408 0.825936 0.313599
Si Si7 0.141431 0.676426 0.554363
O O1 0.946449 0.500000 0.735588
O O2 0.927343 0.232638 0.842314
O O3 0.930797 0.269829 0.626880
O O4 0.009640 0.274090 0.629483
O O5 0.630039 0.500000 0.035802
O O6 0.624071 0.721131 0.905314
O O7 0.666738 0.759987 0.028846
O O8 0.065033 0.500000 0.501984
O O9 0.104612 0.254146 0.519834
O O10 0.791593 0.200947 0.322461
O O11 0.872461 0.265541 0.307371
O O12 0.860835 0.000000 0.252363
O O13 0.250183 0.778288 0.203532
O O14 0.280141 0.000000 0.039023
O O15 0.250000 0.750000 0.000000
O O16 0.696565 0.774839 0.446120
O O17 0.743213 0.000000 0.280451
O O18 0.135581 0.500000 0.564271
#
# Coordination Sequence:
#
# PCOD8088584 Si02
#       7
#     8   8   8   8   8   8   8
#     4   9  17  34  58  79 104 139 175 214 271 331
#     4  10  21  37  55  77 106 139 178 221 268 315
#     4   8  17  33  53  81 109 133 171 222 270 320
#     4   9  19  35  50  71 107 143 175 221 268 315
#     4  11  22  35  52  77 109 142 178 217 259 314
#     4   9  19  34  51  75 108 142 176 219 266 309
#     4  10  19  32  54  79 105 138 179 224 264 312
#
# _framework density 18.374911000000001
#
# number of rings (size 3 to 8) (size 9 to 14) (size 15 to 20)
#    0.000    2.571    0.000    3.857    2.000    3.429 
#    0.000    3.571    0.000    4.286    0.000    0.000 
#    0.000    0.000    0.000    0.000    0.000    0.000 
#
# Total GULP energy -347176.238698 kJ/mol
# GULP energy per Si atom -12399.151382 kJ/mol
# Density = 1.833309 g / cm^3
# Si number density = 18.374911 Si / 1000 Ang^3
#
#
#
# Elastic Constant Matrix: (Units=GPa)
#
#
# Indices 1 2 3 4 5 6 
#
# 1 93.8711 22.3228 55.7919 0.0000 7.3556 0.0000
# 2 22.3228 57.7018 31.0596 0.0000 -0.0591 0.0000
# 3 55.7919 31.0596 117.9713 0.0000 -8.4723 0.0000
# 4 0.0000 0.0000 0.0000 33.6353 0.0000 2.4240
# 5 7.3556 -0.0591 -8.4723 0.0000 20.1799 0.0000
# 6 0.0000 0.0000 0.0000 2.4240 0.0000 23.2989
#
#
#
# Elastic Compliance Matrix: (Units=1/GPa)
#
#
# Indices 1 2 3 4 5 6 
#
# 1 0.016649 -0.002153 -0.007984 0.000000 -0.009427 0.000000
# 2 -0.002153 0.020569 -0.004471 0.000000 -0.001032 0.000000
# 3 -0.007984 -0.004471 0.014062 0.000000 0.008801 0.000000
# 4 0.000000 0.000000 0.000000 0.029955 0.000000 -0.003117
# 5 -0.009427 -0.001032 0.008801 0.000000 0.056682 0.000000
# 6 0.000000 0.000000 0.000000 -0.003117 0.000000 0.043245
#
#
# Mechanical properties :
#
#
# Convention : Reuss Voigt Hill
#
# Bulk Modulus (GPa) = 45.32431 54.21032 49.76731
# Shear Modulus (GPa) = 22.96400 26.11416 24.53908
#
# Velocity S-wave (km/s) = 3.53901 3.77395 3.65837
# Velocity P-wave (km/s) = 6.43579 6.96826 6.70731
#
# Compressibility (1/GPa) = 0.02206322
#
# Stress axis : x y z
#
# Youngs Moduli (GPa) = 60.06493 48.61637 71.11539
#
# Poissons Ratio (x) = 0.10467 0.56777
# Poissons Ratio (y) = 0.12932 0.31799
# Poissons Ratio (z) = 0.47954 0.21738
#
# Static dielectric constant tensor:
#      x y z
#    x 3.225870 0.000000 -0.155110 
#    y 0.000000 3.154890 0.000000 
#    z -0.155110 0.000000 2.380980 
# 
# 
# High freq. dielectric constant tensor:
#      x y z
#    x 1.705990 0.000000 0.004100 
#    y 0.000000 1.694760 0.000000 
#    z 0.004100 0.000000 1.716030 
# 
# From -- ./inp_files/187170.got.cif
#   From: 2010.06.25/outbox.cif.g09.slc.cpg/sg12_94_cif.got.tgz:187170.got - 2010.06.28 00:19:55.
