data_PCOD8088407
_publ_section_title
;
Structure prediction by ZEFSAII (Michael W. Deem and Ramdas Pophale) SiO2 
 PCOD8088407
Probable space group: C 2/M
;
_chemical_formula_sum "Si O2"
_cell_formula_units_Z 48
_cell_length_a 30.975888
_cell_length_b 9.218886
_cell_length_c 9.512427
_cell_angle_alpha 90.000000
_cell_angle_beta 78.008973
_cell_angle_gamma 90.000000
_cell_volume 2657.127488
_symmetry_space_group_name_H-M "C 2/M"
_symmetry_group_IT_number 12
_symmetry_cell_setting 'monoclinic'
loop_
_space_group_symop_operation_xyz
x,y,z
-x,y,-z
-x,-y,-z
x,-y,z
1/2+x,1/2+y,z
1/2-x,1/2+y,-z
1/2-x,1/2-y,-z
1/2+x,1/2-y,z
loop_
_atom_site_type_symbol
_atom_site_label
_atom_site_fract_x
_atom_site_fract_y
_atom_site_fract_z
Si Si1 0.705282 0.331366 0.062874
Si Si2 0.871302 0.831536 0.104433
Si Si3 0.646746 0.165425 0.306649
Si Si4 0.514563 0.171813 0.639785
Si Si5 0.929671 0.666409 0.858631
Si Si6 0.112230 0.670366 0.632782
O O1 0.714976 0.500000 0.078235
O O2 0.684471 0.269604 0.220431
O O3 0.750000 0.250000 0.000000
O O4 0.672240 0.301890 0.956885
O O5 0.863617 0.754537 0.258385
O O6 0.880110 0.000000 0.121697
O O7 0.913917 0.764816 0.998150
O O8 0.600599 0.188506 0.257936
O O9 0.639416 0.205379 0.473699
O O10 0.662856 0.000000 0.278439
O O11 0.500000 0.239976 0.500000
O O12 0.479052 0.214478 0.783115
O O13 0.562354 0.231220 0.652309
O O14 0.517253 0.000000 0.620220
O O15 0.928465 0.500000 0.910381
O O16 0.112314 0.500000 0.665493
#
# Coordination Sequence:
#
# PCOD8088407 Si02
#       6
#     8   8   8   8   8   8
#     4  10  21  38  60  81 101 130 169 212 258 314
#     4  10  22  37  51  73 109 142 169 209 262 314
#     4   9  17  31  54  81 106 134 171 214 260 308
#     4   9  15  27  50  79 106 134 179 228 258 287
#     4   9  16  30  53  76 101 138 181 222 258 296
#     4  10  19  32  53  80 108 140 177 217 258 300
#
# _framework density 18.064620999999999
#
# number of rings (size 3 to 8) (size 9 to 14) (size 15 to 20)
#    0.000    2.500    1.667    1.000    0.000    3.333 
#    0.000    5.000    0.000    1.000    0.000    0.000 
#    0.000    0.000    0.000    0.000    0.000    0.000 
#
# Total GULP energy -297639.869845 kJ/mol
# GULP energy per Si atom -12401.661244 kJ/mol
# Density = 1.802350 g / cm^3
# Si number density = 18.064621 Si / 1000 Ang^3
#
#
#
# Elastic Constant Matrix: (Units=GPa)
#
#
# Indices 1 2 3 4 5 6 
#
# 1 98.1341 56.7924 50.3681 0.0000 -24.1189 0.0000
# 2 56.7924 91.0467 69.2746 0.0000 -11.7106 0.0000
# 3 50.3681 69.2746 133.3217 0.0000 -8.6048 0.0000
# 4 0.0000 0.0000 0.0000 25.9798 0.0000 0.8643
# 5 -24.1189 -11.7106 -8.6048 0.0000 22.0616 0.0000
# 6 0.0000 0.0000 0.0000 0.8643 0.0000 20.7216
#
#
#
# Elastic Compliance Matrix: (Units=1/GPa)
#
#
# Indices 1 2 3 4 5 6 
#
# 1 0.020715 -0.009290 -0.001903 0.000000 0.016973 0.000000
# 2 -0.009290 0.023173 -0.008609 0.000000 -0.001214 0.000000
# 3 -0.001903 -0.008609 0.012581 0.000000 -0.001744 0.000000
# 4 0.000000 0.000000 0.000000 0.038545 0.000000 -0.001608
# 5 0.016973 -0.001214 -0.001744 0.000000 0.062559 0.000000
# 6 0.000000 0.000000 0.000000 -0.001608 0.000000 0.048326
#
#
# Mechanical properties :
#
#
# Convention : Reuss Voigt Hill
#
# Bulk Modulus (GPa) = 59.30210 75.04143 67.17177
# Shear Modulus (GPa) = 19.91047 23.49042 21.70044
#
# Velocity S-wave (km/s) = 3.32351 3.60996 3.46969
# Velocity P-wave (km/s) = 6.90121 7.68156 7.30182
#
# Compressibility (1/GPa) = 0.01686281
#
# Stress axis : x y z
#
# Youngs Moduli (GPa) = 48.27428 43.15429 79.48771
#
# Poissons Ratio (x) = 0.40091 0.15129
# Poissons Ratio (y) = 0.44848 0.68433
# Poissons Ratio (z) = 0.09188 0.37152
#
# Static dielectric constant tensor:
#      x y z
#    x 3.259140 0.000000 -0.067250 
#    y 0.000000 3.162850 0.000000 
#    z -0.067250 0.000000 3.337580 
# 
# 
# High freq. dielectric constant tensor:
#      x y z
#    x 1.687830 0.000000 -0.009080 
#    y 0.000000 1.678490 0.000000 
#    z -0.009080 0.000000 1.703530 
# 
# From -- ./inp_files/108765.got.cif
#   From: 2010.06.25/outbox.cif.g09.slc.cpg/sg12_55_cif.got.tgz:108765.got - 2010.06.28 00:19:55.
