data_PCOD8088055
_publ_section_title
;
Structure prediction by ZEFSAII (Michael W. Deem and Ramdas Pophale) SiO2 
 PCOD8088055
Probable space group: C 2/M
;
_chemical_formula_sum "Si O2"
_cell_formula_units_Z 64
_cell_length_a 18.543210
_cell_length_b 8.769922
_cell_length_c 33.751316
_cell_angle_alpha 90.000000
_cell_angle_beta 142.228212
_cell_angle_gamma 90.000000
_cell_volume 3361.941504
_symmetry_space_group_name_H-M "C 2/M"
_symmetry_group_IT_number 12
_symmetry_cell_setting 'monoclinic'
loop_
_space_group_symop_operation_xyz
x,y,z
-x,y,-z
-x,-y,-z
x,-y,z
1/2+x,1/2+y,z
1/2-x,1/2+y,-z
1/2-x,1/2-y,-z
1/2+x,1/2-y,z
loop_
_atom_site_type_symbol
_atom_site_label
_atom_site_fract_x
_atom_site_fract_y
_atom_site_fract_z
Si Si1 0.911217 0.822204 0.059232
Si Si2 0.885327 0.178149 0.307286
Si Si3 0.550264 0.175595 0.583992
Si Si4 0.072390 0.321318 0.330789
Si Si5 0.786816 0.324558 0.077240
Si Si6 0.005530 0.682082 0.214647
Si Si7 0.683984 0.175450 0.562068
Si Si8 0.640717 0.676653 0.200267
O O1 0.852996 0.709070 0.065145
O O2 0.051779 0.799061 0.124048
O O3 0.879908 0.000000 0.054972
O O4 0.851613 0.776653 0.990191
O O5 0.911640 0.215412 0.364220
O O6 0.763306 0.251870 0.240094
O O7 0.989959 0.238251 0.325928
O O8 0.873868 0.000000 0.296966
O O9 0.633674 0.214510 0.583387
O O10 0.415067 0.208232 0.513861
O O11 0.565393 0.000000 0.603444
O O12 0.050408 0.500000 0.324778
O O13 0.043869 0.259869 0.274366
O O14 0.206641 0.283678 0.399919
O O15 0.788616 0.500000 0.087946
O O16 0.870468 0.253706 0.148129
O O17 0.013227 0.500000 0.215162
O O18 0.093823 0.748523 0.220289
O O19 0.724171 0.000000 0.577697
O O20 0.659280 0.500000 0.217535
#
# Coordination Sequence:
#
# PCOD8088055 Si02
#       8
#     8   8   8   8   8   8   8   8
#     4   8  14  24  42  70 100 130 163 202 251 303
#     4  12  25  38  53  74 102 138 178 216 257 303
#     4   9  19  38  62  85 109 135 165 204 250 301
#     4  11  23  37  53  75 105 140 176 214 256 301
#     4   8  13  24  43  69 101 130 161 205 252 298
#     4   9  18  32  52  78 105 135 172 213 256 303
#     4   9  19  37  61  86 109 135 166 202 249 303
#     4  10  19  32  52  77 105 136 171 211 257 309
#
# _framework density 19.036619000000002
#
# number of rings (size 3 to 8) (size 9 to 14) (size 15 to 20)
#    0.000    2.500    0.000    3.375    0.000    5.000 
#    0.000    1.250    0.000    0.750    0.000    5.250 
#    0.000    0.000    0.000    0.000    0.000    0.000 
#
# Total GULP energy -396439.674430 kJ/mol
# GULP energy per Si atom -12388.739826 kJ/mol
# Density = 1.899329 g / cm^3
# Si number density = 19.036619 Si / 1000 Ang^3
#
#
#
# Elastic Constant Matrix: (Units=GPa)
#
#
# Indices 1 2 3 4 5 6 
#
# 1 57.5611 19.6416 34.2777 -0.0001 18.3436 0.0002
# 2 19.6416 49.5252 24.9020 -0.0001 6.0887 0.0005
# 3 34.2777 24.9020 108.1729 0.0000 31.1471 0.0001
# 4 -0.0001 -0.0001 0.0000 25.5170 0.0000 3.2375
# 5 18.3436 6.0887 31.1471 0.0000 15.2714 -0.0001
# 6 0.0002 0.0005 0.0001 3.2375 -0.0001 17.1084
#
#
#
# Elastic Compliance Matrix: (Units=1/GPa)
#
#
# Indices 1 2 3 4 5 6 
#
# 1 0.031940 -0.009672 0.004947 0.000000 -0.044600 0.000000
# 2 -0.009672 0.025861 -0.007910 0.000000 0.017440 0.000000
# 3 0.004947 -0.007910 0.024958 0.000000 -0.053692 0.000000
# 4 0.000000 0.000000 0.000000 0.040154 -0.000001 -0.007598
# 5 -0.044600 0.017440 -0.053692 -0.000001 0.221609 0.000002
# 6 0.000000 0.000000 0.000000 -0.007598 0.000002 0.059889
#
#
# Mechanical properties :
#
#
# Convention : Reuss Voigt Hill
#
# Bulk Modulus (GPa) = 17.39457 41.43355 29.41406
# Shear Modulus (GPa) = 11.13978 20.67520 15.90749
#
# Velocity S-wave (km/s) = 2.42167 3.29914 2.89386
# Velocity P-wave (km/s) = 4.12026 6.02701 5.16243
#
# Compressibility (1/GPa) = 0.05748919
#
# Stress axis : x y z
#
# Youngs Moduli (GPa) = 31.30861 38.66853 40.06799
#
# Poissons Ratio (x) = 0.37400 -0.19823
# Poissons Ratio (y) = 0.30281 0.31695
# Poissons Ratio (z) = -0.15490 0.30588
#
# Static dielectric constant tensor:
#      x y z
#    x 3.107530 0.000000 0.165690 
#    y 0.000000 3.406730 0.000000 
#    z 0.165690 0.000000 4.117100 
# 
# 
# High freq. dielectric constant tensor:
#      x y z
#    x 1.694090 0.000000 0.016870 
#    y 0.000000 1.733510 0.000000 
#    z 0.016870 0.000000 1.770830 
# 
# From -- ./inp_files/378274.got.cif
#   From: 2010.06.25/outbox.cif.g09.slc.cpg/sg12_190_cif.got.tgz:378274.got - 2010.06.28 00:19:55.
