data_PCOD8088147
_publ_section_title
;
Structure prediction by ZEFSAII (Michael W. Deem and Ramdas Pophale) SiO2 
 PCOD8088147
Probable space group: C 2/M
;
_chemical_formula_sum "Si O2"
_cell_formula_units_Z 64
_cell_length_a 23.738893
_cell_length_b 8.906593
_cell_length_c 21.370551
_cell_angle_alpha 90.000000
_cell_angle_beta 51.319488
_cell_angle_gamma 90.000000
_cell_volume 3527.282745
_symmetry_space_group_name_H-M "C 2/M"
_symmetry_group_IT_number 12
_symmetry_cell_setting 'monoclinic'
loop_
_space_group_symop_operation_xyz
x,y,z
-x,y,-z
-x,-y,-z
x,-y,z
1/2+x,1/2+y,z
1/2-x,1/2+y,-z
1/2-x,1/2-y,-z
1/2+x,1/2-y,z
loop_
_atom_site_type_symbol
_atom_site_label
_atom_site_fract_x
_atom_site_fract_y
_atom_site_fract_z
Si Si1 0.506414 0.676252 0.718165
Si Si2 0.280480 0.324341 0.129500
Si Si3 0.298673 0.175420 0.246746
Si Si4 0.257473 0.675408 0.398598
Si Si5 0.362444 0.824868 0.844562
Si Si6 0.137197 0.325372 0.578448
Si Si7 0.389274 0.828024 0.967249
Si Si8 0.544119 0.171613 0.818647
O O1 0.504819 0.500000 0.711517
O O2 0.425903 0.738518 0.764135
O O3 0.559421 0.745021 0.628463
O O4 0.538009 0.719677 0.763857
O O5 0.282924 0.500000 0.142264
O O6 0.270909 0.235282 0.200170
O O7 0.213495 0.279061 0.132270
O O8 0.353556 0.277388 0.043783
O O9 0.253655 0.261724 0.331200
O O10 0.383961 0.210324 0.192988
O O11 0.282190 0.000000 0.263704
O O12 0.276514 0.500000 0.385731
O O13 0.180180 0.706273 0.484535
O O14 0.319699 0.762270 0.392064
O O15 0.361509 0.778317 0.917989
O O16 0.379162 0.000000 0.826397
O O17 0.125633 0.500000 0.598367
O O18 0.475616 0.805063 0.911820
O O19 0.367761 0.000000 0.996172
O O20 0.544809 0.000000 0.793293
#
# Coordination Sequence:
#
# PCOD8088147 Si02
#       8
#     8   8   8   8   8   8   8   8
#     4  11  20  30  53  84 110 136 174 225 266 308
#     4  11  23  37  54  77 105 140 182 225 268 317
#     4  11  22  36  55  75 107 150 181 215 265 321
#     4  10  20  33  52  80 110 141 179 219 255 305
#     4   9  20  38  57  76 104 141 177 221 275 322
#     4  10  19  32  52  79 113 145 172 209 264 319
#     4   9  18  35  57  78 102 133 177 226 271 322
#     4   9  19  35  53  75 106 144 178 212 267 325
#
# _framework density 18.144278
#
# number of rings (size 3 to 8) (size 9 to 14) (size 15 to 20)
#    0.000    2.000    1.250    3.750    0.000    5.500 
#    0.000    2.500    0.000    0.750    0.000    5.250 
#    0.000    0.000    0.000    0.000    0.000    0.000 
#
# Total GULP energy -396896.577205 kJ/mol
# GULP energy per Si atom -12403.018038 kJ/mol
# Density = 1.810298 g / cm^3
# Si number density = 18.144278 Si / 1000 Ang^3
#
#
#
# Elastic Constant Matrix: (Units=GPa)
#
#
# Indices 1 2 3 4 5 6 
#
# 1 33.4455 18.8640 25.2628 -0.0039 6.4851 0.0099
# 2 18.8640 84.3972 46.4595 -0.0136 -5.6142 0.0319
# 3 25.2628 46.4595 117.9913 0.0003 -4.0168 0.0021
# 4 -0.0039 -0.0136 0.0003 35.1203 0.0014 -0.8357
# 5 6.4851 -5.6142 -4.0168 0.0014 23.2165 -0.0046
# 6 0.0099 0.0319 0.0021 -0.8357 -0.0046 25.6054
#
#
#
# Elastic Compliance Matrix: (Units=1/GPa)
#
#
# Indices 1 2 3 4 5 6 
#
# 1 0.041480 -0.006469 -0.006822 0.000003 -0.014331 -0.000010
# 2 -0.006469 0.016300 -0.004866 0.000005 0.004907 -0.000016
# 3 -0.006822 -0.004866 0.011947 -0.000003 0.002796 0.000008
# 4 0.000003 0.000005 -0.000003 0.028496 -0.000002 0.000930
# 5 -0.014331 0.004907 0.002796 -0.000002 0.048746 0.000008
# 6 -0.000010 -0.000016 0.000008 0.000930 0.000008 0.039085
#
#
# Mechanical properties :
#
#
# Convention : Reuss Voigt Hill
#
# Bulk Modulus (GPa) = 29.92887 46.33407 38.13147
# Shear Modulus (GPa) = 21.41285 26.47163 23.94224
#
# Velocity S-wave (km/s) = 3.43905 3.82377 3.63650
# Velocity P-wave (km/s) = 5.68332 6.71467 6.22041
#
# Compressibility (1/GPa) = 0.03341255
#
# Stress axis : x y z
#
# Youngs Moduli (GPa) = 24.10807 61.35048 83.70364
#
# Poissons Ratio (x) = 0.39690 0.57100
# Poissons Ratio (y) = 0.15597 0.40729
# Poissons Ratio (z) = 0.16446 0.29853
#
# Static dielectric constant tensor:
#      x y z
#    x 3.194450 -0.000010 -0.201870 
#    y -0.000010 3.346790 0.000010 
#    z -0.201870 0.000010 3.455410 
# 
# 
# High freq. dielectric constant tensor:
#      x y z
#    x 1.673990 0.000000 -0.016990 
#    y 0.000000 1.710280 0.000000 
#    z -0.016990 0.000000 1.708110 
# 
# From -- ./inp_files/324148.got.cif
#   From: 2010.06.25/outbox.cif.g09.slc.cpg/sg12_163_cif.got.tgz:324148.got - 2010.06.28 00:19:55.
