data_PCOD8088575
_publ_section_title
;
Structure prediction by ZEFSAII (Michael W. Deem and Ramdas Pophale) SiO2 
 PCOD8088575
Probable space group: C 2/M
;
_chemical_formula_sum "Si O2"
_cell_formula_units_Z 64
_cell_length_a 20.565487
_cell_length_b 8.880317
_cell_length_c 22.558761
_cell_angle_alpha 90.000000
_cell_angle_beta 55.699931
_cell_angle_gamma 90.000000
_cell_volume 3403.408500
_symmetry_space_group_name_H-M "C 2/M"
_symmetry_group_IT_number 12
_symmetry_cell_setting 'monoclinic'
loop_
_space_group_symop_operation_xyz
x,y,z
-x,y,-z
-x,-y,-z
x,-y,z
1/2+x,1/2+y,z
1/2-x,1/2+y,-z
1/2-x,1/2-y,-z
1/2+x,1/2-y,z
loop_
_atom_site_type_symbol
_atom_site_label
_atom_site_fract_x
_atom_site_fract_y
_atom_site_fract_z
Si Si1 0.445798 0.823249 0.971876
Si Si2 0.693083 0.324032 0.196601
Si Si3 0.733675 0.322659 0.417432
Si Si4 0.134355 0.824786 0.574780
Si Si5 0.720621 0.820874 0.731306
Si Si6 0.955796 0.677946 0.191121
Si Si7 0.513719 0.672413 0.278987
Si Si8 0.278848 0.678322 0.045922
O O1 0.489918 0.764676 0.890514
O O2 0.426360 0.000000 0.978749
O O3 0.500000 0.785426 0.000000
O O4 0.365033 0.733684 0.020010
O O5 0.711563 0.500000 0.175710
O O6 0.739130 0.259049 0.229907
O O7 0.601325 0.296144 0.256281
O O8 0.717540 0.227912 0.127444
O O9 0.742698 0.500000 0.412342
O O10 0.813455 0.261050 0.404440
O O11 0.657557 0.272558 0.495711
O O12 0.728704 0.265253 0.352000
O O13 0.043396 0.788581 0.636039
O O14 0.153399 0.000000 0.571937
O O15 0.632070 0.755794 0.771872
O O16 0.719464 0.000000 0.734925
O O17 0.951251 0.500000 0.192214
O O18 0.993938 0.727147 0.232823
O O19 0.502583 0.500000 0.264980
O O20 0.278295 0.500000 0.039495
O O21 0.250000 0.750000 0.000000
#
# Coordination Sequence:
#
# PCOD8088575 Si02
#       8
#     8   8   8   8   8   8   8   8
#     4  10  21  38  60  84 111 143 179 225 278 333
#     4  10  21  38  57  76 106 144 179 219 272 330
#     4   9  16  29  51  76 103 138 178 215 255 310
#     4   9  17  29  47  76 109 137 171 217 265 309
#     4   9  17  32  54  79 104 138 180 217 257 312
#     4  10  19  32  54  79 101 131 176 219 256 310
#     4  10  20  33  50  76 107 138 171 217 270 314
#     4  12  25  41  60  82 109 144 187 232 277 331
#
# _framework density 18.804677000000002
#
# number of rings (size 3 to 8) (size 9 to 14) (size 15 to 20)
#    0.000    2.125    1.250    2.625    0.000    5.250 
#    0.000    3.125    0.000    3.750    0.000    0.000 
#    0.000    6.000    0.000    0.000    0.000    0.000 
#
# Total GULP energy -396748.751407 kJ/mol
# GULP energy per Si atom -12398.398481 kJ/mol
# Density = 1.876188 g / cm^3
# Si number density = 18.804677 Si / 1000 Ang^3
#
#
#
# Elastic Constant Matrix: (Units=GPa)
#
#
# Indices 1 2 3 4 5 6 
#
# 1 91.0106 23.8283 40.1089 0.0002 -5.3296 0.0011
# 2 23.8283 40.5617 28.0350 0.0002 -3.1758 0.0026
# 3 40.1089 28.0350 131.0330 -0.0002 -10.3290 0.0002
# 4 0.0002 0.0002 -0.0002 20.7248 0.0000 3.1545
# 5 -5.3296 -3.1758 -10.3290 0.0000 33.1371 0.0002
# 6 0.0011 0.0026 0.0002 3.1545 0.0002 20.3575
#
#
#
# Elastic Compliance Matrix: (Units=1/GPa)
#
#
# Indices 1 2 3 4 5 6 
#
# 1 0.013906 -0.006113 -0.002889 0.000000 0.000750 0.000000
# 2 -0.006113 0.031644 -0.004857 0.000000 0.000536 -0.000004
# 3 -0.002889 -0.004857 0.009721 0.000000 0.002100 0.000001
# 4 0.000000 0.000000 0.000000 0.049417 0.000000 -0.007657
# 5 0.000750 0.000536 0.002100 0.000000 0.031004 0.000000
# 6 0.000000 -0.000004 0.000001 -0.007657 0.000000 0.050308
#
#
# Mechanical properties :
#
#
# Convention : Reuss Voigt Hill
#
# Bulk Modulus (GPa) = 36.29590 49.61665 42.95627
# Shear Modulus (GPa) = 22.43136 26.21943 24.32540
#
# Velocity S-wave (km/s) = 3.45753 3.73809 3.60054
# Velocity P-wave (km/s) = 5.93993 6.71369 6.33863
#
# Compressibility (1/GPa) = 0.02755132
#
# Stress axis : x y z
#
# Youngs Moduli (GPa) = 71.91366 31.60170 102.87237
#
# Poissons Ratio (x) = 0.19319 0.29724
# Poissons Ratio (y) = 0.43962 0.49964
# Poissons Ratio (z) = 0.20779 0.15349
#
# Static dielectric constant tensor:
#      x y z
#    x 3.733340 0.000000 0.050480 
#    y 0.000000 3.262420 0.000000 
#    z 0.050480 0.000000 4.005970 
# 
# 
# High freq. dielectric constant tensor:
#      x y z
#    x 1.720000 0.000000 -0.005670 
#    y 0.000000 1.705320 0.000000 
#    z -0.005670 0.000000 1.752410 
# 
# From -- ./inp_files/319795.got.cif
#   From: 2010.06.25/outbox.cif.g09.slc.cpg/sg12_160_cif.got.tgz:319795.got - 2010.06.28 00:19:55.
