data_PCOD8088927
_publ_section_title
;
Structure prediction by ZEFSAII (Michael W. Deem and Ramdas Pophale) SiO2 
 PCOD8088927
Probable space group: C 2/M
;
_chemical_formula_sum "Si O2"
_cell_formula_units_Z 56
_cell_length_a 9.855954
_cell_length_b 19.686454
_cell_length_c 14.900211
_cell_angle_alpha 90.000000
_cell_angle_beta 62.267628
_cell_angle_gamma 90.000000
_cell_volume 2558.975101
_symmetry_space_group_name_H-M "C 2/M"
_symmetry_group_IT_number 12
_symmetry_cell_setting 'monoclinic'
loop_
_space_group_symop_operation_xyz
x,y,z
-x,y,-z
-x,-y,-z
x,-y,z
1/2+x,1/2+y,z
1/2-x,1/2+y,-z
1/2-x,1/2-y,-z
1/2+x,1/2-y,z
loop_
_atom_site_type_symbol
_atom_site_label
_atom_site_fract_x
_atom_site_fract_y
_atom_site_fract_z
Si Si1 0.826088 0.709514 0.072693
Si Si2 0.612782 0.782210 0.275932
Si Si3 0.797141 0.215354 0.393992
Si Si4 0.658967 0.619867 0.995174
Si Si5 0.182662 0.425770 0.224659
Si Si6 0.611194 0.425462 0.672444
Si Si7 0.785863 0.073667 0.837622
O O1 0.741024 0.765671 0.160636
O O2 0.766510 0.807769 0.992429
O O3 0.829861 0.637990 0.130263
O O4 0.000000 0.731383 0.000000
O O5 0.672568 0.766063 0.357378
O O6 0.460532 0.739642 0.305454
O O7 0.570742 0.862642 0.282287
O O8 0.750000 0.250000 0.500000
O O9 0.808200 0.134267 0.409423
O O10 0.766717 0.580145 0.893458
O O11 0.500000 0.640296 0.000000
O O12 0.639742 0.570120 0.085599
O O13 0.102583 0.500000 0.262887
O O14 0.331107 0.419229 0.242835
O O15 0.654889 0.500000 0.619300
O O16 0.427497 0.415680 0.725888
O O17 0.705870 0.000000 0.842510
#
# Coordination Sequence:
#
# PCOD8088927 Si02
#       7
#     8   8   8   8   8   8   8
#     4  10  23  39  54  87 131 169 203 244 305 365
#     4  11  25  43  64  93 129 159 207 260 316 376
#     4  11  23  44  71  95 120 160 204 263 325 379
#     4  10  19  32  56  85 119 162 217 249 283 349
#     4  10  20  34  57  87 122 161 206 259 305 351
#     4   9  17  35  62  94 122 154 203 261 311 361
#     4   9  17  31  55  82 120 164 207 248 292 349
#
# _framework density 21.883761
#
# number of rings (size 3 to 8) (size 9 to 14) (size 15 to 20)
#    0.857    1.143    2.857    0.857    4.000    2.000 
#    0.000    0.714    0.000    6.857    0.000    0.000 
#    0.000    0.000    0.000    0.000    0.000    0.000 
#
# Total GULP energy -346953.478710 kJ/mol
# GULP energy per Si atom -12391.195668 kJ/mol
# Density = 2.183395 g / cm^3
# Si number density = 21.883761 Si / 1000 Ang^3
#
#
#
# Elastic Constant Matrix: (Units=GPa)
#
#
# Indices 1 2 3 4 5 6 
#
# 1 50.9399 8.0020 9.0780 0.0000 -0.7600 0.0000
# 2 8.0020 157.4135 31.5939 0.0000 -1.3105 0.0000
# 3 9.0780 31.5939 82.7250 0.0000 7.9449 0.0000
# 4 0.0000 0.0000 0.0000 22.4727 0.0000 -1.4542
# 5 -0.7600 -1.3105 7.9449 0.0000 25.3309 0.0000
# 6 0.0000 0.0000 0.0000 -1.4542 0.0000 20.9715
#
#
#
# Elastic Compliance Matrix: (Units=1/GPa)
#
#
# Indices 1 2 3 4 5 6 
#
# 1 0.020116 -0.000591 -0.002100 0.000000 0.001232 0.000000
# 2 -0.000591 0.006934 -0.002697 0.000000 0.001187 0.000000
# 3 -0.002100 -0.002697 0.013784 0.000000 -0.004526 0.000000
# 4 0.000000 0.000000 0.000000 0.044699 0.000000 0.003100
# 5 0.001232 0.001187 -0.004526 0.000000 0.040995 0.000000
# 6 0.000000 0.000000 0.000000 0.003100 0.000000 0.047899
#
#
# Mechanical properties :
#
#
# Convention : Reuss Voigt Hill
#
# Bulk Modulus (GPa) = 33.26987 43.15846 38.21416
# Shear Modulus (GPa) = 25.61179 29.91534 27.76356
#
# Velocity S-wave (km/s) = 3.42476 3.70132 3.56572
# Velocity P-wave (km/s) = 5.55649 6.16692 5.86965
#
# Compressibility (1/GPa) = 0.03005722
#
# Stress axis : x y z
#
# Youngs Moduli (GPa) = 49.71063 144.21719 72.55037
#
# Poissons Ratio (x) = 0.08521 0.15237
# Poissons Ratio (y) = 0.02937 0.19569
# Poissons Ratio (z) = 0.10440 0.38901
#
# Static dielectric constant tensor:
#      x y z
#    x 3.527760 0.000000 0.063650 
#    y 0.000000 4.369100 0.000000 
#    z 0.063650 0.000000 3.487210 
# 
# 
# High freq. dielectric constant tensor:
#      x y z
#    x 1.824630 0.000000 0.007110 
#    y 0.000000 1.893490 0.000000 
#    z 0.007110 0.000000 1.823340 
# 
# From -- ./inp_files/206076.got.cif
#   From: 2010.06.25/outbox.cif.g09.slc.cpg/sg12_104_cif.got.tgz:206076.got - 2010.06.28 00:19:55.
