data_PCOD8088282
_publ_section_title
;
Structure prediction by ZEFSAII (Michael W. Deem and Ramdas Pophale) SiO2 
 PCOD8088282
Probable space group: C 2/M
;
_chemical_formula_sum "Si O2"
_cell_formula_units_Z 64
_cell_length_a 27.952007
_cell_length_b 9.312503
_cell_length_c 13.731981
_cell_angle_alpha 90.000000
_cell_angle_beta 96.114468
_cell_angle_gamma 90.000000
_cell_volume 3554.142975
_symmetry_space_group_name_H-M "C 2/M"
_symmetry_group_IT_number 12
_symmetry_cell_setting 'monoclinic'
loop_
_space_group_symop_operation_xyz
x,y,z
-x,y,-z
-x,-y,-z
x,-y,z
1/2+x,1/2+y,z
1/2-x,1/2+y,-z
1/2-x,1/2-y,-z
1/2+x,1/2-y,z
loop_
_atom_site_type_symbol
_atom_site_label
_atom_site_fract_x
_atom_site_fract_y
_atom_site_fract_z
Si Si1 0.914207 0.166348 0.551140
Si Si2 0.273225 0.167294 0.799659
Si Si3 0.489772 0.835114 0.696823
Si Si4 0.339664 0.334866 0.688628
Si Si5 0.668363 0.668288 0.830997
Si Si6 0.917100 0.832751 0.327659
Si Si7 0.350691 0.838473 0.982582
Si Si8 0.088037 0.339077 0.174919
O O1 0.860535 0.191164 0.584146
O O2 0.911281 0.211314 0.438442
O O3 0.954567 0.263837 0.610056
O O4 0.929536 0.000000 0.567491
O O5 0.292016 0.243930 0.704627
O O6 0.220796 0.229768 0.814542
O O7 0.270350 0.000000 0.775403
O O8 0.308620 0.201826 0.897029
O O9 0.540340 0.755818 0.712650
O O10 0.467084 0.824336 0.801321
O O11 0.497511 0.000000 0.667865
O O12 0.327350 0.500000 0.704784
O O13 0.382757 0.286779 0.767617
O O14 0.671560 0.500000 0.849235
O O15 0.632145 0.708766 0.736743
O O16 0.649646 0.733619 0.927129
O O17 0.929068 0.000000 0.318537
O O18 0.343086 0.000000 0.019303
O O19 0.402728 0.822743 0.939159
O O20 0.107248 0.500000 0.209299
#
# Coordination Sequence:
#
# PCOD8088282 Si02
#       8
#     8   8   8   8   8   8   8   8
#     4   9  18  33  52  73  99 130 161 196 241 290
#     4   9  18  33  51  72  99 129 159 195 245 295
#     4  10  19  32  53  78 100 124 160 203 242 285
#     4   9  16  27  48  76  98 120 157 201 239 280
#     4  10  21  35  50  69  96 132 169 201 236 284
#     4  10  21  36  50  67  98 136 167 197 239 288
#     4   9  17  31  52  74  96 123 156 199 248 291
#     4   8  16  31  49  72 101 127 152 191 245 295
#
# _framework density 18.007155000000001
#
# number of rings (size 3 to 8) (size 9 to 14) (size 15 to 20)
#    0.000    2.750    0.000    2.250    0.000    6.000 
#    0.000    1.250    0.000    3.750    0.000    0.000 
#    0.000    0.000    0.000    0.000    0.000    0.000 
#
# Total GULP energy -396607.773489 kJ/mol
# GULP energy per Si atom -12393.992922 kJ/mol
# Density = 1.796617 g / cm^3
# Si number density = 18.007155 Si / 1000 Ang^3
#
#
#
# Elastic Constant Matrix: (Units=GPa)
#
#
# Indices 1 2 3 4 5 6 
#
# 1 69.6007 41.3557 53.0023 0.0000 -19.7647 0.0000
# 2 41.3557 58.3872 33.5202 0.0000 -9.0094 0.0000
# 3 53.0023 33.5202 54.4001 0.0000 -17.8344 0.0000
# 4 0.0000 0.0000 0.0000 23.4352 0.0000 -8.9261
# 5 -19.7647 -9.0094 -17.8344 0.0000 27.5626 0.0000
# 6 0.0000 0.0000 0.0000 -8.9261 0.0000 27.2844
#
#
#
# Elastic Compliance Matrix: (Units=1/GPa)
#
#
# Indices 1 2 3 4 5 6 
#
# 1 0.064179 -0.015236 -0.050373 0.000000 0.008448 0.000000
# 2 -0.015236 0.030246 -0.005246 0.000000 -0.004433 0.000000
# 3 -0.050373 -0.005246 0.073983 0.000000 0.010035 0.000000
# 4 0.000000 0.000000 0.000000 0.048745 0.000000 0.015947
# 5 0.008448 -0.004433 0.010035 0.000000 0.047383 0.000000
# 6 0.000000 0.000000 0.000000 0.015947 0.000000 0.041868
#
#
# Mechanical properties :
#
#
# Convention : Reuss Voigt Hill
#
# Bulk Modulus (GPa) = 37.45421 48.68270 43.06845
# Shear Modulus (GPa) = 10.94061 19.29042 15.11552
#
# Velocity S-wave (km/s) = 2.46757 3.27657 2.90041
# Velocity P-wave (km/s) = 5.38176 6.43494 5.93177
#
# Compressibility (1/GPa) = 0.02669927
#
# Stress axis : x y z
#
# Youngs Moduli (GPa) = 15.58137 33.06188 13.51663
#
# Poissons Ratio (x) = 0.50372 0.68087
# Poissons Ratio (y) = 0.23739 0.07091
# Poissons Ratio (z) = 0.78487 0.17346
#
# Static dielectric constant tensor:
#      x y z
#    x 3.470430 0.000000 -0.411060 
#    y 0.000000 3.325800 0.000000 
#    z -0.411060 0.000000 3.295400 
# 
# 
# High freq. dielectric constant tensor:
#      x y z
#    x 1.689630 0.000000 -0.035700 
#    y 0.000000 1.698420 0.000000 
#    z -0.035700 0.000000 1.679480 
# 
# From -- ./inp_files/187526.got.cif
#   From: 2010.06.25/outbox.cif.g09.slc.cpg/sg12_94_cif.got.tgz:187526.got - 2010.06.28 00:19:55.
