data_PCOD8088496
_publ_section_title
;
Structure prediction by ZEFSAII (Michael W. Deem and Ramdas Pophale) SiO2 
 PCOD8088496
Probable space group: C 2/M
;
_chemical_formula_sum "Si O2"
_cell_formula_units_Z 56
_cell_length_a 25.288697
_cell_length_b 12.770170
_cell_length_c 13.065936
_cell_angle_alpha 90.000000
_cell_angle_beta 41.866147
_cell_angle_gamma 90.000000
_cell_volume 2816.080644
_symmetry_space_group_name_H-M "C 2/M"
_symmetry_group_IT_number 12
_symmetry_cell_setting 'monoclinic'
loop_
_space_group_symop_operation_xyz
x,y,z
-x,y,-z
-x,-y,-z
x,-y,z
1/2+x,1/2+y,z
1/2-x,1/2+y,-z
1/2-x,1/2-y,-z
1/2+x,1/2-y,z
loop_
_atom_site_type_symbol
_atom_site_label
_atom_site_fract_x
_atom_site_fract_y
_atom_site_fract_z
Si Si1 0.069205 0.883133 0.320681
Si Si2 0.965516 0.726200 0.800952
Si Si3 0.749778 0.880306 0.340817
Si Si4 0.675660 0.883278 0.060863
Si Si5 0.888577 0.378455 0.312410
Si Si6 0.292285 0.761305 0.795483
Si Si7 0.913530 0.226426 0.097209
O O1 0.035641 0.832020 0.264635
O O2 0.135012 0.813487 0.281284
O O3 0.000000 0.893909 0.500000
O O4 0.101958 0.000000 0.247304
O O5 0.053952 0.685707 0.693896
O O6 0.918994 0.635760 0.805287
O O7 0.915840 0.745258 0.975554
O O8 0.701220 0.865495 0.516661
O O9 0.707011 0.805147 0.320143
O O10 0.842400 0.854089 0.224240
O O11 0.743594 0.000000 0.312439
O O12 0.712846 0.805379 0.923822
O O13 0.697457 0.000000 0.998709
O O14 0.709757 0.859829 0.124515
O O15 0.913785 0.500000 0.271764
O O16 0.896818 0.331671 0.186883
O O17 0.000000 0.176945 0.000000
#
# Coordination Sequence:
#
# PCOD8088496 Si02
#       7
#     8   8   8   8   8   8   8
#     4  10  21  37  58  86 123 161 193 232 285 349
#     4  10  20  37  59  88 115 153 193 241 290 341
#     4  11  22  39  60  85 118 158 196 241 301 355
#     4  10  19  32  53  82 114 146 187 236 285 339
#     4  10  22  39  62  86 116 154 196 249 302 351
#     4  10  20  35  53  83 116 151 192 234 284 344
#     4  10  22  40  60  85 113 149 195 250 298 352
#
# _framework density 19.885793
#
# number of rings (size 3 to 8) (size 9 to 14) (size 15 to 20)
#    0.000    1.857    1.429    2.571    0.000    4.000 
#    0.000    2.143    0.000   15.429    0.000    0.000 
#    0.000    0.000    0.000    0.000    0.000    0.000 
#
# Total GULP energy -347089.579321 kJ/mol
# GULP energy per Si atom -12396.056404 kJ/mol
# Density = 1.984053 g / cm^3
# Si number density = 19.885793 Si / 1000 Ang^3
#
#
#
# Elastic Constant Matrix: (Units=GPa)
#
#
# Indices 1 2 3 4 5 6 
#
# 1 87.7638 58.1566 41.6684 0.0000 -0.6616 0.0000
# 2 58.1566 122.2171 42.9802 0.0000 3.6114 0.0000
# 3 41.6684 42.9802 105.8617 0.0000 -2.6525 0.0000
# 4 0.0000 0.0000 0.0000 128.5279 0.0000 -20.6529
# 5 -0.6616 3.6114 -2.6525 0.0000 36.5978 0.0000
# 6 0.0000 0.0000 0.0000 -20.6529 0.0000 30.6247
#
#
#
# Elastic Compliance Matrix: (Units=1/GPa)
#
#
# Indices 1 2 3 4 5 6 
#
# 1 0.018158 -0.007180 -0.004214 0.000000 0.000731 0.000000
# 2 -0.007180 0.012439 -0.002262 0.000000 -0.001521 0.000000
# 3 -0.004214 -0.002262 0.012049 0.000000 0.001020 0.000000
# 4 0.000000 0.000000 0.000000 0.008726 0.000000 0.005885
# 5 0.000731 -0.001521 0.001020 0.000000 0.027561 0.000000
# 6 0.000000 0.000000 0.000000 0.005885 0.000000 0.036622
#
#
# Mechanical properties :
#
#
# Convention : Reuss Voigt Hill
#
# Bulk Modulus (GPa) = 65.21493 66.82811 66.02152
# Shear Modulus (GPa) = 33.78827 50.68591 42.23709
#
# Velocity S-wave (km/s) = 4.12651 5.05409 4.61367
# Velocity P-wave (km/s) = 7.45453 8.23027 7.85199
#
# Compressibility (1/GPa) = 0.01533391
#
# Stress axis : x y z
#
# Youngs Moduli (GPa) = 55.07085 80.38937 82.99479
#
# Poissons Ratio (x) = 0.57723 0.34972
# Poissons Ratio (y) = 0.39543 0.18776
# Poissons Ratio (z) = 0.23206 0.18186
#
# Static dielectric constant tensor:
#      x y z
#    x 3.599690 0.000000 -0.137290 
#    y 0.000000 3.633820 0.000000 
#    z -0.137290 0.000000 3.717180 
# 
# 
# High freq. dielectric constant tensor:
#      x y z
#    x 1.776570 0.000000 -0.008950 
#    y 0.000000 1.768560 0.000000 
#    z -0.008950 0.000000 1.780570 
# 
# From -- ./inp_files/223111.got.cif
#   From: 2010.06.25/outbox.cif.g09.slc.cpg/sg12_112_cif.got.tgz:223111.got - 2010.06.28 00:19:55.
