data_PCOD8088386
_publ_section_title
;
Structure prediction by ZEFSAII (Michael W. Deem and Ramdas Pophale) SiO2 
 PCOD8088386
Probable space group: C 2/M
;
_chemical_formula_sum "Si O2"
_cell_formula_units_Z 56
_cell_length_a 18.285392
_cell_length_b 9.173089
_cell_length_c 25.032487
_cell_angle_alpha 90.000000
_cell_angle_beta 45.996808
_cell_angle_gamma 90.000000
_cell_volume 3020.192366
_symmetry_space_group_name_H-M "C 2/M"
_symmetry_group_IT_number 12
_symmetry_cell_setting 'monoclinic'
loop_
_space_group_symop_operation_xyz
x,y,z
-x,y,-z
-x,-y,-z
x,-y,z
1/2+x,1/2+y,z
1/2-x,1/2+y,-z
1/2-x,1/2-y,-z
1/2+x,1/2-y,z
loop_
_atom_site_type_symbol
_atom_site_label
_atom_site_fract_x
_atom_site_fract_y
_atom_site_fract_z
Si Si1 0.257466 0.329482 0.415083
Si Si2 0.356456 0.669482 0.832180
Si Si3 0.801230 0.172820 0.273033
Si Si4 0.815667 0.665357 0.007956
Si Si5 0.872967 0.829748 0.701619
Si Si6 0.493642 0.828417 0.849431
Si Si7 0.398113 0.331094 0.440226
O O1 0.237122 0.500000 0.426335
O O2 0.291475 0.277847 0.339436
O O3 0.346624 0.282271 0.410519
O O4 0.151613 0.253863 0.485036
O O5 0.387416 0.500000 0.823922
O O6 0.371503 0.718298 0.763980
O O7 0.429986 0.765252 0.831902
O O8 0.235371 0.694531 0.907956
O O9 0.703925 0.228832 0.290948
O O10 0.900104 0.247512 0.197969
O O11 0.810323 0.000000 0.262437
O O12 0.799492 0.500000 0.999967
O O13 0.934406 0.702753 0.936370
O O14 0.750000 0.750000 0.000000
O O15 0.983304 0.795242 0.621748
O O16 0.844374 0.000000 0.710057
O O17 0.511573 0.000000 0.831043
O O18 0.377971 0.500000 0.460425
#
# Coordination Sequence:
#
# PCOD8088386 Si02
#       7
#     8   8   8   8   8   8   8
#     4   9  19  36  56  77 100 129 167 208 252 304
#     4   9  17  33  56  78 104 137 170 208 256 306
#     4  11  23  37  52  72 103 141 177 212 254 304
#     4   8  15  28  49  77 103 130 166 208 254 302
#     4  10  21  36  53  75 105 139 174 211 252 302
#     4  10  19  32  53  80 106 132 170 216 257 303
#     4   9  18  34  56  79 101 127 163 208 256 303
#
# _framework density 18.541865000000001
#
# number of rings (size 3 to 8) (size 9 to 14) (size 15 to 20)
#    0.000    2.571    0.000    1.714    0.000    5.714 
#    0.000    6.429    0.000    4.286    0.000    0.000 
#    0.000    0.000    0.000    0.000    0.000    0.000 
#
# Total GULP energy -347021.626637 kJ/mol
# GULP energy per Si atom -12393.629523 kJ/mol
# Density = 1.849966 g / cm^3
# Si number density = 18.541865 Si / 1000 Ang^3
#
#
#
# Elastic Constant Matrix: (Units=GPa)
#
#
# Indices 1 2 3 4 5 6 
#
# 1 52.6853 27.5126 24.9106 0.0000 -20.8065 0.0001
# 2 27.5126 55.7343 39.7460 0.0000 -11.1614 0.0002
# 3 24.9106 39.7460 106.6513 0.0000 -24.9266 0.0001
# 4 0.0000 0.0000 0.0000 30.0243 0.0000 -3.6152
# 5 -20.8065 -11.1614 -24.9266 0.0000 19.4148 0.0000
# 6 0.0001 0.0002 0.0001 -3.6152 0.0000 29.7001
#
#
#
# Elastic Compliance Matrix: (Units=1/GPa)
#
#
# Indices 1 2 3 4 5 6 
#
# 1 0.041809 -0.016620 0.006668 0.000000 0.043813 0.000000
# 2 -0.016620 0.031199 -0.011024 0.000000 -0.014029 0.000000
# 3 0.006668 -0.011024 0.017311 0.000000 0.023034 0.000000
# 4 0.000000 0.000000 0.000000 0.033802 0.000000 0.004115
# 5 0.043813 -0.014029 0.023034 0.000000 0.119969 0.000000
# 6 0.000000 0.000000 0.000000 0.004115 0.000000 0.034171
#
#
# Mechanical properties :
#
#
# Convention : Reuss Voigt Hill
#
# Bulk Modulus (GPa) = 20.67499 44.37883 32.52691
# Shear Modulus (GPa) = 14.86622 24.02131 19.44376
#
# Velocity S-wave (km/s) = 2.83462 3.60323 3.24179
# Velocity P-wave (km/s) = 4.67847 6.42631 5.62074
#
# Compressibility (1/GPa) = 0.04836762
#
# Stress axis : x y z
#
# Youngs Moduli (GPa) = 23.91802 32.05276 57.76830
#
# Poissons Ratio (x) = 0.53272 -0.38523
# Poissons Ratio (y) = 0.39752 0.63682
# Poissons Ratio (z) = -0.15950 0.35334
#
# Static dielectric constant tensor:
#      x y z
#    x 3.110500 0.000000 0.033560 
#    y 0.000000 3.370840 0.000000 
#    z 0.033560 0.000000 4.093140 
# 
# 
# High freq. dielectric constant tensor:
#      x y z
#    x 1.686610 0.000000 -0.004230 
#    y 0.000000 1.718990 0.000000 
#    z -0.004230 0.000000 1.744300 
# 
# From -- ./inp_files/342236.got.cif
#   From: 2010.06.25/outbox.cif.g09.slc.cpg/sg12_172_cif.got.tgz:342236.got - 2010.06.28 00:19:55.
