data_PCOD8088125
_publ_section_title
;
Structure prediction by ZEFSAII (Michael W. Deem and Ramdas Pophale) SiO2 
 PCOD8088125
Probable space group: C 2/M
;
_chemical_formula_sum "Si O2"
_cell_formula_units_Z 64
_cell_length_a 23.386887
_cell_length_b 9.232954
_cell_length_c 23.793387
_cell_angle_alpha 90.000000
_cell_angle_beta 44.200424
_cell_angle_gamma 90.000000
_cell_volume 3581.857488
_symmetry_space_group_name_H-M "C 2/M"
_symmetry_group_IT_number 12
_symmetry_cell_setting 'monoclinic'
loop_
_space_group_symop_operation_xyz
x,y,z
-x,y,-z
-x,-y,-z
x,-y,z
1/2+x,1/2+y,z
1/2-x,1/2+y,-z
1/2-x,1/2-y,-z
1/2+x,1/2-y,z
loop_
_atom_site_type_symbol
_atom_site_label
_atom_site_fract_x
_atom_site_fract_y
_atom_site_fract_z
Si Si1 0.015857 0.334078 0.425463
Si Si2 0.756357 0.168566 0.363189
Si Si3 0.276758 0.669913 0.846271
Si Si4 0.375088 0.334105 0.470895
Si Si5 0.086331 0.163697 0.680769
Si Si6 0.317876 0.835939 0.983542
Si Si7 0.206555 0.666571 0.275455
Si Si8 0.078821 0.330257 0.188696
O O1 0.988011 0.500000 0.437264
O O2 0.963648 0.233289 0.421568
O O3 0.000000 0.283501 0.500000
O O4 0.109569 0.311373 0.343740
O O5 0.696896 0.252959 0.446551
O O6 0.850353 0.198567 0.313699
O O7 0.744026 0.221486 0.307975
O O8 0.732892 0.000000 0.384772
O O9 0.297014 0.500000 0.826382
O O10 0.255864 0.735935 0.800386
O O11 0.355086 0.748421 0.819062
O O12 0.192763 0.696747 0.942327
O O13 0.374227 0.500000 0.490986
O O14 0.362780 0.318898 0.412787
O O15 0.011753 0.274523 0.735525
O O16 0.052137 0.000000 0.710392
O O17 0.403827 0.802951 0.890888
O O18 0.294030 0.000000 0.989354
O O19 0.250000 0.750000 0.000000
O O20 0.230267 0.500000 0.247979
O O21 0.082601 0.500000 0.201557
#
# Coordination Sequence:
#
# PCOD8088125 Si02
#       8
#     8   8   8   8   8   8   8   8
#     4  10  19  34  52  70  96 134 171 202 249 304
#     4  10  21  39  56  69  96 138 178 213 253 302
#     4  10  19  32  52  79 110 136 162 203 255 305
#     4  11  22  34  51  77 103 128 167 216 262 303
#     4  10  22  37  53  75 102 133 170 215 261 299
#     4   8  16  30  49  75 105 135 163 197 246 301
#     4  10  20  34  53  75  99 133 176 213 248 300
#     4  10  19  33  54  79 106 135 169 205 245 302
#
# _framework density 17.867823999999999
#
# number of rings (size 3 to 8) (size 9 to 14) (size 15 to 20)
#    0.000    2.125    1.250    2.250    0.000    5.750 
#    0.000    0.000    0.000    0.750    0.000    5.250 
#    0.000    0.000    0.000    0.000    0.000    0.000 
#
# Total GULP energy -396649.004622 kJ/mol
# GULP energy per Si atom -12395.281394 kJ/mol
# Density = 1.782716 g / cm^3
# Si number density = 17.867824 Si / 1000 Ang^3
#
#
#
# Elastic Constant Matrix: (Units=GPa)
#
#
# Indices 1 2 3 4 5 6 
#
# 1 76.3909 35.6510 35.5165 0.0009 8.4040 -0.0022
# 2 35.6510 80.4148 48.5320 0.0031 7.9691 -0.0049
# 3 35.5165 48.5320 105.6315 -0.0004 19.8351 0.0003
# 4 0.0009 0.0031 -0.0004 25.5141 0.0002 9.0549
# 5 8.4040 7.9691 19.8351 0.0002 16.6979 -0.0003
# 6 -0.0022 -0.0049 0.0003 9.0549 -0.0003 14.0553
#
#
#
# Elastic Compliance Matrix: (Units=1/GPa)
#
#
# Indices 1 2 3 4 5 6 
#
# 1 0.017339 -0.005824 -0.002622 0.000000 -0.002832 0.000001
# 2 -0.005824 0.019193 -0.007324 -0.000006 0.002471 0.000010
# 3 -0.002622 -0.007324 0.016487 0.000003 -0.014769 -0.000006
# 4 0.000000 -0.000006 0.000003 0.050811 -0.000002 -0.032734
# 5 -0.002832 0.002471 -0.014769 -0.000002 0.077678 0.000004
# 6 0.000001 0.000010 -0.000006 -0.032734 0.000004 0.092236
#
#
# Mechanical properties :
#
#
# Convention : Reuss Voigt Hill
#
# Bulk Modulus (GPa) = 46.55813 55.75956 51.15884
# Shear Modulus (GPa) = 16.00285 20.76931 18.38608
#
# Velocity S-wave (km/s) = 2.99594 3.41308 3.21129
# Velocity P-wave (km/s) = 6.17099 6.84153 6.51489
#
# Compressibility (1/GPa) = 0.02147852
#
# Stress axis : x y z
#
# Youngs Moduli (GPa) = 57.67232 52.10321 60.65424
#
# Poissons Ratio (x) = 0.30344 0.15906
# Poissons Ratio (y) = 0.33587 0.44423
# Poissons Ratio (z) = 0.15124 0.38160
#
# Static dielectric constant tensor:
#      x y z
#    x 3.168010 0.000000 0.248230 
#    y 0.000000 3.344730 0.000000 
#    z 0.248230 0.000000 3.870040 
# 
# 
# High freq. dielectric constant tensor:
#      x y z
#    x 1.664640 0.000000 0.015970 
#    y 0.000000 1.697640 0.000000 
#    z 0.015970 0.000000 1.697540 
# 
# From -- ./inp_files/348555.got.cif
#   From: 2010.06.25/outbox.cif.g09.slc.cpg/sg12_175_cif.got.tgz:348555.got - 2010.06.28 00:19:55.
