data_PCOD8088637
_publ_section_title
;
Structure prediction by ZEFSAII (Michael W. Deem and Ramdas Pophale) SiO2 
 PCOD8088637
Probable space group: C 2/M
;
_chemical_formula_sum "Si O2"
_cell_formula_units_Z 64
_cell_length_a 20.649818
_cell_length_b 8.778254
_cell_length_c 22.336389
_cell_angle_alpha 90.000000
_cell_angle_beta 55.882464
_cell_angle_gamma 90.000000
_cell_volume 3352.040783
_symmetry_space_group_name_H-M "C 2/M"
_symmetry_group_IT_number 12
_symmetry_cell_setting 'monoclinic'
loop_
_space_group_symop_operation_xyz
x,y,z
-x,y,-z
-x,-y,-z
x,-y,z
1/2+x,1/2+y,z
1/2-x,1/2+y,-z
1/2-x,1/2-y,-z
1/2+x,1/2-y,z
loop_
_atom_site_type_symbol
_atom_site_label
_atom_site_fract_x
_atom_site_fract_y
_atom_site_fract_z
Si Si1 0.994781 0.679254 0.188021
Si Si2 0.812905 0.181235 0.595426
Si Si3 0.593735 0.681131 0.568023
Si Si4 0.371848 0.677274 0.803327
Si Si5 0.778020 0.677297 0.046251
Si Si6 0.146499 0.819608 0.670158
Si Si7 0.080876 0.820150 0.352136
Si Si8 0.950981 0.680869 0.970280
O O1 0.979712 0.500000 0.200517
O O2 0.069775 0.721248 0.188422
O O3 0.010105 0.732237 0.112143
O O4 0.918747 0.768001 0.249302
O O5 0.848322 0.238161 0.513987
O O6 0.728066 0.250895 0.648999
O O7 0.868620 0.245638 0.619170
O O8 0.806654 0.000000 0.601076
O O9 0.589643 0.500000 0.571557
O O10 0.624990 0.743407 0.615234
O O11 0.506985 0.747722 0.600836
O O12 0.394591 0.500000 0.800305
O O13 0.283202 0.711269 0.869082
O O14 0.377652 0.726013 0.731275
O O15 0.786056 0.500000 0.029217
O O16 0.750000 0.750000 0.000000
O O17 0.862417 0.744828 0.020851
O O18 0.151985 0.000000 0.667037
O O19 0.075858 0.000000 0.361733
O O20 0.950067 0.500000 0.975315
O O21 0.000000 0.751287 0.000000
#
# Coordination Sequence:
#
# PCOD8088637 Si02
#       8
#     8   8   8   8   8   8   8   8
#     4  11  21  35  58  83 107 140 184 231 270 318
#     4  10  20  34  56  84 110 139 186 235 270 316
#     4   9  17  32  56  82 107 143 186 228 270 319
#     4  10  19  33  56  82 110 145 182 221 273 330
#     4  10  19  32  54  81 107 140 177 217 262 312
#     4  11  22  37  56  78 113 150 180 219 277 337
#     4   9  17  32  55  83 110 141 182 227 272 318
#     4   9  19  35  55  82 113 141 176 223 271 314
#
# _framework density 19.092846000000002
#
# number of rings (size 3 to 8) (size 9 to 14) (size 15 to 20)
#    0.000    2.125    2.500    1.500    0.000    2.500 
#    0.000    5.000    0.000    5.625    0.000    0.000 
#    0.000    0.000    0.000    0.000    0.000    0.000 
#
# Total GULP energy -396829.919312 kJ/mol
# GULP energy per Si atom -12400.934978 kJ/mol
# Density = 1.904939 g / cm^3
# Si number density = 19.092846 Si / 1000 Ang^3
#
#
#
# Elastic Constant Matrix: (Units=GPa)
#
#
# Indices 1 2 3 4 5 6 
#
# 1 146.1197 19.0819 63.4351 -0.0001 -12.8255 0.0008
# 2 19.0819 22.7113 17.3906 0.0000 0.5825 0.0010
# 3 63.4351 17.3906 132.8734 0.0000 -4.9503 -0.0002
# 4 -0.0001 0.0000 0.0000 22.2336 -0.0002 -1.7041
# 5 -12.8255 0.5825 -4.9503 -0.0002 30.4382 0.0004
# 6 0.0008 0.0010 -0.0002 -1.7041 0.0004 24.6634
#
#
#
# Elastic Compliance Matrix: (Units=1/GPa)
#
#
# Indices 1 2 3 4 5 6 
#
# 1 0.009429 -0.005183 -0.003694 0.000000 0.003471 0.000000
# 2 -0.005183 0.051904 -0.004464 0.000000 -0.003903 -0.000002
# 3 -0.003694 -0.004464 0.009879 0.000000 0.000136 0.000000
# 4 0.000000 0.000000 0.000000 0.045216 0.000000 0.003124
# 5 0.003471 -0.003903 0.000136 0.000000 0.034413 0.000000
# 6 0.000000 -0.000002 0.000000 0.003124 0.000000 0.040762
#
#
# Mechanical properties :
#
#
# Convention : Reuss Voigt Hill
#
# Bulk Modulus (GPa) = 22.45683 55.72440 39.09061
# Shear Modulus (GPa) = 21.44749 28.92016 25.18382
#
# Velocity S-wave (km/s) = 3.35524 3.89615 3.63577
# Velocity P-wave (km/s) = 5.17664 7.03487 6.17604
#
# Compressibility (1/GPa) = 0.04452988
#
# Stress axis : x y z
#
# Youngs Moduli (GPa) = 106.05819 19.26634 101.22732
#
# Poissons Ratio (x) = 0.09985 0.37391
# Poissons Ratio (y) = 0.54966 0.45192
# Poissons Ratio (z) = 0.39175 0.08601
#
# Static dielectric constant tensor:
#      x y z
#    x 3.739600 0.000000 -0.048240 
#    y 0.000000 3.093550 0.000000 
#    z -0.048240 0.000000 3.539510 
# 
# 
# High freq. dielectric constant tensor:
#      x y z
#    x 1.749420 0.000000 -0.004530 
#    y 0.000000 1.699860 0.000000 
#    z -0.004530 0.000000 1.759470 
# 
# From -- ./inp_files/345960.got.cif
#   From: 2010.06.25/outbox.cif.g09.slc.cpg/sg12_173_cif.got.tgz:345960.got - 2010.06.28 00:19:55.
