data_PCOD8088306
_publ_section_title
;
Structure prediction by ZEFSAII (Michael W. Deem and Ramdas Pophale) SiO2 
 PCOD8088306
Probable space group: C 2/M
;
_chemical_formula_sum "Si O2"
_cell_formula_units_Z 56
_cell_length_a 29.834093
_cell_length_b 9.079555
_cell_length_c 12.478406
_cell_angle_alpha 90.000000
_cell_angle_beta 106.184713
_cell_angle_gamma 90.000000
_cell_volume 3246.192242
_symmetry_space_group_name_H-M "C 2/M"
_symmetry_group_IT_number 12
_symmetry_cell_setting 'monoclinic'
loop_
_space_group_symop_operation_xyz
x,y,z
-x,y,-z
-x,-y,-z
x,-y,z
1/2+x,1/2+y,z
1/2-x,1/2+y,-z
1/2-x,1/2-y,-z
1/2+x,1/2-y,z
loop_
_atom_site_type_symbol
_atom_site_label
_atom_site_fract_x
_atom_site_fract_y
_atom_site_fract_z
Si Si1 0.295015 0.830522 0.910861
Si Si2 0.702406 0.828487 0.839414
Si Si3 0.112924 0.825396 0.703894
Si Si4 0.446820 0.326106 0.132975
Si Si5 0.604229 0.831501 0.090069
Si Si6 0.551197 0.828464 0.494031
Si Si7 0.540965 0.831273 0.243658
O O1 0.253463 0.728977 0.839262
O O2 0.340923 0.792655 0.872650
O O3 0.279687 0.000000 0.888880
O O4 0.306475 0.793482 0.041864
O O5 0.664307 0.742747 0.744669
O O6 0.698870 0.000000 0.810699
O O7 0.082433 0.769591 0.784382
O O8 0.089263 0.768508 0.579978
O O9 0.116977 0.000000 0.703331
O O10 0.448635 0.500000 0.131480
O O11 0.499084 0.267536 0.173528
O O12 0.423397 0.271788 0.008919
O O13 0.585523 0.805897 0.197382
O O14 0.596918 0.000000 0.047519
O O15 0.500000 0.783366 0.500000
O O16 0.556083 0.786562 0.372883
O O17 0.560988 0.000000 0.522711
O O18 0.523778 0.000000 0.229820
#
# Coordination Sequence:
#
# PCOD8088306 Si02
#       7
#     8   8   8   8   8   8   8
#     4   9  18  32  51  76 106 135 165 206 258 310
#     4  10  19  32  53  78 103 134 170 210 257 309
#     4  11  22  34  52  77 107 139 172 214 260 304
#     4  11  22  33  49  76 109 141 173 211 255 304
#     4  10  20  35  54  76 105 141 174 207 253 311
#     4  10  20  35  55  76 100 135 177 220 259 298
#     4  10  21  36  54  75 102 139 180 214 251 305
#
# _framework density 17.250980999999999
#
# number of rings (size 3 to 8) (size 9 to 14) (size 15 to 20)
#    0.000    1.857    2.857    1.714    0.000    5.429 
#    0.000    0.000    0.000    0.857    0.000    0.000 
#    0.000    0.000    0.000    0.000    0.000    0.000 
#
# Total GULP energy -347336.763180 kJ/mol
# GULP energy per Si atom -12404.884399 kJ/mol
# Density = 1.721172 g / cm^3
# Si number density = 17.250981 Si / 1000 Ang^3
#
#
#
# Elastic Constant Matrix: (Units=GPa)
#
#
# Indices 1 2 3 4 5 6 
#
# 1 126.1296 46.9635 62.0278 0.0000 6.2080 0.0000
# 2 46.9635 61.7107 31.6768 0.0000 7.3014 0.0000
# 3 62.0278 31.6768 74.3437 0.0000 -0.2687 0.0000
# 4 0.0000 0.0000 0.0000 27.5738 0.0000 6.3459
# 5 6.2080 7.3014 -0.2687 0.0000 30.0769 0.0000
# 6 0.0000 0.0000 0.0000 6.3459 0.0000 24.7412
#
#
#
# Elastic Compliance Matrix: (Units=1/GPa)
#
#
# Indices 1 2 3 4 5 6 
#
# 1 0.015323 -0.006259 -0.010124 0.000000 -0.001734 0.000000
# 2 -0.006259 0.024116 -0.005069 0.000000 -0.004608 0.000000
# 3 -0.010124 -0.005069 0.024071 0.000000 0.003535 0.000000
# 4 0.000000 0.000000 0.000000 0.038541 0.000000 -0.009886
# 5 -0.001734 -0.004608 0.003535 0.000000 0.034756 0.000000
# 6 0.000000 0.000000 0.000000 -0.009886 0.000000 0.042954
#
#
# Mechanical properties :
#
#
# Convention : Reuss Voigt Hill
#
# Bulk Modulus (GPa) = 48.53488 60.39113 54.46300
# Shear Modulus (GPa) = 21.78329 24.57946 23.18138
#
# Velocity S-wave (km/s) = 3.55734 3.77877 3.66973
# Velocity P-wave (km/s) = 6.71331 7.35677 7.04240
#
# Compressibility (1/GPa) = 0.02060374
#
# Stress axis : x y z
#
# Youngs Moduli (GPa) = 65.26139 41.46689 41.54462
#
# Poissons Ratio (x) = 0.25956 0.42059
# Poissons Ratio (y) = 0.40850 0.21061
# Poissons Ratio (z) = 0.66069 0.21022
#
# Static dielectric constant tensor:
#      x y z
#    x 3.285760 0.000000 -0.020780 
#    y 0.000000 3.200820 0.000000 
#    z -0.020780 0.000000 3.073940 
# 
# 
# High freq. dielectric constant tensor:
#      x y z
#    x 1.665180 0.000000 0.006890 
#    y 0.000000 1.669630 0.000000 
#    z 0.006890 0.000000 1.648410 
# 
# From -- ./inp_files/186392.got.cif
#   From: 2010.06.25/outbox.cif.g09.slc.cpg/sg12_94_cif.got.tgz:186392.got - 2010.06.28 00:19:55.
