data_PCOD8088773
_publ_section_title
;
Structure prediction by ZEFSAII (Michael W. Deem and Ramdas Pophale) SiO2 
 PCOD8088773
Probable space group: C 2/M
;
_chemical_formula_sum "Si O2"
_cell_formula_units_Z 56
_cell_length_a 19.023084
_cell_length_b 14.677080
_cell_length_c 11.444770
_cell_angle_alpha 90.000000
_cell_angle_beta 56.757890
_cell_angle_gamma 90.000000
_cell_volume 2672.524947
_symmetry_space_group_name_H-M "C 2/M"
_symmetry_group_IT_number 12
_symmetry_cell_setting 'monoclinic'
loop_
_space_group_symop_operation_xyz
x,y,z
-x,y,-z
-x,-y,-z
x,-y,z
1/2+x,1/2+y,z
1/2-x,1/2+y,-z
1/2-x,1/2-y,-z
1/2+x,1/2-y,z
loop_
_atom_site_type_symbol
_atom_site_label
_atom_site_fract_x
_atom_site_fract_y
_atom_site_fract_z
Si Si1 0.561077 0.607062 0.838833
Si Si2 0.894465 0.601000 0.018308
Si Si3 0.233736 0.897926 0.800330
Si Si4 0.227864 0.851018 0.054415
Si Si5 0.047224 0.761439 0.634733
Si Si6 0.431697 0.106557 0.231409
Si Si7 0.374048 0.258883 0.674027
O O1 0.549321 0.500000 0.824902
O O2 0.657511 0.630025 0.784981
O O3 0.538832 0.660654 0.740458
O O4 0.500000 0.638601 0.000000
O O5 0.928233 0.500000 0.010982
O O6 0.811706 0.598866 0.017957
O O7 0.879096 0.638327 0.164034
O O8 0.972774 0.644270 0.878451
O O9 0.310256 0.826714 0.723315
O O10 0.266061 0.000000 0.740456
O O11 0.194453 0.900655 0.968533
O O12 0.163368 0.846112 0.221289
O O13 0.250000 0.750000 0.000000
O O14 0.096346 0.670899 0.636569
O O15 0.103694 0.796499 0.474952
O O16 0.956792 0.728732 0.668925
O O17 0.421702 0.000000 0.274970
#
# Coordination Sequence:
#
# PCOD8088773 Si02
#       7
#     8   8   8   8   8   8   8
#     4  10  23  42  65  92 117 157 212 258 301 351
#     4   9  18  33  52  83 118 145 187 242 295 355
#     4  10  21  39  64  91 122 155 197 256 307 356
#     4  10  19  32  55  81 113 148 194 238 287 344
#     4  11  23  40  63  84 123 166 201 244 305 362
#     4   9  19  33  55  87 120 153 190 236 296 364
#     4  10  24  40  56  90 120 158 203 243 302 370
#
# _framework density 20.953968
#
# number of rings (size 3 to 8) (size 9 to 14) (size 15 to 20)
#    0.000    2.143    0.000    3.857    6.000    2.857 
#    0.000    5.000    0.000    0.000    0.000    0.000 
#    0.000    0.000    0.000    0.000    0.000    0.000 
#
# Total GULP energy -346904.522134 kJ/mol
# GULP energy per Si atom -12389.447219 kJ/mol
# Density = 2.090628 g / cm^3
# Si number density = 20.953968 Si / 1000 Ang^3
#
#
#
# Elastic Constant Matrix: (Units=GPa)
#
#
# Indices 1 2 3 4 5 6 
#
# 1 90.2133 28.7172 34.9319 0.0000 12.7717 0.0000
# 2 28.7172 71.0070 33.2277 0.0000 8.4328 0.0000
# 3 34.9319 33.2277 116.5792 0.0000 18.7861 0.0000
# 4 0.0000 0.0000 0.0000 21.5650 0.0000 -0.0703
# 5 12.7717 8.4328 18.7861 0.0000 32.8571 0.0000
# 6 0.0000 0.0000 0.0000 -0.0703 0.0000 30.4980
#
#
#
# Elastic Compliance Matrix: (Units=1/GPa)
#
#
# Indices 1 2 3 4 5 6 
#
# 1 0.013750 -0.004048 -0.002503 0.000000 -0.002875 0.000000
# 2 -0.004048 0.017527 -0.003647 0.000000 -0.000839 0.000000
# 3 -0.002503 -0.003647 0.011081 0.000000 -0.004426 0.000000
# 4 0.000000 0.000000 0.000000 0.046372 0.000000 0.000107
# 5 -0.002875 -0.000839 -0.004426 0.000000 0.034298 0.000000
# 6 0.000000 0.000000 0.000000 0.000107 0.000000 0.032789
#
#
# Mechanical properties :
#
#
# Convention : Reuss Voigt Hill
#
# Bulk Modulus (GPa) = 45.53652 52.39480 48.96566
# Shear Modulus (GPa) = 27.24306 29.04555 28.14430
#
# Velocity S-wave (km/s) = 3.60965 3.72716 3.66888
# Velocity P-wave (km/s) = 6.25713 6.60161 6.43168
#
# Compressibility (1/GPa) = 0.02196040
#
# Stress axis : x y z
#
# Youngs Moduli (GPa) = 72.72961 57.05579 90.24713
#
# Poissons Ratio (x) = 0.23097 0.22588
# Poissons Ratio (y) = 0.29442 0.32916
# Poissons Ratio (z) = 0.18204 0.20810
#
# Static dielectric constant tensor:
#      x y z
#    x 3.679090 0.000000 0.209330 
#    y 0.000000 3.663630 0.000000 
#    z 0.209330 0.000000 4.051560 
# 
# 
# High freq. dielectric constant tensor:
#      x y z
#    x 1.828480 0.000000 0.018040 
#    y 0.000000 1.808880 0.000000 
#    z 0.018040 0.000000 1.805930 
# 
# From -- ./inp_files/156520.got.cif
#   From: 2010.06.25/outbox.cif.g09.slc.cpg/sg12_79_cif.got.tgz:156520.got - 2010.06.28 00:19:55.
