data_PCOD8088738
_publ_section_title
;
Structure prediction by ZEFSAII (Michael W. Deem and Ramdas Pophale) SiO2 
 PCOD8088738
Probable space group: C 2/M
;
_chemical_formula_sum "Si O2"
_cell_formula_units_Z 56
_cell_length_a 31.885841
_cell_length_b 19.850462
_cell_length_c 9.032467
_cell_angle_alpha 90.000000
_cell_angle_beta 30.708694
_cell_angle_gamma 90.000000
_cell_volume 2919.564692
_symmetry_space_group_name_H-M "C 2/M"
_symmetry_group_IT_number 12
_symmetry_cell_setting 'monoclinic'
loop_
_space_group_symop_operation_xyz
x,y,z
-x,y,-z
-x,-y,-z
x,-y,z
1/2+x,1/2+y,z
1/2-x,1/2+y,-z
1/2-x,1/2-y,-z
1/2+x,1/2-y,z
loop_
_atom_site_type_symbol
_atom_site_label
_atom_site_fract_x
_atom_site_fract_y
_atom_site_fract_z
Si Si1 0.718719 0.647439 0.008800
Si Si2 0.349750 0.796980 0.814972
Si Si3 0.069844 0.878181 0.631913
Si Si4 0.757419 0.920044 0.372150
Si Si5 0.674595 0.199022 0.768627
Si Si6 0.400990 0.573838 0.146660
Si Si7 0.001114 0.730510 0.165305
O O1 0.686011 0.722142 0.082660
O O2 0.643454 0.603902 0.299644
O O3 0.792300 0.650265 0.902795
O O4 0.747824 0.608701 0.776237
O O5 0.439357 0.807453 0.466599
O O6 0.347964 0.813229 0.992750
O O7 0.106972 0.878838 0.685652
O O8 0.029421 0.806191 0.734759
O O9 0.997789 0.931016 0.812901
O O10 0.690631 0.877143 0.664877
O O11 0.846424 0.901913 0.173450
O O12 0.737584 0.000000 0.435649
O O13 0.750000 0.250000 0.500000
O O14 0.594570 0.228888 0.933790
O O15 0.369862 0.500000 0.287023
O O16 0.000000 0.701775 0.000000
#
# Coordination Sequence:
#
# PCOD8088738 Si02
#       7
#     8   8   8   8   8   8   8
#     4  10  21  36  57  85 119 157 202 260 309 373
#     4  10  22  38  61  89 121 155 209 260 320 368
#     4  10  19  32  54  84 121 158 203 246 303 366
#     4  11  24  40  60  89 126 167 211 258 321 379
#     4  12  23  39  65  90 125 166 211 268 316 369
#     4  10  20  35  53  80 121 170 206 240 297 382
#     4  11  22  35  60  92 125 157 201 264 321 368
#
# _framework density 19.180941000000001
#
# number of rings (size 3 to 8) (size 9 to 14) (size 15 to 20)
#    0.000    1.429    2.857    3.857    4.000    1.714 
#    0.000    2.143    0.000    5.571    0.000    0.000 
#    0.000    0.000    0.000    0.000    0.000    0.000 
#
# Total GULP energy -346946.183617 kJ/mol
# GULP energy per Si atom -12390.935129 kJ/mol
# Density = 1.913728 g / cm^3
# Si number density = 19.180941 Si / 1000 Ang^3
#
#
#
# Elastic Constant Matrix: (Units=GPa)
#
#
# Indices 1 2 3 4 5 6 
#
# 1 150.0761 41.0906 65.4532 0.0000 7.6437 0.0000
# 2 41.0906 64.7253 38.2502 0.0000 -3.7795 0.0000
# 3 65.4532 38.2502 136.2538 0.0000 15.5819 0.0000
# 4 0.0000 0.0000 0.0000 7.3243 0.0000 -14.5281
# 5 7.6437 -3.7795 15.5819 0.0000 33.0341 0.0000
# 6 0.0000 0.0000 0.0000 -14.5281 0.0000 16.2823
#
#
#
# Elastic Compliance Matrix: (Units=1/GPa)
#
#
# Indices 1 2 3 4 5 6 
#
# 1 0.009204 -0.004039 -0.003162 0.000000 -0.001100 0.000000
# 2 -0.004039 0.021055 -0.004601 0.000000 0.005514 0.000000
# 3 -0.003162 -0.004601 0.010704 0.000000 -0.004844 0.000000
# 4 0.000000 0.000000 0.000000 -0.177346 0.000000 -0.158240
# 5 -0.001100 0.005514 -0.004844 0.000000 0.033442 0.000000
# 6 0.000000 0.000000 0.000000 -0.158240 0.000000 -0.079775
#
#
# Mechanical properties :
#
#
# Convention : Reuss Voigt Hill
#
# Bulk Modulus (GPa) = 57.60620 71.18258 64.39439
# Shear Modulus (GPa) = -32.61022 25.07886 -3.76568
#
# Velocity S-wave (km/s) = -4.12774 3.61984 -1.40268
# Velocity P-wave (km/s) = 2.71672 7.39342 5.56971
#
# Compressibility (1/GPa) = 0.01735924
#
# Stress axis : x y z
#
# Youngs Moduli (GPa) = 108.64655 47.49448 93.42610
#
# Poissons Ratio (x) = 0.19183 0.29539
# Poissons Ratio (y) = 0.43882 0.42986
# Poissons Ratio (z) = 0.34351 0.21853
#
# Static dielectric constant tensor:
#      x y z
#    x 3.657280 0.000000 0.033000 
#    y 0.000000 3.375690 0.000000 
#    z 0.033000 0.000000 3.905470 
# 
# 
# High freq. dielectric constant tensor:
#      x y z
#    x 1.756740 0.000000 0.004790 
#    y 0.000000 1.718170 0.000000 
#    z 0.004790 0.000000 1.748100 
# 
# From -- ./inp_files/113345.got.cif
#   From: 2010.06.25/outbox.cif.g09.slc.cpg/sg12_57_cif.got.tgz:113345.got - 2010.06.28 00:19:55.
