data_PCOD8088817
_publ_section_title
;
Structure prediction by ZEFSAII (Michael W. Deem and Ramdas Pophale) SiO2 
 PCOD8088817
Probable space group: C 2/M
;
_chemical_formula_sum "Si O2"
_cell_formula_units_Z 64
_cell_length_a 15.556173
_cell_length_b 9.008557
_cell_length_c 33.177330
_cell_angle_alpha 90.000000
_cell_angle_beta 134.404736
_cell_angle_gamma 90.000000
_cell_volume 3321.619621
_symmetry_space_group_name_H-M "C 2/M"
_symmetry_group_IT_number 12
_symmetry_cell_setting 'monoclinic'
loop_
_space_group_symop_operation_xyz
x,y,z
-x,y,-z
-x,-y,-z
x,-y,z
1/2+x,1/2+y,z
1/2-x,1/2+y,-z
1/2-x,1/2-y,-z
1/2+x,1/2-y,z
loop_
_atom_site_type_symbol
_atom_site_label
_atom_site_fract_x
_atom_site_fract_y
_atom_site_fract_z
Si Si1 0.037570 0.827615 0.133462
Si Si2 0.095326 0.176869 0.063843
Si Si3 0.226289 0.827776 0.262364
Si Si4 0.137957 0.674562 0.865109
Si Si5 0.550865 0.174186 0.263245
Si Si6 0.602158 0.324738 0.563826
Si Si7 0.352817 0.670472 0.631811
Si Si8 0.446441 0.670532 0.361308
O O1 0.057272 0.762177 0.095221
O O2 0.160913 0.799538 0.198338
O O3 0.924416 0.747632 0.116713
O O4 0.005043 0.000000 0.121224
O O5 0.226980 0.236885 0.094835
O O6 0.098841 0.000000 0.066244
O O7 0.000000 0.236509 0.000000
O O8 0.168309 0.725845 0.277691
O O9 0.363710 0.773872 0.305405
O O10 0.217602 0.000000 0.271703
O O11 0.135741 0.500000 0.871712
O O12 0.068059 0.716102 0.801079
O O13 0.551002 0.261657 0.305136
O O14 0.559554 0.000000 0.274555
O O15 0.500000 0.266575 0.500000
O O16 0.617084 0.500000 0.565945
O O17 0.727512 0.255277 0.591258
O O18 0.563186 0.274534 0.595782
O O19 0.328812 0.500000 0.634909
O O20 0.415903 0.687667 0.608748
O O21 0.404521 0.500000 0.343347
#
# Coordination Sequence:
#
# PCOD8088817 Si02
#       8
#     8   8   8   8   8   8   8   8
#     4   9  19  34  53  79 110 142 181 230 277 326
#     4   9  18  34  55  78 107 147 190 228 271 329
#     4  10  19  32  55  83 113 145 185 230 279 337
#     4   9  19  34  54  79 107 142 184 227 277 335
#     4  10  19  33  55  80 113 148 183 229 283 337
#     4  10  22  42  64  83 111 154 195 231 275 330
#     4  11  23  37  56  86 117 148 187 231 280 330
#     4  10  22  38  56  83 118 150 182 228 281 328
#
# _framework density 19.267709
#
# number of rings (size 3 to 8) (size 9 to 14) (size 15 to 20)
#    0.000    2.250    1.250    1.125    1.750    3.250 
#    0.000    0.625    0.000    0.750    0.000    0.000 
#    0.000    0.000    0.000    0.000    0.000    0.000 
#
# Total GULP energy -396814.317214 kJ/mol
# GULP energy per Si atom -12400.447413 kJ/mol
# Density = 1.922385 g / cm^3
# Si number density = 19.267709 Si / 1000 Ang^3
#
#
#
# Elastic Constant Matrix: (Units=GPa)
#
#
# Indices 1 2 3 4 5 6 
#
# 1 145.4746 32.3343 81.5499 0.0000 6.3892 0.0000
# 2 32.3343 35.1432 33.7325 0.0000 2.5616 0.0000
# 3 81.5499 33.7325 130.5042 0.0000 5.1282 0.0000
# 4 0.0000 0.0000 0.0000 19.4715 0.0000 0.2969
# 5 6.3892 2.5616 5.1282 0.0000 26.1712 0.0000
# 6 0.0000 0.0000 0.0000 0.2969 0.0000 27.4520
#
#
#
# Elastic Compliance Matrix: (Units=1/GPa)
#
#
# Indices 1 2 3 4 5 6 
#
# 1 0.011180 -0.004708 -0.005724 0.000000 -0.001147 0.000000
# 2 -0.004708 0.039912 -0.007322 0.000000 -0.001322 0.000000
# 3 -0.005724 -0.007322 0.013150 0.000000 -0.000463 0.000000
# 4 0.000000 0.000000 0.000000 0.051366 0.000000 -0.000556
# 5 -0.001147 -0.001322 -0.000463 0.000000 0.038710 0.000000
# 6 0.000000 0.000000 0.000000 -0.000556 0.000000 0.036433
#
#
# Mechanical properties :
#
#
# Convention : Reuss Voigt Hill
#
# Bulk Modulus (GPa) = 34.80364 67.37282 51.08823
# Shear Modulus (GPa) = 21.20112 25.51929 23.36020
#
# Velocity S-wave (km/s) = 3.32074 3.64326 3.48573
# Velocity P-wave (km/s) = 5.72761 7.26226 6.54010
#
# Compressibility (1/GPa) = 0.02873263
#
# Stress axis : x y z
#
# Youngs Moduli (GPa) = 89.44845 25.05533 76.04475
#
# Poissons Ratio (x) = 0.11797 0.43527
# Poissons Ratio (y) = 0.42115 0.55681
# Poissons Ratio (z) = 0.51199 0.18346
#
# Static dielectric constant tensor:
#      x y z
#    x 3.540280 0.000000 -0.046830 
#    y 0.000000 3.342720 0.000000 
#    z -0.046830 0.000000 3.633660 
# 
# 
# High freq. dielectric constant tensor:
#      x y z
#    x 1.754570 0.000000 -0.000450 
#    y 0.000000 1.733530 0.000000 
#    z -0.000450 0.000000 1.745900 
# 
# From -- ./inp_files/359952.got.cif
#   From: 2010.06.25/outbox.cif.g09.slc.cpg/sg12_180_cif.got.tgz:359952.got - 2010.06.28 00:19:55.
