data_PCOD8088427
_publ_section_title
;
Structure prediction by ZEFSAII (Michael W. Deem and Ramdas Pophale) SiO2 
 PCOD8088427
Probable space group: C 2/M
;
_chemical_formula_sum "Si O2"
_cell_formula_units_Z 64
_cell_length_a 18.745682
_cell_length_b 12.085741
_cell_length_c 21.099435
_cell_angle_alpha 90.000000
_cell_angle_beta 136.287175
_cell_angle_gamma 90.000000
_cell_volume 3303.324163
_symmetry_space_group_name_H-M "C 2/M"
_symmetry_group_IT_number 12
_symmetry_cell_setting 'monoclinic'
loop_
_space_group_symop_operation_xyz
x,y,z
-x,y,-z
-x,-y,-z
x,-y,z
1/2+x,1/2+y,z
1/2-x,1/2+y,-z
1/2-x,1/2-y,-z
1/2+x,1/2-y,z
loop_
_atom_site_type_symbol
_atom_site_label
_atom_site_fract_x
_atom_site_fract_y
_atom_site_fract_z
Si Si1 0.109404 0.369987 0.100407
Si Si2 0.372555 0.128830 0.289388
Si Si3 0.224888 0.875292 0.560358
Si Si4 0.913369 0.277478 0.611042
Si Si5 0.923148 0.123119 0.730894
Si Si6 0.750035 0.739163 0.102992
Si Si7 0.866162 0.876316 0.074314
Si Si8 0.726063 0.240528 0.286234
O O1 0.110970 0.500000 0.115095
O O2 0.199291 0.339182 0.109195
O O3 0.135233 0.305980 0.182242
O O4 0.000000 0.333244 0.000000
O O5 0.493747 0.154523 0.360906
O O6 0.316319 0.155073 0.187425
O O7 0.322095 0.205927 0.310912
O O8 0.357465 0.000000 0.296665
O O9 0.141000 0.790491 0.479692
O O10 0.333698 0.860617 0.593755
O O11 0.234823 0.857014 0.642533
O O12 0.186709 0.000000 0.524960
O O13 0.957736 0.193912 0.692342
O O14 0.819411 0.166288 0.696632
O O15 0.010921 0.124359 0.840770
O O16 0.901258 0.000000 0.691897
O O17 0.822762 0.792708 0.097900
O O18 0.661364 0.665446 0.013417
O O19 0.821752 0.000000 0.056409
#
# Coordination Sequence:
#
# PCOD8088427 Si02
#       8
#     8   8   8   8   8   8   8   8
#     4  10  20  35  54  77 111 155 194 232 276 325
#     4  11  22  39  58  83 115 150 185 230 285 335
#     4  10  21  40  62  84 112 145 185 233 282 336
#     4  10  21  38  60  87 111 143 187 232 281 337
#     4  10  19  35  57  83 113 149 187 229 277 329
#     4  10  20  34  52  79 114 146 189 233 274 332
#     4  10  19  32  53  80 111 147 186 231 277 321
#     4  10  22  37  57  84 116 148 189 232 276 337
#
# _framework density 19.374421999999999
#
# number of rings (size 3 to 8) (size 9 to 14) (size 15 to 20)
#    0.000    1.875    1.250    3.000    0.000    0.500 
#    0.000    5.000    0.000    6.000    0.000    0.000 
#    0.000    0.000    0.000    0.000    0.000    0.000 
#
# Total GULP energy -396817.859972 kJ/mol
# GULP energy per Si atom -12400.558124 kJ/mol
# Density = 1.933033 g / cm^3
# Si number density = 19.374422 Si / 1000 Ang^3
#
#
#
# Elastic Constant Matrix: (Units=GPa)
#
#
# Indices 1 2 3 4 5 6 
#
# 1 76.5372 26.2920 27.0580 0.0000 -0.9199 0.0000
# 2 26.2920 98.2557 27.8561 0.0000 -1.9669 0.0000
# 3 27.0580 27.8561 97.2830 0.0000 -6.2445 0.0000
# 4 0.0000 0.0000 0.0000 18.8823 0.0000 6.2308
# 5 -0.9199 -1.9669 -6.2445 0.0000 28.9749 0.0000
# 6 0.0000 0.0000 0.0000 6.2308 0.0000 21.3114
#
#
#
# Elastic Compliance Matrix: (Units=1/GPa)
#
#
# Indices 1 2 3 4 5 6 
#
# 1 0.015343 -0.003152 -0.003394 0.000000 -0.000458 0.000000
# 2 -0.003152 0.011725 -0.002470 0.000000 0.000164 0.000000
# 3 -0.003394 -0.002470 0.012080 0.000000 0.002328 0.000000
# 4 0.000000 0.000000 0.000000 0.058614 0.000000 -0.017137
# 5 -0.000458 0.000164 0.002328 0.000000 0.035011 0.000000
# 6 0.000000 0.000000 0.000000 -0.017137 0.000000 0.051934
#
#
# Mechanical properties :
#
#
# Convention : Reuss Voigt Hill
#
# Bulk Modulus (GPa) = 47.36111 48.27647 47.81879
# Shear Modulus (GPa) = 23.83476 26.55839 25.19658
#
# Velocity S-wave (km/s) = 3.51125 3.70644 3.61017
# Velocity P-wave (km/s) = 6.39818 6.57941 6.48943
#
# Compressibility (1/GPa) = 0.02111437
#
# Stress axis : x y z
#
# Youngs Moduli (GPa) = 65.17678 85.29080 82.78142
#
# Poissons Ratio (x) = 0.26888 0.28097
# Poissons Ratio (y) = 0.20547 0.20446
# Poissons Ratio (z) = 0.22122 0.21066
#
# Static dielectric constant tensor:
#      x y z
#    x 3.312220 0.000000 -0.073340 
#    y 0.000000 3.501280 0.000000 
#    z -0.073340 0.000000 3.715120 
# 
# 
# High freq. dielectric constant tensor:
#      x y z
#    x 1.741950 0.000000 -0.003590 
#    y 0.000000 1.757570 0.000000 
#    z -0.003590 0.000000 1.763750 
# 
# From -- ./inp_files/250848.got.cif
#   From: 2010.06.25/outbox.cif.g09.slc.cpg/sg12_126_cif.got.tgz:250848.got - 2010.06.28 00:19:55.
