data_PCOD8088305
_publ_section_title
;
Structure prediction by ZEFSAII (Michael W. Deem and Ramdas Pophale) SiO2 
 PCOD8088305
Probable space group: C 2/M
;
_chemical_formula_sum "Si O2"
_cell_formula_units_Z 56
_cell_length_a 18.816935
_cell_length_b 8.548729
_cell_length_c 29.532907
_cell_angle_alpha 90.000000
_cell_angle_beta 37.503151
_cell_angle_gamma 90.000000
_cell_volume 2892.243708
_symmetry_space_group_name_H-M "C 2/M"
_symmetry_group_IT_number 12
_symmetry_cell_setting 'monoclinic'
loop_
_space_group_symop_operation_xyz
x,y,z
-x,y,-z
-x,-y,-z
x,-y,z
1/2+x,1/2+y,z
1/2-x,1/2+y,-z
1/2-x,1/2-y,-z
1/2+x,1/2-y,z
loop_
_atom_site_type_symbol
_atom_site_label
_atom_site_fract_x
_atom_site_fract_y
_atom_site_fract_z
Si Si1 0.958387 0.316099 0.299371
Si Si2 0.378961 0.683702 0.432543
Si Si3 0.542335 0.686608 0.429859
Si Si4 0.154089 0.184008 0.141309
Si Si5 0.698384 0.815787 0.703253
Si Si6 0.918667 0.314296 0.001686
Si Si7 0.984949 0.685116 0.869271
O O1 0.947634 0.500000 0.313334
O O2 0.942606 0.226601 0.354068
O O3 0.860360 0.254644 0.313596
O O4 0.085144 0.276186 0.215196
O O5 0.370054 0.500000 0.441957
O O6 0.250000 0.750000 0.500000
O O7 0.455762 0.752701 0.435135
O O8 0.500000 0.747541 0.500000
O O9 0.543878 0.500000 0.427664
O O10 0.672564 0.755553 0.355367
O O11 0.287196 0.242166 0.076616
O O12 0.107431 0.225575 0.115229
O O13 0.142466 0.000000 0.155893
O O14 0.616580 0.770741 0.787186
O O15 0.709011 0.000000 0.693523
O O16 0.924689 0.500000 0.998823
O O17 0.000000 0.243433 0.000000
O O18 0.966881 0.253435 0.929205
O O19 0.963058 0.500000 0.875175
#
# Coordination Sequence:
#
# PCOD8088305 Si02
#       7
#     8   8   8   8   8   8   8
#     4  10  20  36  57  78 104 136 170 212 260 311
#     4  11  22  35  55  81 108 138 172 213 257 303
#     4   9  17  30  50  76 102 131 172 214 247 289
#     4  10  19  32  53  78 103 133 172 217 261 310
#     4   8  15  29  51  75  96 128 175 218 252 295
#     4   9  18  31  49  75 104 136 178 223 259 301
#     4   9  17  31  52  75 101 135 173 215 263 312
#
# _framework density 19.362130000000001
#
# number of rings (size 3 to 8) (size 9 to 14) (size 15 to 20)
#    0.000    2.571    0.000    3.429    0.000    3.429 
#    0.000    5.000    0.000   21.857    0.000    0.000 
#    0.000    0.000    0.000    0.000    0.000    0.000 
#
# Total GULP energy -347171.352472 kJ/mol
# GULP energy per Si atom -12398.976874 kJ/mol
# Density = 1.931806 g / cm^3
# Si number density = 19.362130 Si / 1000 Ang^3
#
#
#
# Elastic Constant Matrix: (Units=GPa)
#
#
# Indices 1 2 3 4 5 6 
#
# 1 160.7327 14.8319 108.2728 0.0017 -5.0684 0.0644
# 2 14.8319 25.3890 9.6562 0.0055 -3.7318 0.0175
# 3 108.2728 9.6562 157.0187 -0.0009 -8.4521 0.0004
# 4 0.0017 0.0055 -0.0009 25.0247 -0.0004 0.8593
# 5 -5.0684 -3.7318 -8.4521 -0.0004 41.2678 -0.0002
# 6 0.0644 0.0175 0.0004 0.8593 -0.0002 23.0903
#
#
#
# Elastic Compliance Matrix: (Units=1/GPa)
#
#
# Indices 1 2 3 4 5 6 
#
# 1 0.012005 -0.004027 -0.008060 0.000001 -0.000540 -0.000030
# 2 -0.004027 0.042097 0.000371 -0.000008 0.003388 -0.000020
# 3 -0.008060 0.000371 0.011984 0.000000 0.001498 0.000022
# 4 0.000001 -0.000008 0.000000 0.040012 0.000000 -0.001489
# 5 -0.000540 0.003388 0.001498 0.000000 0.024779 -0.000001
# 6 -0.000030 -0.000020 0.000022 -0.001489 -0.000001 0.043364
#
#
# Mechanical properties :
#
#
# Convention : Reuss Voigt Hill
#
# Bulk Modulus (GPa) = 23.44476 67.62913 45.53694
# Shear Modulus (GPa) = 23.59699 31.90185 27.74942
#
# Velocity S-wave (km/s) = 3.49480 4.06352 3.78984
# Velocity P-wave (km/s) = 5.33101 7.55120 6.53607
#
# Compressibility (1/GPa) = 0.04265346
#
# Stress axis : x y z
#
# Youngs Moduli (GPa) = 83.29649 23.75468 83.44371
#
# Poissons Ratio (x) = 0.09567 0.67253
# Poissons Ratio (y) = 0.33547 -0.03093
# Poissons Ratio (z) = 0.67135 -0.00880
#
# Static dielectric constant tensor:
#      x y z
#    x 3.894360 -0.000060 -0.079740 
#    y -0.000060 3.154390 0.000000 
#    z -0.079740 0.000000 3.798210 
# 
# 
# High freq. dielectric constant tensor:
#      x y z
#    x 1.754240 0.000000 -0.000740 
#    y 0.000000 1.713340 0.000000 
#    z -0.000740 0.000000 1.770480 
# 
# From -- ./inp_files/377674.got.cif
#   From: 2010.06.25/outbox.cif.g09.slc.cpg/sg12_189_cif.got.tgz:377674.got - 2010.06.28 00:19:55.
