data_PCOD8089665
_publ_section_title
;
Structure prediction by ZEFSAII (Michael W. Deem and Ramdas Pophale) SiO2 
 PCOD8089665
Probable space group: C 2/M
;
_chemical_formula_sum "Si O2"
_cell_formula_units_Z 64
_cell_length_a 9.403071
_cell_length_b 20.102311
_cell_length_c 18.022163
_cell_angle_alpha 90.000000
_cell_angle_beta 90.000011
_cell_angle_gamma 90.000000
_cell_volume 3406.611564
_symmetry_space_group_name_H-M "C 2/M"
_symmetry_group_IT_number 12
_symmetry_cell_setting 'monoclinic'
loop_
_space_group_symop_operation_xyz
x,y,z
-x,y,-z
-x,-y,-z
x,-y,z
1/2+x,1/2+y,z
1/2-x,1/2+y,-z
1/2-x,1/2-y,-z
1/2+x,1/2-y,z
loop_
_atom_site_type_symbol
_atom_site_label
_atom_site_fract_x
_atom_site_fract_y
_atom_site_fract_z
Si Si1 0.207049 0.575825 0.663454
Si Si2 0.000972 0.077381 0.085650
Si Si3 0.000972 0.077381 0.414350
Si Si4 0.996985 0.308789 0.162180
Si Si5 0.682612 0.316235 0.661563
Si Si6 0.996985 0.308789 0.337820
Si Si7 0.182613 0.816235 0.838437
Si Si8 0.207050 0.575825 0.836546
O O1 0.162105 0.500000 0.646404
O O2 0.347014 0.597012 0.619224
O O3 0.241054 0.586416 0.750000
O O4 0.079090 0.623031 0.636489
O O5 0.152985 0.097012 0.119224
O O6 0.877520 0.115840 0.128455
O O7 0.968243 0.000000 0.097352
O O8 0.000000 0.097639 0.000000
O O9 0.877520 0.115840 0.371545
O O10 0.000000 0.097639 0.500000
O O11 0.968244 0.000000 0.402649
O O12 0.999995 0.304928 0.250000
O O13 0.157037 0.307205 0.131183
O O14 0.910149 0.245565 0.131440
O O15 0.920910 0.376969 0.136490
O O16 0.842962 0.307205 0.631183
O O17 0.589851 0.254435 0.631440
O O18 0.679782 0.321061 0.750000
O O19 0.162105 0.500000 0.853596
#
# Coordination Sequence:
#
# PCOD8089665 Si02
#       8
#     8   8   8   8   8   8   8   8
#     4   9  17  32  54  76 100 133 170 207 251 303
#     4  10  21  36  52  73 103 136 171 212 255 299
#     4  10  21  36  52  73 103 136 171 212 255 299
#     4   9  18  32  53  81 107 131 165 211 255 296
#     4  10  19  33  54  77 103 134 168 207 251 301
#     4   9  18  32  53  81 107 131 165 211 255 296
#     4  10  19  33  54  77 103 134 168 207 251 301
#     4   9  17  32  54  76 100 133 170 207 251 303
#
# _framework density 18.786995999999998
#
# number of rings (size 3 to 8) (size 9 to 14) (size 15 to 20)
#    0.000    2.500    0.000    2.250    0.000    6.500 
#    0.000    8.750    0.000    4.500    0.000    0.000 
#    0.000    0.000    0.000    0.000    0.000    0.000 
#
# Total GULP energy -396866.621419 kJ/mol
# GULP energy per Si atom -12402.081919 kJ/mol
# Density = 1.874424 g / cm^3
# Si number density = 18.786996 Si / 1000 Ang^3
#
#
#
# Elastic Constant Matrix: (Units=GPa)
#
#
# Indices 1 2 3 4 5 6 
#
# 1 181.1912 89.5075 40.5636 0.0000 -0.0002 0.0000
# 2 89.5075 108.7758 32.3323 0.0000 -0.0001 0.0000
# 3 40.5636 32.3323 39.6259 0.0000 -0.0001 0.0000
# 4 0.0000 0.0000 0.0000 18.0288 0.0000 0.0000
# 5 -0.0002 -0.0001 -0.0001 0.0000 6.9774 0.0000
# 6 0.0000 0.0000 0.0000 0.0000 0.0000 42.9727
#
#
#
# Elastic Compliance Matrix: (Units=1/GPa)
#
#
# Indices 1 2 3 4 5 6 
#
# 1 0.009896 -0.006775 -0.004602 0.000000 0.000000 0.000000
# 2 -0.006775 0.016775 -0.006752 0.000000 0.000000 0.000000
# 3 -0.004602 -0.006752 0.035456 0.000000 0.000000 0.000000
# 4 0.000000 0.000000 0.000000 0.055467 0.000000 0.000000
# 5 0.000000 0.000000 0.000000 0.000000 0.143320 0.000000
# 6 0.000000 0.000000 0.000000 0.000000 0.000000 0.023271
#
#
# Mechanical properties :
#
#
# Convention : Reuss Voigt Hill
#
# Bulk Modulus (GPa) = 38.65643 72.71106 55.68374
# Shear Modulus (GPa) = 15.19445 24.74176 19.96811
#
# Velocity S-wave (km/s) = 2.84698 3.63293 3.26370
# Velocity P-wave (km/s) = 5.60606 7.50896 6.62618
#
# Compressibility (1/GPa) = 0.02586892
#
# Stress axis : x y z
#
# Youngs Moduli (GPa) = 101.04748 59.61134 28.20370
#
# Poissons Ratio (x) = 0.40389 0.12980
# Poissons Ratio (y) = 0.68463 0.19043
# Poissons Ratio (z) = 0.46505 0.40249
#
# Static dielectric constant tensor:
#      x y z
#    x 3.630890 0.000000 0.000000 
#    y 0.000000 3.554560 0.000000 
#    z 0.000000 0.000000 3.136620 
# 
# 
# High freq. dielectric constant tensor:
#      x y z
#    x 1.735220 0.000000 0.000000 
#    y 0.000000 1.741630 0.000000 
#    z 0.000000 0.000000 1.693680 
# 
# From -- ./inp_files/258079.got.cif
#   From: 2010.06.25/outbox.cif.g09.slc.cpg/sg12_130_cif.got.tgz:258079.got - 2010.06.28 00:19:55.
