data_PCOD8089781
_publ_section_title
;
Structure prediction by ZEFSAII (Michael W. Deem and Ramdas Pophale) SiO2 
 PCOD8089781
Probable space group: C 2/M
;
_chemical_formula_sum "Si O2"
_cell_formula_units_Z 64
_cell_length_a 25.428641
_cell_length_b 9.138544
_cell_length_c 14.794039
_cell_angle_alpha 90.000000
_cell_angle_beta 82.254821
_cell_angle_gamma 90.000000
_cell_volume 3406.487269
_symmetry_space_group_name_H-M "C 2/M"
_symmetry_group_IT_number 12
_symmetry_cell_setting 'monoclinic'
loop_
_space_group_symop_operation_xyz
x,y,z
-x,y,-z
-x,-y,-z
x,-y,z
1/2+x,1/2+y,z
1/2-x,1/2+y,-z
1/2-x,1/2-y,-z
1/2+x,1/2-y,z
loop_
_atom_site_type_symbol
_atom_site_label
_atom_site_fract_x
_atom_site_fract_y
_atom_site_fract_z
Si Si1 0.994023 0.334578 0.402287
Si Si2 0.426705 0.668230 0.175002
Si Si3 0.837817 0.169941 0.065450
Si Si4 0.779335 0.172317 0.411892
Si Si5 0.653179 0.674525 0.136965
Si Si6 0.537511 0.670177 0.223493
Si Si7 0.245395 0.673306 0.218215
Si Si8 0.380880 0.835022 0.348084
O O1 0.016186 0.500000 0.395925
O O2 0.931971 0.330822 0.398535
O O3 0.000000 0.263617 0.500000
O O4 0.027473 0.246040 0.321397
O O5 0.417364 0.500000 0.208230
O O6 0.398952 0.695089 0.084281
O O7 0.489705 0.704735 0.162861
O O8 0.394891 0.776048 0.246563
O O9 0.794141 0.234727 0.145242
O O10 0.826142 0.000000 0.061102
O O11 0.831881 0.236181 0.966331
O O12 0.750000 0.250000 0.500000
O O13 0.755168 0.216579 0.320087
O O14 0.839202 0.228078 0.404187
O O15 0.777371 0.000000 0.427291
O O16 0.658493 0.500000 0.141835
O O17 0.592834 0.725643 0.169771
O O18 0.691375 0.748583 0.200854
O O19 0.540215 0.500000 0.243516
O O20 0.239066 0.500000 0.209388
O O21 0.358473 0.000000 0.344391
#
# Coordination Sequence:
#
# PCOD8089781 Si02
#       8
#     8   8   8   8   8   8   8   8
#     4   9  19  35  55  77 103 140 182 219 263 325
#     4   9  16  32  56  77 105 144 180 220 268 321
#     4   9  17  33  57  81 107 142 187 228 269 324
#     4  11  23  39  58  81 109 141 182 228 278 330
#     4  10  21  35  53  82 116 146 181 228 273 322
#     4   9  19  33  51  79 111 141 177 221 275 324
#     4  10  21  38  57  77 106 147 188 223 269 330
#     4  10  19  33  54  80 107 136 177 225 271 320
#
# _framework density 18.787682
#
# number of rings (size 3 to 8) (size 9 to 14) (size 15 to 20)
#    0.000    2.375    1.250    1.125    0.000    3.750 
#    0.000    6.875    0.000    0.000    0.000    4.375 
#    0.000    0.000    0.000    0.000    0.000    0.000 
#
# Total GULP energy -396676.968272 kJ/mol
# GULP energy per Si atom -12396.155259 kJ/mol
# Density = 1.874492 g / cm^3
# Si number density = 18.787682 Si / 1000 Ang^3
#
#
#
# Elastic Constant Matrix: (Units=GPa)
#
#
# Indices 1 2 3 4 5 6 
#
# 1 101.9567 36.3558 62.6053 0.0000 -15.4716 0.0000
# 2 36.3558 50.6556 42.3849 0.0000 -2.6706 0.0000
# 3 62.6053 42.3849 127.8208 0.0000 -2.3161 0.0000
# 4 0.0000 0.0000 0.0000 21.0565 0.0000 0.2925
# 5 -15.4716 -2.6706 -2.3161 0.0000 26.4528 0.0000
# 6 0.0000 0.0000 0.0000 0.2925 0.0000 29.6828
#
#
#
# Elastic Compliance Matrix: (Units=1/GPa)
#
#
# Indices 1 2 3 4 5 6 
#
# 1 0.017333 -0.006923 -0.006032 0.000000 0.008910 0.000000
# 2 -0.006923 0.030189 -0.006649 0.000000 -0.001583 0.000000
# 3 -0.006032 -0.006649 0.012927 0.000000 -0.003068 0.000000
# 4 0.000000 0.000000 0.000000 0.047498 0.000000 -0.000468
# 5 0.008910 -0.001583 -0.003068 0.000000 0.042586 0.000000
# 6 0.000000 0.000000 0.000000 -0.000468 0.000000 0.033694
#
#
# Mechanical properties :
#
#
# Convention : Reuss Voigt Hill
#
# Bulk Modulus (GPa) = 47.07719 62.56946 54.82332
# Shear Modulus (GPa) = 21.69049 24.71089 23.20069
#
# Velocity S-wave (km/s) = 3.40149 3.63060 3.51791
# Velocity P-wave (km/s) = 6.36700 7.13798 6.76349
#
# Compressibility (1/GPa) = 0.02124171
#
# Stress axis : x y z
#
# Youngs Moduli (GPa) = 57.69389 33.12440 77.35623
#
# Poissons Ratio (x) = 0.22931 0.46665
# Poissons Ratio (y) = 0.39939 0.51432
# Poissons Ratio (z) = 0.34804 0.22023
#
# Static dielectric constant tensor:
#      x y z
#    x 4.390190 0.000000 -0.353580 
#    y 0.000000 3.345620 0.000000 
#    z -0.353580 0.000000 3.649420 
# 
# 
# High freq. dielectric constant tensor:
#      x y z
#    x 1.738310 0.000000 0.005170 
#    y 0.000000 1.712840 0.000000 
#    z 0.005170 0.000000 1.724650 
# 
# From -- ./inp_files/243852.got.cif
#   From: 2010.06.25/outbox.cif.g09.slc.cpg/sg12_122_cif.got.tgz:243852.got - 2010.06.28 00:19:55.
