data_PCOD8089006
_publ_section_title
;
Structure prediction by ZEFSAII (Michael W. Deem and Ramdas Pophale) SiO2 
 PCOD8089006
Probable space group: C 2/M
;
_chemical_formula_sum "Si O2"
_cell_formula_units_Z 40
_cell_length_a 24.996193
_cell_length_b 16.605477
_cell_length_c 8.439228
_cell_angle_alpha 90.000000
_cell_angle_beta 148.175395
_cell_angle_gamma 90.000000
_cell_volume 1847.152636
_symmetry_space_group_name_H-M "C 2/M"
_symmetry_group_IT_number 12
_symmetry_cell_setting 'monoclinic'
loop_
_space_group_symop_operation_xyz
x,y,z
-x,y,-z
-x,-y,-z
x,-y,z
1/2+x,1/2+y,z
1/2-x,1/2+y,-z
1/2-x,1/2-y,-z
1/2+x,1/2-y,z
loop_
_atom_site_type_symbol
_atom_site_label
_atom_site_fract_x
_atom_site_fract_y
_atom_site_fract_z
Si Si1 0.616554 0.500000 0.605945
Si Si2 0.590105 0.648813 0.334096
Si Si3 0.961156 0.734710 0.225376
Si Si4 0.617671 0.500000 0.954781
Si Si5 0.088366 0.591205 0.097178
Si Si6 0.200677 0.843266 0.308643
O O1 0.643224 0.580500 0.575552
O O2 0.673022 0.500000 0.920150
O O3 0.501000 0.500000 0.364434
O O4 0.543306 0.721556 0.318951
O O5 0.676871 0.681359 0.432247
O O6 0.500000 0.610751 0.000000
O O7 0.000000 0.743163 0.500000
O O8 0.952279 0.640532 0.157198
O O9 0.848580 0.774595 0.927384
O O10 0.644983 0.424628 0.127732
O O11 0.121994 0.500000 0.131945
O O12 0.179321 0.642411 0.407512
O O13 0.000000 0.584901 0.000000
#
# Coordination Sequence:
#
# PCOD8089006 Si02
#       6
#     4   8   8   4   8   8
#     4  11  18  29  52  96 138 161 181 254 330 390
#     4  10  19  32  59  93 127 160 196 249 317 386
#     4  11  23  41  66  98 132 158 199 264 327 374
#     4  11  19  30  56  93 134 159 198 248 328 376
#     4  11  25  46  68  86 119 173 228 257 293 366
#     4  11  21  39  65  95 123 163 214 255 308 377
#
# _framework density 21.654949999999999
#
# number of rings (size 3 to 8) (size 9 to 14) (size 15 to 20)
#    0.000    1.200    5.000    4.500    0.000    0.400 
#    0.000    6.000    0.000    0.000    0.000    0.000 
#    0.000    0.000    0.000    0.000    0.000    0.000 
#
# Total GULP energy -247849.021285 kJ/mol
# GULP energy per Si atom -12392.451064 kJ/mol
# Density = 2.160566 g / cm^3
# Si number density = 21.654950 Si / 1000 Ang^3
#
#
#
# Elastic Constant Matrix: (Units=GPa)
#
#
# Indices 1 2 3 4 5 6 
#
# 1 81.3483 22.7832 65.4581 0.0000 -16.5631 0.0000
# 2 22.7832 140.6829 52.8850 0.0000 -19.0857 0.0000
# 3 65.4581 52.8850 86.2221 0.0000 -6.0320 0.0000
# 4 0.0000 0.0000 0.0000 7.0876 0.0000 23.1067
# 5 -16.5631 -19.0857 -6.0320 0.0000 38.1910 0.0000
# 6 0.0000 0.0000 0.0000 23.1067 0.0000 -112.7173
#
#
#
# Elastic Compliance Matrix: (Units=1/GPa)
#
#
# Indices 1 2 3 4 5 6 
#
# 1 0.043482 0.009486 -0.037594 0.000000 0.017661 0.000000
# 2 0.009486 0.011876 -0.013937 0.000000 0.007848 0.000000
# 3 -0.037594 -0.013937 0.047585 0.000000 -0.015753 0.000000
# 4 0.000000 0.000000 0.000000 0.084570 0.000000 0.017337
# 5 0.017661 0.007848 -0.015753 0.000000 0.035277 0.000000
# 6 0.000000 0.000000 0.000000 0.017337 0.000000 -0.005318
#
#
# Mechanical properties :
#
#
# Convention : Reuss Voigt Hill
#
# Bulk Modulus (GPa) = 53.03960 65.61178 59.32569
# Shear Modulus (GPa) = 16.24189 -2.34592 6.94798
#
# Velocity S-wave (km/s) = 2.74164 -1.04196 1.79317
# Velocity P-wave (km/s) = 5.87949 5.37745 5.63406
#
# Compressibility (1/GPa) = 0.01885384
#
# Stress axis : x y z
#
# Youngs Moduli (GPa) = 22.99784 84.20606 21.01520
#
# Poissons Ratio (x) = -0.79880 0.79004
# Poissons Ratio (y) = -0.21816 0.29288
# Poissons Ratio (z) = 0.86458 1.17356
#
# Static dielectric constant tensor:
#      x y z
#    x 3.952600 0.000000 -0.082160 
#    y 0.000000 4.239400 0.000000 
#    z -0.082160 0.000000 3.889680 
# 
# 
# High freq. dielectric constant tensor:
#      x y z
#    x 1.840750 0.000000 -0.003960 
#    y 0.000000 1.861860 0.000000 
#    z -0.003960 0.000000 1.829650 
# 
# From -- ./inp_files/105897.got.cif
#   From: 2010.06.25/outbox.cif.g09.slc.cpg/sg12_53_cif.got.tgz:105897.got - 2010.06.28 00:19:55.
