data_PCOD8089347
_publ_section_title
;
Structure prediction by ZEFSAII (Michael W. Deem and Ramdas Pophale) SiO2 
 PCOD8089347
Probable space group: C 2/M
;
_chemical_formula_sum "Si O2"
_cell_formula_units_Z 56
_cell_length_a 19.023373
_cell_length_b 9.253508
_cell_length_c 23.692196
_cell_angle_alpha 90.000000
_cell_angle_beta 134.814813
_cell_angle_gamma 90.000000
_cell_volume 2958.580654
_symmetry_space_group_name_H-M "C 2/M"
_symmetry_group_IT_number 12
_symmetry_cell_setting 'monoclinic'
loop_
_space_group_symop_operation_xyz
x,y,z
-x,y,-z
-x,-y,-z
x,-y,z
1/2+x,1/2+y,z
1/2-x,1/2+y,-z
1/2-x,1/2-y,-z
1/2+x,1/2-y,z
loop_
_atom_site_type_symbol
_atom_site_label
_atom_site_fract_x
_atom_site_fract_y
_atom_site_fract_z
Si Si1 0.242635 0.833604 0.437897
Si Si2 0.592912 0.838588 0.093750
Si Si3 0.974962 0.836272 0.661519
Si Si4 0.696230 0.337464 0.065191
Si Si5 0.478507 0.669318 0.116276
Si Si6 0.923442 0.335208 0.191286
Si Si7 0.579065 0.669354 0.496949
O O1 0.250000 0.750000 0.500000
O O2 0.125692 0.823834 0.357496
O O3 0.316984 0.756420 0.435068
O O4 0.275412 0.000000 0.463489
O O5 0.683666 0.768606 0.111189
O O6 0.569615 0.739415 0.134123
O O7 0.621671 0.000000 0.129693
O O8 0.500000 0.841535 0.000000
O O9 0.961802 0.791356 0.588486
O O10 0.055719 0.729798 0.734836
O O11 0.014933 0.000000 0.686530
O O12 0.668924 0.500000 0.069228
O O13 0.808726 0.325565 0.109550
O O14 0.625765 0.293884 0.973161
O O15 0.496916 0.500000 0.132600
O O16 0.482162 0.740036 0.179557
O O17 0.960574 0.500000 0.210436
O O18 0.500000 0.717024 0.500000
O O19 0.602991 0.500000 0.515376
#
# Coordination Sequence:
#
# PCOD8089347 Si02
#       7
#     8   8   8   8   8   8   8
#     4   9  17  31  53  78 103 133 168 203 241 293
#     4   9  17  30  50  74  97 123 162 211 257 306
#     4   9  19  35  52  73 103 138 173 208 254 306
#     4   9  19  34  51  73 100 134 175 217 263 310
#     4  10  19  33  53  73  98 133 173 218 265 310
#     4  11  22  34  50  74 104 136 173 215 257 305
#     4   9  18  34  57  83 108 134 167 208 251 298
#
# _framework density 18.927994999999999
#
# number of rings (size 3 to 8) (size 9 to 14) (size 15 to 20)
#    0.000    2.571    0.000    3.000    0.000    6.571 
#    0.000    1.429    0.000    6.857    0.000    0.000 
#    0.000    0.000    0.000    0.000    0.000    0.000 
#
# Total GULP energy -347085.992140 kJ/mol
# GULP energy per Si atom -12395.928291 kJ/mol
# Density = 1.888491 g / cm^3
# Si number density = 18.927995 Si / 1000 Ang^3
#
#
#
# Elastic Constant Matrix: (Units=GPa)
#
#
# Indices 1 2 3 4 5 6 
#
# 1 97.5015 45.8612 18.2437 0.0000 -17.8263 0.0000
# 2 45.8612 115.5984 30.4622 0.0000 -11.9554 0.0000
# 3 18.2437 30.4622 50.7586 0.0000 -11.1375 0.0000
# 4 0.0000 0.0000 0.0000 26.5701 0.0000 -1.3760
# 5 -17.8263 -11.9554 -11.1375 0.0000 19.9042 0.0000
# 6 0.0000 0.0000 0.0000 -1.3760 0.0000 35.2405
#
#
#
# Elastic Compliance Matrix: (Units=1/GPa)
#
#
# Indices 1 2 3 4 5 6 
#
# 1 0.014259 -0.004579 -0.000203 0.000000 0.009907 0.000000
# 2 -0.004579 0.011917 -0.005512 0.000000 -0.000027 0.000000
# 3 -0.000203 -0.005512 0.025439 0.000000 0.010742 0.000000
# 4 0.000000 0.000000 0.000000 0.037713 0.000000 0.001473
# 5 0.009907 -0.000027 0.010742 0.000000 0.065107 0.000000
# 6 0.000000 0.000000 0.000000 0.001473 0.000000 0.028434
#
#
# Mechanical properties :
#
#
# Convention : Reuss Voigt Hill
#
# Bulk Modulus (GPa) = 32.23044 50.33251 41.28147
# Shear Modulus (GPa) = 23.38638 27.62906 25.50772
#
# Velocity S-wave (km/s) = 3.51884 3.82474 3.67498
# Velocity P-wave (km/s) = 5.79436 6.79368 6.31382
#
# Compressibility (1/GPa) = 0.03102657
#
# Stress axis : x y z
#
# Youngs Moduli (GPa) = 70.12981 83.91438 39.30961
#
# Poissons Ratio (x) = 0.38424 0.00800
# Poissons Ratio (y) = 0.32112 0.21668
# Poissons Ratio (z) = 0.01427 0.46254
#
# Static dielectric constant tensor:
#      x y z
#    x 3.592070 0.000000 0.072290 
#    y 0.000000 3.648570 0.000000 
#    z 0.072290 0.000000 3.157860 
# 
# 
# High freq. dielectric constant tensor:
#      x y z
#    x 1.730220 0.000000 -0.001440 
#    y 0.000000 1.746560 0.000000 
#    z -0.001440 0.000000 1.698910 
# 
# From -- ./inp_files/345477.got.cif
#   From: 2010.06.25/outbox.cif.g09.slc.cpg/sg12_173_cif.got.tgz:345477.got - 2010.06.28 00:19:55.
