data_PCOD8089450
_publ_section_title
;
Structure prediction by ZEFSAII (Michael W. Deem and Ramdas Pophale) SiO2 
 PCOD8089450
Probable space group: C 2/M
;
_chemical_formula_sum "Si O2"
_cell_formula_units_Z 48
_cell_length_a 14.233259
_cell_length_b 8.785881
_cell_length_c 21.326148
_cell_angle_alpha 90.000000
_cell_angle_beta 88.723651
_cell_angle_gamma 90.000000
_cell_volume 2666.209805
_symmetry_space_group_name_H-M "C 2/M"
_symmetry_group_IT_number 12
_symmetry_cell_setting 'monoclinic'
loop_
_space_group_symop_operation_xyz
x,y,z
-x,y,-z
-x,-y,-z
x,-y,z
1/2+x,1/2+y,z
1/2-x,1/2+y,-z
1/2-x,1/2-y,-z
1/2+x,1/2-y,z
loop_
_atom_site_type_symbol
_atom_site_label
_atom_site_fract_x
_atom_site_fract_y
_atom_site_fract_z
Si Si1 0.597743 0.679010 0.666890
Si Si2 0.887311 0.818648 0.665126
Si Si3 0.751235 0.180356 0.237933
Si Si4 0.243344 0.320731 0.095442
Si Si5 0.752672 0.680520 0.568233
Si Si6 0.605020 0.320062 0.006802
O O1 0.587941 0.500000 0.667824
O O2 0.493389 0.747867 0.666524
O O3 0.652872 0.731835 0.728754
O O4 0.657047 0.730118 0.605079
O O5 0.836554 0.764300 0.729112
O O6 0.841252 0.747537 0.603977
O O7 0.883652 0.000000 0.660434
O O8 0.758588 0.234264 0.166174
O O9 0.735753 0.000000 0.244794
O O10 0.231198 0.500000 0.091930
O O11 0.148618 0.246374 0.069914
O O12 0.333260 0.266627 0.053723
O O13 0.762996 0.500000 0.564853
O O14 0.750000 0.750000 0.500000
O O15 0.603358 0.500000 0.013149
O O16 0.500000 0.255119 0.000000
#
# Coordination Sequence:
#
# PCOD8089450 Si02
#       6
#     8   8   8   8   8   8
#     4   8  17  33  52  71  97 131 162 194 239 293
#     4  10  19  33  53  76  98 127 167 205 239 282
#     4   9  18  34  51  70  99 133 163 196 245 297
#     4   9  18  32  50  71  98 130 162 200 247 293
#     4  10  20  36  54  74 101 132 163 199 243 290
#     4   9  18  32  50  72  97 127 165 205 242 288
#
# _framework density 18.003083
#
# number of rings (size 3 to 8) (size 9 to 14) (size 15 to 20)
#    0.000    2.833    0.000    2.000    0.000    3.000 
#    0.000   15.000    0.000    0.000    0.000    0.000 
#    0.000    0.000    0.000    0.000    0.000    0.000 
#
# Total GULP energy -297568.937079 kJ/mol
# GULP energy per Si atom -12398.705712 kJ/mol
# Density = 1.796211 g / cm^3
# Si number density = 18.003083 Si / 1000 Ang^3
#
#
#
# Elastic Constant Matrix: (Units=GPa)
#
#
# Indices 1 2 3 4 5 6 
#
# 1 179.9495 34.7469 85.3114 0.0000 11.4293 0.0000
# 2 34.7469 41.1047 38.4980 0.0000 4.2933 0.0000
# 3 85.3114 38.4980 172.6984 0.0000 10.6389 0.0000
# 4 0.0000 0.0000 0.0000 30.6986 0.0000 1.6974
# 5 11.4293 4.2933 10.6389 0.0000 14.3285 0.0000
# 6 0.0000 0.0000 0.0000 1.6974 0.0000 25.8414
#
#
#
# Elastic Compliance Matrix: (Units=1/GPa)
#
#
# Indices 1 2 3 4 5 6 
#
# 1 0.007802 -0.003595 -0.002867 0.000000 -0.003018 0.000000
# 2 -0.003595 0.032662 -0.005322 0.000000 -0.002967 0.000000
# 3 -0.002867 -0.005322 0.008545 0.000000 -0.002463 0.000000
# 4 0.000000 0.000000 0.000000 0.032694 0.000000 -0.002147
# 5 -0.003018 -0.002967 -0.002463 0.000000 0.074916 0.000000
# 6 0.000000 0.000000 0.000000 -0.002147 0.000000 0.038839
#
#
# Mechanical properties :
#
#
# Convention : Reuss Voigt Hill
#
# Bulk Modulus (GPa) = 39.30772 78.98502 59.14637
# Shear Modulus (GPa) = 21.97751 29.85345 25.91548
#
# Velocity S-wave (km/s) = 3.49773 4.07657 3.79819
# Velocity P-wave (km/s) = 6.18009 8.13180 7.22218
#
# Compressibility (1/GPa) = 0.02544030
#
# Stress axis : x y z
#
# Youngs Moduli (GPa) = 128.17076 30.61685 117.03012
#
# Poissons Ratio (x) = 0.11007 0.33551
# Poissons Ratio (y) = 0.46079 0.62286
# Poissons Ratio (z) = 0.36745 0.16295
#
# Static dielectric constant tensor:
#      x y z
#    x 3.625960 0.000000 -0.009580 
#    y 0.000000 3.143760 0.000000 
#    z -0.009580 0.000000 3.382010 
# 
# 
# High freq. dielectric constant tensor:
#      x y z
#    x 1.701590 0.000000 0.003620 
#    y 0.000000 1.682040 0.000000 
#    z 0.003620 0.000000 1.701080 
# 
# From -- ./inp_files/307995.got.cif
#   From: 2010.06.25/outbox.cif.g09.slc.cpg/sg12_154_cif.got.tgz:307995.got - 2010.06.28 00:19:55.
