data_PCOD8089385
_publ_section_title
;
Structure prediction by ZEFSAII (Michael W. Deem and Ramdas Pophale) SiO2 
 PCOD8089385
Probable space group: C 2/M
;
_chemical_formula_sum "Si O2"
_cell_formula_units_Z 56
_cell_length_a 19.173928
_cell_length_b 9.150554
_cell_length_c 17.285156
_cell_angle_alpha 90.000000
_cell_angle_beta 99.992162
_cell_angle_gamma 90.000000
_cell_volume 2986.714528
_symmetry_space_group_name_H-M "C 2/M"
_symmetry_group_IT_number 12
_symmetry_cell_setting 'monoclinic'
loop_
_space_group_symop_operation_xyz
x,y,z
-x,y,-z
-x,-y,-z
x,-y,z
1/2+x,1/2+y,z
1/2-x,1/2+y,-z
1/2-x,1/2-y,-z
1/2+x,1/2-y,z
loop_
_atom_site_type_symbol
_atom_site_label
_atom_site_fract_x
_atom_site_fract_y
_atom_site_fract_z
Si Si1 0.581409 0.171756 0.017055
Si Si2 0.200954 0.666770 0.933146
Si Si3 0.712510 0.832690 0.316195
Si Si4 0.184033 0.172022 0.157993
Si Si5 0.363694 0.670944 0.568960
Si Si6 0.001237 0.663283 0.592220
Si Si7 0.633704 0.664179 0.608385
O O1 0.625058 0.259777 0.090030
O O2 0.583914 0.000000 0.038186
O O3 0.500000 0.226880 0.000000
O O4 0.618384 0.202239 0.938900
O O5 0.215049 0.500000 0.954695
O O6 0.233807 0.701654 0.854558
O O7 0.250000 0.750000 0.000000
O O8 0.675427 0.748211 0.238955
O O9 0.694942 0.755564 0.393538
O O10 0.797253 0.824894 0.325138
O O11 0.686125 0.000000 0.311772
O O12 0.168883 0.000000 0.163160
O O13 0.359970 0.500000 0.586259
O O14 0.439466 0.732806 0.611561
O O15 0.348879 0.707753 0.476710
O O16 0.992326 0.500000 0.624207
O O17 0.076086 0.728070 0.634840
O O18 0.000000 0.662249 0.500000
O O19 0.602494 0.500000 0.602357
#
# Coordination Sequence:
#
# PCOD8089385 Si02
#       7
#     8   8   8   8   8   8   8
#     4   9  17  32  56  82 105 131 164 205 252 302
#     4   8  15  29  50  74  98 126 160 194 233 287
#     4  11  22  35  51  73 103 137 175 219 266 314
#     4  10  20  34  51  73 103 137 171 208 253 305
#     4  10  19  33  53  75 101 134 174 220 270 318
#     4   9  17  30  50  74  98 126 164 210 257 308
#     4   9  19  34  52  74 100 134 176 221 266 314
#
# _framework density 18.749700000000001
#
# number of rings (size 3 to 8) (size 9 to 14) (size 15 to 20)
#    0.000    2.571    0.000    2.143    0.000    4.286 
#    0.000    1.429    0.000    5.143    0.000    0.000 
#    0.000    0.000    0.000    0.000    0.000    0.000 
#
# Total GULP energy -346940.162663 kJ/mol
# GULP energy per Si atom -12390.720095 kJ/mol
# Density = 1.870703 g / cm^3
# Si number density = 18.749700 Si / 1000 Ang^3
#
#
#
# Elastic Constant Matrix: (Units=GPa)
#
#
# Indices 1 2 3 4 5 6 
#
# 1 98.4209 36.1497 17.4447 0.0000 5.5407 0.0000
# 2 36.1497 92.2094 28.7611 0.0000 5.1452 0.0000
# 3 17.4447 28.7611 48.5546 0.0000 7.3504 0.0000
# 4 0.0000 0.0000 0.0000 22.8612 0.0000 -1.2526
# 5 5.5407 5.1452 7.3504 0.0000 16.4425 0.0000
# 6 0.0000 0.0000 0.0000 -1.2526 0.0000 30.4044
#
#
#
# Elastic Compliance Matrix: (Units=1/GPa)
#
#
# Indices 1 2 3 4 5 6 
#
# 1 0.012072 -0.004124 -0.001581 0.000000 -0.002071 0.000000
# 2 -0.004124 0.014719 -0.007240 0.000000 0.000020 0.000000
# 3 -0.001581 -0.007240 0.026845 0.000000 -0.009202 0.000000
# 4 0.000000 0.000000 0.000000 0.043841 0.000000 0.001806
# 5 -0.002071 0.000020 -0.009202 0.000000 0.065623 0.000000
# 6 0.000000 0.000000 0.000000 0.001806 0.000000 0.032964
#
#
# Mechanical properties :
#
#
# Convention : Reuss Voigt Hill
#
# Bulk Modulus (GPa) = 36.04133 44.87731 40.45932
# Shear Modulus (GPa) = 21.62601 24.39692 23.01146
#
# Velocity S-wave (km/s) = 3.39987 3.61111 3.50708
# Velocity P-wave (km/s) = 5.88865 6.43224 6.16644
#
# Compressibility (1/GPa) = 0.02774593
#
# Stress axis : x y z
#
# Youngs Moduli (GPa) = 82.83653 67.94053 37.25083
#
# Poissons Ratio (x) = 0.28019 0.05889
# Poissons Ratio (y) = 0.34162 0.26970
# Poissons Ratio (z) = 0.13095 0.49189
#
# Static dielectric constant tensor:
#      x y z
#    x 3.749250 0.000000 -0.306530 
#    y 0.000000 2.833440 0.000000 
#    z -0.306530 0.000000 3.122190 
# 
# 
# High freq. dielectric constant tensor:
#      x y z
#    x 1.731410 0.000000 -0.011230 
#    y 0.000000 1.738810 0.000000 
#    z -0.011230 0.000000 1.686750 
# 
# From -- ./inp_files/280410.got.cif
#   From: 2010.06.25/outbox.cif.g09.slc.cpg/sg12_141_cif.got.tgz:280410.got - 2010.06.28 00:19:55.
