data_PCOD8089717
_publ_section_title
;
Structure prediction by ZEFSAII (Michael W. Deem and Ramdas Pophale) SiO2 
 PCOD8089717
Probable space group: C 2/M
;
_chemical_formula_sum "Si O2"
_cell_formula_units_Z 64
_cell_length_a 33.334536
_cell_length_b 8.948136
_cell_length_c 12.300570
_cell_angle_alpha 90.000000
_cell_angle_beta 101.990173
_cell_angle_gamma 90.000000
_cell_volume 3588.991646
_symmetry_space_group_name_H-M "C 2/M"
_symmetry_group_IT_number 12
_symmetry_cell_setting 'monoclinic'
loop_
_space_group_symop_operation_xyz
x,y,z
-x,y,-z
-x,-y,-z
x,-y,z
1/2+x,1/2+y,z
1/2-x,1/2+y,-z
1/2-x,1/2-y,-z
1/2+x,1/2-y,z
loop_
_atom_site_type_symbol
_atom_site_label
_atom_site_fract_x
_atom_site_fract_y
_atom_site_fract_z
Si Si1 0.338457 0.326673 0.670892
Si Si2 0.775803 0.830582 0.105016
Si Si3 0.424201 0.324262 0.114500
Si Si4 0.993833 0.667355 0.868971
Si Si5 0.665849 0.674814 0.574167
Si Si6 0.912284 0.823970 0.857636
Si Si7 0.357543 0.177463 0.225653
Si Si8 0.255600 0.166881 0.676722
O O1 0.334666 0.500000 0.690823
O O2 0.353134 0.294898 0.555403
O O3 0.371562 0.261023 0.774587
O O4 0.293378 0.265350 0.662383
O O5 0.817787 0.742348 0.144411
O O6 0.747994 0.828767 0.195862
O O7 0.786451 0.000000 0.075988
O O8 0.750000 0.750000 0.000000
O O9 0.421461 0.500000 0.135550
O O10 0.470529 0.269514 0.161840
O O11 0.396958 0.234863 0.184163
O O12 0.409459 0.285172 0.983764
O O13 0.995058 0.500000 0.819781
O O14 0.950211 0.743117 0.820032
O O15 0.000000 0.659557 0.000000
O O16 0.664669 0.500000 0.606683
O O17 0.639932 0.766734 0.648082
O O18 0.713368 0.728798 0.600716
O O19 0.918122 0.000000 0.843361
O O20 0.356147 0.000000 0.222295
O O21 0.263972 0.000000 0.639373
#
# Coordination Sequence:
#
# PCOD8089717 Si02
#       8
#     8   8   8   8   8   8   8   8
#     4  10  20  33  53  78 103 135 175 218 260 310
#     4  10  21  36  51  72 104 141 175 214 263 311
#     4  10  19  33  54  78 107 140 171 209 255 311
#     4   9  17  31  51  76 105 137 169 206 252 306
#     4   9  19  37  54  71 101 138 178 221 263 306
#     4   9  19  33  50  78 108 136 168 205 258 316
#     4  11  22  35  53  77 102 135 179 219 258 309
#     4   9  19  33  49  72 100 134 175 217 261 305
#
# _framework density 17.832305999999999
#
# number of rings (size 3 to 8) (size 9 to 14) (size 15 to 20)
#    0.000    2.375    0.000    3.375    1.750    5.500 
#    0.000    0.000    0.000    0.750    0.000    5.250 
#    0.000    0.000    0.000    0.000    0.000    0.000 
#
# Total GULP energy -396787.306856 kJ/mol
# GULP energy per Si atom -12399.603339 kJ/mol
# Density = 1.779172 g / cm^3
# Si number density = 17.832306 Si / 1000 Ang^3
#
#
#
# Elastic Constant Matrix: (Units=GPa)
#
#
# Indices 1 2 3 4 5 6 
#
# 1 95.4619 48.7527 45.8180 0.0000 -15.5837 0.0000
# 2 48.7527 96.3537 36.3341 0.0000 -9.4777 0.0000
# 3 45.8180 36.3341 65.2391 0.0000 -0.7942 0.0000
# 4 0.0000 0.0000 0.0000 22.4141 0.0000 -4.3914
# 5 -15.5837 -9.4777 -0.7942 0.0000 18.4850 0.0000
# 6 0.0000 0.0000 0.0000 -4.3914 0.0000 34.3093
#
#
#
# Elastic Compliance Matrix: (Units=1/GPa)
#
#
# Indices 1 2 3 4 5 6 
#
# 1 0.021034 -0.004660 -0.011996 0.000000 0.014827 0.000000
# 2 -0.004660 0.014980 -0.005027 0.000000 0.003535 0.000000
# 3 -0.011996 -0.005027 0.026412 0.000000 -0.011556 0.000000
# 4 0.000000 0.000000 0.000000 0.045762 0.000000 0.005857
# 5 0.014827 0.003535 -0.011556 0.000000 0.067914 0.000000
# 6 0.000000 0.000000 0.000000 0.005857 0.000000 0.029896
#
#
# Mechanical properties :
#
#
# Convention : Reuss Voigt Hill
#
# Bulk Modulus (GPa) = 52.46834 57.65160 55.05997
# Shear Modulus (GPa) = 19.55279 23.45165 21.50222
#
# Velocity S-wave (km/s) = 3.31491 3.63039 3.47623
# Velocity P-wave (km/s) = 6.64369 7.06916 6.85972
#
# Compressibility (1/GPa) = 0.01905911
#
# Stress axis : x y z
#
# Youngs Moduli (GPa) = 47.54284 66.75655 37.86153
#
# Poissons Ratio (x) = 0.31112 0.45419
# Poissons Ratio (y) = 0.22157 0.19032
# Poissons Ratio (z) = 0.57033 0.33556
#
# Static dielectric constant tensor:
#      x y z
#    x 3.328680 0.000000 0.043520 
#    y 0.000000 3.386330 0.000000 
#    z 0.043520 0.000000 3.299800 
# 
# 
# High freq. dielectric constant tensor:
#      x y z
#    x 1.683490 0.000000 -0.003320 
#    y 0.000000 1.695000 0.000000 
#    z -0.003320 0.000000 1.675050 
# 
# From -- ./inp_files/187527.got.cif
#   From: 2010.06.25/outbox.cif.g09.slc.cpg/sg12_94_cif.got.tgz:187527.got - 2010.06.28 00:19:55.
