data_PCOD8089176
_publ_section_title
;
Structure prediction by ZEFSAII (Michael W. Deem and Ramdas Pophale) SiO2 
 PCOD8089176
Probable space group: C 2/M
;
_chemical_formula_sum "Si O2"
_cell_formula_units_Z 48
_cell_length_a 14.231959
_cell_length_b 8.902152
_cell_length_c 21.243276
_cell_angle_alpha 90.000000
_cell_angle_beta 90.216845
_cell_angle_gamma 90.000000
_cell_volume 2691.398900
_symmetry_space_group_name_H-M "C 2/M"
_symmetry_group_IT_number 12
_symmetry_cell_setting 'monoclinic'
loop_
_space_group_symop_operation_xyz
x,y,z
-x,y,-z
-x,-y,-z
x,-y,z
1/2+x,1/2+y,z
1/2-x,1/2+y,-z
1/2-x,1/2-y,-z
1/2+x,1/2-y,z
loop_
_atom_site_type_symbol
_atom_site_label
_atom_site_fract_x
_atom_site_fract_y
_atom_site_fract_z
Si Si1 0.639693 0.820929 0.168623
Si Si2 0.504234 0.322410 0.264128
Si Si3 0.150146 0.823707 0.832359
Si Si4 0.995692 0.822844 0.928062
Si Si5 0.649717 0.824753 0.499873
Si Si6 0.500799 0.823587 0.602023
O O1 0.592428 0.757669 0.231651
O O2 0.745721 0.754333 0.167453
O O3 0.589430 0.762757 0.105598
O O4 0.636250 0.000000 0.170125
O O5 0.518456 0.500000 0.258257
O O6 0.408920 0.269698 0.228682
O O7 0.497597 0.275119 0.335921
O O8 0.093884 0.776803 0.895321
O O9 0.161916 0.000000 0.829837
O O10 0.977125 0.000000 0.921549
O O11 0.000000 0.770169 0.000000
O O12 0.750000 0.750000 0.500000
O O13 0.591259 0.776123 0.561283
O O14 0.592832 0.780955 0.436883
O O15 0.665760 0.000000 0.501613
O O16 0.502609 0.000000 0.618274
#
# Coordination Sequence:
#
# PCOD8089176 Si02
#       6
#     8   8   8   8   8   8
#     4  10  19  33  52  73 100 132 166 206 249 296
#     4  10  20  35  53  74 100 131 168 207 248 298
#     4   8  17  33  50  70  99 132 163 199 248 297
#     4   9  18  34  53  73 101 134 166 204 249 296
#     4   9  19  35  54  75 103 135 168 206 248 296
#     4   9  19  36  53  73 103 136 166 203 252 298
#
# _framework density 17.834592000000001
#
# number of rings (size 3 to 8) (size 9 to 14) (size 15 to 20)
#    0.000    2.833    0.000    3.000    0.000    3.667 
#    0.000   15.000    0.000    0.000    0.000    0.000 
#    0.000    0.000    0.000    0.000    0.000    0.000 
#
# Total GULP energy -297550.464806 kJ/mol
# GULP energy per Si atom -12397.936034 kJ/mol
# Density = 1.779400 g / cm^3
# Si number density = 17.834592 Si / 1000 Ang^3
#
#
#
# Elastic Constant Matrix: (Units=GPa)
#
#
# Indices 1 2 3 4 5 6 
#
# 1 177.7806 44.3494 75.0179 0.0000 -2.4583 0.0000
# 2 44.3494 50.5824 43.5458 0.0000 -0.1299 0.0000
# 3 75.0179 43.5458 152.7538 0.0000 -1.7070 0.0000
# 4 0.0000 0.0000 0.0000 32.1823 0.0000 1.5748
# 5 -2.4583 -0.1299 -1.7070 0.0000 12.4188 0.0000
# 6 0.0000 0.0000 0.0000 1.5748 0.0000 29.0741
#
#
#
# Elastic Compliance Matrix: (Units=1/GPa)
#
#
# Indices 1 2 3 4 5 6 
#
# 1 0.007883 -0.004754 -0.002503 0.000000 0.001167 0.000000
# 2 -0.004754 0.029073 -0.005970 0.000000 -0.001457 0.000000
# 3 -0.002503 -0.005970 0.009486 0.000000 0.000746 0.000000
# 4 0.000000 0.000000 0.000000 0.031156 0.000000 -0.001688
# 5 0.001167 -0.001457 0.000746 0.000000 0.080841 0.000000
# 6 0.000000 0.000000 0.000000 -0.001688 0.000000 0.034486
#
#
# Mechanical properties :
#
#
# Convention : Reuss Voigt Hill
#
# Bulk Modulus (GPa) = 50.02759 78.54925 64.28842
# Shear Modulus (GPa) = 22.11980 29.28196 25.70088
#
# Velocity S-wave (km/s) = 3.52557 4.05639 3.80026
# Velocity P-wave (km/s) = 6.68466 8.12883 7.44186
#
# Compressibility (1/GPa) = 0.01998897
#
# Stress axis : x y z
#
# Youngs Moduli (GPa) = 126.85150 34.39599 105.41898
#
# Poissons Ratio (x) = 0.16351 0.26389
# Poissons Ratio (y) = 0.60303 0.62931
# Poissons Ratio (z) = 0.31754 0.20533
#
# Static dielectric constant tensor:
#      x y z
#    x 3.455040 0.000000 -0.001960 
#    y 0.000000 3.102150 0.000000 
#    z -0.001960 0.000000 3.339240 
# 
# 
# High freq. dielectric constant tensor:
#      x y z
#    x 1.696110 0.000000 -0.001240 
#    y 0.000000 1.676430 0.000000 
#    z -0.001240 0.000000 1.694630 
# 
# From -- ./inp_files/307979.got.cif
#   From: 2010.06.25/outbox.cif.g09.slc.cpg/sg12_154_cif.got.tgz:307979.got - 2010.06.28 00:19:55.
