data_PCOD8089907
_publ_section_title
;
Structure prediction by ZEFSAII (Michael W. Deem and Ramdas Pophale) SiO2 
 PCOD8089907
Probable space group: C 2/M
;
_chemical_formula_sum "Si O2"
_cell_formula_units_Z 56
_cell_length_a 26.879620
_cell_length_b 8.472476
_cell_length_c 13.365214
_cell_angle_alpha 90.000000
_cell_angle_beta 115.067105
_cell_angle_gamma 90.000000
_cell_volume 2757.068470
_symmetry_space_group_name_H-M "C 2/M"
_symmetry_group_IT_number 12
_symmetry_cell_setting 'monoclinic'
loop_
_space_group_symop_operation_xyz
x,y,z
-x,y,-z
-x,-y,-z
x,-y,z
1/2+x,1/2+y,z
1/2-x,1/2+y,-z
1/2-x,1/2-y,-z
1/2+x,1/2-y,z
loop_
_atom_site_type_symbol
_atom_site_label
_atom_site_fract_x
_atom_site_fract_y
_atom_site_fract_z
Si Si1 0.340860 0.684007 0.606930
Si Si2 0.157316 0.683366 0.605165
Si Si3 0.448999 0.316851 0.389767
Si Si4 0.055760 0.317610 0.832627
Si Si5 0.619675 0.684400 0.055936
Si Si6 0.775970 0.813890 0.741851
Si Si7 0.937269 0.316241 0.807192
O O1 0.333230 0.500000 0.573843
O O2 0.332519 0.791754 0.503309
O O3 0.298017 0.748700 0.653517
O O4 0.401816 0.709584 0.702026
O O5 0.144569 0.500000 0.615906
O O6 0.107320 0.790015 0.598933
O O7 0.213397 0.741582 0.708981
O O8 0.500000 0.255574 0.500000
O O9 0.456180 0.500000 0.371209
O O10 0.447549 0.221034 0.286482
O O11 0.069172 0.500000 0.855956
O O12 0.999950 0.269416 0.840537
O O13 0.105498 0.223473 0.928821
O O14 0.613452 0.500000 0.072893
O O15 0.682382 0.739937 0.134299
O O16 0.577201 0.778328 0.090286
O O17 0.775961 0.000000 0.732993
O O18 0.926991 0.500000 0.775639
#
# Coordination Sequence:
#
# PCOD8089907 Si02
#       7
#     8   8   8   8   8   8   8
#     4  10  19  33  54  83 117 149 185 225 272 329
#     4  11  21  36  58  82 111 146 185 228 277 328
#     4  11  25  43  61  82 109 142 183 229 275 326
#     4  11  23  38  57  82 112 147 187 229 275 326
#     4  10  20  36  58  84 115 148 184 225 272 326
#     4   8  18  35  55  82 114 147 182 225 272 323
#     4  10  20  34  54  83 117 149 184 227 276 328
#
# _framework density 20.311429
#
# number of rings (size 3 to 8) (size 9 to 14) (size 15 to 20)
#    0.000    1.857    0.000    5.143    0.000    7.429 
#    0.000    8.571    0.000    0.000    0.000    0.000 
#    0.000    0.000    0.000    0.000    0.000    0.000 
#
# Total GULP energy -347220.724372 kJ/mol
# GULP energy per Si atom -12400.740156 kJ/mol
# Density = 2.026520 g / cm^3
# Si number density = 20.311429 Si / 1000 Ang^3
#
#
#
# Elastic Constant Matrix: (Units=GPa)
#
#
# Indices 1 2 3 4 5 6 
#
# 1 115.8079 22.4477 55.6769 0.0000 24.6543 0.0000
# 2 22.4477 34.1995 3.7807 0.0000 5.2954 0.0000
# 3 55.6769 3.7807 116.2798 0.0000 17.2334 0.0000
# 4 0.0000 0.0000 0.0000 30.4768 0.0000 -7.9176
# 5 24.6543 5.2954 17.2334 0.0000 20.7228 0.0000
# 6 0.0000 0.0000 0.0000 -7.9176 0.0000 15.2068
#
#
#
# Elastic Compliance Matrix: (Units=1/GPa)
#
#
# Indices 1 2 3 4 5 6 
#
# 1 0.015108 -0.007527 -0.005259 0.000000 -0.011678 0.000000
# 2 -0.007527 0.034199 0.002806 0.000000 -0.002117 0.000000
# 3 -0.005259 0.002806 0.011640 0.000000 -0.004141 0.000000
# 4 0.000000 0.000000 0.000000 0.037944 0.000000 0.019756
# 5 -0.011678 -0.002117 -0.004141 0.000000 0.066134 0.000000
# 6 0.000000 0.000000 0.000000 0.019756 0.000000 0.076047
#
#
# Mechanical properties :
#
#
# Convention : Reuss Voigt Hill
#
# Bulk Modulus (GPa) = 24.39765 47.78865 36.09315
# Shear Modulus (GPa) = 18.20204 25.57341 21.88772
#
# Velocity S-wave (km/s) = 2.99682 3.55218 3.28625
# Velocity P-wave (km/s) = 4.90025 6.35634 5.67518
#
# Compressibility (1/GPa) = 0.04098756
#
# Stress axis : x y z
#
# Youngs Moduli (GPa) = 66.18859 29.24103 85.90787
#
# Poissons Ratio (x) = 0.22010 0.45176
# Poissons Ratio (y) = 0.49821 -0.24106
# Poissons Ratio (z) = 0.34806 -0.08205
#
# Static dielectric constant tensor:
#      x y z
#    x 3.807320 0.000000 0.310280 
#    y 0.000000 3.495270 0.000000 
#    z 0.310280 0.000000 3.751360 
# 
# 
# High freq. dielectric constant tensor:
#      x y z
#    x 1.784530 0.000000 0.019740 
#    y 0.000000 1.787110 0.000000 
#    z 0.019740 0.000000 1.794540 
# 
# From -- ./inp_files/181106.got.cif
#   From: 2010.06.25/outbox.cif.g09.slc.cpg/sg12_91_cif.got.tgz:181106.got - 2010.06.28 00:19:55.
