data_PCOD8089124
_publ_section_title
;
Structure prediction by ZEFSAII (Michael W. Deem and Ramdas Pophale) SiO2 
 PCOD8089124
Probable space group: C 2/M
;
_chemical_formula_sum "Si O2"
_cell_formula_units_Z 48
_cell_length_a 20.606140
_cell_length_b 8.732201
_cell_length_c 23.444655
_cell_angle_alpha 90.000000
_cell_angle_beta 141.265014
_cell_angle_gamma 90.000000
_cell_volume 2639.633425
_symmetry_space_group_name_H-M "C 2/M"
_symmetry_group_IT_number 12
_symmetry_cell_setting 'monoclinic'
loop_
_space_group_symop_operation_xyz
x,y,z
-x,y,-z
-x,-y,-z
x,-y,z
1/2+x,1/2+y,z
1/2-x,1/2+y,-z
1/2-x,1/2-y,-z
1/2+x,1/2-y,z
loop_
_atom_site_type_symbol
_atom_site_label
_atom_site_fract_x
_atom_site_fract_y
_atom_site_fract_z
Si Si1 0.384110 0.820982 0.934976
Si Si2 0.727715 0.825228 0.746249
Si Si3 0.933097 0.674150 0.267188
Si Si4 0.745506 0.817441 0.934215
Si Si5 0.647576 0.182890 0.456154
Si Si6 0.110597 0.681925 0.557394
O O1 0.315373 0.783342 0.832415
O O2 0.343875 0.733728 0.963816
O O3 0.379521 0.000000 0.944972
O O4 0.500000 0.766400 0.000000
O O5 0.621563 0.813121 0.709064
O O6 0.700385 0.769085 0.663707
O O7 0.768735 0.000000 0.775645
O O8 0.948349 0.500000 0.259484
O O9 0.859607 0.748746 0.168017
O O10 0.047811 0.747551 0.352237
O O11 0.745499 0.000000 0.936503
O O12 0.750000 0.750000 0.000000
O O13 0.750000 0.250000 0.500000
O O14 0.641593 0.244299 0.516692
O O15 0.649163 0.000000 0.455947
O O16 0.101310 0.500000 0.550749
O O17 0.000000 0.752952 0.500000
#
# Coordination Sequence:
#
# PCOD8089124 Si02
#       6
#     8   8   8   8   8   8
#     4  10  21  37  55  77 109 144 175 216 270 320
#     4   9  16  30  55  82 100 127 176 224 260 302
#     4   8  15  30  53  75  98 134 173 208 254 308
#     4  10  20  36  59  83 105 137 180 222 265 317
#     4  10  19  33  51  74 106 138 168 208 257 307
#     4   9  15  28  55  80  98 128 175 218 251 301
#
# _framework density 18.184343999999999
#
# number of rings (size 3 to 8) (size 9 to 14) (size 15 to 20)
#    0.000    2.667    1.667    2.000    0.000    1.333 
#    3.000    5.000    0.000    1.000    0.000    0.000 
#    0.000    0.000    0.000    0.000    0.000    0.000 
#
# Total GULP energy -297465.235297 kJ/mol
# GULP energy per Si atom -12394.384804 kJ/mol
# Density = 1.814296 g / cm^3
# Si number density = 18.184344 Si / 1000 Ang^3
#
#
#
# Elastic Constant Matrix: (Units=GPa)
#
#
# Indices 1 2 3 4 5 6 
#
# 1 134.5843 29.5607 93.3162 0.0000 -3.1392 0.0000
# 2 29.5607 37.4439 29.1311 -0.0001 0.4833 -0.0004
# 3 93.3162 29.1311 142.4110 0.0000 -4.2906 0.0000
# 4 0.0000 -0.0001 0.0000 22.4046 0.0000 2.0318
# 5 -3.1392 0.4833 -4.2906 0.0000 37.0332 0.0000
# 6 0.0000 -0.0004 0.0000 2.0318 0.0000 27.3588
#
#
#
# Elastic Compliance Matrix: (Units=1/GPa)
#
#
# Indices 1 2 3 4 5 6 
#
# 1 0.014298 -0.004769 -0.008384 0.000000 0.000303 0.000000
# 2 -0.004769 0.033403 -0.003746 0.000000 -0.001274 0.000000
# 3 -0.008384 -0.003746 0.013309 0.000000 0.000880 0.000000
# 4 0.000000 0.000000 0.000000 0.044936 0.000000 -0.003337
# 5 0.000303 -0.001274 0.000880 0.000000 0.027147 0.000000
# 6 0.000000 0.000000 0.000000 -0.003337 0.000000 0.036799
#
#
# Mechanical properties :
#
#
# Convention : Reuss Voigt Hill
#
# Bulk Modulus (GPa) = 36.75065 68.71725 52.73395
# Shear Modulus (GPa) = 23.50047 28.18804 25.84425
#
# Velocity S-wave (km/s) = 3.59882 3.94144 3.77402
# Velocity P-wave (km/s) = 6.12557 7.65405 6.93207
#
# Compressibility (1/GPa) = 0.02721040
#
# Stress axis : x y z
#
# Youngs Moduli (GPa) = 69.93819 29.93787 75.13833
#
# Poissons Ratio (x) = 0.14277 0.63000
# Poissons Ratio (y) = 0.33353 0.28149
# Poissons Ratio (z) = 0.58640 0.11215
#
# Static dielectric constant tensor:
#      x y z
#    x 3.314360 0.000000 -0.040380 
#    y 0.000000 2.995600 0.000000 
#    z -0.040380 0.000000 3.695900 
# 
# 
# High freq. dielectric constant tensor:
#      x y z
#    x 1.691000 0.000000 -0.004000 
#    y 0.000000 1.668900 0.000000 
#    z -0.004000 0.000000 1.720190 
# 
# From -- ./inp_files/345704.got.cif
#   From: 2010.06.25/outbox.cif.g09.slc.cpg/sg12_173_cif.got.tgz:345704.got - 2010.06.28 00:19:55.
