data_PCOD8089269
_publ_section_title
;
Structure prediction by ZEFSAII (Michael W. Deem and Ramdas Pophale) SiO2 
 PCOD8089269
Probable space group: C 2/M
;
_chemical_formula_sum "Si O2"
_cell_formula_units_Z 56
_cell_length_a 15.837709
_cell_length_b 8.945576
_cell_length_c 25.122358
_cell_angle_alpha 90.000000
_cell_angle_beta 51.518224
_cell_angle_gamma 90.000000
_cell_volume 2786.219203
_symmetry_space_group_name_H-M "C 2/M"
_symmetry_group_IT_number 12
_symmetry_cell_setting 'monoclinic'
loop_
_space_group_symop_operation_xyz
x,y,z
-x,y,-z
-x,-y,-z
x,-y,z
1/2+x,1/2+y,z
1/2-x,1/2+y,-z
1/2-x,1/2-y,-z
1/2+x,1/2-y,z
loop_
_atom_site_type_symbol
_atom_site_label
_atom_site_fract_x
_atom_site_fract_y
_atom_site_fract_z
Si Si1 0.630691 0.330859 0.216139
Si Si2 0.249259 0.323656 0.340613
Si Si3 0.047435 0.167250 0.796919
Si Si4 0.472683 0.176264 0.926976
Si Si5 0.665232 0.823114 0.925392
Si Si6 0.323682 0.678240 0.426581
Si Si7 0.554701 0.175323 0.346263
O O1 0.661674 0.500000 0.222220
O O2 0.514175 0.332385 0.235036
O O3 0.717611 0.267261 0.139355
O O4 0.627836 0.220311 0.267231
O O5 0.267468 0.500000 0.334609
O O6 0.335650 0.260602 0.263106
O O7 0.275958 0.261515 0.389016
O O8 0.127069 0.285197 0.370227
O O9 0.976216 0.258263 0.866691
O O10 0.059084 0.000000 0.814964
O O11 0.579405 0.232170 0.915534
O O12 0.469466 0.000000 0.922600
O O13 0.369006 0.235210 0.002030
O O14 0.661517 0.000000 0.929858
O O15 0.319079 0.500000 0.431980
O O16 0.250000 0.750000 0.500000
O O17 0.445859 0.729702 0.389187
O O18 0.527012 0.000000 0.355239
#
# Coordination Sequence:
#
# PCOD8089269 Si02
#       7
#     8   8   8   8   8   8   8
#     4  10  19  34  55  77 108 152 195 237 290 349
#     4   9  20  39  61  84 119 160 191 228 292 352
#     4  10  19  33  52  76 107 148 190 232 287 350
#     4   9  17  31  49  72 103 140 186 243 295 340
#     4   8  16  31  50  71 101 143 189 236 294 350
#     4  11  23  44  67  91 124 159 191 230 282 342
#     4  11  22  38  62  91 118 152 197 241 284 339
#
# _framework density 20.098922000000002
#
# number of rings (size 3 to 8) (size 9 to 14) (size 15 to 20)
#    0.000    2.286    1.429    2.571    0.000    1.714 
#    0.000    8.571    0.000    0.000    0.000    0.000 
#    0.000    0.000    0.000    0.000    0.000    0.000 
#
# Total GULP energy -347021.284691 kJ/mol
# GULP energy per Si atom -12393.617310 kJ/mol
# Density = 2.005318 g / cm^3
# Si number density = 20.098922 Si / 1000 Ang^3
#
#
#
# Elastic Constant Matrix: (Units=GPa)
#
#
# Indices 1 2 3 4 5 6 
#
# 1 107.8488 29.1606 54.5867 0.0000 -3.3996 0.0001
# 2 29.1606 52.9503 36.9793 0.0001 0.5085 0.0005
# 3 54.5867 36.9793 142.4075 0.0000 -2.1827 0.0000
# 4 0.0000 0.0001 0.0000 33.7768 0.0000 -0.9164
# 5 -3.3996 0.5085 -2.1827 0.0000 28.0322 0.0000
# 6 0.0001 0.0005 0.0000 -0.9164 0.0000 21.6011
#
#
#
# Elastic Compliance Matrix: (Units=1/GPa)
#
#
# Indices 1 2 3 4 5 6 
#
# 1 0.012280 -0.004277 -0.003577 0.000000 0.001288 0.000000
# 2 -0.004277 0.024581 -0.004764 0.000000 -0.001336 -0.000001
# 3 -0.003577 -0.004764 0.009636 0.000000 0.000403 0.000000
# 4 0.000000 0.000000 0.000000 0.029640 0.000000 0.001257
# 5 0.001288 -0.001336 0.000403 0.000000 0.035885 0.000000
# 6 0.000000 -0.000001 0.000000 0.001257 0.000000 0.046347
#
#
# Mechanical properties :
#
#
# Convention : Reuss Voigt Hill
#
# Bulk Modulus (GPa) = 47.03329 60.51774 53.77552
# Shear Modulus (GPa) = 26.22029 28.84735 27.53382
#
# Velocity S-wave (km/s) = 3.61579 3.79260 3.70525
# Velocity P-wave (km/s) = 6.39403 7.02522 6.71705
#
# Compressibility (1/GPa) = 0.02126153
#
# Stress axis : x y z
#
# Youngs Moduli (GPa) = 81.43622 40.68178 103.77444
#
# Poissons Ratio (x) = 0.17400 0.37115
# Poissons Ratio (y) = 0.34832 0.49438
# Poissons Ratio (z) = 0.29126 0.19381
#
# Static dielectric constant tensor:
#      x y z
#    x 3.711590 0.000000 -0.111170 
#    y 0.000000 3.300440 0.000000 
#    z -0.111170 0.000000 3.954370 
# 
# 
# High freq. dielectric constant tensor:
#      x y z
#    x 1.784390 0.000000 -0.006420 
#    y 0.000000 1.747900 0.000000 
#    z -0.006420 0.000000 1.794520 
# 
# From -- ./inp_files/338486.got.cif
#   From: 2010.06.25/outbox.cif.g09.slc.cpg/sg12_170_cif.got.tgz:338486.got - 2010.06.28 00:19:55.
