data_PCOD8089895
_publ_section_title
;
Structure prediction by ZEFSAII (Michael W. Deem and Ramdas Pophale) SiO2 
 PCOD8089895
Probable space group: C 2/M
;
_chemical_formula_sum "Si O2"
_cell_formula_units_Z 64
_cell_length_a 26.630674
_cell_length_b 8.788920
_cell_length_c 14.826979
_cell_angle_alpha 90.000000
_cell_angle_beta 66.080039
_cell_angle_gamma 90.000000
_cell_volume 3172.269755
_symmetry_space_group_name_H-M "C 2/M"
_symmetry_group_IT_number 12
_symmetry_cell_setting 'monoclinic'
loop_
_space_group_symop_operation_xyz
x,y,z
-x,y,-z
-x,-y,-z
x,-y,z
1/2+x,1/2+y,z
1/2-x,1/2+y,-z
1/2-x,1/2-y,-z
1/2+x,1/2-y,z
loop_
_atom_site_type_symbol
_atom_site_label
_atom_site_fract_x
_atom_site_fract_y
_atom_site_fract_z
Si Si1 0.096204 0.322606 0.067457
Si Si2 0.477650 0.822560 0.217631
Si Si3 0.562064 0.329841 0.921293
Si Si4 0.598252 0.335107 0.600921
Si Si5 0.797717 0.320374 0.524839
Si Si6 0.327974 0.316791 0.693890
Si Si7 0.295955 0.179868 0.902192
Si Si8 0.442622 0.335170 0.564011
O O1 0.093731 0.500000 0.046730
O O2 0.145721 0.278763 0.096156
O O3 0.039819 0.268738 0.155516
O O4 0.102826 0.236003 0.967468
O O5 0.435500 0.775342 0.168855
O O6 0.457932 0.736761 0.320980
O O7 0.474190 0.000000 0.236185
O O8 0.581123 0.500000 0.883203
O O9 0.500000 0.326540 0.000000
O O10 0.610974 0.500000 0.637497
O O11 0.648337 0.217585 0.573971
O O12 0.590153 0.365070 0.502694
O O13 0.790591 0.500000 0.539879
O O14 0.750000 0.250000 0.500000
O O15 0.799705 0.248145 0.623816
O O16 0.325684 0.500000 0.694280
O O17 0.294008 0.253903 0.804235
O O18 0.392847 0.259255 0.658687
O O19 0.287009 0.000000 0.900575
O O20 0.250000 0.250000 0.000000
O O21 0.500000 0.242521 0.500000
O O22 0.459852 0.500000 0.593935
#
# Coordination Sequence:
#
# PCOD8089895 Si02
#       8
#     8   8   8   8   8   8   8   8
#     4   9  20  37  57  80 113 154 194 241 303 365
#     4  10  19  33  54  82 118 155 190 234 297 361
#     4   9  17  31  52  79 109 143 188 237 285 343
#     4  10  20  34  54  85 122 153 193 240 284 345
#     4  11  22  41  66  90 121 158 199 246 299 356
#     4  10  21  39  64  92 124 160 201 248 304 360
#     4  11  24  43  63  87 120 158 207 260 309 363
#     4   8  16  31  53  84 120 155 189 230 282 344
#
# _framework density 20.174828999999999
#
# number of rings (size 3 to 8) (size 9 to 14) (size 15 to 20)
#    0.000    2.250    0.000    3.750    1.750    3.000 
#    2.250    0.000    0.000    2.250    0.000    0.000 
#    0.000    0.000    0.000    0.000    0.000    0.000 
#
# Total GULP energy -396492.957940 kJ/mol
# GULP energy per Si atom -12390.404936 kJ/mol
# Density = 2.012891 g / cm^3
# Si number density = 20.174829 Si / 1000 Ang^3
#
#
#
# Elastic Constant Matrix: (Units=GPa)
#
#
# Indices 1 2 3 4 5 6 
#
# 1 100.7770 42.0023 44.9510 0.0000 -3.3225 0.0000
# 2 42.0023 103.8064 44.1069 0.0000 -2.2616 0.0000
# 3 44.9510 44.1069 107.7379 0.0000 -13.8955 0.0000
# 4 0.0000 0.0000 0.0000 29.9512 0.0000 0.6901
# 5 -3.3225 -2.2616 -13.8955 0.0000 26.5617 0.0000
# 6 0.0000 0.0000 0.0000 0.6901 0.0000 26.8310
#
#
#
# Elastic Compliance Matrix: (Units=1/GPa)
#
#
# Indices 1 2 3 4 5 6 
#
# 1 0.013257 -0.003616 -0.004157 0.000000 -0.000824 0.000000
# 2 -0.003616 0.012713 -0.003876 0.000000 -0.001398 0.000000
# 3 -0.004157 -0.003876 0.013398 0.000000 0.006159 0.000000
# 4 0.000000 0.000000 0.000000 0.033407 0.000000 -0.000859
# 5 -0.000824 -0.001398 0.006159 0.000000 0.040648 0.000000
# 6 0.000000 0.000000 0.000000 -0.000859 0.000000 0.037292
#
#
# Mechanical properties :
#
#
# Convention : Reuss Voigt Hill
#
# Bulk Modulus (GPa) = 62.23144 63.82687 63.02915
# Shear Modulus (GPa) = 27.87538 28.75286 28.31412
#
# Velocity S-wave (km/s) = 3.72114 3.77926 3.75031
# Velocity P-wave (km/s) = 7.02678 7.12385 7.07548
#
# Compressibility (1/GPa) = 0.01606905
#
# Stress axis : x y z
#
# Youngs Moduli (GPa) = 75.43199 78.66079 74.64062
#
# Poissons Ratio (x) = 0.28441 0.31030
# Poissons Ratio (y) = 0.27273 0.28933
# Poissons Ratio (z) = 0.31359 0.30491
#
# Static dielectric constant tensor:
#      x y z
#    x 3.657830 0.000000 -0.110710 
#    y 0.000000 3.723950 0.000000 
#    z -0.110710 0.000000 3.794810 
# 
# 
# High freq. dielectric constant tensor:
#      x y z
#    x 1.775300 0.000000 0.000480 
#    y 0.000000 1.783260 0.000000 
#    z 0.000480 0.000000 1.786360 
# 
# From -- ./inp_files/243820.got.cif
#   From: 2010.06.25/outbox.cif.g09.slc.cpg/sg12_122_cif.got.tgz:243820.got - 2010.06.28 00:19:55.
