data_PCOD8089117
_publ_section_title
;
Structure prediction by ZEFSAII (Michael W. Deem and Ramdas Pophale) SiO2 
 PCOD8089117
Probable space group: C 2/M
;
_chemical_formula_sum "Si O2"
_cell_formula_units_Z 64
_cell_length_a 29.951567
_cell_length_b 8.662020
_cell_length_c 14.851976
_cell_angle_alpha 90.000000
_cell_angle_beta 101.127935
_cell_angle_gamma 90.000000
_cell_volume 3780.767105
_symmetry_space_group_name_H-M "C 2/M"
_symmetry_group_IT_number 12
_symmetry_cell_setting 'monoclinic'
loop_
_space_group_symop_operation_xyz
x,y,z
-x,y,-z
-x,-y,-z
x,-y,z
1/2+x,1/2+y,z
1/2-x,1/2+y,-z
1/2-x,1/2-y,-z
1/2+x,1/2-y,z
loop_
_atom_site_type_symbol
_atom_site_label
_atom_site_fract_x
_atom_site_fract_y
_atom_site_fract_z
Si Si1 0.378576 0.180456 0.754613
Si Si2 0.037832 0.177928 0.708580
Si Si3 0.694228 0.820921 0.570312
Si Si4 0.055624 0.680220 0.381383
Si Si5 0.439348 0.680617 0.917546
Si Si6 0.786886 0.320552 0.626865
Si Si7 0.898229 0.822038 0.431105
Si Si8 0.532476 0.819262 0.894013
O O1 0.409951 0.231594 0.683488
O O2 0.392705 0.275287 0.848955
O O3 0.326392 0.222587 0.712633
O O4 0.384079 0.000000 0.775993
O O5 0.078253 0.209896 0.654976
O O6 0.049349 0.277518 0.801216
O O7 0.990579 0.224766 0.644316
O O8 0.034897 0.000000 0.735684
O O9 0.742214 0.776872 0.635010
O O10 0.695477 0.777183 0.465553
O O11 0.654519 0.722167 0.600986
O O12 0.684042 0.000000 0.581569
O O13 0.044183 0.500000 0.370375
O O14 0.078640 0.714471 0.485533
O O15 0.448907 0.500000 0.915527
O O16 0.479982 0.770284 0.883352
O O17 0.436435 0.731771 0.020460
O O18 0.774183 0.500000 0.625725
O O19 0.903445 0.000000 0.461938
O O20 0.536958 0.000000 0.912425
#
# Coordination Sequence:
#
# PCOD8089117 Si02
#       8
#     8   8   8   8   8   8   8   8
#     4  10  19  33  51  75 105 137 171 207 252 305
#     4  11  23  37  51  72 101 137 178 216 254 299
#     4  10  19  33  51  74 100 130 172 214 254 301
#     4  11  21  34  51  73 103 138 177 214 249 294
#     4  11  21  33  52  76 103 133 167 209 256 307
#     4   9  18  33  51  72 101 133 166 208 257 302
#     4  11  23  36  51  71 102 140 177 214 254 300
#     4  11  21  35  53  73  99 133 171 213 257 302
#
# _framework density 16.927781
#
# number of rings (size 3 to 8) (size 9 to 14) (size 15 to 20)
#    0.000    1.500    2.500    4.875    0.000    5.000 
#    0.000    0.000    0.000    0.000    0.000    0.875 
#    0.000    0.000    0.000    0.000    0.000    0.000 
#
# Total GULP energy -396955.730616 kJ/mol
# GULP energy per Si atom -12404.866582 kJ/mol
# Density = 1.688925 g / cm^3
# Si number density = 16.927781 Si / 1000 Ang^3
#
#
#
# Elastic Constant Matrix: (Units=GPa)
#
#
# Indices 1 2 3 4 5 6 
#
# 1 89.4998 28.0979 45.0396 0.0000 6.0480 0.0000
# 2 28.0979 57.0291 28.7864 0.0000 2.4809 0.0000
# 3 45.0396 28.7864 90.2937 0.0000 12.3924 0.0000
# 4 0.0000 0.0000 0.0000 28.4541 0.0000 3.6484
# 5 6.0480 2.4809 12.3924 0.0000 22.2011 0.0000
# 6 0.0000 0.0000 0.0000 3.6484 0.0000 24.4754
#
#
#
# Elastic Compliance Matrix: (Units=1/GPa)
#
#
# Indices 1 2 3 4 5 6 
#
# 1 0.015852 -0.004558 -0.006423 0.000000 -0.000224 0.000000
# 2 -0.004558 0.022255 -0.005036 0.000000 0.001566 0.000000
# 3 -0.006423 -0.005036 0.016859 0.000000 -0.007098 0.000000
# 4 0.000000 0.000000 0.000000 0.035829 0.000000 -0.005341
# 5 -0.000224 0.001566 -0.007098 0.000000 0.048891 0.000000
# 6 0.000000 0.000000 0.000000 -0.005341 0.000000 0.041654
#
#
# Mechanical properties :
#
#
# Convention : Reuss Voigt Hill
#
# Bulk Modulus (GPa) = 43.61110 48.96338 46.28724
# Shear Modulus (GPa) = 22.62271 24.01934 23.32102
#
# Velocity S-wave (km/s) = 3.65968 3.77096 3.71573
# Velocity P-wave (km/s) = 6.60883 6.92443 6.76847
#
# Compressibility (1/GPa) = 0.02292994
#
# Stress axis : x y z
#
# Youngs Moduli (GPa) = 63.08481 44.93432 59.31669
#
# Poissons Ratio (x) = 0.20482 0.38100
# Poissons Ratio (y) = 0.28755 0.29874
# Poissons Ratio (z) = 0.40520 0.22630
#
# Static dielectric constant tensor:
#      x y z
#    x 3.086620 0.000000 0.103570 
#    y 0.000000 3.242390 0.000000 
#    z 0.103570 0.000000 3.128660 
# 
# 
# High freq. dielectric constant tensor:
#      x y z
#    x 1.632850 0.000000 0.013530 
#    y 0.000000 1.666080 0.000000 
#    z 0.013530 0.000000 1.638320 
# 
# From -- ./inp_files/248463.got.cif
#   From: 2010.06.25/outbox.cif.g09.slc.cpg/sg12_125_cif.got.tgz:248463.got - 2010.06.28 00:19:55.
