data_PCOD8089801
_publ_section_title
;
Structure prediction by ZEFSAII (Michael W. Deem and Ramdas Pophale) SiO2 
 PCOD8089801
Probable space group: C 2/M
;
_chemical_formula_sum "Si O2"
_cell_formula_units_Z 56
_cell_length_a 19.974128
_cell_length_b 9.535326
_cell_length_c 26.027389
_cell_angle_alpha 90.000000
_cell_angle_beta 38.633426
_cell_angle_gamma 90.000000
_cell_volume 3094.938009
_symmetry_space_group_name_H-M "C 2/M"
_symmetry_group_IT_number 12
_symmetry_cell_setting 'monoclinic'
loop_
_space_group_symop_operation_xyz
x,y,z
-x,y,-z
-x,-y,-z
x,-y,z
1/2+x,1/2+y,z
1/2-x,1/2+y,-z
1/2-x,1/2-y,-z
1/2+x,1/2-y,z
loop_
_atom_site_type_symbol
_atom_site_label
_atom_site_fract_x
_atom_site_fract_y
_atom_site_fract_z
Si Si1 0.825346 0.664215 0.492950
Si Si2 0.972589 0.335339 0.075303
Si Si3 0.853249 0.657656 0.946906
Si Si4 0.733768 0.337353 0.766283
Si Si5 0.490318 0.158105 0.240189
Si Si6 0.290950 0.341297 0.335136
Si Si7 0.049024 0.334185 0.315949
O O1 0.811172 0.500000 0.488628
O O2 0.750000 0.750000 0.500000
O O3 0.795828 0.699562 0.569504
O O4 0.948424 0.712010 0.411405
O O5 0.950151 0.500000 0.097445
O O6 0.868018 0.250918 0.154713
O O7 0.072076 0.285949 0.051346
O O8 0.000000 0.300937 0.000000
O O9 0.816344 0.500000 0.982151
O O10 0.914007 0.662629 0.856931
O O11 0.750000 0.750000 0.000000
O O12 0.712556 0.500000 0.793242
O O13 0.759957 0.321408 0.690296
O O14 0.838972 0.272522 0.730565
O O15 0.393479 0.244641 0.275884
O O16 0.530534 0.223901 0.269633
O O17 0.449306 0.000000 0.273906
O O18 0.330063 0.500000 0.320295
O O19 0.060808 0.500000 0.309082
#
# Coordination Sequence:
#
# PCOD8089801 Si02
#       7
#     8   8   8   8   8   8   8
#     4  10  19  33  54  80 110 142 179 223 269 316
#     4  10  22  40  58  79 109 144 180 220 271 324
#     4  10  22  37  56  82 110 140 178 223 270 322
#     4  10  21  37  56  80 110 143 181 221 267 322
#     4  10  19  35  57  78 105 145 183 217 265 324
#     4  10  20  33  54  83 109 139 180 225 267 314
#     4   9  19  34  54  80 108 141 180 221 266 317
#
# _framework density 18.094062000000001
#
# number of rings (size 3 to 8) (size 9 to 14) (size 15 to 20)
#    0.000    2.143    2.857    0.000    2.000    2.000 
#    0.000    4.286    0.000    0.000    0.000    3.000 
#    0.000    0.000    0.000    0.000    0.000    0.000 
#
# Total GULP energy -347178.133020 kJ/mol
# GULP energy per Si atom -12399.219036 kJ/mol
# Density = 1.805288 g / cm^3
# Si number density = 18.094062 Si / 1000 Ang^3
#
#
#
# Elastic Constant Matrix: (Units=GPa)
#
#
# Indices 1 2 3 4 5 6 
#
# 1 70.2218 22.1204 31.1966 0.0000 -13.7678 0.0000
# 2 22.1204 43.7220 31.0624 -0.0001 -9.8247 0.0003
# 3 31.1966 31.0624 90.1193 0.0000 -5.9500 0.0000
# 4 0.0000 -0.0001 0.0000 14.7619 0.0000 -5.3569
# 5 -13.7678 -9.8247 -5.9500 0.0000 39.8918 0.0000
# 6 0.0000 0.0003 0.0000 -5.3569 0.0000 25.0826
#
#
#
# Elastic Compliance Matrix: (Units=1/GPa)
#
#
# Indices 1 2 3 4 5 6 
#
# 1 0.018747 -0.005396 -0.004333 0.000000 0.004495 0.000000
# 2 -0.005396 0.033314 -0.009287 0.000000 0.004957 0.000000
# 3 -0.004333 -0.009287 0.015702 0.000000 -0.001441 0.000000
# 4 0.000000 0.000000 0.000000 0.073433 0.000000 0.015683
# 5 0.004495 0.004957 -0.001441 0.000000 0.027625 0.000000
# 6 0.000000 0.000000 0.000000 0.015683 0.000000 0.043218
#
#
# Mechanical properties :
#
#
# Convention : Reuss Voigt Hill
#
# Bulk Modulus (GPa) = 33.63591 41.42465 37.53028
# Shear Modulus (GPa) = 19.23211 23.92618 21.57914
#
# Velocity S-wave (km/s) = 3.26375 3.64032 3.45716
# Velocity P-wave (km/s) = 5.72997 6.37283 6.05993
#
# Compressibility (1/GPa) = 0.02973013
#
# Stress axis : x y z
#
# Youngs Moduli (GPa) = 53.34314 30.01731 63.68473
#
# Poissons Ratio (x) = 0.16198 0.27593
# Poissons Ratio (y) = 0.28785 0.59147
# Poissons Ratio (z) = 0.23112 0.27878
#
# Static dielectric constant tensor:
#      x y z
#    x 3.612040 0.000000 0.160250 
#    y 0.000000 3.263320 0.000000 
#    z 0.160250 0.000000 3.432740 
# 
# 
# High freq. dielectric constant tensor:
#      x y z
#    x 1.710660 0.000000 0.009650 
#    y 0.000000 1.681100 0.000000 
#    z 0.009650 0.000000 1.708120 
# 
# From -- ./inp_files/223141.got.cif
#   From: 2010.06.25/outbox.cif.g09.slc.cpg/sg12_112_cif.got.tgz:223141.got - 2010.06.28 00:19:55.
