data_PCOD8089395
_publ_section_title
;
Structure prediction by ZEFSAII (Michael W. Deem and Ramdas Pophale) SiO2 
 PCOD8089395
Probable space group: C 2/M
;
_chemical_formula_sum "Si O2"
_cell_formula_units_Z 64
_cell_length_a 20.036958
_cell_length_b 9.015267
_cell_length_c 19.590921
_cell_angle_alpha 90.000000
_cell_angle_beta 74.958773
_cell_angle_gamma 90.000000
_cell_volume 3417.630914
_symmetry_space_group_name_H-M "C 2/M"
_symmetry_group_IT_number 12
_symmetry_cell_setting 'monoclinic'
loop_
_space_group_symop_operation_xyz
x,y,z
-x,y,-z
-x,-y,-z
x,-y,z
1/2+x,1/2+y,z
1/2-x,1/2+y,-z
1/2-x,1/2-y,-z
1/2+x,1/2-y,z
loop_
_atom_site_type_symbol
_atom_site_label
_atom_site_fract_x
_atom_site_fract_y
_atom_site_fract_z
Si Si1 0.978359 0.176095 0.652372
Si Si2 0.188273 0.826183 0.932040
Si Si3 0.348366 0.676262 0.600249
Si Si4 0.122043 0.176020 0.558674
Si Si5 0.709115 0.324096 0.663620
Si Si6 0.967454 0.175937 0.810227
Si Si7 0.382633 0.324333 0.186991
Si Si8 0.656045 0.173419 0.077933
O O1 0.914010 0.232509 0.625388
O O2 0.971786 0.232775 0.731413
O O3 0.047623 0.241977 0.599778
O O4 0.982582 0.000000 0.651245
O O5 0.152763 0.764630 0.872666
O O6 0.269962 0.792124 0.907090
O O7 0.174439 0.000000 0.946215
O O8 0.152521 0.740545 0.003385
O O9 0.341315 0.500000 0.603793
O O10 0.355910 0.737302 0.521057
O O11 0.282661 0.747910 0.653937
O O12 0.178225 0.227104 0.599215
O O13 0.116610 0.000000 0.557628
O O14 0.717692 0.500000 0.665310
O O15 0.659262 0.263843 0.736600
O O16 0.902178 0.252774 0.861076
O O17 0.037589 0.226794 0.830122
O O18 0.957569 0.000000 0.816870
O O19 0.378983 0.500000 0.189687
O O20 0.641918 0.000000 0.076528
#
# Coordination Sequence:
#
# PCOD8089395 Si02
#       8
#     8   8   8   8   8   8   8   8
#     4   9  17  31  51  76 102 134 176 217 253 297
#     4   9  19  37  58  78 102 136 174 206 243 299
#     4  10  20  31  49  78 106 133 170 216 264 307
#     4   9  16  31  53  74 100 136 177 217 253 297
#     4  10  19  33  53  75 102 137 175 214 255 301
#     4  10  19  34  56  77 101 135 177 216 249 295
#     4   9  18  34  56  77  98 134 181 217 243 290
#     4  10  21  36  55  81 110 134 161 205 260 307
#
# _framework density 18.726420999999998
#
# number of rings (size 3 to 8) (size 9 to 14) (size 15 to 20)
#    0.000    2.500    1.250    1.125    1.750    2.500 
#    0.000    4.375    0.000    3.000    0.000    0.000 
#    0.000    0.000    0.000    0.000    0.000    0.000 
#
# Total GULP energy -396814.546162 kJ/mol
# GULP energy per Si atom -12400.454568 kJ/mol
# Density = 1.868380 g / cm^3
# Si number density = 18.726421 Si / 1000 Ang^3
#
#
#
# Elastic Constant Matrix: (Units=GPa)
#
#
# Indices 1 2 3 4 5 6 
#
# 1 100.8639 20.9520 41.7881 0.0000 4.6545 0.0000
# 2 20.9520 27.1054 22.8279 0.0000 -2.4715 0.0000
# 3 41.7881 22.8279 104.3978 0.0000 1.9900 0.0000
# 4 0.0000 0.0000 0.0000 19.6808 0.0000 -7.8277
# 5 4.6545 -2.4715 1.9900 0.0000 43.7679 0.0000
# 6 0.0000 0.0000 0.0000 -7.8277 0.0000 23.9729
#
#
#
# Elastic Compliance Matrix: (Units=1/GPa)
#
#
# Indices 1 2 3 4 5 6 
#
# 1 0.012962 -0.007138 -0.003597 0.000000 -0.001618 0.000000
# 2 -0.007138 0.049550 -0.008052 0.000000 0.003923 0.000000
# 3 -0.003597 -0.008052 0.012792 0.000000 -0.000654 0.000000
# 4 0.000000 0.000000 0.000000 0.058394 0.000000 0.019067
# 5 -0.001618 0.003923 -0.000654 0.000000 0.023271 0.000000
# 6 0.000000 0.000000 0.000000 0.019067 0.000000 0.047940
#
#
# Mechanical properties :
#
#
# Convention : Reuss Voigt Hill
#
# Bulk Modulus (GPa) = 26.50440 44.83368 35.66904
# Shear Modulus (GPa) = 19.60335 27.27094 23.43715
#
# Velocity S-wave (km/s) = 3.23898 3.82027 3.54157
# Velocity P-wave (km/s) = 5.30775 6.59186 5.98435
#
# Compressibility (1/GPa) = 0.03772958
#
# Stress axis : x y z
#
# Youngs Moduli (GPa) = 77.14973 20.18175 78.17592
#
# Poissons Ratio (x) = 0.14405 0.28118
# Poissons Ratio (y) = 0.55067 0.62951
# Poissons Ratio (z) = 0.27749 0.16251
#
# Static dielectric constant tensor:
#      x y z
#    x 3.627210 0.000000 0.106350 
#    y 0.000000 2.963610 0.000000 
#    z 0.106350 0.000000 3.614210 
# 
# 
# High freq. dielectric constant tensor:
#      x y z
#    x 1.741150 0.000000 0.000150 
#    y 0.000000 1.679180 0.000000 
#    z 0.000150 0.000000 1.738220 
# 
# From -- ./inp_files/309878.got.cif
#   From: 2010.06.25/outbox.cif.g09.slc.cpg/sg12_155_cif.got.tgz:309878.got - 2010.06.28 00:19:55.
