data_PCOD8089970
_publ_section_title
;
Structure prediction by ZEFSAII (Michael W. Deem and Ramdas Pophale) SiO2 
 PCOD8089970
Probable space group: C 2/M
;
_chemical_formula_sum "Si O2"
_cell_formula_units_Z 56
_cell_length_a 17.136339
_cell_length_b 13.076353
_cell_length_c 18.337957
_cell_angle_alpha 90.000000
_cell_angle_beta 135.067048
_cell_angle_gamma 90.000000
_cell_volume 2902.229973
_symmetry_space_group_name_H-M "C 2/M"
_symmetry_group_IT_number 12
_symmetry_cell_setting 'monoclinic'
loop_
_space_group_symop_operation_xyz
x,y,z
-x,y,-z
-x,-y,-z
x,-y,z
1/2+x,1/2+y,z
1/2-x,1/2+y,-z
1/2-x,1/2-y,-z
1/2+x,1/2-y,z
loop_
_atom_site_type_symbol
_atom_site_label
_atom_site_fract_x
_atom_site_fract_y
_atom_site_fract_z
Si Si1 0.510063 0.238416 0.193688
Si Si2 0.786372 0.117674 0.147970
Si Si3 0.706197 0.879655 0.938121
Si Si4 0.891386 0.119795 0.463612
Si Si5 0.953948 0.883183 0.665903
Si Si6 0.692711 0.121582 0.235849
Si Si7 0.429331 0.618859 0.020280
O O1 0.406364 0.177004 0.159458
O O2 0.585700 0.293085 0.305654
O O3 0.575259 0.160891 0.185415
O O4 0.471459 0.335699 0.123037
O O5 0.716022 0.163376 0.169377
O O6 0.914215 0.131300 0.252812
O O7 0.756500 0.000000 0.120740
O O8 0.749965 0.167057 0.045783
O O9 0.796251 0.861623 0.932444
O O10 0.682829 0.000000 0.930494
O O11 0.891232 0.141430 0.549461
O O12 0.783777 0.165484 0.352734
O O13 0.000000 0.170975 0.500000
O O14 0.894224 0.000000 0.449040
O O15 0.926328 0.000000 0.672458
O O16 0.690837 0.000000 0.234865
O O17 0.455828 0.500000 0.042425
O O18 0.500000 0.666790 0.000000
#
# Coordination Sequence:
#
# PCOD8089970 Si02
#       7
#     8   8   8   8   8   8   8
#     4  12  23  32  52  78 112 144 168 213 264 318
#     4   9  17  32  54  75 102 132 170 219 259 306
#     4  10  21  37  54  75 107 144 176 212 263 317
#     4   9  16  32  57  79 102 133 169 219 274 312
#     4  10  19  33  55  79 100 134 180 220 261 307
#     4  10  21  34  51  82 112 135 169 214 267 326
#     4  10  22  38  53  71 100 140 188 224 243 291
#
# _framework density 19.295507000000001
#
# number of rings (size 3 to 8) (size 9 to 14) (size 15 to 20)
#    0.000    2.000    2.857    1.286    2.000    0.571 
#    0.000    2.143    0.000    0.000    0.000    0.000 
#    0.000    2.286    0.000    0.000    0.000    0.000 
#
# Total GULP energy -346972.210752 kJ/mol
# GULP energy per Si atom -12391.864670 kJ/mol
# Density = 1.925159 g / cm^3
# Si number density = 19.295507 Si / 1000 Ang^3
#
#
#
# Elastic Constant Matrix: (Units=GPa)
#
#
# Indices 1 2 3 4 5 6 
#
# 1 114.3039 36.3700 26.2634 0.0000 -6.8054 0.0000
# 2 36.3700 34.9755 19.7404 0.0000 -8.8568 0.0000
# 3 26.2634 19.7404 61.0267 0.0000 -8.8152 0.0000
# 4 0.0000 0.0000 0.0000 12.0765 0.0000 -0.4096
# 5 -6.8054 -8.8568 -8.8152 0.0000 23.3764 0.0000
# 6 0.0000 0.0000 0.0000 -0.4096 0.0000 19.9448
#
#
#
# Elastic Compliance Matrix: (Units=1/GPa)
#
#
# Indices 1 2 3 4 5 6 
#
# 1 0.013256 -0.013304 -0.001663 0.000000 -0.001808 0.000000
# 2 -0.013304 0.050447 -0.008875 0.000000 0.011893 0.000000
# 3 -0.001663 -0.008875 0.020535 0.000000 0.003897 0.000000
# 4 0.000000 0.000000 0.000000 0.082863 0.000000 0.001702
# 5 -0.001808 0.011893 0.003897 0.000000 0.048227 0.000000
# 6 0.000000 0.000000 0.000000 0.001702 0.000000 0.050173
#
#
# Mechanical properties :
#
#
# Convention : Reuss Voigt Hill
#
# Bulk Modulus (GPa) = 27.35559 41.67263 34.51411
# Shear Modulus (GPa) = 15.36710 19.60836 17.48773
#
# Velocity S-wave (km/s) = 2.82513 3.19127 3.01377
# Velocity P-wave (km/s) = 4.98496 5.93489 5.48054
#
# Compressibility (1/GPa) = 0.03655560
#
# Stress axis : x y z
#
# Youngs Moduli (GPa) = 75.43631 19.82284 48.69633
#
# Poissons Ratio (x) = 0.26373 0.08096
# Poissons Ratio (y) = 1.00363 0.43216
# Poissons Ratio (z) = 0.12542 0.17592
#
# Static dielectric constant tensor:
#      x y z
#    x 3.766780 0.000000 -0.122400 
#    y 0.000000 3.402670 0.000000 
#    z -0.122400 0.000000 3.508270 
# 
# 
# High freq. dielectric constant tensor:
#      x y z
#    x 1.751380 0.000000 -0.007390 
#    y 0.000000 1.736900 0.000000 
#    z -0.007390 0.000000 1.731960 
# 
# From -- ./inp_files/183452.got.cif
#   From: 2010.06.25/outbox.cif.g09.slc.cpg/sg12_92_cif.got.tgz:183452.got - 2010.06.28 00:19:55.
