data_PCOD8089139
_publ_section_title
;
Structure prediction by ZEFSAII (Michael W. Deem and Ramdas Pophale) SiO2 
 PCOD8089139
Probable space group: C 2/M
;
_chemical_formula_sum "Si O2"
_cell_formula_units_Z 48
_cell_length_a 21.525961
_cell_length_b 20.089761
_cell_length_c 18.094332
_cell_angle_alpha 90.000000
_cell_angle_beta 160.802854
_cell_angle_gamma 90.000000
_cell_volume 2572.986915
_symmetry_space_group_name_H-M "C 2/M"
_symmetry_group_IT_number 12
_symmetry_cell_setting 'monoclinic'
loop_
_space_group_symop_operation_xyz
x,y,z
-x,y,-z
-x,-y,-z
x,-y,z
1/2+x,1/2+y,z
1/2-x,1/2+y,-z
1/2-x,1/2-y,-z
1/2+x,1/2-y,z
loop_
_atom_site_type_symbol
_atom_site_label
_atom_site_fract_x
_atom_site_fract_y
_atom_site_fract_z
Si Si1 0.781039 0.427560 0.103357
Si Si2 0.372679 0.574641 0.699951
Si Si3 0.595451 0.788324 0.925420
Si Si4 0.872082 0.797254 0.786475
Si Si5 0.483601 0.927740 0.180838
Si Si6 0.047544 0.291857 0.696354
O O1 0.832317 0.500000 0.197727
O O2 0.894376 0.366061 0.267171
O O3 0.828348 0.431517 0.070532
O O4 0.558054 0.413334 0.858736
O O5 0.366025 0.500000 0.725211
O O6 0.371706 0.624157 0.768473
O O7 0.191611 0.587705 0.445815
O O8 0.446316 0.741597 0.798440
O O9 0.575885 0.864069 0.936011
O O10 0.544828 0.789268 0.782002
O O11 0.807883 0.761592 0.175475
O O12 0.659373 0.774223 0.566576
O O13 0.000000 0.780549 0.000000
O O14 0.483237 0.000000 0.138553
#
# Coordination Sequence:
#
# PCOD8089139 Si02
#       6
#     8   8   8   8   8   8
#     4   9  16  29  50  75 103 133 173 219 256 299
#     4  10  19  33  51  76 109 144 180 213 251 308
#     4  10  20  35  56  79 106 132 181 227 265 313
#     4  12  24  35  51  78 113 149 181 213 258 316
#     4   9  18  32  56  82 104 131 169 224 274 314
#     4  10  20  34  56  78 100 141 180 225 267 304
#
# _framework density 18.655360999999999
#
# number of rings (size 3 to 8) (size 9 to 14) (size 15 to 20)
#    0.000    2.000    5.000    0.500    0.000    1.000 
#    0.000    0.000    0.000    2.500    0.000    1.167 
#    0.000    0.000    0.000    0.000    0.000    0.000 
#
# Total GULP energy -297409.380918 kJ/mol
# GULP energy per Si atom -12392.057538 kJ/mol
# Density = 1.861290 g / cm^3
# Si number density = 18.655361 Si / 1000 Ang^3
#
#
#
# Elastic Constant Matrix: (Units=GPa)
#
#
# Indices 1 2 3 4 5 6 
#
# 1 25.6248 22.9720 33.0606 -0.0003 13.8225 -0.0014
# 2 22.9720 148.8647 55.5118 -0.0007 3.6258 -0.0012
# 3 33.0606 55.5118 128.6764 0.0000 25.4179 -0.0029
# 4 -0.0003 -0.0007 0.0000 18.5876 -0.0003 8.8029
# 5 13.8225 3.6258 25.4179 -0.0003 25.4321 -0.0020
# 6 -0.0014 -0.0012 -0.0029 8.8029 -0.0020 16.4394
#
#
#
# Elastic Compliance Matrix: (Units=1/GPa)
#
#
# Indices 1 2 3 4 5 6 
#
# 1 0.074209 -0.006877 -0.010374 0.000000 -0.028984 0.000000
# 2 -0.006877 0.008815 -0.003148 0.000000 0.005627 0.000000
# 3 -0.010374 -0.003148 0.013198 -0.000001 -0.007103 0.000001
# 4 0.000000 0.000000 -0.000001 0.072078 -0.000002 -0.038596
# 5 -0.028984 0.005627 -0.007103 -0.000002 0.061371 0.000005
# 6 0.000000 0.000000 0.000001 -0.038596 0.000005 0.081497
#
#
# Mechanical properties :
#
#
# Convention : Reuss Voigt Hill
#
# Bulk Modulus (GPa) = 18.04256 58.47275 38.25766
# Shear Modulus (GPa) = 13.49746 24.86658 19.18202
#
# Velocity S-wave (km/s) = 2.69274 3.65491 3.21008
# Velocity P-wave (km/s) = 4.40004 7.01590 5.85590
#
# Compressibility (1/GPa) = 0.05542450
#
# Stress axis : x y z
#
# Youngs Moduli (GPa) = 13.47548 113.43728 75.76958
#
# Poissons Ratio (x) = 0.78011 0.78605
# Poissons Ratio (y) = 0.09267 0.23849
# Poissons Ratio (z) = 0.13980 0.35706
#
# Static dielectric constant tensor:
#      x y z
#    x 3.010620 0.000000 0.480430 
#    y 0.000000 4.193000 -0.000010 
#    z 0.480430 -0.000010 3.390460 
# 
# 
# High freq. dielectric constant tensor:
#      x y z
#    x 1.670090 0.000000 0.055300 
#    y 0.000000 1.747600 0.000000 
#    z 0.055300 0.000000 1.713380 
# 
# From -- ./inp_files/285924.got.cif
#   From: 2010.06.25/outbox.cif.g09.slc.cpg/sg12_143_cif.got.tgz:285924.got - 2010.06.28 00:19:55.
