data_PCOD8089516
_publ_section_title
;
Structure prediction by ZEFSAII (Michael W. Deem and Ramdas Pophale) SiO2 
 PCOD8089516
Probable space group: C 2/M
;
_chemical_formula_sum "Si O2"
_cell_formula_units_Z 56
_cell_length_a 23.536677
_cell_length_b 8.817055
_cell_length_c 15.752815
_cell_angle_alpha 90.000000
_cell_angle_beta 56.944217
_cell_angle_gamma 90.000000
_cell_volume 2739.954759
_symmetry_space_group_name_H-M "C 2/M"
_symmetry_group_IT_number 12
_symmetry_cell_setting 'monoclinic'
loop_
_space_group_symop_operation_xyz
x,y,z
-x,y,-z
-x,-y,-z
x,-y,z
1/2+x,1/2+y,z
1/2-x,1/2+y,-z
1/2-x,1/2-y,-z
1/2+x,1/2-y,z
loop_
_atom_site_type_symbol
_atom_site_label
_atom_site_fract_x
_atom_site_fract_y
_atom_site_fract_z
Si Si1 0.931066 0.680670 0.014518
Si Si2 0.573767 0.178445 0.642353
Si Si3 0.571642 0.820729 0.174132
Si Si4 0.423095 0.673273 0.535744
Si Si5 0.203816 0.323452 0.784732
Si Si6 0.338759 0.674938 0.764034
Si Si7 0.202189 0.820772 0.610273
O O1 0.932032 0.500000 0.011976
O O2 0.867575 0.738243 0.121601
O O3 0.924770 0.744467 0.924173
O O4 0.000000 0.744204 0.000000
O O5 0.498080 0.235688 0.725670
O O6 0.592335 0.219901 0.531126
O O7 0.625298 0.262939 0.662875
O O8 0.581489 0.000000 0.650662
O O9 0.636706 0.763117 0.172803
O O10 0.574090 0.000000 0.171074
O O11 0.500000 0.687650 0.500000
O O12 0.403870 0.500000 0.527763
O O13 0.377821 0.735830 0.649293
O O14 0.199763 0.500000 0.762844
O O15 0.258926 0.298585 0.814511
O O16 0.226737 0.230596 0.683279
O O17 0.356982 0.500000 0.763116
O O18 0.250000 0.750000 0.500000
O O19 0.205998 0.000000 0.599138
#
# Coordination Sequence:
#
# PCOD8089516 Si02
#       7
#     8   8   8   8   8   8   8
#     4   9  18  36  61  85 113 151 197 245 295 349
#     4  11  22  36  58  87 118 154 199 249 296 346
#     4  10  21  36  58  87 116 153 199 244 288 346
#     4  10  19  33  53  78 115 159 196 237 298 358
#     4  10  21  39  62  86 116 156 199 242 293 351
#     4  10  21  36  55  82 116 153 192 241 299 356
#     4  12  25  41  62  88 119 154 193 240 295 354
#
# _framework density 20.438293999999999
#
# number of rings (size 3 to 8) (size 9 to 14) (size 15 to 20)
#    0.000    1.714    1.429    3.429    0.000    6.000 
#    0.000    0.714    0.000    1.714    0.000    0.000 
#    0.000    0.000    0.000    0.000    0.000    0.000 
#
# Total GULP energy -347316.595149 kJ/mol
# GULP energy per Si atom -12404.164112 kJ/mol
# Density = 2.039178 g / cm^3
# Si number density = 20.438294 Si / 1000 Ang^3
#
#
#
# Elastic Constant Matrix: (Units=GPa)
#
#
# Indices 1 2 3 4 5 6 
#
# 1 128.8634 36.0246 60.3067 0.0000 3.8318 0.0000
# 2 36.0246 68.9134 30.9389 0.0001 4.0060 0.0001
# 3 60.3067 30.9389 128.2691 0.0000 6.9658 0.0000
# 4 0.0000 0.0001 0.0000 17.9104 0.0000 9.2438
# 5 3.8318 4.0060 6.9658 0.0000 39.8416 0.0000
# 6 0.0000 0.0001 0.0000 9.2438 0.0000 31.9737
#
#
#
# Elastic Compliance Matrix: (Units=1/GPa)
#
#
# Indices 1 2 3 4 5 6 
#
# 1 0.010753 -0.003761 -0.004152 0.000000 0.000070 0.000000
# 2 -0.003761 0.017625 -0.002429 0.000000 -0.000986 0.000000
# 3 -0.004152 -0.002429 0.010398 0.000000 -0.001174 0.000000
# 4 0.000000 0.000000 0.000000 0.065626 0.000000 -0.018973
# 5 0.000070 -0.000986 -0.001174 0.000000 0.025397 0.000000
# 6 0.000000 0.000000 0.000000 -0.018973 0.000000 0.036761
#
#
# Mechanical properties :
#
#
# Convention : Reuss Voigt Hill
#
# Bulk Modulus (GPa) = 55.27692 64.50957 59.89325
# Shear Modulus (GPa) = 25.86996 31.19685 28.53340
#
# Velocity S-wave (km/s) = 3.56161 3.91115 3.74046
# Velocity P-wave (km/s) = 6.63460 7.21302 6.92985
#
# Compressibility (1/GPa) = 0.01809073
#
# Stress axis : x y z
#
# Youngs Moduli (GPa) = 93.00091 56.73754 96.17236
#
# Poissons Ratio (x) = 0.21339 0.39931
# Poissons Ratio (y) = 0.34977 0.23365
# Poissons Ratio (z) = 0.38615 0.13784
#
# Static dielectric constant tensor:
#      x y z
#    x 3.877710 0.000000 -0.025230 
#    y 0.000000 3.407230 0.000000 
#    z -0.025230 0.000000 3.800300 
# 
# 
# High freq. dielectric constant tensor:
#      x y z
#    x 1.814330 0.000000 0.000270 
#    y 0.000000 1.769200 0.000000 
#    z 0.000270 0.000000 1.800540 
# 
# From -- ./inp_files/238291.got.cif
#   From: 2010.06.25/outbox.cif.g09.slc.cpg/sg12_120_cif.got.tgz:238291.got - 2010.06.28 00:19:55.
