data_PCOD8089704
_publ_section_title
;
Structure prediction by ZEFSAII (Michael W. Deem and Ramdas Pophale) SiO2 
 PCOD8089704
Probable space group: C 2/M
;
_chemical_formula_sum "Si O2"
_cell_formula_units_Z 64
_cell_length_a 15.388389
_cell_length_b 9.315193
_cell_length_c 28.229569
_cell_angle_alpha 90.000000
_cell_angle_beta 122.375162
_cell_angle_gamma 90.000000
_cell_volume 3417.589025
_symmetry_space_group_name_H-M "C 2/M"
_symmetry_group_IT_number 12
_symmetry_cell_setting 'monoclinic'
loop_
_space_group_symop_operation_xyz
x,y,z
-x,y,-z
-x,-y,-z
x,-y,z
1/2+x,1/2+y,z
1/2-x,1/2+y,-z
1/2-x,1/2-y,-z
1/2+x,1/2-y,z
loop_
_atom_site_type_symbol
_atom_site_label
_atom_site_fract_x
_atom_site_fract_y
_atom_site_fract_z
Si Si1 0.096192 0.330028 0.999383
Si Si2 0.185878 0.670033 0.189264
Si Si3 0.827354 0.829564 0.315652
Si Si4 0.035509 0.664997 0.377159
Si Si5 0.255215 0.166434 0.607093
Si Si6 0.047384 0.670478 0.880368
Si Si7 0.780705 0.829738 0.118499
Si Si8 0.599920 0.167460 0.500701
O O1 0.086977 0.500000 0.998871
O O2 0.201639 0.279518 0.054526
O O3 0.091721 0.277989 0.943972
O O4 0.000000 0.263199 0.000000
O O5 0.183660 0.500000 0.187640
O O6 0.249961 0.727287 0.252780
O O7 0.237840 0.725369 0.156202
O O8 0.069328 0.726052 0.158691
O O9 0.782188 0.776703 0.352748
O O10 0.938425 0.763418 0.337583
O O11 0.838074 0.000000 0.317242
O O12 0.998750 0.500000 0.367429
O O13 0.122062 0.690956 0.362216
O O14 0.085054 0.707774 0.441765
O O15 0.198794 0.250079 0.548773
O O16 0.228048 0.000000 0.592944
O O17 0.055734 0.500000 0.876218
O O18 0.111921 0.749435 0.858545
O O19 0.798170 0.000000 0.123175
O O20 0.500000 0.220192 0.500000
O O21 0.619614 0.000000 0.514277
#
# Coordination Sequence:
#
# PCOD8089704 Si02
#       8
#     8   8   8   8   8   8   8   8
#     4   9  15  28  53  79 102 137 177 208 252 317
#     4   9  19  36  55  73 100 140 180 213 252 311
#     4  10  21  37  55  76 101 135 180 221 254 298
#     4  10  21  37  55  79 109 139 169 209 263 313
#     4  10  21  35  54  79 106 135 171 215 259 304
#     4  10  19  33  55  80 105 136 175 216 260 311
#     4  10  19  33  54  78 105 136 172 215 260 310
#     4  10  19  33  55  80 108 139 169 205 256 316
#
# _framework density 18.726652999999999
#
# number of rings (size 3 to 8) (size 9 to 14) (size 15 to 20)
#    0.000    2.250    2.500    0.750    0.000    2.250 
#    0.000    3.125    0.000    0.750    0.000    0.000 
#    0.000    0.000    0.000    0.000    0.000    0.000 
#
# Total GULP energy -396846.657238 kJ/mol
# GULP energy per Si atom -12401.458039 kJ/mol
# Density = 1.868403 g / cm^3
# Si number density = 18.726653 Si / 1000 Ang^3
#
#
#
# Elastic Constant Matrix: (Units=GPa)
#
#
# Indices 1 2 3 4 5 6 
#
# 1 135.1063 32.6098 55.9009 0.0000 17.4762 0.0000
# 2 32.6098 30.0720 32.0549 0.0000 6.4967 0.0000
# 3 55.9009 32.0549 129.7679 0.0000 9.6016 0.0000
# 4 0.0000 0.0000 0.0000 14.4047 0.0000 6.1589
# 5 17.4762 6.4967 9.6016 0.0000 17.9503 0.0000
# 6 0.0000 0.0000 0.0000 6.1589 0.0000 29.8586
#
#
#
# Elastic Compliance Matrix: (Units=1/GPa)
#
#
# Indices 1 2 3 4 5 6 
#
# 1 0.011212 -0.008268 -0.002292 0.000000 -0.006697 0.000000
# 2 -0.008268 0.053341 -0.009143 0.000000 -0.006365 0.000000
# 3 -0.002292 -0.009143 0.010976 0.000000 -0.000331 0.000000
# 4 0.000000 0.000000 0.000000 0.076136 0.000000 -0.015705
# 5 -0.006697 -0.006365 -0.000331 0.000000 0.064710 0.000000
# 6 0.000000 0.000000 0.000000 -0.015705 0.000000 0.036731
#
#
# Mechanical properties :
#
#
# Convention : Reuss Voigt Hill
#
# Bulk Modulus (GPa) = 27.68385 59.56413 43.62399
# Shear Modulus (GPa) = 16.41747 24.06809 20.24278
#
# Velocity S-wave (km/s) = 2.96411 3.58890 3.29136
# Velocity P-wave (km/s) = 5.15071 7.00356 6.14734
#
# Compressibility (1/GPa) = 0.03612214
#
# Stress axis : x y z
#
# Youngs Moduli (GPa) = 89.19186 18.74739 91.10450
#
# Poissons Ratio (x) = 0.15501 0.20880
# Poissons Ratio (y) = 0.73745 0.83301
# Poissons Ratio (z) = 0.20442 0.17142
#
# Static dielectric constant tensor:
#      x y z
#    x 3.560090 0.000000 -0.053150 
#    y 0.000000 3.026230 0.000000 
#    z -0.053150 0.000000 3.531910 
# 
# 
# High freq. dielectric constant tensor:
#      x y z
#    x 1.742270 0.000000 0.000280 
#    y 0.000000 1.689460 0.000000 
#    z 0.000280 0.000000 1.726140 
# 
# From -- ./inp_files/375615.got.cif
#   From: 2010.06.25/outbox.cif.g09.slc.cpg/sg12_188_cif.got.tgz:375615.got - 2010.06.28 00:19:55.
