data_PCOD8089247
_publ_section_title
;
Structure prediction by ZEFSAII (Michael W. Deem and Ramdas Pophale) SiO2 
 PCOD8089247
Probable space group: C 2/M
;
_chemical_formula_sum "Si O2"
_cell_formula_units_Z 56
_cell_length_a 24.101725
_cell_length_b 13.978516
_cell_length_c 8.998499
_cell_angle_alpha 90.000000
_cell_angle_beta 105.196894
_cell_angle_gamma 90.000000
_cell_volume 2925.636731
_symmetry_space_group_name_H-M "C 2/M"
_symmetry_group_IT_number 12
_symmetry_cell_setting 'monoclinic'
loop_
_space_group_symop_operation_xyz
x,y,z
-x,y,-z
-x,-y,-z
x,-y,z
1/2+x,1/2+y,z
1/2-x,1/2+y,-z
1/2-x,1/2-y,-z
1/2+x,1/2-y,z
loop_
_atom_site_type_symbol
_atom_site_label
_atom_site_fract_x
_atom_site_fract_y
_atom_site_fract_z
Si Si1 0.107943 0.724270 0.974254
Si Si2 0.758137 0.269318 0.336588
Si Si3 0.363527 0.105564 0.445739
Si Si4 0.430767 0.107293 0.779964
Si Si5 0.723059 0.890045 0.088643
Si Si6 0.033939 0.670819 0.661217
Si Si7 0.317295 0.607798 0.900286
O O1 0.071086 0.682450 0.086200
O O2 0.163118 0.655066 0.990314
O O3 0.126316 0.832849 0.017502
O O4 0.069830 0.737407 0.798909
O O5 0.750000 0.250000 0.500000
O O6 0.821054 0.314089 0.351373
O O7 0.749918 0.170733 0.241882
O O8 0.709298 0.346959 0.266095
O O9 0.378786 0.129265 0.628607
O O10 0.421093 0.100483 0.387175
O O11 0.334907 0.000000 0.416110
O O12 0.490560 0.111779 0.733628
O O13 0.424819 0.000000 0.840442
O O14 0.713413 0.000000 0.132472
O O15 0.767865 0.883470 0.987842
O O16 0.000000 0.725131 0.500000
O O17 0.337263 0.500000 0.886136
#
# Coordination Sequence:
#
# PCOD8089247 Si02
#       7
#     8   8   8   8   8   8   8
#     4  11  20  34  55  77 104 137 173 214 265 315
#     4  11  21  33  53  83 115 142 175 217 264 315
#     4  10  19  33  52  75 108 145 175 208 255 311
#     4  10  21  34  50  77 109 139 173 213 260 315
#     4  10  21  36  54  78 108 144 182 216 257 317
#     4  10  21  35  53  77 104 135 172 215 264 317
#     4  10  21  37  56  78 106 142 184 221 256 310
#
# _framework density 19.141134000000001
#
# number of rings (size 3 to 8) (size 9 to 14) (size 15 to 20)
#    0.000    1.714    0.000    6.857    0.000    8.000 
#    0.000    0.000    0.000    2.143    0.000    2.000 
#    0.000    0.000    0.000    0.000    0.000    0.000 
#
# Total GULP energy -347041.988672 kJ/mol
# GULP energy per Si atom -12394.356738 kJ/mol
# Density = 1.909757 g / cm^3
# Si number density = 19.141134 Si / 1000 Ang^3
#
#
#
# Elastic Constant Matrix: (Units=GPa)
#
#
# Indices 1 2 3 4 5 6 
#
# 1 71.8842 38.6929 39.4925 0.0000 7.0701 0.0000
# 2 38.6929 141.5673 66.8662 0.0000 11.9372 0.0000
# 3 39.4925 66.8662 146.0840 0.0000 16.1484 0.0000
# 4 0.0000 0.0000 0.0000 21.0633 0.0000 -0.8949
# 5 7.0701 11.9372 16.1484 0.0000 34.6278 0.0000
# 6 0.0000 0.0000 0.0000 -0.8949 0.0000 17.4022
#
#
#
# Elastic Compliance Matrix: (Units=1/GPa)
#
#
# Indices 1 2 3 4 5 6 
#
# 1 0.017461 -0.003203 -0.003144 0.000000 -0.000994 0.000000
# 2 -0.003203 0.009651 -0.003433 0.000000 -0.001072 0.000000
# 3 -0.003144 -0.003433 0.009558 0.000000 -0.002632 0.000000
# 4 0.000000 0.000000 0.000000 0.047580 0.000000 0.002447
# 5 -0.000994 -0.001072 -0.002632 0.000000 0.030678 0.000000
# 6 0.000000 0.000000 0.000000 0.002447 0.000000 0.057590
#
#
# Mechanical properties :
#
#
# Convention : Reuss Voigt Hill
#
# Bulk Modulus (GPa) = 58.45088 72.18209 65.31649
# Shear Modulus (GPa) = 25.28034 28.91757 27.09895
#
# Velocity S-wave (km/s) = 3.63813 3.89106 3.76672
# Velocity P-wave (km/s) = 6.94630 7.61442 7.28802
#
# Compressibility (1/GPa) = 0.01710838
#
# Stress axis : x y z
#
# Youngs Moduli (GPa) = 57.27136 103.61315 104.62770
#
# Poissons Ratio (x) = 0.33192 0.32896
# Poissons Ratio (y) = 0.18346 0.35920
# Poissons Ratio (z) = 0.18007 0.35572
#
# Static dielectric constant tensor:
#      x y z
#    x 3.375190 0.000000 0.047490 
#    y 0.000000 3.306740 0.000000 
#    z 0.047490 0.000000 3.731640 
# 
# 
# High freq. dielectric constant tensor:
#      x y z
#    x 1.742220 0.000000 -0.000280 
#    y 0.000000 1.713680 0.000000 
#    z -0.000280 0.000000 1.761690 
# 
# From -- ./inp_files/96468.got.cif
#   From: 2010.06.25/outbox.cif.g09.slc.cpg/sg12_49_cif.got.tgz:96468.got - 2010.06.28 00:19:55.
