data_PCOD8089090
_publ_section_title
;
Structure prediction by ZEFSAII (Michael W. Deem and Ramdas Pophale) SiO2 
 PCOD8089090
Probable space group: C 2/M
;
_chemical_formula_sum "Si O2"
_cell_formula_units_Z 56
_cell_length_a 20.264383
_cell_length_b 9.190111
_cell_length_c 22.810779
_cell_angle_alpha 90.000000
_cell_angle_beta 135.971817
_cell_angle_gamma 90.000000
_cell_volume 2952.477773
_symmetry_space_group_name_H-M "C 2/M"
_symmetry_group_IT_number 12
_symmetry_cell_setting 'monoclinic'
loop_
_space_group_symop_operation_xyz
x,y,z
-x,y,-z
-x,-y,-z
x,-y,z
1/2+x,1/2+y,z
1/2-x,1/2+y,-z
1/2-x,1/2-y,-z
1/2+x,1/2-y,z
loop_
_atom_site_type_symbol
_atom_site_label
_atom_site_fract_x
_atom_site_fract_y
_atom_site_fract_z
Si Si1 0.974051 0.832740 0.741700
Si Si2 0.790988 0.833152 0.898033
Si Si3 0.204979 0.832178 0.299817
Si Si4 0.412233 0.829783 0.408542
Si Si5 0.894396 0.672532 0.865318
Si Si6 0.938076 0.166479 0.081915
Si Si7 0.911513 0.328810 0.275432
O O1 0.045768 0.786084 0.840333
O O2 0.998170 0.740036 0.699682
O O3 0.864101 0.800749 0.689143
O O4 0.988539 0.000000 0.734546
O O5 0.859571 0.730114 0.905179
O O6 0.682467 0.782216 0.821036
O O7 0.800394 0.000000 0.882124
O O8 0.828521 0.819059 0.989670
O O9 0.315714 0.799383 0.383938
O O10 0.178715 0.727496 0.230098
O O11 0.192649 0.000000 0.271782
O O12 0.500000 0.757190 0.500000
O O13 0.405472 0.766845 0.337962
O O14 0.430902 0.000000 0.414465
O O15 0.898034 0.500000 0.868313
O O16 0.998819 0.733442 0.919798
O O17 0.973929 0.000000 0.098686
O O18 0.925850 0.500000 0.284378
#
# Coordination Sequence:
#
# PCOD8089090 Si02
#       7
#     8   8   8   8   8   8   8
#     4   9  19  34  52  74 105 144 179 212 255 312
#     4  10  19  33  51  71 100 141 185 220 258 310
#     4   9  17  35  58  77 103 142 181 211 254 317
#     4   9  17  33  60  87 104 127 174 224 259 306
#     4  11  20  29  47  77 109 137 173 222 270 305
#     4   9  19  34  51  70  99 144 187 217 252 308
#     4  10  20  34  54  79 106 137 174 221 266 307
#
# _framework density 18.967120999999999
#
# number of rings (size 3 to 8) (size 9 to 14) (size 15 to 20)
#    0.000    2.429    1.429    2.571    0.000    5.714 
#    0.000    0.714    0.000    1.714    0.000    0.000 
#    0.000    0.000    0.000    0.000    0.000    0.000 
#
# Total GULP energy -347019.312061 kJ/mol
# GULP energy per Si atom -12393.546859 kJ/mol
# Density = 1.892395 g / cm^3
# Si number density = 18.967121 Si / 1000 Ang^3
#
#
#
# Elastic Constant Matrix: (Units=GPa)
#
#
# Indices 1 2 3 4 5 6 
#
# 1 112.3191 26.4599 60.8292 0.0000 0.6988 0.0000
# 2 26.4599 53.7012 17.9860 0.0000 -2.3204 0.0000
# 3 60.8292 17.9860 108.8735 0.0000 23.5412 0.0000
# 4 0.0000 0.0000 0.0000 10.3406 0.0000 -3.1543
# 5 0.6988 -2.3204 23.5412 0.0000 20.4456 0.0000
# 6 0.0000 0.0000 0.0000 -3.1543 0.0000 26.5673
#
#
#
# Elastic Compliance Matrix: (Units=1/GPa)
#
#
# Indices 1 2 3 4 5 6 
#
# 1 0.015256 -0.003599 -0.010290 0.000000 0.010918 0.000000
# 2 -0.003599 0.021588 -0.002812 0.000000 0.005811 0.000000
# 3 -0.010290 -0.002812 0.020494 0.000000 -0.023564 0.000000
# 4 0.000000 0.000000 0.000000 0.100340 0.000000 0.011913
# 5 0.010918 0.005811 -0.023564 0.000000 0.076328 0.000000
# 6 0.000000 0.000000 0.000000 0.011913 0.000000 0.039055
#
#
# Mechanical properties :
#
#
# Convention : Reuss Voigt Hill
#
# Bulk Modulus (GPa) = 41.77833 53.93822 47.85827
# Shear Modulus (GPa) = 15.90126 22.77860 19.33993
#
# Velocity S-wave (km/s) = 2.89858 3.46924 3.19667
# Velocity P-wave (km/s) = 5.76862 6.67435 6.23794
#
# Compressibility (1/GPa) = 0.02393586
#
# Stress axis : x y z
#
# Youngs Moduli (GPa) = 65.54886 46.32274 48.79540
#
# Poissons Ratio (x) = 0.16671 0.50210
# Poissons Ratio (y) = 0.23590 0.13721
# Poissons Ratio (z) = 0.67449 0.13026
#
# Static dielectric constant tensor:
#      x y z
#    x 3.351560 0.000000 0.113940 
#    y 0.000000 3.168890 0.000000 
#    z 0.113940 0.000000 3.575480 
# 
# 
# High freq. dielectric constant tensor:
#      x y z
#    x 1.726530 0.000000 0.009510 
#    y 0.000000 1.709250 0.000000 
#    z 0.009510 0.000000 1.725210 
# 
# From -- ./inp_files/345638.got.cif
#   From: 2010.06.25/outbox.cif.g09.slc.cpg/sg12_173_cif.got.tgz:345638.got - 2010.06.28 00:19:55.
