data_PCOD8089292
_publ_section_title
;
Structure prediction by ZEFSAII (Michael W. Deem and Ramdas Pophale) SiO2 
 PCOD8089292
Probable space group: C 2/M
;
_chemical_formula_sum "Si O2"
_cell_formula_units_Z 56
_cell_length_a 19.038864
_cell_length_b 8.808435
_cell_length_c 23.914440
_cell_angle_alpha 90.000000
_cell_angle_beta 48.503386
_cell_angle_gamma 90.000000
_cell_volume 3003.854198
_symmetry_space_group_name_H-M "C 2/M"
_symmetry_group_IT_number 12
_symmetry_cell_setting 'monoclinic'
loop_
_space_group_symop_operation_xyz
x,y,z
-x,y,-z
-x,-y,-z
x,-y,z
1/2+x,1/2+y,z
1/2-x,1/2+y,-z
1/2-x,1/2-y,-z
1/2+x,1/2-y,z
loop_
_atom_site_type_symbol
_atom_site_label
_atom_site_fract_x
_atom_site_fract_y
_atom_site_fract_z
Si Si1 0.137871 0.820920 0.399801
Si Si2 0.480471 0.320736 0.198729
Si Si3 0.201508 0.326411 0.195818
Si Si4 0.679909 0.176648 0.080365
Si Si5 0.051136 0.179284 0.557537
Si Si6 0.692627 0.178814 0.763375
Si Si7 0.014977 0.322925 0.687586
O O1 0.130096 0.776752 0.469617
O O2 0.233539 0.759119 0.322141
O O3 0.048398 0.758542 0.412951
O O4 0.134173 0.000000 0.395898
O O5 0.487493 0.500000 0.195685
O O6 0.579425 0.254306 0.127401
O O7 0.404169 0.266772 0.193958
O O8 0.448978 0.261529 0.276187
O O9 0.221939 0.500000 0.201895
O O10 0.222548 0.298378 0.119521
O O11 0.268216 0.215977 0.195761
O O12 0.093846 0.284431 0.265166
O O13 0.666676 0.000000 0.074403
O O14 0.750000 0.250000 0.000000
O O15 0.074351 0.264496 0.603141
O O16 0.049026 0.000000 0.569694
O O17 0.675693 0.000000 0.766978
O O18 0.032188 0.500000 0.688100
#
# Coordination Sequence:
#
# PCOD8089292 Si02
#       7
#     8   8   8   8   8   8   8
#     4   8  16  28  48  76 107 141 181 230 277 325
#     4  11  23  38  57  80 110 148 183 222 274 326
#     4   9  19  34  54  81 112 143 177 219 265 318
#     4  10  21  40  64  90 117 143 177 219 263 317
#     4   9  15  29  50  75 104 140 186 230 278 329
#     4  11  20  34  55  81 111 145 184 227 274 326
#     4  10  19  33  52  78 108 140 185 236 276 322
#
# _framework density 18.642714999999999
#
# number of rings (size 3 to 8) (size 9 to 14) (size 15 to 20)
#    0.000    2.286    1.429    4.286    0.000    2.857 
#    0.000    4.286    0.000    4.286    0.000    0.000 
#    0.000    0.000    0.000    0.000    0.000    0.000 
#
# Total GULP energy -347198.464780 kJ/mol
# GULP energy per Si atom -12399.945171 kJ/mol
# Density = 1.860028 g / cm^3
# Si number density = 18.642715 Si / 1000 Ang^3
#
#
#
# Elastic Constant Matrix: (Units=GPa)
#
#
# Indices 1 2 3 4 5 6 
#
# 1 85.5425 44.6436 35.0400 0.0000 -0.1267 0.0002
# 2 44.6436 103.8242 40.9628 0.0001 2.3150 0.0003
# 3 35.0400 40.9628 100.8902 0.0000 10.5495 0.0000
# 4 0.0000 0.0001 0.0000 29.2457 0.0000 3.9066
# 5 -0.1267 2.3150 10.5495 0.0000 21.7646 0.0000
# 6 0.0002 0.0003 0.0000 3.9066 0.0000 29.0174
#
#
#
# Elastic Compliance Matrix: (Units=1/GPa)
#
#
# Indices 1 2 3 4 5 6 
#
# 1 0.016053 -0.005545 -0.003576 0.000000 0.002417 0.000000
# 2 -0.005545 0.013409 -0.003546 0.000000 0.000260 0.000000
# 3 -0.003576 -0.003546 0.013227 0.000000 -0.006055 0.000000
# 4 0.000000 0.000000 0.000000 0.034819 0.000000 -0.004688
# 5 0.002417 0.000260 -0.006055 0.000000 0.048867 0.000000
# 6 0.000000 0.000000 0.000000 -0.004688 0.000000 0.035093
#
#
# Mechanical properties :
#
#
# Convention : Reuss Voigt Hill
#
# Bulk Modulus (GPa) = 57.62459 59.06108 58.34283
# Shear Modulus (GPa) = 25.96221 27.31290 26.63756
#
# Velocity S-wave (km/s) = 3.73583 3.83178 3.78411
# Velocity P-wave (km/s) = 7.04171 7.16422 7.10323
#
# Compressibility (1/GPa) = 0.01735370
#
# Stress axis : x y z
#
# Youngs Moduli (GPa) = 62.29460 74.57569 75.60548
#
# Poissons Ratio (x) = 0.41355 0.27040
# Poissons Ratio (y) = 0.34545 0.26806
# Poissons Ratio (z) = 0.22280 0.26441
#
# Static dielectric constant tensor:
#      x y z
#    x 3.261630 0.000000 0.084170 
#    y 0.000000 3.280380 0.000000 
#    z 0.084170 0.000000 3.506110 
# 
# 
# High freq. dielectric constant tensor:
#      x y z
#    x 1.708330 0.000000 0.012910 
#    y 0.000000 1.717410 0.000000 
#    z 0.012910 0.000000 1.717760 
# 
# From -- ./inp_files/342210.got.cif
#   From: 2010.06.25/outbox.cif.g09.slc.cpg/sg12_172_cif.got.tgz:342210.got - 2010.06.28 00:19:55.
