data_PCOD8089760
_publ_section_title
;
Structure prediction by ZEFSAII (Michael W. Deem and Ramdas Pophale) SiO2 
 PCOD8089760
Probable space group: C 2/M
;
_chemical_formula_sum "Si O2"
_cell_formula_units_Z 56
_cell_length_a 20.504698
_cell_length_b 9.495358
_cell_length_c 16.755894
_cell_angle_alpha 90.000000
_cell_angle_beta 63.401106
_cell_angle_gamma 90.000000
_cell_volume 2917.084178
_symmetry_space_group_name_H-M "C 2/M"
_symmetry_group_IT_number 12
_symmetry_cell_setting 'monoclinic'
loop_
_space_group_symop_operation_xyz
x,y,z
-x,y,-z
-x,-y,-z
x,-y,z
1/2+x,1/2+y,z
1/2-x,1/2+y,-z
1/2-x,1/2-y,-z
1/2+x,1/2-y,z
loop_
_atom_site_type_symbol
_atom_site_label
_atom_site_fract_x
_atom_site_fract_y
_atom_site_fract_z
Si Si1 0.581367 0.832857 0.290300
Si Si2 0.662632 0.846220 0.989170
Si Si3 0.585190 0.343063 0.439309
Si Si4 0.545415 0.337509 0.723804
Si Si5 0.275147 0.152688 0.876503
Si Si6 0.676252 0.662593 0.545125
Si Si7 0.525949 0.661579 0.073971
O O1 0.603138 0.775533 0.364944
O O2 0.509736 0.759497 0.295074
O O3 0.649606 0.788298 0.198906
O O4 0.568277 0.000000 0.299789
O O5 0.716270 0.868496 0.033845
O O6 0.592486 0.762565 0.058390
O O7 0.640261 0.000000 0.966940
O O8 0.707577 0.758904 0.897103
O O9 0.500000 0.342982 0.500000
O O10 0.609847 0.500000 0.397979
O O11 0.626437 0.298978 0.496964
O O12 0.528158 0.500000 0.710635
O O13 0.628177 0.300963 0.650891
O O14 0.536425 0.313335 0.824377
O O15 0.256227 0.000000 0.848156
O O16 0.698956 0.500000 0.533231
O O17 0.750000 0.750000 0.500000
O O18 0.552633 0.500000 0.060881
O O19 0.500000 0.703602 0.000000
#
# Coordination Sequence:
#
# PCOD8089760 Si02
#       7
#     8   8   8   8   8   8   8
#     4  11  21  34  57  89 118 144 188 246 293 339
#     4  10  19  33  54  79 108 143 184 231 281 333
#     4  10  20  38  61  86 119 154 193 239 290 357
#     4  10  20  38  62  83 110 154 198 236 293 359
#     4   9  19  34  51  77 112 145 180 226 281 339
#     4  10  22  41  63  86 117 158 199 244 295 353
#     4  10  21  37  58  82 111 150 195 240 288 347
#
# _framework density 19.197251000000001
#
# number of rings (size 3 to 8) (size 9 to 14) (size 15 to 20)
#    0.000    2.000    2.857    0.857    0.000    3.429 
#    2.571    0.000    0.000    0.000    0.000    0.000 
#    0.000    0.000    0.000    0.000    0.000    0.000 
#
# Total GULP energy -347067.546836 kJ/mol
# GULP energy per Si atom -12395.269530 kJ/mol
# Density = 1.915356 g / cm^3
# Si number density = 19.197251 Si / 1000 Ang^3
#
#
#
# Elastic Constant Matrix: (Units=GPa)
#
#
# Indices 1 2 3 4 5 6 
#
# 1 82.4713 45.9625 58.4448 0.0000 -11.1481 0.0000
# 2 45.9625 101.1192 65.9920 0.0000 -15.3143 0.0000
# 3 58.4448 65.9920 124.1129 0.0000 -17.1554 0.0000
# 4 0.0000 0.0000 0.0000 20.6527 0.0000 -3.8948
# 5 -11.1481 -15.3143 -17.1554 0.0000 35.5878 0.0000
# 6 0.0000 0.0000 0.0000 -3.8948 0.0000 25.0796
#
#
#
# Elastic Compliance Matrix: (Units=1/GPa)
#
#
# Indices 1 2 3 4 5 6 
#
# 1 0.019415 -0.004284 -0.006727 0.000000 0.000996 0.000000
# 2 -0.004284 0.016359 -0.006314 0.000000 0.002654 0.000000
# 3 -0.006727 -0.006314 0.014909 0.000000 0.002362 0.000000
# 4 0.000000 0.000000 0.000000 0.049881 0.000000 0.007746
# 5 0.000996 0.002654 0.002362 0.000000 0.030692 0.000000
# 6 0.000000 0.000000 0.000000 0.007746 0.000000 0.041076
#
#
# Mechanical properties :
#
#
# Convention : Reuss Voigt Hill
#
# Bulk Modulus (GPa) = 62.37307 72.05578 67.21443
# Shear Modulus (GPa) = 23.54872 25.41765 24.48318
#
# Velocity S-wave (km/s) = 3.50619 3.64266 3.57508
# Velocity P-wave (km/s) = 6.99659 7.43693 7.22012
#
# Compressibility (1/GPa) = 0.01603256
#
# Stress axis : x y z
#
# Youngs Moduli (GPa) = 51.50760 61.12780 67.07430
#
# Poissons Ratio (x) = 0.26185 0.45121
# Poissons Ratio (y) = 0.22064 0.42353
# Poissons Ratio (z) = 0.34649 0.38598
#
# Static dielectric constant tensor:
#      x y z
#    x 2.560290 0.000000 -0.494290 
#    y 0.000000 3.784150 0.000000 
#    z -0.494290 0.000000 3.367940 
# 
# 
# High freq. dielectric constant tensor:
#      x y z
#    x 1.717250 0.000000 -0.012240 
#    y 0.000000 1.752930 0.000000 
#    z -0.012240 0.000000 1.749170 
# 
# From -- ./inp_files/280979.got.cif
#   From: 2010.06.25/outbox.cif.g09.slc.cpg/sg12_141_cif.got.tgz:280979.got - 2010.06.28 00:19:55.
