data_PCOD8089549
_publ_section_title
;
Structure prediction by ZEFSAII (Michael W. Deem and Ramdas Pophale) SiO2 
 PCOD8089549
Probable space group: C 2/M
;
_chemical_formula_sum "Si O2"
_cell_formula_units_Z 56
_cell_length_a 20.665616
_cell_length_b 8.782441
_cell_length_c 28.171137
_cell_angle_alpha 90.000000
_cell_angle_beta 145.396993
_cell_angle_gamma 90.000000
_cell_volume 2903.553657
_symmetry_space_group_name_H-M "C 2/M"
_symmetry_group_IT_number 12
_symmetry_cell_setting 'monoclinic'
loop_
_space_group_symop_operation_xyz
x,y,z
-x,y,-z
-x,-y,-z
x,-y,z
1/2+x,1/2+y,z
1/2-x,1/2+y,-z
1/2-x,1/2-y,-z
1/2+x,1/2-y,z
loop_
_atom_site_type_symbol
_atom_site_label
_atom_site_fract_x
_atom_site_fract_y
_atom_site_fract_z
Si Si1 0.672016 0.319444 0.820635
Si Si2 0.498160 0.681249 0.445586
Si Si3 0.558772 0.177422 0.174736
Si Si4 0.268914 0.320072 0.460366
Si Si5 0.284209 0.318945 0.257399
Si Si6 0.567137 0.321008 0.281143
Si Si7 0.188372 0.323341 0.007051
O O1 0.680655 0.500000 0.823941
O O2 0.704020 0.250629 0.788558
O O3 0.544292 0.269458 0.757025
O O4 0.760765 0.254745 0.913324
O O5 0.500000 0.747531 0.500000
O O6 0.494892 0.500000 0.445149
O O7 0.609812 0.738635 0.485531
O O8 0.387022 0.745561 0.351629
O O9 0.665124 0.234663 0.207855
O O10 0.550139 0.278440 0.216293
O O11 0.446616 0.206350 0.075473
O O12 0.571170 0.000000 0.196363
O O13 0.267106 0.500000 0.463809
O O14 0.250000 0.250000 0.500000
O O15 0.173815 0.269040 0.365964
O O16 0.290656 0.500000 0.259304
O O17 0.588664 0.500000 0.299140
O O18 0.217917 0.500000 0.022244
O O19 0.250000 0.250000 0.000000
#
# Coordination Sequence:
#
# PCOD8089549 Si02
#       7
#     8   8   8   8   8   8   8
#     4   9  18  32  52  77 107 144 181 219 269 324
#     4   9  17  31  53  77 104 141 182 222 266 316
#     4  10  20  33  55  83 107 134 176 228 272 316
#     4  11  22  36  56  82 110 141 181 227 272 321
#     4   9  17  31  51  78 108 137 177 226 272 318
#     4  11  21  35  56  79 107 145 182 220 268 323
#     4  10  19  33  53  80 109 139 177 221 271 323
#
# _framework density 19.286709999999999
#
# number of rings (size 3 to 8) (size 9 to 14) (size 15 to 20)
#    0.000    2.143    1.429    2.571    0.000    5.143 
#    0.000    2.857    0.000   13.714    0.000    2.000 
#    0.000    0.000    0.000    0.000    0.000    0.000 
#
# Total GULP energy -347232.068893 kJ/mol
# GULP energy per Si atom -12401.145318 kJ/mol
# Density = 1.924281 g / cm^3
# Si number density = 19.286710 Si / 1000 Ang^3
#
#
#
# Elastic Constant Matrix: (Units=GPa)
#
#
# Indices 1 2 3 4 5 6 
#
# 1 168.2441 24.7581 69.1104 0.0000 1.7648 0.0001
# 2 24.7581 28.7212 20.5883 0.0000 4.7289 0.0008
# 3 69.1104 20.5883 145.8014 0.0001 1.9253 0.0000
# 4 0.0000 0.0000 0.0001 21.9458 0.0000 -2.0833
# 5 1.7648 4.7289 1.9253 0.0000 42.2503 0.0000
# 6 0.0001 0.0008 0.0000 -2.0833 0.0000 24.3519
#
#
#
# Elastic Compliance Matrix: (Units=1/GPa)
#
#
# Indices 1 2 3 4 5 6 
#
# 1 0.007893 -0.004643 -0.003090 0.000000 0.000331 0.000000
# 2 -0.004643 0.042189 -0.003699 0.000000 -0.004360 -0.000001
# 3 -0.003090 -0.003699 0.008844 0.000000 0.000140 0.000000
# 4 0.000000 0.000000 0.000000 0.045940 0.000000 0.003930
# 5 0.000331 -0.004360 0.000140 0.000000 0.024136 0.000000
# 6 0.000000 -0.000001 0.000000 0.003930 0.000000 0.041401
#
#
# Mechanical properties :
#
#
# Convention : Reuss Voigt Hill
#
# Bulk Modulus (GPa) = 27.73033 63.52005 45.62519
# Shear Modulus (GPa) = 24.35607 32.93026 28.64317
#
# Velocity S-wave (km/s) = 3.55750 4.13656 3.85791
# Velocity P-wave (km/s) = 5.59318 7.47134 6.59942
#
# Compressibility (1/GPa) = 0.03606159
#
# Stress axis : x y z
#
# Youngs Moduli (GPa) = 126.69744 23.70268 113.07401
#
# Poissons Ratio (x) = 0.11006 0.34939
# Poissons Ratio (y) = 0.58828 0.41826
# Poissons Ratio (z) = 0.39149 0.08768
#
# Static dielectric constant tensor:
#      x y z
#    x 4.155100 0.000010 -0.956290 
#    y 0.000010 3.117670 -0.000020 
#    z -0.956290 -0.000020 6.415560 
# 
# 
# High freq. dielectric constant tensor:
#      x y z
#    x 1.761530 0.000000 0.000200 
#    y 0.000000 1.702980 0.000000 
#    z 0.000200 0.000000 1.770590 
# 
# From -- ./inp_files/363110.got.cif
#   From: 2010.06.25/outbox.cif.g09.slc.cpg/sg12_182_cif.got.tgz:363110.got - 2010.06.28 00:19:55.
