data_PCOD8089482
_publ_section_title
;
Structure prediction by ZEFSAII (Michael W. Deem and Ramdas Pophale) SiO2 
 PCOD8089482
Probable space group: C 2/M
;
_chemical_formula_sum "Si O2"
_cell_formula_units_Z 56
_cell_length_a 20.662619
_cell_length_b 12.752206
_cell_length_c 10.546032
_cell_angle_alpha 90.000000
_cell_angle_beta 85.676703
_cell_angle_gamma 90.000000
_cell_volume 2770.908939
_symmetry_space_group_name_H-M "C 2/M"
_symmetry_group_IT_number 12
_symmetry_cell_setting 'monoclinic'
loop_
_space_group_symop_operation_xyz
x,y,z
-x,y,-z
-x,-y,-z
x,-y,z
1/2+x,1/2+y,z
1/2-x,1/2+y,-z
1/2-x,1/2-y,-z
1/2+x,1/2-y,z
loop_
_atom_site_type_symbol
_atom_site_label
_atom_site_fract_x
_atom_site_fract_y
_atom_site_fract_z
Si Si1 0.288471 0.616619 0.086256
Si Si2 0.981150 0.260805 0.861987
Si Si3 0.810401 0.123404 0.596141
Si Si4 0.104462 0.619003 0.778862
Si Si5 0.459563 0.622641 0.627480
Si Si6 0.198879 0.768983 0.666073
Si Si7 0.844618 0.687093 0.964196
O O1 0.313085 0.500000 0.052151
O O2 0.313696 0.649862 0.219625
O O3 0.320150 0.692255 0.976613
O O4 0.210096 0.619789 0.098069
O O5 0.985240 0.170872 0.755361
O O6 0.030008 0.352612 0.815523
O O7 0.910497 0.314243 0.873826
O O8 0.000000 0.215926 0.000000
O O9 0.884040 0.149913 0.621040
O O10 0.794614 0.157243 0.455646
O O11 0.762133 0.195871 0.686516
O O12 0.795071 0.000000 0.617011
O O13 0.108138 0.500000 0.731862
O O14 0.136349 0.691906 0.665027
O O15 0.146264 0.635814 0.899627
O O16 0.500000 0.666060 0.500000
O O17 0.471767 0.500000 0.637698
#
# Coordination Sequence:
#
# PCOD8089482 Si02
#       7
#     8   8   8   8   8   8   8
#     4  10  19  33  53  77 110 144 176 224 279 324
#     4  10  21  37  56  81 110 140 184 234 274 324
#     4  10  20  35  56  79 107 145 185 226 275 331
#     4  10  20  35  55  77 107 145 181 225 280 333
#     4  10  21  37  57  80 109 147 184 222 277 337
#     4  10  20  34  54  81 108 138 184 232 272 326
#     4   9  20  34  51  80 109 141 183 222 270 333
#
# _framework density 20.209976999999999
#
# number of rings (size 3 to 8) (size 9 to 14) (size 15 to 20)
#    0.000    2.143    0.000    3.000    0.000    4.000 
#    0.000   10.714    0.000    4.714    0.000    0.000 
#    0.000    0.000    0.000    0.000    0.000    0.000 
#
# Total GULP energy -347178.235941 kJ/mol
# GULP energy per Si atom -12399.222712 kJ/mol
# Density = 2.016398 g / cm^3
# Si number density = 20.209977 Si / 1000 Ang^3
#
#
#
# Elastic Constant Matrix: (Units=GPa)
#
#
# Indices 1 2 3 4 5 6 
#
# 1 98.3382 23.4757 1.8381 0.0000 -7.0831 0.0000
# 2 23.4757 98.5514 10.2696 0.0000 4.6635 0.0000
# 3 1.8381 10.2696 44.3759 0.0000 -0.3267 0.0000
# 4 0.0000 0.0000 0.0000 23.0598 0.0000 -1.0603
# 5 -7.0831 4.6635 -0.3267 0.0000 29.2495 0.0000
# 6 0.0000 0.0000 0.0000 -1.0603 0.0000 21.1729
#
#
#
# Elastic Compliance Matrix: (Units=1/GPa)
#
#
# Indices 1 2 3 4 5 6 
#
# 1 0.011060 -0.002805 0.000214 0.000000 0.003128 0.000000
# 2 -0.002805 0.011193 -0.002492 0.000000 -0.002492 0.000000
# 3 0.000214 -0.002492 0.023108 0.000000 0.000707 0.000000
# 4 0.000000 0.000000 0.000000 0.043466 0.000000 0.002177
# 5 0.003128 -0.002492 0.000707 0.000000 0.035351 0.000000
# 6 0.000000 0.000000 0.000000 0.002177 0.000000 0.047339
#
#
# Mechanical properties :
#
#
# Convention : Reuss Voigt Hill
#
# Bulk Modulus (GPa) = 28.41392 34.71469 31.56431
# Shear Modulus (GPa) = 25.85125 28.40859 27.12992
#
# Velocity S-wave (km/s) = 3.58038 3.75330 3.66786
# Velocity P-wave (km/s) = 5.58409 5.99977 5.79566
#
# Compressibility (1/GPa) = 0.03519402
#
# Stress axis : x y z
#
# Youngs Moduli (GPa) = 90.41696 89.34347 43.27524
#
# Poissons Ratio (x) = 0.25060 -0.00926
# Poissons Ratio (y) = 0.25361 0.10786
# Poissons Ratio (z) = -0.01935 0.22268
#
# Static dielectric constant tensor:
#      x y z
#    x 3.851270 0.000000 -0.124150 
#    y 0.000000 3.531140 0.000000 
#    z -0.124150 0.000000 3.537020 
# 
# 
# High freq. dielectric constant tensor:
#      x y z
#    x 1.800300 0.000000 -0.008140 
#    y 0.000000 1.778600 0.000000 
#    z -0.008140 0.000000 1.775230 
# 
# From -- ./inp_files/164965.got.cif
#   From: 2010.06.25/outbox.cif.g09.slc.cpg/sg12_83_cif.got.tgz:164965.got - 2010.06.28 00:19:55.
