data_PCOD8089070
_publ_section_title
;
Structure prediction by ZEFSAII (Michael W. Deem and Ramdas Pophale) SiO2 
 PCOD8089070
Probable space group: C 2/M
;
_chemical_formula_sum "Si O2"
_cell_formula_units_Z 64
_cell_length_a 12.424578
_cell_length_b 23.463931
_cell_length_c 12.335006
_cell_angle_alpha 90.000000
_cell_angle_beta 82.220691
_cell_angle_gamma 90.000000
_cell_volume 3562.922486
_symmetry_space_group_name_H-M "C 2/M"
_symmetry_group_IT_number 12
_symmetry_cell_setting 'monoclinic'
loop_
_space_group_symop_operation_xyz
x,y,z
-x,y,-z
-x,-y,-z
x,-y,z
1/2+x,1/2+y,z
1/2-x,1/2+y,-z
1/2-x,1/2-y,-z
1/2+x,1/2-y,z
loop_
_atom_site_type_symbol
_atom_site_label
_atom_site_fract_x
_atom_site_fract_y
_atom_site_fract_z
Si Si1 0.983774 0.565552 0.716761
Si Si2 0.593284 0.625743 0.799817
Si Si3 0.186923 0.132369 0.016501
Si Si4 0.467280 0.725098 0.882525
Si Si5 0.871643 0.933616 0.781682
Si Si6 0.264115 0.065749 0.631092
Si Si7 0.282113 0.067555 0.385578
Si Si8 0.574482 0.152463 0.093569
O O1 0.996575 0.500000 0.750977
O O2 0.892076 0.571512 0.637096
O O3 0.947407 0.599536 0.826961
O O4 0.097051 0.590914 0.656565
O O5 0.562173 0.693473 0.799450
O O6 0.493486 0.589801 0.767257
O O7 0.698813 0.609530 0.716443
O O8 0.612625 0.613157 0.924827
O O9 0.136109 0.183127 0.096748
O O10 0.193219 0.079095 0.097948
O O11 0.301981 0.152805 0.960609
O O12 0.443057 0.787886 0.837646
O O13 0.500000 0.738702 0.000000
O O14 0.804301 0.907580 0.689103
O O15 0.880571 0.000000 0.763599
O O16 0.244449 0.085986 0.510692
O O17 0.226404 0.000000 0.655645
O O18 0.287829 0.000000 0.379610
O O19 0.500000 0.144845 0.000000
#
# Coordination Sequence:
#
# PCOD8089070 Si02
#       8
#     8   8   8   8   8   8   8   8
#     4  10  20  34  52  79 109 138 177 217 261 314
#     4  10  19  34  52  79 108 136 177 220 260 312
#     4  10  19  33  50  75 107 139 175 215 256 311
#     4   8  18  33  51  73 103 138 178 214 254 307
#     4  10  20  32  50  77 111 145 171 212 267 318
#     4  10  19  33  56  80 105 140 179 218 260 312
#     4   9  19  35  52  75 106 140 180 219 257 306
#     4  11  20  32  52  78 104 140 177 213 261 309
#
# _framework density 17.962782000000001
#
# number of rings (size 3 to 8) (size 9 to 14) (size 15 to 20)
#    0.000    2.250    1.250    3.000    0.000    4.250 
#    0.000    1.875    0.000    0.750    6.500    0.000 
#    0.000    0.000    0.000    0.000    0.000    0.000 
#
# Total GULP energy -396629.400893 kJ/mol
# GULP energy per Si atom -12394.668778 kJ/mol
# Density = 1.792190 g / cm^3
# Si number density = 17.962782 Si / 1000 Ang^3
#
#
#
# Elastic Constant Matrix: (Units=GPa)
#
#
# Indices 1 2 3 4 5 6 
#
# 1 93.2086 28.5303 35.2340 0.0000 9.2648 0.0000
# 2 28.5303 54.8635 25.8848 0.0000 2.6570 0.0000
# 3 35.2340 25.8848 89.4635 0.0000 13.9260 0.0000
# 4 0.0000 0.0000 0.0000 8.5732 0.0000 -3.5975
# 5 9.2648 2.6570 13.9260 0.0000 27.7977 0.0000
# 6 0.0000 0.0000 0.0000 -3.5975 0.0000 24.9855
#
#
#
# Elastic Compliance Matrix: (Units=1/GPa)
#
#
# Indices 1 2 3 4 5 6 
#
# 1 0.013984 -0.005481 -0.003555 0.000000 -0.002356 0.000000
# 2 -0.005481 0.023289 -0.004900 0.000000 0.002055 0.000000
# 3 -0.003555 -0.004900 0.014900 0.000000 -0.005811 0.000000
# 4 0.000000 0.000000 0.000000 0.124143 0.000000 0.017875
# 5 -0.002356 0.002055 -0.005811 0.000000 0.039474 0.000000
# 6 0.000000 0.000000 0.000000 0.017875 0.000000 0.042597
#
#
# Mechanical properties :
#
#
# Convention : Reuss Voigt Hill
#
# Bulk Modulus (GPa) = 41.14785 46.31485 43.73135
# Shear Modulus (GPa) = 16.98597 22.13038 19.55818
#
# Velocity S-wave (km/s) = 3.07843 3.51381 3.30330
# Velocity P-wave (km/s) = 5.96596 6.50402 6.24079
#
# Compressibility (1/GPa) = 0.02430261
#
# Stress axis : x y z
#
# Youngs Moduli (GPa) = 71.50896 42.93801 67.11350
#
# Poissons Ratio (x) = 0.23533 0.23859
# Poissons Ratio (y) = 0.39192 0.32884
# Poissons Ratio (z) = 0.25421 0.21039
#
# Static dielectric constant tensor:
#      x y z
#    x 3.453760 0.000000 0.092100 
#    y 0.000000 3.349200 0.000000 
#    z 0.092100 0.000000 3.274370 
# 
# 
# High freq. dielectric constant tensor:
#      x y z
#    x 1.708470 0.000000 0.006540 
#    y 0.000000 1.674670 0.000000 
#    z 0.006540 0.000000 1.678110 
# 
# From -- ./inp_files/135378.got.cif
#   From: 2010.06.25/outbox.cif.g09.slc.cpg/sg12_68_cif.got.tgz:135378.got - 2010.06.28 00:19:55.
