data_PCOD8089574
_publ_section_title
;
Structure prediction by ZEFSAII (Michael W. Deem and Ramdas Pophale) SiO2 
 PCOD8089574
Probable space group: C 2/M
;
_chemical_formula_sum "Si O2"
_cell_formula_units_Z 56
_cell_length_a 31.565367
_cell_length_b 17.766764
_cell_length_c 9.498918
_cell_angle_alpha 90.000000
_cell_angle_beta 33.620296
_cell_angle_gamma 90.000000
_cell_volume 2949.560431
_symmetry_space_group_name_H-M "C 2/M"
_symmetry_group_IT_number 12
_symmetry_cell_setting 'monoclinic'
loop_
_space_group_symop_operation_xyz
x,y,z
-x,y,-z
-x,-y,-z
x,-y,z
1/2+x,1/2+y,z
1/2-x,1/2+y,-z
1/2-x,1/2-y,-z
1/2+x,1/2-y,z
loop_
_atom_site_type_symbol
_atom_site_label
_atom_site_fract_x
_atom_site_fract_y
_atom_site_fract_z
Si Si1 0.576076 0.678910 0.858430
Si Si2 0.556909 0.848222 0.010292
Si Si3 0.737363 0.340638 0.890797
Si Si4 0.690294 0.913303 0.788983
Si Si5 0.714902 0.324804 0.266658
Si Si6 0.099713 0.587876 0.599430
Si Si7 0.673969 0.412538 0.796596
O O1 0.636074 0.681148 0.566767
O O2 0.604398 0.629057 0.910934
O O3 0.500000 0.643247 0.000000
O O4 0.558016 0.761680 0.964787
O O5 0.470394 0.872074 0.289656
O O6 0.613388 0.864045 0.984128
O O7 0.587578 0.900685 0.799099
O O8 0.741296 0.253822 0.835782
O O9 0.821675 0.375572 0.668940
O O10 0.683264 0.383483 0.930003
O O11 0.697584 0.346304 0.153368
O O12 0.731291 0.889665 0.819188
O O13 0.746448 0.896333 0.502729
O O14 0.667804 0.000000 0.861354
O O15 0.101641 0.500000 0.558782
O O16 0.653654 0.500000 0.854548
#
# Coordination Sequence:
#
# PCOD8089574 Si02
#       7
#     8   8   8   8   8   8   8
#     4  11  20  38  61  84 112 144 191 241 292 335
#     4  11  18  32  56  85 116 149 186 228 274 336
#     4  11  20  37  56  80 116 151 191 233 278 341
#     4  10  19  33  53  81 113 145 188 235 275 327
#     4  10  22  36  56  83 111 151 191 233 286 337
#     4  11  20  31  54  88 119 150 182 228 278 334
#     4  10  21  35  57  83 108 146 193 241 285 333
#
# _framework density 18.985879000000001
#
# number of rings (size 3 to 8) (size 9 to 14) (size 15 to 20)
#    0.000    1.429    4.286    3.000    0.000    3.714 
#    0.000    1.429    0.000    7.714    0.000    0.000 
#    0.000    0.000    0.000    0.000    0.000    0.000 
#
# Total GULP energy -347274.272787 kJ/mol
# GULP energy per Si atom -12402.652600 kJ/mol
# Density = 1.894267 g / cm^3
# Si number density = 18.985879 Si / 1000 Ang^3
#
#
#
# Elastic Constant Matrix: (Units=GPa)
#
#
# Indices 1 2 3 4 5 6 
#
# 1 128.5510 57.6135 25.4864 0.0000 -4.8858 0.0000
# 2 57.6135 99.3580 26.8571 0.0000 -1.0583 0.0000
# 3 25.4864 26.8571 19.7067 0.0000 10.7260 0.0000
# 4 0.0000 0.0000 0.0000 28.3609 0.0000 -0.7181
# 5 -4.8858 -1.0583 10.7260 0.0000 26.5760 0.0000
# 6 0.0000 0.0000 0.0000 -0.7181 0.0000 34.9732
#
#
#
# Elastic Compliance Matrix: (Units=1/GPa)
#
#
# Indices 1 2 3 4 5 6 
#
# 1 0.012964 -0.002216 -0.019217 0.000000 0.010051 0.000000
# 2 -0.002216 0.020023 -0.031569 0.000000 0.013131 0.000000
# 3 -0.019217 -0.031569 0.155355 0.000000 -0.067491 0.000000
# 4 0.000000 0.000000 0.000000 0.035278 0.000000 0.000724
# 5 0.010051 0.013131 -0.067491 0.000000 0.067238 0.000000
# 6 0.000000 0.000000 0.000000 0.000724 0.000000 0.028608
#
#
# Mechanical properties :
#
#
# Convention : Reuss Voigt Hill
#
# Bulk Modulus (GPa) = 12.14507 51.94774 32.04641
# Shear Modulus (GPa) = 11.03957 27.15926 19.09941
#
# Velocity S-wave (km/s) = 2.41397 3.78630 3.17516
# Velocity P-wave (km/s) = 3.76569 6.82168 5.50980
#
# Compressibility (1/GPa) = 0.08233791
#
# Stress axis : x y z
#
# Youngs Moduli (GPa) = 77.13650 49.94356 6.43686
#
# Poissons Ratio (x) = 0.11066 0.12370
# Poissons Ratio (y) = 0.17091 0.20321
# Poissons Ratio (z) = 1.48234 1.57667
#
# Static dielectric constant tensor:
#      x y z
#    x 3.559540 0.000000 -0.134470 
#    y 0.000000 3.509020 0.000000 
#    z -0.134470 0.000000 3.285770 
# 
# 
# High freq. dielectric constant tensor:
#      x y z
#    x 1.742080 0.000000 -0.010610 
#    y 0.000000 1.746150 0.000000 
#    z -0.010610 0.000000 1.707230 
# 
# From -- ./inp_files/112605.got.cif
#   From: 2010.06.25/outbox.cif.g09.slc.cpg/sg12_57_cif.got.tgz:112605.got - 2010.06.28 00:19:55.
