data_PCOD8090101
_publ_section_title
;
Structure prediction by ZEFSAII (Michael W. Deem and Ramdas Pophale) SiO2 
 PCOD8090101
Probable space group: C 2/M
;
_chemical_formula_sum "Si O2"
_cell_formula_units_Z 64
_cell_length_a 24.995261
_cell_length_b 9.192414
_cell_length_c 29.201515
_cell_angle_alpha 90.000000
_cell_angle_beta 150.733796
_cell_angle_gamma 90.000000
_cell_volume 3280.078395
_symmetry_space_group_name_H-M "C 2/M"
_symmetry_group_IT_number 12
_symmetry_cell_setting 'monoclinic'
loop_
_space_group_symop_operation_xyz
x,y,z
-x,y,-z
-x,-y,-z
x,-y,z
1/2+x,1/2+y,z
1/2-x,1/2+y,-z
1/2-x,1/2-y,-z
1/2+x,1/2-y,z
loop_
_atom_site_type_symbol
_atom_site_label
_atom_site_fract_x
_atom_site_fract_y
_atom_site_fract_z
Si Si1 0.226390 0.158566 0.526065
Si Si2 0.899555 0.829939 0.482859
Si Si3 0.858807 0.169798 0.309399
Si Si4 0.218895 0.669546 0.023473
Si Si5 0.262054 0.673769 0.706296
Si Si6 0.467143 0.159833 0.725982
Si Si7 0.613670 0.671146 0.773926
Si Si8 0.477890 0.831172 0.835068
O O1 0.250000 0.250000 0.500000
O O2 0.134211 0.220932 0.491092
O O3 0.337813 0.153636 0.637889
O O4 0.189152 0.000000 0.481415
O O5 0.833564 0.731781 0.398179
O O6 0.029768 0.806385 0.577887
O O7 0.869192 0.000000 0.452205
O O8 0.764571 0.265076 0.262981
O O9 0.867340 0.227262 0.263580
O O10 0.826264 0.000000 0.286048
O O11 0.239511 0.500000 0.029561
O O12 0.291434 0.724738 0.120600
O O13 0.250000 0.750000 0.000000
O O14 0.093513 0.696267 0.946789
O O15 0.261561 0.500000 0.705448
O O16 0.382674 0.728867 0.783161
O O17 0.499902 0.265887 0.708842
O O18 0.511109 0.212498 0.807857
O O19 0.513297 0.000000 0.748129
O O20 0.601740 0.500000 0.763705
O O21 0.440259 0.000000 0.810177
#
# Coordination Sequence:
#
# PCOD8090101 Si02
#       8
#     8   8   8   8   8   8   8   8
#     4  10  20  33  50  77 113 150 189 229 275 335
#     4  10  20  38  60  81 111 154 196 230 281 353
#     4  10  22  40  61  82 113 157 195 233 287 348
#     4  10  20  35  60  91 120 150 187 232 282 340
#     4  12  25  39  59  86 114 147 196 253 291 325
#     4  10  19  33  55  81 114 153 186 224 282 341
#     4  10  21  37  59  89 119 148 190 237 281 338
#     4  10  20  38  60  83 115 154 191 226 280 349
#
# _framework density 19.511728000000002
#
# number of rings (size 3 to 8) (size 9 to 14) (size 15 to 20)
#    0.000    1.750    2.500    2.250    0.000    5.500 
#    0.000    0.625    0.000    3.750    0.000    0.000 
#    0.000    0.000    0.000    0.000    0.000    0.000 
#
# Total GULP energy -396674.930372 kJ/mol
# GULP energy per Si atom -12396.091574 kJ/mol
# Density = 1.946732 g / cm^3
# Si number density = 19.511728 Si / 1000 Ang^3
#
#
#
# Elastic Constant Matrix: (Units=GPa)
#
#
# Indices 1 2 3 4 5 6 
#
# 1 111.3223 54.6846 22.5890 -0.0004 11.6871 -0.0001
# 2 54.6846 76.1444 27.9354 -0.0005 6.3738 0.0002
# 3 22.5890 27.9354 64.3781 -0.0013 6.5978 -0.0004
# 4 -0.0004 -0.0005 -0.0013 21.1797 0.0001 0.4626
# 5 11.6871 6.3738 6.5978 0.0001 23.0626 0.0001
# 6 -0.0001 0.0002 -0.0004 0.4626 0.0001 34.6528
#
#
#
# Elastic Compliance Matrix: (Units=1/GPa)
#
#
# Indices 1 2 3 4 5 6 
#
# 1 0.014331 -0.009802 -0.000318 0.000000 -0.004462 0.000000
# 2 -0.009802 0.022459 -0.006366 0.000000 0.000581 0.000000
# 3 -0.000318 -0.006366 0.018760 0.000001 -0.003447 0.000000
# 4 0.000000 0.000000 0.000001 0.047229 -0.000001 -0.000631
# 5 -0.004462 0.000581 -0.003447 -0.000001 0.046447 0.000000
# 6 0.000000 0.000000 0.000000 -0.000631 0.000000 0.028866
#
#
# Mechanical properties :
#
#
# Convention : Reuss Voigt Hill
#
# Bulk Modulus (GPa) = 44.28864 51.36255 47.82559
# Shear Modulus (GPa) = 22.87390 25.55474 24.21432
#
# Velocity S-wave (km/s) = 3.42762 3.62292 3.52662
# Velocity P-wave (km/s) = 6.19779 6.62433 6.41461
#
# Compressibility (1/GPa) = 0.02257916
#
# Stress axis : x y z
#
# Youngs Moduli (GPa) = 69.77960 44.52521 53.30401
#
# Poissons Ratio (x) = 0.43643 0.01694
# Poissons Ratio (y) = 0.68397 0.33933
# Poissons Ratio (z) = 0.02217 0.28345
#
# Static dielectric constant tensor:
#      x y z
#    x 3.603130 0.000000 0.034850 
#    y 0.000000 3.369250 0.000000 
#    z 0.034850 0.000000 3.925710 
# 
# 
# High freq. dielectric constant tensor:
#      x y z
#    x 1.760860 0.000000 0.004740 
#    y 0.000000 1.741630 0.000000 
#    z 0.004740 0.000000 1.761230 
# 
# From -- ./inp_files/243913.got.cif
#   From: 2010.06.25/outbox.cif.g09.slc.cpg/sg12_122_cif.got.tgz:243913.got - 2010.06.28 00:19:55.
