data_PCOD8090449
_publ_section_title
;
Structure prediction by ZEFSAII (Michael W. Deem and Ramdas Pophale) SiO2 
 PCOD8090449
Probable space group: C 2/M
;
_chemical_formula_sum "Si O2"
_cell_formula_units_Z 40
_cell_length_a 20.032736
_cell_length_b 9.502608
_cell_length_c 10.314971
_cell_angle_alpha 90.000000
_cell_angle_beta 88.438063
_cell_angle_gamma 90.000000
_cell_volume 1962.861688
_symmetry_space_group_name_H-M "C 2/M"
_symmetry_group_IT_number 12
_symmetry_cell_setting 'monoclinic'
loop_
_space_group_symop_operation_xyz
x,y,z
-x,y,-z
-x,-y,-z
x,-y,z
1/2+x,1/2+y,z
1/2-x,1/2+y,-z
1/2-x,1/2-y,-z
1/2+x,1/2-y,z
loop_
_atom_site_type_symbol
_atom_site_label
_atom_site_fract_x
_atom_site_fract_y
_atom_site_fract_z
Si Si1 0.443012 0.339500 0.107053
Si Si2 0.307266 0.166627 0.422992
Si Si3 0.940794 0.837049 0.404473
Si Si4 0.340798 0.152156 0.973335
Si Si5 0.731375 0.350169 0.176978
O O1 0.418610 0.500000 0.093221
O O2 0.465295 0.310030 0.254624
O O3 0.500000 0.305550 0.000000
O O4 0.383396 0.236483 0.075349
O O5 0.250000 0.250000 0.500000
O O6 0.378790 0.237481 0.445218
O O7 0.288116 0.193639 0.275214
O O8 0.309752 0.000000 0.458890
O O9 0.000000 0.797520 0.500000
O O10 0.919459 0.000000 0.423160
O O11 0.328838 0.237674 0.838902
O O12 0.373687 0.000000 0.939684
O O13 0.267988 0.127805 0.038160
O O14 0.698569 0.500000 0.221022
#
# Coordination Sequence:
#
# PCOD8090449 Si02
#       5
#     8   8   8   8   8
#     4  10  21  37  58  84 117 158 201 246 301 363
#     4  11  23  40  62  90 123 160 205 254 307 367
#     4  10  22  41  63  87 120 165 212 256 307 368
#     4  10  19  33  56  85 113 144 188 238 291 347
#     4   9  19  35  55  81 114 149 185 232 292 352
#
# _framework density 20.378411
#
# number of rings (size 3 to 8) (size 9 to 14) (size 15 to 20)
#    0.000    2.000    2.000    1.200    0.000    4.800 
#    0.000    4.000    0.000    0.000    0.000    0.000 
#    0.000    0.000    0.000    0.000    0.000    0.000 
#
# Total GULP energy -247801.764348 kJ/mol
# GULP energy per Si atom -12390.088217 kJ/mol
# Density = 2.033203 g / cm^3
# Si number density = 20.378411 Si / 1000 Ang^3
#
#
#
# Elastic Constant Matrix: (Units=GPa)
#
#
# Indices 1 2 3 4 5 6 
#
# 1 91.8844 70.9819 67.4659 0.0000 9.5508 0.0000
# 2 70.9819 147.2137 71.4711 0.0000 19.3058 0.0000
# 3 67.4659 71.4711 91.8097 0.0000 24.3441 0.0000
# 4 0.0000 0.0000 0.0000 17.2815 0.0000 5.4611
# 5 9.5508 19.3058 24.3441 0.0000 41.5273 0.0000
# 6 0.0000 0.0000 0.0000 5.4611 0.0000 31.8689
#
#
#
# Elastic Compliance Matrix: (Units=1/GPa)
#
#
# Indices 1 2 3 4 5 6 
#
# 1 0.027346 -0.005538 -0.017522 0.000000 0.006557 0.000000
# 2 -0.005538 0.012042 -0.004923 0.000000 -0.001439 0.000000
# 3 -0.017522 -0.004923 0.030697 0.000000 -0.011676 0.000000
# 4 0.000000 0.000000 0.000000 0.061178 0.000000 -0.010484
# 5 0.006557 -0.001439 -0.011676 0.000000 0.030086 0.000000
# 6 0.000000 0.000000 0.000000 -0.010484 0.000000 0.033175
#
#
# Mechanical properties :
#
#
# Convention : Reuss Voigt Hill
#
# Bulk Modulus (GPa) = 70.83525 83.41619 77.12572
# Shear Modulus (GPa) = 19.59273 26.20147 22.89710
#
# Velocity S-wave (km/s) = 3.10408 3.58962 3.35564
# Velocity P-wave (km/s) = 6.90525 7.62909 7.27618
#
# Compressibility (1/GPa) = 0.01411726
#
# Stress axis : x y z
#
# Youngs Moduli (GPa) = 36.56882 83.04243 32.57671
#
# Poissons Ratio (x) = 0.45992 0.57082
# Poissons Ratio (y) = 0.20253 0.16038
# Poissons Ratio (z) = 0.64077 0.40883
#
# Static dielectric constant tensor:
#      x y z
#    x 3.331140 0.000000 0.034740 
#    y 0.000000 5.449170 0.000000 
#    z 0.034740 0.000000 3.363430 
# 
# 
# High freq. dielectric constant tensor:
#      x y z
#    x 1.768270 0.000000 0.015340 
#    y 0.000000 1.810430 0.000000 
#    z 0.015340 0.000000 1.794200 
# 
# From -- ./inp_files/151976.got.cif
#   From: 2010.06.25/outbox.cif.g09.slc.cpg/sg12_76_cif.got.tgz:151976.got - 2010.06.28 00:19:55.
