data_PCOD8090472
_publ_section_title
;
Structure prediction by ZEFSAII (Michael W. Deem and Ramdas Pophale) SiO2 
 PCOD8090472
Probable space group: C 2/M
;
_chemical_formula_sum "Si O2"
_cell_formula_units_Z 48
_cell_length_a 24.065083
_cell_length_b 9.428145
_cell_length_c 11.251627
_cell_angle_alpha 90.000000
_cell_angle_beta 110.487655
_cell_angle_gamma 90.000000
_cell_volume 2391.396248
_symmetry_space_group_name_H-M "C 2/M"
_symmetry_group_IT_number 12
_symmetry_cell_setting 'monoclinic'
loop_
_space_group_symop_operation_xyz
x,y,z
-x,y,-z
-x,-y,-z
x,-y,z
1/2+x,1/2+y,z
1/2-x,1/2+y,-z
1/2-x,1/2-y,-z
1/2+x,1/2-y,z
loop_
_atom_site_type_symbol
_atom_site_label
_atom_site_fract_x
_atom_site_fract_y
_atom_site_fract_z
Si Si1 0.869787 0.163798 0.666731
Si Si2 0.914102 0.334825 0.221688
Si Si3 0.771428 0.662711 0.700479
Si Si4 0.697122 0.839084 0.011944
Si Si5 0.025236 0.334743 0.147486
Si Si6 0.863615 0.162109 0.391713
O O1 0.805233 0.236798 0.632479
O O2 0.917031 0.241845 0.784988
O O3 0.888398 0.178375 0.543347
O O4 0.865198 0.000000 0.701619
O O5 0.908899 0.500000 0.246511
O O6 0.906261 0.252350 0.339071
O O7 0.977403 0.298032 0.212762
O O8 0.864591 0.286142 0.089737
O O9 0.771000 0.500000 0.653768
O O10 0.807215 0.676944 0.850132
O O11 0.704185 0.717135 0.667176
O O12 0.710010 0.000000 0.984975
O O13 0.750000 0.750000 0.000000
O O14 0.043304 0.500000 0.163734
O O15 0.000000 0.293683 0.000000
O O16 0.866047 0.000000 0.350301
#
# Coordination Sequence:
#
# PCOD8090472 Si02
#       6
#     8   8   8   8   8   8
#     4  11  24  39  58  87 118 152 197 244 291 341
#     4  10  21  36  59  89 116 149 196 242 284 340
#     4  10  20  37  60  84 117 160 197 234 289 348
#     4  10  19  33  56  86 116 146 185 233 286 340
#     4  10  22  43  66  85 113 153 194 238 289 349
#     4  10  22  39  58  84 120 158 192 236 295 347
#
# _framework density 20.071956
#
# number of rings (size 3 to 8) (size 9 to 14) (size 15 to 20)
#    0.000    1.833    1.667    2.000    0.000    7.000 
#    0.000    5.000    0.000    0.000    0.000    0.000 
#    0.000    0.000    0.000    0.000    0.000    0.000 
#
# Total GULP energy -297703.960928 kJ/mol
# GULP energy per Si atom -12404.331705 kJ/mol
# Density = 2.002627 g / cm^3
# Si number density = 20.071956 Si / 1000 Ang^3
#
#
#
# Elastic Constant Matrix: (Units=GPa)
#
#
# Indices 1 2 3 4 5 6 
#
# 1 94.7325 53.3887 22.0607 0.0000 -11.1853 0.0000
# 2 53.3887 79.9046 32.5054 0.0000 -8.4580 0.0000
# 3 22.0607 32.5054 70.4110 0.0000 -4.9602 0.0000
# 4 0.0000 0.0000 0.0000 31.2485 0.0000 -1.9741
# 5 -11.1853 -8.4580 -4.9602 0.0000 32.1976 0.0000
# 6 0.0000 0.0000 0.0000 -1.9741 0.0000 31.1435
#
#
#
# Elastic Compliance Matrix: (Units=1/GPa)
#
#
# Indices 1 2 3 4 5 6 
#
# 1 0.017217 -0.011173 -0.000022 0.000000 0.003043 0.000000
# 2 -0.011173 0.022948 -0.007018 0.000000 0.001066 0.000000
# 3 -0.000022 -0.007018 0.017509 0.000000 0.000846 0.000000
# 4 0.000000 0.000000 0.000000 0.032130 0.000000 0.002037
# 5 0.003043 0.001066 0.000846 0.000000 0.032526 0.000000
# 6 0.000000 0.000000 0.000000 0.002037 0.000000 0.032239
#
#
# Mechanical properties :
#
#
# Convention : Reuss Voigt Hill
#
# Bulk Modulus (GPa) = 47.06397 51.21752 49.14075
# Shear Modulus (GPa) = 25.24274 28.05745 26.65010
#
# Velocity S-wave (km/s) = 3.55013 3.74283 3.64775
# Velocity P-wave (km/s) = 6.34847 6.65212 6.50207
#
# Compressibility (1/GPa) = 0.02124768
#
# Stress axis : x y z
#
# Youngs Moduli (GPa) = 58.08204 43.57712 57.11384
#
# Poissons Ratio (x) = 0.48687 0.00126
# Poissons Ratio (y) = 0.64893 0.40084
# Poissons Ratio (z) = 0.00128 0.30584
#
# Static dielectric constant tensor:
#      x y z
#    x 3.655480 0.000000 0.041210 
#    y 0.000000 3.554830 0.000000 
#    z 0.041210 0.000000 3.689130 
# 
# 
# High freq. dielectric constant tensor:
#      x y z
#    x 1.784050 0.000000 -0.000560 
#    y 0.000000 1.774630 0.000000 
#    z -0.000560 0.000000 1.788710 
# 
# From -- ./inp_files/172959.got.cif
#   From: 2010.06.25/outbox.cif.g09.slc.cpg/sg12_87_cif.got.tgz:172959.got - 2010.06.28 00:19:55.
