data_PCOD8090171
_publ_section_title
;
Structure prediction by ZEFSAII (Michael W. Deem and Ramdas Pophale) SiO2 
 PCOD8090171
Probable space group: C 2/M
;
_chemical_formula_sum "Si O2"
_cell_formula_units_Z 64
_cell_length_a 17.822574
_cell_length_b 8.948286
_cell_length_c 20.678903
_cell_angle_alpha 90.000000
_cell_angle_beta 88.832159
_cell_angle_gamma 90.000000
_cell_volume 3297.217211
_symmetry_space_group_name_H-M "C 2/M"
_symmetry_group_IT_number 12
_symmetry_cell_setting 'monoclinic'
loop_
_space_group_symop_operation_xyz
x,y,z
-x,y,-z
-x,-y,-z
x,-y,z
1/2+x,1/2+y,z
1/2-x,1/2+y,-z
1/2-x,1/2-y,-z
1/2+x,1/2-y,z
loop_
_atom_site_type_symbol
_atom_site_label
_atom_site_fract_x
_atom_site_fract_y
_atom_site_fract_z
Si Si1 0.657460 0.676679 0.132242
Si Si2 0.919483 0.325783 0.747971
Si Si3 0.327400 0.823247 0.112150
Si Si4 0.318383 0.324379 0.354531
Si Si5 0.155792 0.176309 0.366383
Si Si6 0.172315 0.828676 0.505459
Si Si7 0.907193 0.674409 0.239676
Si Si8 0.913399 0.672172 0.985941
O O1 0.651878 0.500000 0.139040
O O2 0.635628 0.748734 0.200362
O O3 0.741623 0.729661 0.114524
O O4 0.602717 0.732174 0.077192
O O5 0.901066 0.500000 0.746234
O O6 0.904571 0.255141 0.678239
O O7 0.004638 0.295061 0.766869
O O8 0.370255 0.762474 0.174625
O O9 0.365817 0.760178 0.046484
O O10 0.335510 0.000000 0.111344
O O11 0.303549 0.500000 0.345115
O O12 0.238923 0.240265 0.352036
O O13 0.361656 0.292201 0.422846
O O14 0.374070 0.265939 0.299486
O O15 0.126398 0.212617 0.440740
O O16 0.157332 0.000000 0.352071
O O17 0.250000 0.750000 0.500000
O O18 0.192629 0.000000 0.501008
O O19 0.889346 0.500000 0.250401
O O20 0.892328 0.500000 0.972457
O O21 0.000000 0.689323 0.000000
#
# Coordination Sequence:
#
# PCOD8090171 Si02
#       8
#     8   8   8   8   8   8   8   8
#     4  11  22  36  57  84 112 141 177 226 279 330
#     4  11  23  38  56  79 108 145 189 232 275 329
#     4   9  19  36  57  80 106 140 181 222 269 325
#     4  10  19  33  55  83 111 140 181 228 273 330
#     4  10  19  34  56  80 109 145 183 226 277 327
#     4   8  16  30  50  77 107 140 178 222 272 325
#     4  10  21  38  57  77 106 145 186 229 279 331
#     4  10  20  37  60  82 109 147 183 217 264 323
#
# _framework density 19.410307
#
# number of rings (size 3 to 8) (size 9 to 14) (size 15 to 20)
#    0.000    2.125    0.000    3.375    0.000    5.250 
#    0.000    2.500    0.000    3.750    0.000    0.000 
#    0.000    0.000    0.000    0.000    0.000    0.000 
#
# Total GULP energy -396678.525737 kJ/mol
# GULP energy per Si atom -12396.203929 kJ/mol
# Density = 1.936613 g / cm^3
# Si number density = 19.410307 Si / 1000 Ang^3
#
#
#
# Elastic Constant Matrix: (Units=GPa)
#
#
# Indices 1 2 3 4 5 6 
#
# 1 58.1294 29.3485 21.0321 0.0000 10.0954 0.0000
# 2 29.3485 65.7714 33.7353 0.0000 11.5145 0.0000
# 3 21.0321 33.7353 119.4508 0.0000 19.0137 0.0000
# 4 0.0000 0.0000 0.0000 33.8079 0.0000 -0.2514
# 5 10.0954 11.5145 19.0137 0.0000 25.9438 0.0000
# 6 0.0000 0.0000 0.0000 -0.2514 0.0000 24.8099
#
#
#
# Elastic Compliance Matrix: (Units=1/GPa)
#
#
# Indices 1 2 3 4 5 6 
#
# 1 0.022782 -0.009013 -0.000783 0.000000 -0.004291 0.000000
# 2 -0.009013 0.021882 -0.004081 0.000000 -0.003213 0.000000
# 3 -0.000783 -0.004081 0.010557 0.000000 -0.005621 0.000000
# 4 0.000000 0.000000 0.000000 0.029581 0.000000 0.000300
# 5 -0.004291 -0.003213 -0.005621 0.000000 0.045760 0.000000
# 6 0.000000 0.000000 0.000000 0.000300 0.000000 0.040310
#
#
# Mechanical properties :
#
#
# Convention : Reuss Voigt Hill
#
# Bulk Modulus (GPa) = 36.40835 45.73150 41.06993
# Shear Modulus (GPa) = 24.06372 27.52804 25.79588
#
# Velocity S-wave (km/s) = 3.52481 3.77001 3.64947
# Velocity P-wave (km/s) = 5.94674 6.52397 6.24203
#
# Compressibility (1/GPa) = 0.02746623
#
# Stress axis : x y z
#
# Youngs Moduli (GPa) = 43.89431 45.69973 94.72500
#
# Poissons Ratio (x) = 0.41189 0.07415
# Poissons Ratio (y) = 0.39562 0.38662
# Poissons Ratio (z) = 0.03436 0.18652
#
# Static dielectric constant tensor:
#      x y z
#    x 3.341180 0.000000 0.044270 
#    y 0.000000 3.463600 0.000000 
#    z 0.044270 0.000000 4.209200 
# 
# 
# High freq. dielectric constant tensor:
#      x y z
#    x 1.737730 0.000000 0.004850 
#    y 0.000000 1.748030 0.000000 
#    z 0.004850 0.000000 1.781640 
# 
# From -- ./inp_files/314084.got.cif
#   From: 2010.06.25/outbox.cif.g09.slc.cpg/sg12_158_cif.got.tgz:314084.got - 2010.06.28 00:19:55.
