data_PCOD8090074
_publ_section_title
;
Structure prediction by ZEFSAII (Michael W. Deem and Ramdas Pophale) SiO2 
 PCOD8090074
Probable space group: C 2/M
;
_chemical_formula_sum "Si O2"
_cell_formula_units_Z 64
_cell_length_a 20.665792
_cell_length_b 8.738261
_cell_length_c 23.561441
_cell_angle_alpha 90.000000
_cell_angle_beta 49.202091
_cell_angle_gamma 90.000000
_cell_volume 3220.962271
_symmetry_space_group_name_H-M "C 2/M"
_symmetry_group_IT_number 12
_symmetry_cell_setting 'monoclinic'
loop_
_space_group_symop_operation_xyz
x,y,z
-x,y,-z
-x,-y,-z
x,-y,z
1/2+x,1/2+y,z
1/2-x,1/2+y,-z
1/2-x,1/2-y,-z
1/2+x,1/2-y,z
loop_
_atom_site_type_symbol
_atom_site_label
_atom_site_fract_x
_atom_site_fract_y
_atom_site_fract_z
Si Si1 0.444061 0.681564 0.410019
Si Si2 0.305820 0.317834 0.578379
Si Si3 0.746384 0.818145 0.831254
Si Si4 0.056504 0.676128 0.912255
Si Si5 0.193086 0.180924 0.081859
Si Si6 0.500377 0.679047 0.168142
Si Si7 0.130418 0.182295 0.337568
Si Si8 0.113817 0.680501 0.672166
O O1 0.442211 0.500000 0.408138
O O2 0.368900 0.745164 0.493479
O O3 0.533979 0.740069 0.383377
O O4 0.434449 0.744228 0.352543
O O5 0.308657 0.500000 0.578489
O O6 0.336012 0.252191 0.621802
O O7 0.210985 0.257940 0.619164
O O8 0.651169 0.762601 0.871546
O O9 0.774512 0.753590 0.876374
O O10 0.809930 0.752554 0.746847
O O11 0.750829 0.000000 0.830175
O O12 0.058567 0.500000 0.890370
O O13 0.015071 0.782306 0.888433
O O14 0.000000 0.694598 0.000000
O O15 0.095336 0.232189 0.130279
O O16 0.202444 0.000000 0.073626
O O17 0.250000 0.250000 0.000000
O O18 0.487489 0.500000 0.186734
O O19 0.432786 0.773410 0.243505
O O20 0.133811 0.000000 0.335904
O O21 0.112402 0.500000 0.665950
#
# Coordination Sequence:
#
# PCOD8090074 Si02
#       8
#     8   8   8   8   8   8   8   8
#     4  10  19  33  55  81 108 137 175 226 278 324
#     4   9  18  32  53  81 107 137 180 224 268 323
#     4   9  17  31  52  77 105 138 179 221 261 313
#     4  10  20  35  57  82 109 144 182 220 265 320
#     4  10  21  37  57  81 108 141 180 222 267 314
#     4  11  23  38  57  82 112 144 180 224 271 317
#     4   9  16  29  52  79 105 135 175 223 268 313
#     4  11  22  36  55  78 108 145 182 220 265 323
#
# _framework density 19.86984
#
# number of rings (size 3 to 8) (size 9 to 14) (size 15 to 20)
#    0.000    2.125    0.000    3.750    0.000    7.750 
#    0.000    1.250    0.000    6.750    0.000    0.000 
#    0.000    0.000    0.000    0.000    0.000    0.000 
#
# Total GULP energy -396905.718685 kJ/mol
# GULP energy per Si atom -12403.303709 kJ/mol
# Density = 1.982461 g / cm^3
# Si number density = 19.869840 Si / 1000 Ang^3
#
#
#
# Elastic Constant Matrix: (Units=GPa)
#
#
# Indices 1 2 3 4 5 6 
#
# 1 132.3492 25.1290 32.8152 -0.0002 -3.0067 0.0007
# 2 25.1290 13.4654 17.5744 -0.0003 -5.6794 0.0011
# 3 32.8152 17.5744 115.0164 -0.0002 -8.0567 0.0004
# 4 -0.0002 -0.0003 -0.0002 23.3498 0.0001 3.3265
# 5 -3.0067 -5.6794 -8.0567 0.0001 45.7783 -0.0002
# 6 0.0007 0.0011 0.0004 3.3265 -0.0002 22.5674
#
#
#
# Elastic Compliance Matrix: (Units=1/GPa)
#
#
# Indices 1 2 3 4 5 6 
#
# 1 0.011887 -0.023039 -0.000017 0.000000 -0.002081 0.000001
# 2 -0.023039 0.141342 -0.014075 0.000002 0.013545 -0.000006
# 3 -0.000017 -0.014075 0.010861 0.000000 0.000164 0.000001
# 4 0.000000 0.000002 0.000000 0.043746 0.000000 -0.006448
# 5 -0.002081 0.013545 0.000164 0.000000 0.023417 0.000000
# 6 0.000001 -0.000006 0.000001 -0.006448 0.000000 0.045262
#
#
# Mechanical properties :
#
#
# Convention : Reuss Voigt Hill
#
# Bulk Modulus (GPa) = 11.13224 45.76314 28.44769
# Shear Modulus (GPa) = 13.13300 30.69328 21.91314
#
# Velocity S-wave (km/s) = 2.57369 3.93455 3.32450
# Velocity P-wave (km/s) = 3.80086 6.61229 5.39300
#
# Compressibility (1/GPa) = 0.08982919
#
# Stress axis : x y z
#
# Youngs Moduli (GPa) = 84.12489 7.07502 92.06945
#
# Poissons Ratio (x) = 0.16300 0.00156
# Poissons Ratio (y) = 1.93815 1.29587
# Poissons Ratio (z) = 0.00142 0.09958
#
# Static dielectric constant tensor:
#      x y z
#    x 3.886770 0.000000 -0.062490 
#    y 0.000000 3.134060 0.000000 
#    z -0.062490 0.000000 3.788150 
# 
# 
# High freq. dielectric constant tensor:
#      x y z
#    x 1.794290 0.000000 -0.001220 
#    y 0.000000 1.726100 0.000000 
#    z -0.001220 0.000000 1.793990 
# 
# From -- ./inp_files/346080.got.cif
#   From: 2010.06.25/outbox.cif.g09.slc.cpg/sg12_174_cif.got.tgz:346080.got - 2010.06.28 00:19:55.
