data_PCOD8090462
_publ_section_title
;
Structure prediction by ZEFSAII (Michael W. Deem and Ramdas Pophale) SiO2 
 PCOD8090462
Probable space group: C 2/M
;
_chemical_formula_sum "Si O2"
_cell_formula_units_Z 64
_cell_length_a 18.344254
_cell_length_b 14.349660
_cell_length_c 12.535500
_cell_angle_alpha 90.000000
_cell_angle_beta 81.144612
_cell_angle_gamma 90.000000
_cell_volume 3260.434263
_symmetry_space_group_name_H-M "C 2/M"
_symmetry_group_IT_number 12
_symmetry_cell_setting 'monoclinic'
loop_
_space_group_symop_operation_xyz
x,y,z
-x,y,-z
-x,-y,-z
x,-y,z
1/2+x,1/2+y,z
1/2-x,1/2+y,-z
1/2-x,1/2-y,-z
1/2+x,1/2-y,z
loop_
_atom_site_type_symbol
_atom_site_label
_atom_site_fract_x
_atom_site_fract_y
_atom_site_fract_z
Si Si1 0.856617 0.246494 0.906471
Si Si2 0.864368 0.604846 0.729164
Si Si3 0.978556 0.605214 0.394522
Si Si4 0.759685 0.608142 0.567221
Si Si5 0.701682 0.225165 0.865096
Si Si6 0.172538 0.389499 0.662146
Si Si7 0.986671 0.893465 0.877715
Si Si8 0.854563 0.107114 0.240275
O O1 0.852489 0.338307 0.837976
O O2 0.778712 0.195320 0.902084
O O3 0.921980 0.176571 0.857763
O O4 0.861708 0.279333 0.028987
O O5 0.835527 0.500000 0.754324
O O6 0.820437 0.648796 0.637441
O O7 0.951965 0.607231 0.697332
O O8 0.953828 0.500000 0.429981
O O9 0.908129 0.649795 0.352141
O O10 0.000000 0.657690 0.500000
O O11 0.778481 0.500000 0.551638
O O12 0.771270 0.648212 0.444109
O O13 0.676130 0.623651 0.631327
O O14 0.689413 0.154895 0.771544
O O15 0.698323 0.331781 0.823457
O O16 0.176338 0.500000 0.677245
O O17 0.059548 0.865367 0.792824
O O18 0.963850 0.000000 0.856023
O O19 0.000000 0.882912 0.000000
O O20 0.843605 0.000000 0.207885
#
# Coordination Sequence:
#
# PCOD8090462 Si02
#       8
#     8   8   8   8   8   8   8   8
#     4  11  24  39  57  85 122 154 197 246 299 359
#     4  10  19  33  56  85 116 154 192 237 294 354
#     4   9  16  30  54  83 114 149 191 233 279 349
#     4   9  17  34  60  85 114 150 195 246 292 349
#     4  11  24  38  57  88 119 156 195 245 300 358
#     4  10  21  37  57  86 125 161 192 234 298 365
#     4  10  21  39  64  85 108 154 208 255 296 340
#     4  10  20  38  62  88 110 142 204 259 295 339
#
# _framework density 19.629287999999999
#
# number of rings (size 3 to 8) (size 9 to 14) (size 15 to 20)
#    0.000    2.000    3.750    0.000    1.750    1.500 
#    0.000    2.500    0.000    2.625    0.000    3.500 
#    0.000    0.000    0.000    0.000    0.000    0.000 
#
# Total GULP energy -396503.558542 kJ/mol
# GULP energy per Si atom -12390.736204 kJ/mol
# Density = 1.958461 g / cm^3
# Si number density = 19.629288 Si / 1000 Ang^3
#
#
#
# Elastic Constant Matrix: (Units=GPa)
#
#
# Indices 1 2 3 4 5 6 
#
# 1 119.9889 32.2056 51.2829 0.0000 -18.0869 0.0000
# 2 32.2056 58.0468 44.6839 0.0000 -1.0454 0.0000
# 3 51.2829 44.6839 147.6145 0.0000 -8.6333 0.0000
# 4 0.0000 0.0000 0.0000 27.6427 0.0000 -2.5797
# 5 -18.0869 -1.0454 -8.6333 0.0000 29.4094 0.0000
# 6 0.0000 0.0000 0.0000 -2.5797 0.0000 22.1391
#
#
#
# Elastic Compliance Matrix: (Units=1/GPa)
#
#
# Indices 1 2 3 4 5 6 
#
# 1 0.011441 -0.004506 -0.002247 0.000000 0.006216 0.000000
# 2 -0.004506 0.024279 -0.005999 0.000000 -0.003669 0.000000
# 3 -0.002247 -0.005999 0.009440 0.000000 0.001176 0.000000
# 4 0.000000 0.000000 0.000000 0.036574 0.000000 0.004262
# 5 0.006216 -0.003669 0.001176 0.000000 0.038041 0.000000
# 6 0.000000 0.000000 0.000000 0.004262 0.000000 0.045666
#
#
# Mechanical properties :
#
#
# Convention : Reuss Voigt Hill
#
# Bulk Modulus (GPa) = 50.87421 64.66614 57.77018
# Shear Modulus (GPa) = 25.31709 29.00342 27.16026
#
# Velocity S-wave (km/s) = 3.59522 3.84807 3.72379
# Velocity P-wave (km/s) = 6.57327 7.26352 6.92700
#
# Compressibility (1/GPa) = 0.01965632
#
# Stress axis : x y z
#
# Youngs Moduli (GPa) = 87.40498 41.18782 105.93562
#
# Poissons Ratio (x) = 0.18559 0.23806
# Poissons Ratio (y) = 0.39384 0.63547
# Poissons Ratio (z) = 0.19642 0.24707
#
# Static dielectric constant tensor:
#      x y z
#    x 3.729510 0.000000 -0.251810 
#    y 0.000000 3.361330 0.000000 
#    z -0.251810 0.000000 3.670190 
# 
# 
# High freq. dielectric constant tensor:
#      x y z
#    x 1.765240 0.000000 -0.023460 
#    y 0.000000 1.739640 0.000000 
#    z -0.023460 0.000000 1.763780 
# 
# From -- ./inp_files/156634.got.cif
#   From: 2010.06.25/outbox.cif.g09.slc.cpg/sg12_79_cif.got.tgz:156634.got - 2010.06.28 00:19:55.
