data_PCOD8090357
_publ_section_title
;
Structure prediction by ZEFSAII (Michael W. Deem and Ramdas Pophale) SiO2 
 PCOD8090357
Probable space group: C 2/M
;
_chemical_formula_sum "Si O2"
_cell_formula_units_Z 40
_cell_length_a 21.190362
_cell_length_b 9.031643
_cell_length_c 13.766015
_cell_angle_alpha 90.000000
_cell_angle_beta 130.931407
_cell_angle_gamma 90.000000
_cell_volume 1990.419687
_symmetry_space_group_name_H-M "C 2/M"
_symmetry_group_IT_number 12
_symmetry_cell_setting 'monoclinic'
loop_
_space_group_symop_operation_xyz
x,y,z
-x,y,-z
-x,-y,-z
x,-y,z
1/2+x,1/2+y,z
1/2-x,1/2+y,-z
1/2-x,1/2-y,-z
1/2+x,1/2-y,z
loop_
_atom_site_type_symbol
_atom_site_label
_atom_site_fract_x
_atom_site_fract_y
_atom_site_fract_z
Si Si1 0.170479 0.324449 0.470763
Si Si2 0.543238 0.826639 0.184558
Si Si3 0.406150 0.174598 0.406968
Si Si4 0.375752 0.174950 0.929752
Si Si5 0.770531 0.326953 0.121356
O O1 0.185107 0.500000 0.481963
O O2 0.250000 0.250000 0.500000
O O3 0.087413 0.275351 0.327681
O O4 0.150635 0.266156 0.559847
O O5 0.591963 0.763669 0.140523
O O6 0.549022 0.000000 0.176979
O O7 0.445193 0.783946 0.082297
O O8 0.500000 0.243499 0.500000
O O9 0.361302 0.212213 0.258992
O O10 0.413680 0.000000 0.429928
O O11 0.294553 0.271303 0.865207
O O12 0.354733 0.000000 0.910350
O O13 0.762328 0.500000 0.095568
O O14 0.750000 0.250000 0.000000
#
# Coordination Sequence:
#
# PCOD8090357 Si02
#       5
#     8   8   8   8   8
#     4  10  19  33  56  82 110 144 185 229 277 330
#     4   8  16  30  54  83 108 142 182 220 268 329
#     4   9  20  37  58  83 110 146 192 233 271 329
#     4   9  17  33  55  81 111 142 182 226 269 325
#     4  11  23  37  56  81 109 145 187 231 280 329
#
# _framework density 20.096264999999999
#
# number of rings (size 3 to 8) (size 9 to 14) (size 15 to 20)
#    0.000    2.600    0.000    3.000    2.800    0.000 
#    0.000    4.000    0.000    3.000    0.000    0.000 
#    0.000    0.000    0.000    0.000    0.000    0.000 
#
# Total GULP energy -247813.552813 kJ/mol
# GULP energy per Si atom -12390.677641 kJ/mol
# Density = 2.005052 g / cm^3
# Si number density = 20.096265 Si / 1000 Ang^3
#
#
#
# Elastic Constant Matrix: (Units=GPa)
#
#
# Indices 1 2 3 4 5 6 
#
# 1 101.7524 25.8385 51.0311 0.0000 6.6819 0.0000
# 2 25.8385 43.9514 46.7246 0.0000 3.9036 0.0000
# 3 51.0311 46.7246 134.7007 0.0000 -0.9492 0.0000
# 4 0.0000 0.0000 0.0000 19.3456 0.0000 -0.3257
# 5 6.6819 3.9036 -0.9492 0.0000 34.6863 0.0000
# 6 0.0000 0.0000 0.0000 -0.3257 0.0000 29.9201
#
#
#
# Elastic Compliance Matrix: (Units=1/GPa)
#
#
# Indices 1 2 3 4 5 6 
#
# 1 0.012651 -0.003381 -0.003635 0.000000 -0.002156 0.000000
# 2 -0.003381 0.037632 -0.011800 0.000000 -0.003907 0.000000
# 3 -0.003635 -0.011800 0.012911 0.000000 0.002382 0.000000
# 4 0.000000 0.000000 0.000000 0.051701 0.000000 0.000563
# 5 -0.002156 -0.003907 0.002382 0.000000 0.029750 0.000000
# 6 0.000000 0.000000 0.000000 0.000563 0.000000 0.033428
#
#
# Mechanical properties :
#
#
# Convention : Reuss Voigt Hill
#
# Bulk Modulus (GPa) = 39.12263 58.62140 48.87202
# Shear Modulus (GPa) = 22.29886 27.24444 24.77165
#
# Velocity S-wave (km/s) = 3.33468 3.68597 3.51472
# Velocity P-wave (km/s) = 5.85975 6.88105 6.39083
#
# Compressibility (1/GPa) = 0.02556065
#
# Stress axis : x y z
#
# Youngs Moduli (GPa) = 79.04444 26.57319 77.45349
#
# Poissons Ratio (x) = 0.08986 0.28155
# Poissons Ratio (y) = 0.26729 0.91396
# Poissons Ratio (z) = 0.28733 0.31357
#
# Static dielectric constant tensor:
#      x y z
#    x 3.752050 0.000000 0.007790 
#    y 0.000000 3.183880 0.000000 
#    z 0.007790 0.000000 4.567290 
# 
# 
# High freq. dielectric constant tensor:
#      x y z
#    x 1.786310 0.000000 0.001870 
#    y 0.000000 1.729690 0.000000 
#    z 0.001870 0.000000 1.805450 
# 
# From -- ./inp_files/229659.got.cif
#   From: 2010.06.25/outbox.cif.g09.slc.cpg/sg12_115_cif.got.tgz:229659.got - 2010.06.28 00:19:55.
