data_PCOD8090710
_publ_section_title
;
Structure prediction by ZEFSAII (Michael W. Deem and Ramdas Pophale) SiO2 
 PCOD8090710
Probable space group: C 2/M
;
_chemical_formula_sum "Si O2"
_cell_formula_units_Z 56
_cell_length_a 20.308666
_cell_length_b 8.456328
_cell_length_c 30.746282
_cell_angle_alpha 90.000000
_cell_angle_beta 147.713170
_cell_angle_gamma 90.000000
_cell_volume 2820.496698
_symmetry_space_group_name_H-M "C 2/M"
_symmetry_group_IT_number 12
_symmetry_cell_setting 'monoclinic'
loop_
_space_group_symop_operation_xyz
x,y,z
-x,y,-z
-x,-y,-z
x,-y,z
1/2+x,1/2+y,z
1/2-x,1/2+y,-z
1/2-x,1/2-y,-z
1/2+x,1/2-y,z
loop_
_atom_site_type_symbol
_atom_site_label
_atom_site_fract_x
_atom_site_fract_y
_atom_site_fract_z
Si Si1 0.077938 0.318990 0.664885
Si Si2 0.177344 0.815939 0.500417
Si Si3 0.928714 0.684752 0.085950
Si Si4 0.726390 0.183703 0.917835
Si Si5 0.829541 0.815682 0.660841
Si Si6 0.200244 0.682800 0.261961
Si Si7 0.087817 0.183407 0.763012
O O1 0.035924 0.500000 0.637499
O O2 0.194839 0.291722 0.699519
O O3 0.114810 0.281724 0.734841
O O4 0.967645 0.207429 0.587362
O O5 0.250000 0.750000 0.500000
O O6 0.218059 0.721878 0.566014
O O7 0.207002 0.000000 0.522655
O O8 0.904535 0.500000 0.065766
O O9 0.868324 0.740405 0.097674
O O10 0.072444 0.727417 0.166845
O O11 0.865565 0.777817 0.010793
O O12 0.696365 0.281166 0.857698
O O13 0.711911 0.000000 0.899297
O O14 0.810953 0.712445 0.693201
O O15 0.957006 0.763098 0.709656
O O16 0.830020 0.000000 0.673267
O O17 0.232683 0.500000 0.272281
O O18 0.086888 0.000000 0.750187
#
# Coordination Sequence:
#
# PCOD8090710 Si02
#       7
#     8   8   8   8   8   8   8
#     4  12  26  43  64  90 125 163 205 253 308 369
#     4  12  24  41  65  93 124 160 204 254 307 360
#     4   9  19  35  57  87 123 161 199 247 304 361
#     4  10  19  33  58  91 123 157 203 253 301 357
#     4  11  23  39  64  94 124 160 205 254 303 362
#     4  11  23  42  64  90 127 165 205 251 309 370
#     4  11  22  38  62  91 124 161 205 252 304 363
#
# _framework density 19.854659000000002
#
# number of rings (size 3 to 8) (size 9 to 14) (size 15 to 20)
#    0.000    1.143    2.857    4.286    0.000    3.429 
#    0.000    3.571    0.000    4.286    0.000    0.000 
#    0.000    0.000    0.000    0.000    0.000    0.000 
#
# Total GULP energy -347415.372051 kJ/mol
# GULP energy per Si atom -12407.691859 kJ/mol
# Density = 1.980947 g / cm^3
# Si number density = 19.854659 Si / 1000 Ang^3
#
#
#
# Elastic Constant Matrix: (Units=GPa)
#
#
# Indices 1 2 3 4 5 6 
#
# 1 75.6851 22.7544 27.3623 -0.0001 2.3260 -0.0003
# 2 22.7544 60.4818 19.6939 -0.0004 1.1932 0.0005
# 3 27.3623 19.6939 110.9328 -0.0001 -5.5955 0.0000
# 4 -0.0001 -0.0004 -0.0001 35.1729 0.0000 -2.6355
# 5 2.3260 1.1932 -5.5955 0.0000 30.0736 0.0000
# 6 -0.0003 0.0005 0.0000 -2.6355 0.0000 30.6728
#
#
#
# Elastic Compliance Matrix: (Units=1/GPa)
#
#
# Indices 1 2 3 4 5 6 
#
# 1 0.015871 -0.004922 -0.003122 0.000000 -0.001613 0.000000
# 2 -0.004922 0.019125 -0.002221 0.000000 -0.000791 0.000000
# 3 -0.003122 -0.002221 0.010292 0.000000 0.002245 0.000000
# 4 0.000000 0.000000 0.000000 0.028615 0.000000 0.002459
# 5 -0.001613 -0.000791 0.002245 0.000000 0.033826 0.000000
# 6 0.000000 0.000000 0.000000 0.002459 0.000000 0.032813
#
#
# Mechanical properties :
#
#
# Convention : Reuss Voigt Hill
#
# Bulk Modulus (GPa) = 40.39350 42.96896 41.68123
# Shear Modulus (GPa) = 29.52900 31.00312 30.26606
#
# Velocity S-wave (km/s) = 3.86068 3.95587 3.90857
# Velocity P-wave (km/s) = 6.34523 6.52334 6.43490
#
# Compressibility (1/GPa) = 0.02475646
#
# Stress axis : x y z
#
# Youngs Moduli (GPa) = 63.00846 52.28862 97.16224
#
# Poissons Ratio (x) = 0.25739 0.30335
# Poissons Ratio (y) = 0.31016 0.21579
# Poissons Ratio (z) = 0.19672 0.11613
#
# Static dielectric constant tensor:
#      x y z
#    x 3.387010 0.000000 0.047840 
#    y 0.000000 3.653810 -0.000010 
#    z 0.047840 -0.000010 3.650650 
# 
# 
# High freq. dielectric constant tensor:
#      x y z
#    x 1.754230 0.000000 -0.006960 
#    y 0.000000 1.782720 0.000000 
#    z -0.006960 0.000000 1.786680 
# 
# From -- ./inp_files/380707.got.cif
#   From: 2010.06.25/outbox.cif.g09.slc.cpg/sg12_191_cif.got.tgz:380707.got - 2010.06.28 00:19:55.
