data_PCOD8090559
_publ_section_title
;
Structure prediction by ZEFSAII (Michael W. Deem and Ramdas Pophale) SiO2 
 PCOD8090559
Probable space group: C 2/M
;
_chemical_formula_sum "Si O2"
_cell_formula_units_Z 48
_cell_length_a 19.555127
_cell_length_b 9.092825
_cell_length_c 20.344739
_cell_angle_alpha 90.000000
_cell_angle_beta 43.030726
_cell_angle_gamma 90.000000
_cell_volume 2468.564880
_symmetry_space_group_name_H-M "C 2/M"
_symmetry_group_IT_number 12
_symmetry_cell_setting 'monoclinic'
loop_
_space_group_symop_operation_xyz
x,y,z
-x,y,-z
-x,-y,-z
x,-y,z
1/2+x,1/2+y,z
1/2-x,1/2+y,-z
1/2-x,1/2-y,-z
1/2+x,1/2-y,z
loop_
_atom_site_type_symbol
_atom_site_label
_atom_site_fract_x
_atom_site_fract_y
_atom_site_fract_z
Si Si1 0.556759 0.168080 0.788417
Si Si2 0.660605 0.823872 0.103184
Si Si3 0.382064 0.172803 0.585777
Si Si4 0.806574 0.334527 0.776510
Si Si5 0.252756 0.171322 0.428481
Si Si6 0.086121 0.834531 0.895670
O O1 0.445646 0.227357 0.851335
O O2 0.632396 0.190958 0.675045
O O3 0.604680 0.252883 0.815087
O O4 0.549345 0.000000 0.814362
O O5 0.657108 0.762277 0.180744
O O6 0.675233 0.000000 0.091944
O O7 0.750000 0.750000 0.000000
O O8 0.500000 0.200955 0.500000
O O9 0.345790 0.240650 0.681641
O O10 0.326297 0.256506 0.566157
O O11 0.355002 0.000000 0.598804
O O12 0.848463 0.500000 0.744582
O O13 0.687167 0.329761 0.865941
O O14 0.250000 0.250000 0.500000
O O15 0.224803 0.000000 0.455352
O O16 0.052909 0.000000 0.901948
O O17 0.000000 0.757457 0.000000
#
# Coordination Sequence:
#
# PCOD8090559 Si02
#       6
#     8   8   8   8   8   8
#     4  10  22  38  58  84 117 152 188 238 293 347
#     4  10  21  38  58  83 116 153 195 237 284 341
#     4  10  21  38  64  90 114 152 197 241 296 359
#     4   9  18  34  56  82 112 146 186 234 281 337
#     4  11  24  41  62  89 121 155 196 247 300 357
#     4  10  19  33  57  85 111 145 190 235 281 340
#
# _framework density 19.444496999999998
#
# number of rings (size 3 to 8) (size 9 to 14) (size 15 to 20)
#    0.000    2.000    1.667    1.500    2.333    3.333 
#    0.000    1.667    0.000    0.000    0.000    0.000 
#    0.000    0.000    0.000    0.000    0.000    0.000 
#
# Total GULP energy -297534.216932 kJ/mol
# GULP energy per Si atom -12397.259039 kJ/mol
# Density = 1.940024 g / cm^3
# Si number density = 19.444497 Si / 1000 Ang^3
#
#
#
# Elastic Constant Matrix: (Units=GPa)
#
#
# Indices 1 2 3 4 5 6 
#
# 1 106.7888 38.1758 36.5832 0.0000 9.5438 0.0000
# 2 38.1758 58.3610 33.8639 0.0000 3.2151 0.0000
# 3 36.5832 33.8639 103.9989 0.0000 4.5214 0.0000
# 4 0.0000 0.0000 0.0000 29.1846 0.0000 3.0667
# 5 9.5438 3.2151 4.5214 0.0000 42.2164 0.0000
# 6 0.0000 0.0000 0.0000 3.0667 0.0000 23.4276
#
#
#
# Elastic Compliance Matrix: (Units=1/GPa)
#
#
# Indices 1 2 3 4 5 6 
#
# 1 0.012790 -0.007018 -0.002121 0.000000 -0.002130 0.000000
# 2 -0.007018 0.025010 -0.005687 0.000000 0.000291 0.000000
# 3 -0.002121 -0.005687 0.012231 0.000000 -0.000397 0.000000
# 4 0.000000 0.000000 0.000000 0.034743 0.000000 -0.004548
# 5 -0.002130 0.000291 -0.000397 0.000000 0.024189 0.000000
# 6 0.000000 0.000000 0.000000 -0.004548 0.000000 0.043280
#
#
# Mechanical properties :
#
#
# Convention : Reuss Voigt Hill
#
# Bulk Modulus (GPa) = 49.07555 54.04384 51.55970
# Shear Modulus (GPa) = 26.49857 29.66743 28.08300
#
# Velocity S-wave (km/s) = 3.69559 3.91032 3.80447
# Velocity P-wave (km/s) = 6.59571 6.94563 6.77293
#
# Compressibility (1/GPa) = 0.02037675
#
# Stress axis : x y z
#
# Youngs Moduli (GPa) = 78.18429 39.98438 81.76013
#
# Poissons Ratio (x) = 0.28062 0.17344
# Poissons Ratio (y) = 0.54872 0.46501
# Poissons Ratio (z) = 0.16585 0.22741
#
# Static dielectric constant tensor:
#      x y z
#    x 3.647060 0.000000 0.011200 
#    y 0.000000 3.356680 0.000000 
#    z 0.011200 0.000000 3.721650 
# 
# 
# High freq. dielectric constant tensor:
#      x y z
#    x 1.767000 0.000000 0.000430 
#    y 0.000000 1.726970 0.000000 
#    z 0.000430 0.000000 1.773580 
# 
# From -- ./inp_files/230382.got.cif
#   From: 2010.06.25/outbox.cif.g09.slc.cpg/sg12_116_cif.got.tgz:230382.got - 2010.06.28 00:19:55.
