data_PCOD8090926
_publ_section_title
;
Structure prediction by ZEFSAII (Michael W. Deem and Ramdas Pophale) SiO2 
 PCOD8090926
Probable space group: C 2/M
;
_chemical_formula_sum "Si O2"
_cell_formula_units_Z 40
_cell_length_a 13.911736
_cell_length_b 28.382751
_cell_length_c 5.808181
_cell_angle_alpha 90.000000
_cell_angle_beta 56.627845
_cell_angle_gamma 90.000000
_cell_volume 1915.236423
_symmetry_space_group_name_H-M "C 2/M"
_symmetry_group_IT_number 12
_symmetry_cell_setting 'monoclinic'
loop_
_space_group_symop_operation_xyz
x,y,z
-x,y,-z
-x,-y,-z
x,-y,z
1/2+x,1/2+y,z
1/2-x,1/2+y,-z
1/2-x,1/2-y,-z
1/2+x,1/2-y,z
loop_
_atom_site_type_symbol
_atom_site_label
_atom_site_fract_x
_atom_site_fract_y
_atom_site_fract_z
Si Si1 0.345574 0.623784 0.066736
Si Si2 0.652678 0.872265 0.942731
Si Si3 0.288118 0.198209 0.514251
Si Si4 0.500000 0.165289 0.500000
Si Si5 0.500000 0.409408 0.500000
Si Si6 0.211864 0.054049 0.473250
O O1 0.326398 0.669910 0.250913
O O2 0.331718 0.575869 0.229976
O O3 0.249605 0.626214 0.003290
O O4 0.468379 0.622592 0.768560
O O5 0.664319 0.825157 0.779111
O O6 0.671109 0.918973 0.762224
O O7 0.530944 0.868620 0.239531
O O8 0.250000 0.250000 0.500000
O O9 0.390350 0.197466 0.572483
O O10 0.390135 0.441370 0.581637
O O11 0.244008 0.000000 0.469613
#
# Coordination Sequence:
#
# PCOD8090926 Si02
#       6
#     8   8   8   4   4   8
#     4   9  20  35  54  80 116 153 190 235 285 342
#     4   9  20  39  58  80 113 149 189 235 285 338
#     4  10  21  40  61  86 116 150 193 239 287 345
#     4  10  20  38  64  85 112 153 189 236 295 342
#     4  10  19  34  53  81 118 155 192 238 292 344
#     4  10  20  35  56  82 115 154 195 239 288 345
#
# _framework density 20.885149999999999
#
# number of rings (size 3 to 8) (size 9 to 14) (size 15 to 20)
#    0.000    2.400    0.000    1.500    0.000    8.000 
#    0.000   24.500    0.000   15.600    0.000    0.000 
#    0.000    0.000    0.000    0.000    0.000    0.000 
#
# Total GULP energy -247825.658674 kJ/mol
# GULP energy per Si atom -12391.282934 kJ/mol
# Density = 2.083761 g / cm^3
# Si number density = 20.885150 Si / 1000 Ang^3
#
#
#
# Elastic Constant Matrix: (Units=GPa)
#
#
# Indices 1 2 3 4 5 6 
#
# 1 68.1964 37.0692 8.7328 0.0000 -1.7299 0.0000
# 2 37.0692 173.3496 81.6929 0.0000 -8.6454 0.0000
# 3 8.7328 81.6929 183.9261 0.0000 -12.8988 0.0000
# 4 0.0000 0.0000 0.0000 14.0973 0.0000 4.1086
# 5 -1.7299 -8.6454 -12.8988 0.0000 31.9939 0.0000
# 6 0.0000 0.0000 0.0000 4.1086 0.0000 25.7109
#
#
#
# Elastic Compliance Matrix: (Units=1/GPa)
#
#
# Indices 1 2 3 4 5 6 
#
# 1 0.016739 -0.004049 0.001019 0.000000 0.000222 0.000000
# 2 -0.004049 0.008290 -0.003445 0.000000 0.000632 0.000000
# 3 0.001019 -0.003445 0.007057 0.000000 0.001969 0.000000
# 4 0.000000 0.000000 0.000000 0.074401 0.000000 -0.011889
# 5 0.000222 0.000632 0.001969 0.000000 0.032233 0.000000
# 6 0.000000 0.000000 0.000000 -0.011889 0.000000 0.040794
#
#
# Mechanical properties :
#
#
# Convention : Reuss Voigt Hill
#
# Bulk Modulus (GPa) = 52.25767 75.60689 63.93228
# Shear Modulus (GPa) = 25.14557 34.22557 29.68557
#
# Velocity S-wave (km/s) = 3.47362 4.05254 3.77420
# Velocity P-wave (km/s) = 6.41591 7.62741 7.04774
#
# Compressibility (1/GPa) = 0.01913595
#
# Stress axis : x y z
#
# Youngs Moduli (GPa) = 59.73923 120.63194 141.70339
#
# Poissons Ratio (x) = 0.48841 -0.14441
# Poissons Ratio (y) = 0.24187 0.48822
# Poissons Ratio (z) = -0.06088 0.41562
#
# Static dielectric constant tensor:
#      x y z
#    x 3.940490 0.000000 -0.277350 
#    y 0.000000 3.593580 0.000000 
#    z -0.277350 0.000000 5.310750 
# 
# 
# High freq. dielectric constant tensor:
#      x y z
#    x 1.817980 0.000000 0.012950 
#    y 0.000000 1.777530 0.000000 
#    z 0.012950 0.000000 1.842920 
# 
# From -- ./inp_files/7656.got.cif
#   From: 2010.06.25/outbox.cif.g09.slc.cpg/sg12_4_cif.got.tgz:7656.got - 2010.06.28 00:19:55.
