data_PCOD8090012
_publ_section_title
;
Structure prediction by ZEFSAII (Michael W. Deem and Ramdas Pophale) SiO2 
 PCOD8090012
Probable space group: C 2/M
;
_chemical_formula_sum "Si O2"
_cell_formula_units_Z 64
_cell_length_a 24.644372
_cell_length_b 8.908899
_cell_length_c 17.552861
_cell_angle_alpha 90.000000
_cell_angle_beta 103.214899
_cell_angle_gamma 90.000000
_cell_volume 3751.754011
_symmetry_space_group_name_H-M "C 2/M"
_symmetry_group_IT_number 12
_symmetry_cell_setting 'monoclinic'
loop_
_space_group_symop_operation_xyz
x,y,z
-x,y,-z
-x,-y,-z
x,-y,z
1/2+x,1/2+y,z
1/2-x,1/2+y,-z
1/2-x,1/2-y,-z
1/2+x,1/2-y,z
loop_
_atom_site_type_symbol
_atom_site_label
_atom_site_fract_x
_atom_site_fract_y
_atom_site_fract_z
Si Si1 0.737029 0.677772 0.576724
Si Si2 0.661076 0.324693 0.319294
Si Si3 0.948716 0.825902 0.321022
Si Si4 0.587137 0.676639 0.155672
Si Si5 0.435443 0.170113 0.999525
Si Si6 0.571056 0.673413 0.418959
Si Si7 0.621046 0.823578 0.576237
Si Si8 0.036268 0.825000 0.846142
O O1 0.735891 0.500000 0.567020
O O2 0.750000 0.750000 0.500000
O O3 0.783691 0.726597 0.652294
O O4 0.678134 0.733454 0.588056
O O5 0.676542 0.500000 0.324223
O O6 0.634376 0.274583 0.230661
O O7 0.618365 0.288259 0.373168
O O8 0.906786 0.719415 0.352738
O O9 0.940059 0.787785 0.229501
O O10 0.011906 0.787887 0.363554
O O11 0.935525 0.000000 0.333884
O O12 0.586717 0.500000 0.144689
O O13 0.527574 0.732019 0.168964
O O14 0.600529 0.750362 0.078174
O O15 0.424926 0.244375 0.078598
O O16 0.415661 0.000000 0.997697
O O17 0.500000 0.188442 0.000000
O O18 0.574213 0.500000 0.445152
O O19 0.579236 0.776388 0.495375
O O20 0.632764 0.000000 0.576583
O O21 0.038392 0.000000 0.864260
#
# Coordination Sequence:
#
# PCOD8090012 Si02
#       8
#     8   8   8   8   8   8   8   8
#     4  12  24  39  57  76  99 132 173 219 265 309
#     4  10  19  33  55  80 104 134 172 214 259 307
#     4  10  20  35  54  77 104 139 177 214 258 309
#     4   9  16  29  49  74 102 134 171 207 247 303
#     4   9  17  27  41  67 103 139 169 204 251 297
#     4  10  19  34  55  76 103 138 173 212 260 309
#     4  12  25  38  52  74 102 138 178 218 260 305
#     4   9  16  29  49  72  99 135 174 206 246 302
#
# _framework density 17.058688
#
# number of rings (size 3 to 8) (size 9 to 14) (size 15 to 20)
#    0.000    1.875    2.500    3.000    0.000    4.500 
#    0.000    0.000    0.000    0.000    0.000    0.875 
#    0.000    0.000    0.000    0.000    0.000    0.000 
#
# Total GULP energy -396869.122295 kJ/mol
# GULP energy per Si atom -12402.160072 kJ/mol
# Density = 1.701986 g / cm^3
# Si number density = 17.058688 Si / 1000 Ang^3
#
#
#
# Elastic Constant Matrix: (Units=GPa)
#
#
# Indices 1 2 3 4 5 6 
#
# 1 46.8242 23.3506 27.4543 0.0000 -1.9064 0.0000
# 2 23.3506 80.2953 51.8450 0.0000 1.5918 0.0000
# 3 27.4543 51.8450 136.2211 0.0000 3.4799 0.0000
# 4 0.0000 0.0000 0.0000 23.3196 0.0000 0.8490
# 5 -1.9064 1.5918 3.4799 0.0000 16.9286 0.0000
# 6 0.0000 0.0000 0.0000 0.8490 0.0000 23.3990
#
#
#
# Elastic Compliance Matrix: (Units=1/GPa)
#
#
# Indices 1 2 3 4 5 6 
#
# 1 0.026232 -0.005607 -0.003259 0.000000 0.004151 0.000000
# 2 -0.005607 0.017711 -0.005581 0.000000 -0.001149 0.000000
# 3 -0.003259 -0.005581 0.010171 0.000000 -0.001933 0.000000
# 4 0.000000 0.000000 0.000000 0.042939 0.000000 -0.001558
# 5 0.004151 -0.001149 -0.001933 0.000000 0.060045 0.000000
# 6 0.000000 0.000000 0.000000 -0.001558 0.000000 0.042793
#
#
# Mechanical properties :
#
#
# Convention : Reuss Voigt Hill
#
# Bulk Modulus (GPa) = 39.64999 52.07116 45.86058
# Shear Modulus (GPa) = 21.07985 23.44214 22.26099
#
# Velocity S-wave (km/s) = 3.51910 3.71105 3.61635
# Velocity P-wave (km/s) = 6.30919 6.99668 6.66181
#
# Compressibility (1/GPa) = 0.02522069
#
# Stress axis : x y z
#
# Youngs Moduli (GPa) = 38.12085 56.46188 98.31392
#
# Poissons Ratio (x) = 0.31656 0.32042
# Poissons Ratio (y) = 0.21373 0.54873
# Poissons Ratio (z) = 0.12424 0.31514
#
# Static dielectric constant tensor:
#      x y z
#    x 3.044410 0.000000 0.059040 
#    y 0.000000 3.147350 0.000000 
#    z 0.059040 0.000000 3.364930 
# 
# 
# High freq. dielectric constant tensor:
#      x y z
#    x 1.621600 0.000000 0.003490 
#    y 0.000000 1.656670 0.000000 
#    z 0.003490 0.000000 1.666430 
# 
# From -- ./inp_files/287757.got.cif
#   From: 2010.06.25/outbox.cif.g09.slc.cpg/sg12_144_cif.got.tgz:287757.got - 2010.06.28 00:19:55.
