data_PCOD8090720
_publ_section_title
;
Structure prediction by ZEFSAII (Michael W. Deem and Ramdas Pophale) SiO2 
 PCOD8090720
Probable space group: C 2/M
;
_chemical_formula_sum "Si O2"
_cell_formula_units_Z 56
_cell_length_a 13.918838
_cell_length_b 11.139357
_cell_length_c 17.840499
_cell_angle_alpha 90.000000
_cell_angle_beta 64.554456
_cell_angle_gamma 90.000000
_cell_volume 2497.784631
_symmetry_space_group_name_H-M "C 2/M"
_symmetry_group_IT_number 12
_symmetry_cell_setting 'monoclinic'
loop_
_space_group_symop_operation_xyz
x,y,z
-x,y,-z
-x,-y,-z
x,-y,z
1/2+x,1/2+y,z
1/2-x,1/2+y,-z
1/2-x,1/2-y,-z
1/2+x,1/2-y,z
loop_
_atom_site_type_symbol
_atom_site_label
_atom_site_fract_x
_atom_site_fract_y
_atom_site_fract_z
Si Si1 0.071725 0.631454 0.329189
Si Si2 0.705563 0.271715 0.747818
Si Si3 0.973776 0.781325 0.798728
Si Si4 0.613517 0.135912 0.502843
Si Si5 0.748180 0.630558 0.124215
Si Si6 0.264467 0.365199 0.592004
Si Si7 0.073466 0.362667 0.040225
O O1 0.042622 0.500000 0.307871
O O2 0.198341 0.636873 0.301381
O O3 0.032446 0.729277 0.283309
O O4 0.013933 0.649283 0.431092
O O5 0.591568 0.337007 0.771446
O O6 0.712760 0.230784 0.831126
O O7 0.713619 0.155245 0.691224
O O8 0.879895 0.877822 0.839952
O O9 0.950030 0.682925 0.869239
O O10 0.652483 0.255215 0.445856
O O11 0.669821 0.141669 0.564634
O O12 0.636839 0.000000 0.460703
O O13 0.787771 0.500000 0.138342
O O14 0.803185 0.658641 0.025377
O O15 0.317181 0.500000 0.572275
O O16 0.042594 0.500000 0.056137
O O17 0.000000 0.302083 0.000000
#
# Coordination Sequence:
#
# PCOD8090720 Si02
#       7
#     8   8   8   8   8   8   8
#     4  10  22  39  60  86 116 154 200 241 290 357
#     4  11  22  36  59  87 117 151 194 242 294 349
#     4  11  21  37  60  84 116 154 189 240 292 345
#     4   9  19  38  61  85 115 156 202 246 295 357
#     4  10  22  38  56  84 117 150 191 237 290 347
#     4  10  20  36  61  88 117 155 199 248 300 354
#     4  10  19  33  59  87 110 146 195 239 282 340
#
# _framework density 22.419865999999999
#
# number of rings (size 3 to 8) (size 9 to 14) (size 15 to 20)
#    0.000    1.857    2.857    1.286    0.000    2.857 
#    0.000    5.714    0.000    0.429    0.000    0.000 
#    0.000    0.000    0.000    0.000    0.000    0.000 
#
# Total GULP energy -346935.313671 kJ/mol
# GULP energy per Si atom -12390.546917 kJ/mol
# Density = 2.236884 g / cm^3
# Si number density = 22.419866 Si / 1000 Ang^3
#
#
#
# Elastic Constant Matrix: (Units=GPa)
#
#
# Indices 1 2 3 4 5 6 
#
# 1 110.3743 13.1164 20.4837 0.0000 -27.9426 0.0000
# 2 13.1164 85.6865 25.1916 0.0000 -10.6594 0.0000
# 3 20.4837 25.1916 114.4802 0.0000 -10.1296 0.0000
# 4 0.0000 0.0000 0.0000 22.9268 0.0000 -1.7364
# 5 -27.9426 -10.6594 -10.1296 0.0000 42.8946 0.0000
# 6 0.0000 0.0000 0.0000 -1.7364 0.0000 23.8330
#
#
#
# Elastic Compliance Matrix: (Units=1/GPa)
#
#
# Indices 1 2 3 4 5 6 
#
# 1 0.011073 -0.000475 -0.001276 0.000000 0.006794 0.000000
# 2 -0.000475 0.012767 -0.002524 0.000000 0.002267 0.000000
# 3 -0.001276 -0.002524 0.009590 0.000000 0.000807 0.000000
# 4 0.000000 0.000000 0.000000 0.043859 0.000000 0.003195
# 5 0.006794 0.002267 0.000807 0.000000 0.028493 0.000000
# 6 0.000000 0.000000 0.000000 0.003195 0.000000 0.042191
#
#
# Mechanical properties :
#
#
# Convention : Reuss Voigt Hill
#
# Bulk Modulus (GPa) = 40.18979 47.56938 43.87958
# Shear Modulus (GPa) = 30.33677 34.71417 32.52547
#
# Velocity S-wave (km/s) = 3.68247 3.93920 3.81299
# Velocity P-wave (km/s) = 6.00380 6.47714 6.24496
#
# Compressibility (1/GPa) = 0.02488194
#
# Stress axis : x y z
#
# Youngs Moduli (GPa) = 90.30754 78.32571 104.27390
#
# Poissons Ratio (x) = 0.03719 0.13302
# Poissons Ratio (y) = 0.04288 0.26317
# Poissons Ratio (z) = 0.11520 0.19768
#
# Static dielectric constant tensor:
#      x y z
#    x 4.497920 0.000000 -0.146650 
#    y 0.000000 3.719700 0.000000 
#    z -0.146650 0.000000 4.204280 
# 
# 
# High freq. dielectric constant tensor:
#      x y z
#    x 1.900500 0.000000 0.002510 
#    y 0.000000 1.852140 0.000000 
#    z 0.002510 0.000000 1.899950 
# 
# From -- ./inp_files/268848.got.cif
#   From: 2010.06.25/outbox.cif.g09.slc.cpg/sg12_135_cif.got.tgz:268848.got - 2010.06.28 00:19:55.
