data_PCOD8090494
_publ_section_title
;
Structure prediction by ZEFSAII (Michael W. Deem and Ramdas Pophale) SiO2 
 PCOD8090494
Probable space group: C 2/M
;
_chemical_formula_sum "Si O2"
_cell_formula_units_Z 64
_cell_length_a 17.216297
_cell_length_b 13.630641
_cell_length_c 24.234672
_cell_angle_alpha 90.000000
_cell_angle_beta 143.511486
_cell_angle_gamma 90.000000
_cell_volume 3381.918104
_symmetry_space_group_name_H-M "C 2/M"
_symmetry_group_IT_number 12
_symmetry_cell_setting 'monoclinic'
loop_
_space_group_symop_operation_xyz
x,y,z
-x,y,-z
-x,-y,-z
x,-y,z
1/2+x,1/2+y,z
1/2-x,1/2+y,-z
1/2-x,1/2-y,-z
1/2+x,1/2-y,z
loop_
_atom_site_type_symbol
_atom_site_label
_atom_site_fract_x
_atom_site_fract_y
_atom_site_fract_z
Si Si1 0.657317 0.386244 0.862541
Si Si2 0.495021 0.112482 0.763595
Si Si3 0.861917 0.246570 0.935204
Si Si4 0.781533 0.889324 0.977982
Si Si5 0.512831 0.114200 0.650250
Si Si6 0.300991 0.615566 0.798152
Si Si7 0.614874 0.301593 0.265630
Si Si8 0.125128 0.615394 0.536255
O O1 0.661948 0.500000 0.849334
O O2 0.748084 0.328079 0.870861
O O3 0.508914 0.348983 0.773717
O O4 0.719307 0.364613 0.957881
O O5 0.638324 0.123761 0.870627
O O6 0.493142 0.157819 0.700227
O O7 0.398316 0.183045 0.742796
O O8 0.445783 0.000000 0.739753
O O9 0.875133 0.187729 0.000630
O O10 0.837396 0.162755 0.876583
O O11 0.000000 0.298961 0.000000
O O12 0.833250 0.000000 0.998324
O O13 0.649972 0.142789 0.700157
O O14 0.399240 0.142308 0.542139
O O15 0.515794 0.000000 0.663356
O O16 0.325779 0.500000 0.816177
O O17 0.386420 0.658473 0.797218
O O18 0.746452 0.327840 0.372593
O O19 0.148650 0.500000 0.558676
O O20 0.000000 0.649709 0.500000
#
# Coordination Sequence:
#
# PCOD8090494 Si02
#       8
#     8   8   8   8   8   8   8   8
#     4  11  24  40  56  81 116 153 196 236 277 339
#     4  10  21  38  59  83 114 153 193 233 281 342
#     4  12  24  36  56  81 116 152 190 238 284 338
#     4  10  20  38  61  82 112 150 191 241 288 333
#     4   9  17  34  57  82 117 147 180 231 284 339
#     4  11  21  35  57  88 117 146 187 238 290 335
#     4  12  22  36  62  86 114 151 189 238 290 339
#     4  10  19  33  56  90 121 145 178 230 297 351
#
# _framework density 18.924171999999999
#
# number of rings (size 3 to 8) (size 9 to 14) (size 15 to 20)
#    0.000    1.375    3.750    2.625    1.750    2.750 
#    0.000    0.625    0.000    0.375    0.000    0.000 
#    0.000    0.000    0.000    0.000    0.000    0.000 
#
# Total GULP energy -396755.535247 kJ/mol
# GULP energy per Si atom -12398.610476 kJ/mol
# Density = 1.888110 g / cm^3
# Si number density = 18.924172 Si / 1000 Ang^3
#
#
#
# Elastic Constant Matrix: (Units=GPa)
#
#
# Indices 1 2 3 4 5 6 
#
# 1 84.0136 59.6095 33.8508 0.0000 14.6749 0.0000
# 2 59.6095 104.8269 34.4940 0.0000 12.8297 0.0000
# 3 33.8508 34.4940 82.1833 -0.0002 10.1978 0.0000
# 4 0.0000 0.0000 -0.0002 18.0211 0.0000 0.0766
# 5 14.6749 12.8297 10.1978 0.0000 28.6563 0.0000
# 6 0.0000 0.0000 0.0000 0.0766 0.0000 31.0277
#
#
#
# Elastic Compliance Matrix: (Units=1/GPa)
#
#
# Indices 1 2 3 4 5 6 
#
# 1 0.021825 -0.010487 -0.003958 0.000000 -0.005073 0.000000
# 2 -0.010487 0.016444 -0.002443 0.000000 -0.001122 0.000000
# 3 -0.003958 -0.002443 0.015103 0.000000 -0.002254 0.000000
# 4 0.000000 0.000000 0.000000 0.055491 0.000000 -0.000137
# 5 -0.005073 -0.001122 -0.002254 0.000000 0.038799 0.000000
# 6 0.000000 0.000000 0.000000 -0.000137 0.000000 0.032230
#
#
# Mechanical properties :
#
#
# Convention : Reuss Voigt Hill
#
# Bulk Modulus (GPa) = 51.03309 58.54804 54.79056
# Shear Modulus (GPa) = 22.70654 25.07898 23.89276
#
# Velocity S-wave (km/s) = 3.46767 3.64433 3.55710
# Velocity P-wave (km/s) = 6.56191 6.97951 6.77393
#
# Compressibility (1/GPa) = 0.01959513
#
# Stress axis : x y z
#
# Youngs Moduli (GPa) = 45.81974 60.81120 66.20997
#
# Poissons Ratio (x) = 0.63774 0.26208
# Poissons Ratio (y) = 0.48052 0.16176
# Poissons Ratio (z) = 0.18137 0.14857
#
# Static dielectric constant tensor:
#      x y z
#    x 3.586040 0.000000 -0.021870 
#    y 0.000000 3.435780 0.000000 
#    z -0.021870 0.000000 3.611570 
# 
# 
# High freq. dielectric constant tensor:
#      x y z
#    x 1.726950 0.000000 -0.005310 
#    y 0.000000 1.719580 0.000000 
#    z -0.005310 0.000000 1.738080 
# 
# From -- ./inp_files/340195.got.cif
#   From: 2010.06.25/outbox.cif.g09.slc.cpg/sg12_171_cif.got.tgz:340195.got - 2010.06.28 00:19:55.
