data_PCOD8090493
_publ_section_title
;
Structure prediction by ZEFSAII (Michael W. Deem and Ramdas Pophale) SiO2 
 PCOD8090493
Probable space group: C 2/M
;
_chemical_formula_sum "Si O2"
_cell_formula_units_Z 56
_cell_length_a 17.866206
_cell_length_b 14.617075
_cell_length_c 12.382588
_cell_angle_alpha 90.000000
_cell_angle_beta 53.023719
_cell_angle_gamma 90.000000
_cell_volume 2583.379880
_symmetry_space_group_name_H-M "C 2/M"
_symmetry_group_IT_number 12
_symmetry_cell_setting 'monoclinic'
loop_
_space_group_symop_operation_xyz
x,y,z
-x,y,-z
-x,-y,-z
x,-y,z
1/2+x,1/2+y,z
1/2-x,1/2+y,-z
1/2-x,1/2-y,-z
1/2+x,1/2-y,z
loop_
_atom_site_type_symbol
_atom_site_label
_atom_site_fract_x
_atom_site_fract_y
_atom_site_fract_z
Si Si1 0.414249 0.098543 0.495482
Si Si2 0.772813 0.253205 0.853672
Si Si3 0.613029 0.607059 0.617331
Si Si4 0.786014 0.895885 0.247423
Si Si5 0.467371 0.898865 0.149059
Si Si6 0.020838 0.266528 0.268119
Si Si7 0.253625 0.894312 0.301572
O O1 0.500000 0.089620 0.500000
O O2 0.322508 0.124020 0.639968
O O3 0.434538 0.175531 0.391220
O O4 0.396878 0.000000 0.452594
O O5 0.699405 0.327826 0.866761
O O6 0.761781 0.159262 0.797292
O O7 0.883507 0.276779 0.748660
O O8 0.750000 0.250000 0.000000
O O9 0.589013 0.500000 0.631596
O O10 0.658904 0.631973 0.692841
O O11 0.514567 0.661595 0.700406
O O12 0.681174 0.635548 0.459352
O O13 0.808785 0.000000 0.193293
O O14 0.530779 0.816832 0.143905
O O15 0.357413 0.875312 0.255472
O O16 0.487527 0.000000 0.183306
O O17 0.500000 0.902966 0.000000
O O18 0.239075 0.000000 0.284552
#
# Coordination Sequence:
#
# PCOD8090493 Si02
#       7
#     8   8   8   8   8   8   8
#     4  10  19  33  56  90 121 142 178 234 303 363
#     4  12  26  40  58  87 121 161 201 238 292 359
#     4  10  23  41  64  89 116 157 206 254 299 349
#     4  10  21  40  63  89 121 154 192 244 302 356
#     4  10  21  38  61  88 118 155 197 241 293 355
#     4  12  23  36  60  88 121 152 195 244 300 355
#     4  10  22  42  63  86 119 158 201 247 298 352
#
# _framework density 21.677029999999998
#
# number of rings (size 3 to 8) (size 9 to 14) (size 15 to 20)
#    0.000    1.429    1.429    3.857    0.000    5.714 
#    0.000    1.429    0.000    2.143    0.000    0.000 
#    0.000    0.000    0.000    0.000    0.000    0.000 
#
# Total GULP energy -346973.737702 kJ/mol
# GULP energy per Si atom -12391.919204 kJ/mol
# Density = 2.162769 g / cm^3
# Si number density = 21.677030 Si / 1000 Ang^3
#
#
#
# Elastic Constant Matrix: (Units=GPa)
#
#
# Indices 1 2 3 4 5 6 
#
# 1 78.7532 42.2707 15.4242 0.0000 15.3813 0.0000
# 2 42.2707 112.3161 37.1616 0.0000 18.1805 0.0000
# 3 15.4242 37.1616 73.7618 0.0000 26.6000 0.0000
# 4 0.0000 0.0000 0.0000 29.8800 0.0000 5.3322
# 5 15.3813 18.1805 26.6000 0.0000 35.4555 0.0000
# 6 0.0000 0.0000 0.0000 5.3322 0.0000 34.1564
#
#
#
# Elastic Compliance Matrix: (Units=1/GPa)
#
#
# Indices 1 2 3 4 5 6 
#
# 1 0.016590 -0.005849 0.001359 0.000000 -0.005218 0.000000
# 2 -0.005849 0.012848 -0.005195 0.000000 -0.000154 0.000000
# 3 0.001359 -0.005195 0.020758 0.000000 -0.013500 0.000000
# 4 0.000000 0.000000 0.000000 0.034426 0.000000 -0.005374
# 5 -0.005218 -0.000154 -0.013500 0.000000 0.040675 0.000000
# 6 0.000000 0.000000 0.000000 -0.005374 0.000000 0.030116
#
#
# Mechanical properties :
#
#
# Convention : Reuss Voigt Hill
#
# Bulk Modulus (GPa) = 32.43795 50.50490 41.47142
# Shear Modulus (GPa) = 27.01852 31.23001 29.12427
#
# Velocity S-wave (km/s) = 3.53429 3.79977 3.66943
# Velocity P-wave (km/s) = 5.62598 6.52690 6.09311
#
# Compressibility (1/GPa) = 0.03082809
#
# Stress axis : x y z
#
# Youngs Moduli (GPa) = 60.27666 77.83131 48.17374
#
# Poissons Ratio (x) = 0.45523 -0.06548
# Poissons Ratio (y) = 0.35255 0.25024
# Poissons Ratio (z) = -0.08193 0.40430
#
# Static dielectric constant tensor:
#      x y z
#    x 4.121610 0.000000 -0.111660 
#    y 0.000000 4.296310 0.000000 
#    z -0.111660 0.000000 3.978080 
# 
# 
# High freq. dielectric constant tensor:
#      x y z
#    x 1.848240 0.000000 0.011180 
#    y 0.000000 1.861620 0.000000 
#    z 0.011180 0.000000 1.842970 
# 
# From -- ./inp_files/156516.got.cif
#   From: 2010.06.25/outbox.cif.g09.slc.cpg/sg12_79_cif.got.tgz:156516.got - 2010.06.28 00:19:55.
