data_PCOD8090708
_publ_section_title
;
Structure prediction by ZEFSAII (Michael W. Deem and Ramdas Pophale) SiO2 
 PCOD8090708
Probable space group: C 2/M
;
_chemical_formula_sum "Si O2"
_cell_formula_units_Z 48
_cell_length_a 20.972655
_cell_length_b 13.546145
_cell_length_c 18.021379
_cell_angle_alpha 90.000000
_cell_angle_beta 154.008004
_cell_angle_gamma 90.000000
_cell_volume 2243.751220
_symmetry_space_group_name_H-M "C 2/M"
_symmetry_group_IT_number 12
_symmetry_cell_setting 'monoclinic'
loop_
_space_group_symop_operation_xyz
x,y,z
-x,y,-z
-x,-y,-z
x,-y,z
1/2+x,1/2+y,z
1/2-x,1/2+y,-z
1/2-x,1/2-y,-z
1/2+x,1/2-y,z
loop_
_atom_site_type_symbol
_atom_site_label
_atom_site_fract_x
_atom_site_fract_y
_atom_site_fract_z
Si Si1 0.548399 0.384462 0.228246
Si Si2 0.353589 0.390994 0.893572
Si Si3 0.448198 0.737632 0.258633
Si Si4 0.276338 0.783376 0.369480
Si Si5 0.323358 0.114580 0.017103
Si Si6 0.935689 0.612760 0.855096
O O1 0.545161 0.500000 0.243584
O O2 0.542872 0.321416 0.297041
O O3 0.698592 0.362444 0.342229
O O4 0.405554 0.353743 0.029449
O O5 0.282654 0.500000 0.825097
O O6 0.240505 0.317697 0.734298
O O7 0.500000 0.397421 0.000000
O O8 0.553528 0.774713 0.434309
O O9 0.374961 0.835135 0.147383
O O10 0.326456 0.665702 0.166193
O O11 0.205189 0.676823 0.310162
O O12 0.443525 0.129605 0.080339
O O13 0.293439 0.000000 0.001962
O O14 0.884229 0.500000 0.806126
O O15 0.000000 0.650335 0.000000
#
# Coordination Sequence:
#
# PCOD8090708 Si02
#       6
#     8   8   8   8   8   8
#     4  10  19  33  58  90 123 158 196 240 298 360
#     4   8  16  31  54  86 118 151 187 234 294 351
#     4  11  23  38  58  90 120 157 197 245 306 357
#     4  11  20  34  57  92 119 147 196 256 293 340
#     4  10  23  42  60  80 119 164 199 239 297 363
#     4  10  21  38  62  86 113 156 204 246 291 350
#
# _framework density 21.392747
#
# number of rings (size 3 to 8) (size 9 to 14) (size 15 to 20)
#    0.000    2.000    1.667    4.000    0.000    2.667 
#    0.000    0.833    0.000    3.000    0.000    5.833 
#    0.000    0.000    0.000    0.000    0.000    0.000 
#
# Total GULP energy -297608.077417 kJ/mol
# GULP energy per Si atom -12400.336559 kJ/mol
# Density = 2.134406 g / cm^3
# Si number density = 21.392747 Si / 1000 Ang^3
#
#
#
# Elastic Constant Matrix: (Units=GPa)
#
#
# Indices 1 2 3 4 5 6 
#
# 1 18.5756 13.0447 11.4156 0.0003 -6.6185 0.0003
# 2 13.0447 106.7287 55.6290 0.0006 -7.1448 0.0011
# 3 11.4156 55.6290 145.3316 0.0002 -13.1503 0.0014
# 4 0.0003 0.0006 0.0002 14.6017 0.0002 -0.6999
# 5 -6.6185 -7.1448 -13.1503 0.0002 22.6764 0.0007
# 6 0.0003 0.0011 0.0014 -0.6999 0.0007 25.9756
#
#
#
# Elastic Compliance Matrix: (Units=1/GPa)
#
#
# Indices 1 2 3 4 5 6 
#
# 1 0.064716 -0.006171 -0.001254 -0.000001 0.016217 -0.000001
# 2 -0.006171 0.012322 -0.004267 0.000000 -0.000393 0.000000
# 3 -0.001254 -0.004267 0.008926 0.000000 0.003466 0.000000
# 4 -0.000001 0.000000 0.000000 0.068574 -0.000001 0.001848
# 5 0.016217 -0.000393 0.003466 -0.000001 0.050718 -0.000002
# 6 -0.000001 0.000000 0.000000 0.001848 -0.000002 0.038547
#
#
# Mechanical properties :
#
#
# Convention : Reuss Voigt Hill
#
# Bulk Modulus (GPa) = 15.97948 47.86829 31.92389
# Shear Modulus (GPa) = 17.35828 25.35385 21.35607
#
# Velocity S-wave (km/s) = 2.85162 3.44635 3.16299
# Velocity P-wave (km/s) = 4.28113 6.18555 5.31926
#
# Compressibility (1/GPa) = 0.06258024
#
# Stress axis : x y z
#
# Youngs Moduli (GPa) = 15.45211 81.15842 112.02815
#
# Poissons Ratio (x) = 0.50079 0.14049
# Poissons Ratio (y) = 0.09535 0.47805
# Poissons Ratio (z) = 0.01938 0.34633
#
# Static dielectric constant tensor:
#      x y z
#    x 3.736380 0.000000 -0.203590 
#    y 0.000000 4.072950 0.000000 
#    z -0.203590 0.000000 3.692660 
# 
# 
# High freq. dielectric constant tensor:
#      x y z
#    x 1.821480 0.000000 -0.010660 
#    y 0.000000 1.856580 0.000000 
#    z -0.010660 0.000000 1.815150 
# 
# From -- ./inp_files/325708.got.cif
#   From: 2010.06.25/outbox.cif.g09.slc.cpg/sg12_163_cif.got.tgz:325708.got - 2010.06.28 00:19:55.
