data_PCOD8090655
_publ_section_title
;
Structure prediction by ZEFSAII (Michael W. Deem and Ramdas Pophale) SiO2 
 PCOD8090655
Probable space group: C 2/M
;
_chemical_formula_sum "Si O2"
_cell_formula_units_Z 56
_cell_length_a 15.238077
_cell_length_b 9.340782
_cell_length_c 25.809774
_cell_angle_alpha 90.000000
_cell_angle_beta 53.656822
_cell_angle_gamma 90.000000
_cell_volume 2959.057436
_symmetry_space_group_name_H-M "C 2/M"
_symmetry_group_IT_number 12
_symmetry_cell_setting 'monoclinic'
loop_
_space_group_symop_operation_xyz
x,y,z
-x,y,-z
-x,-y,-z
x,-y,z
1/2+x,1/2+y,z
1/2-x,1/2+y,-z
1/2-x,1/2-y,-z
1/2+x,1/2-y,z
loop_
_atom_site_type_symbol
_atom_site_label
_atom_site_fract_x
_atom_site_fract_y
_atom_site_fract_z
Si Si1 0.154205 0.332680 0.842785
Si Si2 0.226525 0.665997 0.931838
Si Si3 0.100285 0.833171 0.499517
Si Si4 0.094765 0.333290 0.078199
Si Si5 0.028382 0.335101 0.620317
Si Si6 0.721952 0.829934 0.287271
Si Si7 0.299945 0.164324 0.357147
O O1 0.175673 0.500000 0.824256
O O2 0.175714 0.293374 0.894716
O O3 0.233571 0.236450 0.781019
O O4 0.030729 0.289832 0.873021
O O5 0.255370 0.500000 0.925259
O O6 0.339019 0.750549 0.900650
O O7 0.138214 0.710202 0.006111
O O8 0.098837 0.752148 0.554369
O O9 0.210636 0.794786 0.431255
O O10 0.000000 0.778537 0.500000
O O11 0.089990 0.000000 0.515316
O O12 0.111375 0.500000 0.082347
O O13 0.035747 0.500000 0.601379
O O14 0.081601 0.312017 0.658452
O O15 0.903884 0.282557 0.664532
O O16 0.789853 0.767065 0.311508
O O17 0.735429 0.000000 0.281341
O O18 0.284612 0.000000 0.344191
#
# Coordination Sequence:
#
# PCOD8090655 Si02
#       7
#     8   8   8   8   8   8   8
#     4  10  21  37  57  78 107 149 186 218 266 324
#     4   9  18  34  57  85 113 141 178 222 268 320
#     4  10  19  33  58  87 111 137 174 223 272 323
#     4   9  18  34  57  84 112 142 178 221 269 321
#     4  10  22  38  57  80 108 143 180 222 273 325
#     4  11  24  39  54  78 109 143 185 230 269 313
#     4  10  21  39  59  80 109 144 180 219 272 331
#
# _framework density 18.924945999999998
#
# number of rings (size 3 to 8) (size 9 to 14) (size 15 to 20)
#    0.000    2.143    1.429    1.286    0.000    6.000 
#    0.000    4.286    0.000    4.286    0.000    0.000 
#    0.000    0.000    0.000    0.000    0.000    0.000 
#
# Total GULP energy -347308.095209 kJ/mol
# GULP energy per Si atom -12403.860543 kJ/mol
# Density = 1.888187 g / cm^3
# Si number density = 18.924946 Si / 1000 Ang^3
#
#
#
# Elastic Constant Matrix: (Units=GPa)
#
#
# Indices 1 2 3 4 5 6 
#
# 1 82.7929 27.6471 15.4381 0.0000 1.4342 0.0000
# 2 27.6471 51.8826 32.1151 0.0000 1.6111 0.0000
# 3 15.4381 32.1151 60.7328 0.0000 -2.4257 0.0000
# 4 0.0000 0.0000 0.0000 33.4601 0.0000 2.5491
# 5 1.4342 1.6111 -2.4257 0.0000 16.1739 0.0000
# 6 0.0000 0.0000 0.0000 2.5491 0.0000 31.1007
#
#
#
# Elastic Compliance Matrix: (Units=1/GPa)
#
#
# Indices 1 2 3 4 5 6 
#
# 1 0.014710 -0.008179 0.000569 0.000000 -0.000404 0.000000
# 2 -0.008179 0.033634 -0.015907 0.000000 -0.005011 0.000000
# 3 0.000569 -0.015907 0.024943 0.000000 0.005275 0.000000
# 4 0.000000 0.000000 0.000000 0.030074 0.000000 -0.002465
# 5 -0.000404 -0.005011 0.005275 0.000000 0.063154 0.000000
# 6 0.000000 0.000000 0.000000 -0.002465 0.000000 0.032356
#
#
# Mechanical properties :
#
#
# Convention : Reuss Voigt Hill
#
# Bulk Modulus (GPa) = 38.08740 38.42322 38.25531
# Shear Modulus (GPa) = 19.63442 24.16081 21.89762
#
# Velocity S-wave (km/s) = 3.22450 3.57692 3.40527
# Velocity P-wave (km/s) = 5.83373 6.11606 5.97656
#
# Compressibility (1/GPa) = 0.02625540
#
# Stress axis : x y z
#
# Youngs Moduli (GPa) = 67.97967 29.73162 40.09165
#
# Poissons Ratio (x) = 0.24316 -0.02283
# Poissons Ratio (y) = 0.55598 0.63772
# Poissons Ratio (z) = -0.03870 0.47293
#
# Static dielectric constant tensor:
#      x y z
#    x 3.621070 0.000000 -0.053720 
#    y 0.000000 3.362320 0.000000 
#    z -0.053720 0.000000 3.371060 
# 
# 
# High freq. dielectric constant tensor:
#      x y z
#    x 1.747070 0.000000 0.000350 
#    y 0.000000 1.728110 0.000000 
#    z 0.000350 0.000000 1.728680 
# 
# From -- ./inp_files/308958.got.cif
#   From: 2010.06.25/outbox.cif.g09.slc.cpg/sg12_155_cif.got.tgz:308958.got - 2010.06.28 00:19:55.
