data_PCOD8090288
_publ_section_title
;
Structure prediction by ZEFSAII (Michael W. Deem and Ramdas Pophale) SiO2 
 PCOD8090288
Probable space group: C 2/M
;
_chemical_formula_sum "Si O2"
_cell_formula_units_Z 56
_cell_length_a 18.220245
_cell_length_b 8.569035
_cell_length_c 20.124578
_cell_angle_alpha 90.000000
_cell_angle_beta 116.692874
_cell_angle_gamma 90.000000
_cell_volume 2807.191970
_symmetry_space_group_name_H-M "C 2/M"
_symmetry_group_IT_number 12
_symmetry_cell_setting 'monoclinic'
loop_
_space_group_symop_operation_xyz
x,y,z
-x,y,-z
-x,-y,-z
x,-y,z
1/2+x,1/2+y,z
1/2-x,1/2+y,-z
1/2-x,1/2-y,-z
1/2+x,1/2-y,z
loop_
_atom_site_type_symbol
_atom_site_label
_atom_site_fract_x
_atom_site_fract_y
_atom_site_fract_z
Si Si1 0.585573 0.315402 0.007020
Si Si2 0.275589 0.681716 0.718687
Si Si3 0.898147 0.185944 0.135113
Si Si4 0.762883 0.682763 0.854970
Si Si5 0.114235 0.319688 0.575157
Si Si6 0.959976 0.816439 0.579727
Si Si7 0.556071 0.685593 0.277499
O O1 0.580459 0.500000 0.001579
O O2 0.601753 0.247898 0.939896
O O3 0.500000 0.246786 0.000000
O O4 0.657010 0.268235 0.085822
O O5 0.281398 0.500000 0.740499
O O6 0.251252 0.780323 0.773063
O O7 0.207283 0.711791 0.634864
O O8 0.361596 0.744726 0.725018
O O9 0.816437 0.247731 0.138125
O O10 0.977808 0.252566 0.205766
O O11 0.900433 0.000000 0.136746
O O12 0.772956 0.500000 0.870360
O O13 0.090089 0.500000 0.573222
O O14 0.105082 0.268783 0.494808
O O15 0.053083 0.219320 0.595910
O O16 0.945999 0.751083 0.648131
O O17 0.944481 0.000000 0.569359
O O18 0.553548 0.500000 0.277541
#
# Coordination Sequence:
#
# PCOD8090288 Si02
#       7
#     8   8   8   8   8   8   8
#     4  10  20  36  59  81 104 141 182 215 255 312
#     4  10  21  37  56  77 104 141 181 218 261 315
#     4   9  18  33  54  79 106 137 175 218 260 307
#     4  11  22  35  54  81 111 139 171 218 269 311
#     4  10  20  34  53  78 109 141 175 219 265 311
#     4  10  19  33  56  80 104 139 179 218 263 316
#     4   9  18  34  55  78 103 135 179 223 260 306
#
# _framework density 19.948761000000001
#
# number of rings (size 3 to 8) (size 9 to 14) (size 15 to 20)
#    0.000    2.143    0.000    4.286    0.000    5.429 
#    0.000    2.143    0.000    5.143    0.000    0.000 
#    0.000    0.000    0.000    0.000    0.000    0.000 
#
# Total GULP energy -347281.337189 kJ/mol
# GULP energy per Si atom -12402.904900 kJ/mol
# Density = 1.990336 g / cm^3
# Si number density = 19.948761 Si / 1000 Ang^3
#
#
#
# Elastic Constant Matrix: (Units=GPa)
#
#
# Indices 1 2 3 4 5 6 
#
# 1 128.7281 15.5665 53.1036 0.0000 11.7461 0.0000
# 2 15.5665 14.9122 15.9847 0.0000 -2.6155 0.0000
# 3 53.1036 15.9847 123.4292 0.0000 7.7472 0.0000
# 4 0.0000 0.0000 0.0000 27.4480 0.0000 -0.8985
# 5 11.7461 -2.6155 7.7472 0.0000 42.1879 0.0000
# 6 0.0000 0.0000 0.0000 -0.8985 0.0000 18.4062
#
#
#
# Elastic Compliance Matrix: (Units=1/GPa)
#
#
# Indices 1 2 3 4 5 6 
#
# 1 0.010298 -0.007743 -0.003255 0.000000 -0.002750 0.000000
# 2 -0.007743 0.085643 -0.008324 0.000000 0.008994 0.000000
# 3 -0.003255 -0.008324 0.010679 0.000000 -0.001571 0.000000
# 4 0.000000 0.000000 0.000000 0.036491 0.000000 0.001781
# 5 -0.002750 0.008994 -0.001571 0.000000 0.025315 0.000000
# 6 0.000000 0.000000 0.000000 0.001781 0.000000 0.054417
#
#
# Mechanical properties :
#
#
# Convention : Reuss Voigt Hill
#
# Bulk Modulus (GPa) = 14.71139 48.48656 31.59897
# Shear Modulus (GPa) = 17.59655 29.76940 23.68297
#
# Velocity S-wave (km/s) = 2.97322 3.86721 3.44930
# Velocity P-wave (km/s) = 4.37919 6.65573 5.63365
#
# Compressibility (1/GPa) = 0.06797456
#
# Stress axis : x y z
#
# Youngs Moduli (GPa) = 97.10163 11.67641 93.64133
#
# Poissons Ratio (x) = 0.09041 0.30484
# Poissons Ratio (y) = 0.75187 0.77950
# Poissons Ratio (z) = 0.31611 0.09720
#
# Static dielectric constant tensor:
#      x y z
#    x 3.777030 0.000000 -0.052480 
#    y 0.000000 3.277960 0.000000 
#    z -0.052480 0.000000 3.797550 
# 
# 
# High freq. dielectric constant tensor:
#      x y z
#    x 1.784600 0.000000 0.000500 
#    y 0.000000 1.745800 0.000000 
#    z 0.000500 0.000000 1.794770 
# 
# From -- ./inp_files/314407.got.cif
#   From: 2010.06.25/outbox.cif.g09.slc.cpg/sg12_158_cif.got.tgz:314407.got - 2010.06.28 00:19:55.
