data_PCOD8090591
_publ_section_title
;
Structure prediction by ZEFSAII (Michael W. Deem and Ramdas Pophale) SiO2 
 PCOD8090591
Probable space group: C 2/M
;
_chemical_formula_sum "Si O2"
_cell_formula_units_Z 64
_cell_length_a 18.591121
_cell_length_b 19.684828
_cell_length_c 12.923491
_cell_angle_alpha 90.000000
_cell_angle_beta 44.511513
_cell_angle_gamma 90.000000
_cell_volume 3315.642003
_symmetry_space_group_name_H-M "C 2/M"
_symmetry_group_IT_number 12
_symmetry_cell_setting 'monoclinic'
loop_
_space_group_symop_operation_xyz
x,y,z
-x,y,-z
-x,-y,-z
x,-y,z
1/2+x,1/2+y,z
1/2-x,1/2+y,-z
1/2-x,1/2-y,-z
1/2+x,1/2-y,z
loop_
_atom_site_type_symbol
_atom_site_label
_atom_site_fract_x
_atom_site_fract_y
_atom_site_fract_z
Si Si1 0.955046 0.424550 0.152420
Si Si2 0.742954 0.193985 0.875859
Si Si3 0.307274 0.574375 0.942572
Si Si4 0.296753 0.813414 0.321844
Si Si5 0.421497 0.072629 0.773897
Si Si6 0.586858 0.218740 0.216097
Si Si7 0.103809 0.804769 0.655725
Si Si8 0.999960 0.078763 0.120087
O O1 0.909310 0.500000 0.180500
O O2 0.865495 0.376789 0.289002
O O3 0.048710 0.427651 0.136178
O O4 0.000000 0.394275 0.000000
O O5 0.804206 0.127315 0.851757
O O6 0.705730 0.185597 0.798487
O O7 0.825664 0.255001 0.795524
O O8 0.642085 0.207886 0.048365
O O9 0.333971 0.500000 0.868795
O O10 0.389015 0.595407 0.945885
O O11 0.200313 0.572376 0.112685
O O12 0.183303 0.821254 0.483272
O O13 0.348606 0.744463 0.307314
O O14 0.457983 0.146228 0.691926
O O15 0.463300 0.000000 0.681026
O O16 0.495364 0.271836 0.296807
O O17 0.081441 0.875544 0.735339
O O18 0.968810 0.000000 0.165641
O O19 0.000000 0.099545 0.000000
#
# Coordination Sequence:
#
# PCOD8090591 Si02
#       8
#     8   8   8   8   8   8   8   8
#     4  10  19  33  57  87 114 148 191 232 282 350
#     4  10  21  34  59  87 111 150 198 241 291 348
#     4   9  17  33  55  88 121 143 183 240 291 347
#     4  11  25  38  55  87 119 160 194 237 303 363
#     4   9  17  30  53  80 113 143 175 236 295 332
#     4  10  19  35  57  85 113 148 196 243 287 349
#     4  11  24  40  56  81 123 156 196 242 298 356
#     4  10  22  39  63  88 113 155 204 244 289 345
#
# _framework density 19.302444999999999
#
# number of rings (size 3 to 8) (size 9 to 14) (size 15 to 20)
#    0.000    2.000    2.500    1.500    1.750    2.500 
#    0.000    0.000    0.000    1.500    0.000    0.875 
#    0.000    0.500    0.000    0.000    0.000    0.000 
#
# Total GULP energy -396583.803134 kJ/mol
# GULP energy per Si atom -12393.243848 kJ/mol
# Density = 1.925851 g / cm^3
# Si number density = 19.302445 Si / 1000 Ang^3
#
#
#
# Elastic Constant Matrix: (Units=GPa)
#
#
# Indices 1 2 3 4 5 6 
#
# 1 83.5761 15.2153 31.7549 0.0000 -8.8622 0.0000
# 2 15.2153 106.9700 29.7425 0.0000 -13.2270 0.0000
# 3 31.7549 29.7425 61.1287 0.0000 -17.5598 0.0000
# 4 0.0000 0.0000 0.0000 13.6521 0.0000 1.4356
# 5 -8.8622 -13.2270 -17.5598 0.0000 22.3278 0.0000
# 6 0.0000 0.0000 0.0000 1.4356 0.0000 27.0784
#
#
#
# Elastic Compliance Matrix: (Units=1/GPa)
#
#
# Indices 1 2 3 4 5 6 
#
# 1 0.014908 0.000027 -0.007820 0.000000 -0.000217 0.000000
# 2 0.000027 0.010961 -0.004494 0.000000 0.002970 0.000000
# 3 -0.007820 -0.004494 0.027066 0.000000 0.015520 0.000000
# 4 0.000000 0.000000 0.000000 0.073660 0.000000 -0.003905
# 5 -0.000217 0.002970 0.015520 0.000000 0.058666 0.000000
# 6 0.000000 0.000000 0.000000 -0.003905 0.000000 0.037137
#
#
# Mechanical properties :
#
#
# Convention : Reuss Voigt Hill
#
# Bulk Modulus (GPa) = 35.25905 45.01115 40.13510
# Shear Modulus (GPa) = 19.49871 24.27580 21.88726
#
# Velocity S-wave (km/s) = 3.18176 3.55019 3.37101
# Velocity P-wave (km/s) = 5.63954 6.33835 5.99913
#
# Compressibility (1/GPa) = 0.02836152
#
# Stress axis : x y z
#
# Youngs Moduli (GPa) = 67.07591 91.22929 36.94643
#
# Poissons Ratio (x) = -0.00246 0.28892
# Poissons Ratio (y) = -0.00181 0.16605
# Poissons Ratio (z) = 0.52453 0.41001
#
# Static dielectric constant tensor:
#      x y z
#    x 3.559600 0.000000 -0.131890 
#    y 0.000000 4.160820 0.000000 
#    z -0.131890 0.000000 3.073570 
# 
# 
# High freq. dielectric constant tensor:
#      x y z
#    x 1.762860 0.000000 -0.012310 
#    y 0.000000 1.777130 0.000000 
#    z -0.012310 0.000000 1.694180 
# 
# From -- ./inp_files/159549.got.cif
#   From: 2010.06.25/outbox.cif.g09.slc.cpg/sg12_80_cif.got.tgz:159549.got - 2010.06.28 00:19:55.
