data_PCOD8090640
_publ_section_title
;
Structure prediction by ZEFSAII (Michael W. Deem and Ramdas Pophale) SiO2 
 PCOD8090640
Probable space group: C 2/M
;
_chemical_formula_sum "Si O2"
_cell_formula_units_Z 56
_cell_length_a 8.680358
_cell_length_b 33.837623
_cell_length_c 19.423020
_cell_angle_alpha 90.000000
_cell_angle_beta 30.795468
_cell_angle_gamma 90.000000
_cell_volume 2920.807462
_symmetry_space_group_name_H-M "C 2/M"
_symmetry_group_IT_number 12
_symmetry_cell_setting 'monoclinic'
loop_
_space_group_symop_operation_xyz
x,y,z
-x,y,-z
-x,-y,-z
x,-y,z
1/2+x,1/2+y,z
1/2-x,1/2+y,-z
1/2-x,1/2-y,-z
1/2+x,1/2-y,z
loop_
_atom_site_type_symbol
_atom_site_label
_atom_site_fract_x
_atom_site_fract_y
_atom_site_fract_z
Si Si1 0.323715 0.500000 0.407710
Si Si2 0.299207 0.798747 0.745394
Si Si3 0.569808 0.000000 0.893843
Si Si4 0.314187 0.835279 0.000787
Si Si5 0.059795 0.415466 0.896406
Si Si6 0.821346 0.085418 0.412765
Si Si7 0.128652 0.163440 0.526043
Si Si8 0.395545 0.213942 0.225154
O O1 0.568628 0.500000 0.252433
O O2 0.355334 0.541805 0.436515
O O3 0.000000 0.500000 0.500000
O O4 0.546186 0.816150 0.598386
O O5 0.428059 0.790522 0.771376
O O6 0.173911 0.759642 0.758112
O O7 0.038574 0.831576 0.848844
O O8 0.448084 0.041701 0.907684
O O9 0.500000 0.000000 0.000000
O O10 0.374142 0.877632 0.939658
O O11 0.399579 0.800080 0.916574
O O12 0.500000 0.831644 0.000000
O O13 0.413474 0.408907 0.745212
O O14 0.000000 0.417014 0.000000
O O15 0.500000 0.089980 0.500000
O O16 0.851726 0.118133 0.459275
O O17 0.000000 0.163886 0.500000
O O18 0.911612 0.188590 0.658947
#
# Coordination Sequence:
#
# PCOD8090640 Si02
#       8
#     4   8   4   8   8   8   8   8
#     4   8  16  30  49  83 111 140 178 226 272 314
#     4  11  24  38  60  79 108 144 181 228 276 324
#     4   8  14  28  48  75 110 145 171 217 270 315
#     4  11  22  36  56  84 114 141 183 223 269 328
#     4   9  18  31  52  82 113 141 180 222 270 320
#     4  10  19  33  58  82 113 145 184 228 272 320
#     4  10  23  39  56  80 112 144 182 224 276 328
#     4  11  22  42  58  81 107 142 183 227 277 325
#
# _framework density 19.172778999999998
#
# number of rings (size 3 to 8) (size 9 to 14) (size 15 to 20)
#    0.000    2.000    1.429    2.143    4.000    1.143 
#    0.000    0.357    0.000    0.000    0.000    3.000 
#    0.000    0.000    0.000    0.000    0.000    0.000 
#
# Total GULP energy -346924.091715 kJ/mol
# GULP energy per Si atom -12390.146133 kJ/mol
# Density = 1.912914 g / cm^3
# Si number density = 19.172779 Si / 1000 Ang^3
#
#
#
# Elastic Constant Matrix: (Units=GPa)
#
#
# Indices 1 2 3 4 5 6 
#
# 1 37.3754 17.0375 19.8264 0.0000 -7.2904 0.0000
# 2 17.0375 156.1135 40.0215 0.0000 -15.6310 0.0000
# 3 19.8264 40.0215 92.5940 -0.0001 -16.2160 0.0000
# 4 0.0000 0.0000 -0.0001 25.4928 0.0000 -1.5820
# 5 -7.2904 -15.6310 -16.2160 0.0000 25.3165 0.0000
# 6 0.0000 0.0000 0.0000 -1.5820 0.0000 19.1095
#
#
#
# Elastic Compliance Matrix: (Units=1/GPa)
#
#
# Indices 1 2 3 4 5 6 
#
# 1 0.031134 -0.001609 -0.005153 0.000000 0.004672 0.000000
# 2 -0.001609 0.007463 -0.002428 0.000000 0.002589 0.000000
# 3 -0.005153 -0.002428 0.014001 0.000000 0.005985 0.000000
# 4 0.000000 0.000000 0.000000 0.039429 0.000000 0.003264
# 5 0.004672 0.002589 0.005985 0.000000 0.046278 0.000000
# 6 0.000000 0.000000 0.000000 0.003264 0.000000 0.052600
#
#
# Mechanical properties :
#
#
# Convention : Reuss Voigt Hill
#
# Bulk Modulus (GPa) = 29.22423 48.87265 39.04844
# Shear Modulus (GPa) = 22.65630 27.93026 25.29328
#
# Velocity S-wave (km/s) = 3.44130 3.82090 3.63606
# Velocity P-wave (km/s) = 5.57366 6.70908 6.16755
#
# Compressibility (1/GPa) = 0.03421818
#
# Stress axis : x y z
#
# Youngs Moduli (GPa) = 32.11954 133.99776 71.42541
#
# Poissons Ratio (x) = 0.21561 0.36804
# Poissons Ratio (y) = 0.05168 0.17339
# Poissons Ratio (z) = 0.16551 0.32529
#
# Static dielectric constant tensor:
#      x y z
#    x 2.985050 0.000000 -0.082320 
#    y 0.000000 4.428070 0.000000 
#    z -0.082320 0.000000 3.856310 
# 
# 
# High freq. dielectric constant tensor:
#      x y z
#    x 1.687950 0.000000 -0.000190 
#    y 0.000000 1.776270 0.000000 
#    z -0.000190 0.000000 1.769110 
# 
# From -- ./inp_files/303015.got.cif
#   From: 2010.06.25/outbox.cif.g09.slc.cpg/sg12_152_cif.got.tgz:303015.got - 2010.06.28 00:19:55.
