data_PCOD8090763
_publ_section_title
;
Structure prediction by ZEFSAII (Michael W. Deem and Ramdas Pophale) SiO2 
 PCOD8090763
Probable space group: C 2/M
;
_chemical_formula_sum "Si O2"
_cell_formula_units_Z 64
_cell_length_a 11.330291
_cell_length_b 28.739591
_cell_length_c 16.910966
_cell_angle_alpha 90.000000
_cell_angle_beta 149.645192
_cell_angle_gamma 90.000000
_cell_volume 2782.820344
_symmetry_space_group_name_H-M "C 2/M"
_symmetry_group_IT_number 12
_symmetry_cell_setting 'monoclinic'
loop_
_space_group_symop_operation_xyz
x,y,z
-x,y,-z
-x,-y,-z
x,-y,z
1/2+x,1/2+y,z
1/2-x,1/2+y,-z
1/2-x,1/2-y,-z
1/2+x,1/2-y,z
loop_
_atom_site_type_symbol
_atom_site_label
_atom_site_fract_x
_atom_site_fract_y
_atom_site_fract_z
Si Si1 0.745461 0.778134 0.184559
Si Si2 0.387495 0.651690 0.685147
Si Si3 0.729889 0.050150 0.957361
Si Si4 0.559262 0.448608 0.756428
Si Si5 0.780121 0.070592 0.319843
Si Si6 0.097440 0.295437 0.407731
Si Si7 0.387199 0.168962 0.748583
Si Si8 0.912115 0.854709 0.033056
O O1 0.703307 0.787857 0.252848
O O2 0.909826 0.817018 0.238559
O O3 0.838994 0.724697 0.240716
O O4 0.500000 0.778203 0.000000
O O5 0.391255 0.596936 0.662145
O O6 0.139298 0.672697 0.510122
O O7 0.402649 0.655809 0.789476
O O8 0.455963 0.051206 0.776594
O O9 0.831894 0.000000 0.990377
O O10 0.752044 0.057949 0.064771
O O11 0.876865 0.089952 0.998655
O O12 0.433357 0.500000 0.693960
O O13 0.693605 0.450479 0.751603
O O14 0.752165 0.125708 0.296499
O O15 0.000000 0.055649 0.500000
O O16 0.250000 0.250000 0.500000
O O17 0.182455 0.326263 0.383050
O O18 0.666519 0.166264 0.919087
O O19 0.000000 0.834276 0.000000
#
# Coordination Sequence:
#
# PCOD8090763 Si02
#       8
#     8   8   8   8   8   8   8   8
#     4  11  22  42  71  96 130 176 221 273 336 413
#     4  10  20  42  65  95 133 176 217 271 344 389
#     4   9  20  36  57  90 129 170 224 271 318 386
#     4  10  19  33  60  95 131 172 218 267 325 401
#     4  11  21  32  57  90 136 174 208 261 336 396
#     4  10  25  43  62  95 127 171 220 271 327 402
#     4  11  23  42  65  92 129 174 215 267 338 395
#     4  10  22  41  66  90 126 175 223 269 329 399
#
# _framework density 22.998252000000001
#
# number of rings (size 3 to 8) (size 9 to 14) (size 15 to 20)
#    0.000    1.750    2.500    1.500    1.750    3.250 
#    6.750    0.000    0.000    0.000    0.000    0.000 
#    0.000   14.500    0.000    0.000    0.000    0.000 
#
# Total GULP energy -396512.668889 kJ/mol
# GULP energy per Si atom -12391.020903 kJ/mol
# Density = 2.294591 g / cm^3
# Si number density = 22.998252 Si / 1000 Ang^3
#
#
#
# Elastic Constant Matrix: (Units=GPa)
#
#
# Indices 1 2 3 4 5 6 
#
# 1 92.3923 25.3837 25.8399 -0.0006 -23.7537 -0.0004
# 2 25.3837 126.9050 38.0254 0.0000 -2.6148 0.0000
# 3 25.8399 38.0254 89.4016 -0.0019 -16.1894 -0.0013
# 4 -0.0006 0.0000 -0.0019 25.7797 -0.0009 -5.8612
# 5 -23.7537 -2.6148 -16.1894 -0.0009 25.3291 -0.0006
# 6 -0.0004 0.0000 -0.0013 -5.8612 -0.0006 20.4433
#
#
#
# Elastic Compliance Matrix: (Units=1/GPa)
#
#
# Indices 1 2 3 4 5 6 
#
# 1 0.015216 -0.002496 -0.000903 0.000001 0.013434 0.000001
# 2 -0.002496 0.009507 -0.004036 -0.000001 -0.003939 -0.000001
# 3 -0.000903 -0.004036 0.014627 0.000002 0.008085 0.000002
# 4 0.000001 -0.000001 0.000002 0.041495 0.000004 0.011897
# 5 0.013434 -0.003939 0.008085 0.000004 0.056840 0.000004
# 6 0.000001 -0.000001 0.000002 0.011897 0.000004 0.052327
#
#
# Mechanical properties :
#
#
# Convention : Reuss Voigt Hill
#
# Bulk Modulus (GPa) = 40.84938 54.13298 47.49118
# Shear Modulus (GPa) = 23.46957 28.94042 26.20499
#
# Velocity S-wave (km/s) = 3.19798 3.55121 3.37921
# Velocity P-wave (km/s) = 5.60684 6.35639 5.99334
#
# Compressibility (1/GPa) = 0.02448018
#
# Stress axis : x y z
#
# Youngs Moduli (GPa) = 65.72164 105.18354 68.36587
#
# Poissons Ratio (x) = 0.26253 0.06177
# Poissons Ratio (y) = 0.16404 0.27589
# Poissons Ratio (z) = 0.05938 0.42447
#
# Static dielectric constant tensor:
#      x y z
#    x 3.632380 0.000030 -0.193550 
#    y 0.000030 5.830650 0.000010 
#    z -0.193550 0.000010 4.346670 
# 
# 
# High freq. dielectric constant tensor:
#      x y z
#    x 1.882300 0.000000 -0.020200 
#    y 0.000000 1.922580 0.000000 
#    z -0.020200 0.000000 1.904290 
# 
# From -- ./inp_files/266295.got.cif
#   From: 2010.06.25/outbox.cif.g09.slc.cpg/sg12_134_cif.got.tgz:266295.got - 2010.06.28 00:19:55.
