data_PCOD8090582
_publ_section_title
;
Structure prediction by ZEFSAII (Michael W. Deem and Ramdas Pophale) SiO2 
 PCOD8090582
Probable space group: C 2/M
;
_chemical_formula_sum "Si O2"
_cell_formula_units_Z 64
_cell_length_a 23.995841
_cell_length_b 11.142894
_cell_length_c 13.002485
_cell_angle_alpha 90.000000
_cell_angle_beta 112.778340
_cell_angle_gamma 90.000000
_cell_volume 3205.499920
_symmetry_space_group_name_H-M "C 2/M"
_symmetry_group_IT_number 12
_symmetry_cell_setting 'monoclinic'
loop_
_space_group_symop_operation_xyz
x,y,z
-x,y,-z
-x,-y,-z
x,-y,z
1/2+x,1/2+y,z
1/2-x,1/2+y,-z
1/2-x,1/2-y,-z
1/2+x,1/2-y,z
loop_
_atom_site_type_symbol
_atom_site_label
_atom_site_fract_x
_atom_site_fract_y
_atom_site_fract_z
Si Si1 0.538975 0.136286 0.433522
Si Si2 0.275606 0.130880 0.612966
Si Si3 0.950504 0.132806 0.876752
Si Si4 0.165077 0.724813 0.538858
Si Si5 0.177569 0.783454 0.167730
Si Si6 0.806207 0.634214 0.220530
Si Si7 0.996922 0.363853 0.183152
Si Si8 0.640544 0.860875 0.949677
O O1 0.500000 0.185007 0.500000
O O2 0.594944 0.227654 0.455538
O O3 0.494999 0.136816 0.304605
O O4 0.562886 0.000000 0.471403
O O5 0.202766 0.151536 0.555391
O O6 0.301088 0.133898 0.514917
O O7 0.309163 0.224529 0.711513
O O8 0.287151 0.000000 0.667320
O O9 0.882354 0.135731 0.870972
O O10 0.958400 0.255239 0.816511
O O11 0.957854 0.000000 0.826944
O O12 0.000000 0.139575 0.000000
O O13 0.164852 0.691630 0.658162
O O14 0.233727 0.865568 0.175297
O O15 0.171731 0.685215 0.074758
O O16 0.830550 0.500000 0.235145
O O17 0.830764 0.698865 0.133528
O O18 0.017571 0.500000 0.160700
O O19 0.930773 0.334092 0.093611
O O20 0.654773 0.000000 0.956140
#
# Coordination Sequence:
#
# PCOD8090582 Si02
#       8
#     8   8   8   8   8   8   8   8
#     4  10  19  33  57  86 115 148 190 244 295 339
#     4  10  21  36  57  83 111 145 185 238 292 336
#     4  11  23  39  57  81 118 157 191 232 285 344
#     4  10  20  35  55  80 110 143 182 229 286 345
#     4  11  21  36  56  82 111 147 189 229 280 345
#     4  10  20  34  55  80 108 142 184 232 282 336
#     4  10  21  37  59  87 115 150 197 240 287 341
#     4  10  20  35  55  81 111 143 182 237 288 331
#
# _framework density 19.965684
#
# number of rings (size 3 to 8) (size 9 to 14) (size 15 to 20)
#    0.000    1.750    1.250    3.750    0.000    4.250 
#    0.000    5.000    0.000    8.250    0.000    0.000 
#    0.000    0.000    0.000    0.000    0.000    0.000 
#
# Total GULP energy -396488.491918 kJ/mol
# GULP energy per Si atom -12390.265372 kJ/mol
# Density = 1.992024 g / cm^3
# Si number density = 19.965684 Si / 1000 Ang^3
#
#
#
# Elastic Constant Matrix: (Units=GPa)
#
#
# Indices 1 2 3 4 5 6 
#
# 1 62.0787 22.8508 10.4176 0.0000 -6.6328 0.0000
# 2 22.8508 84.5889 15.6969 0.0000 -9.9738 0.0000
# 3 10.4176 15.6969 82.8257 0.0000 -7.8856 0.0000
# 4 0.0000 0.0000 0.0000 18.8485 0.0000 -0.3749
# 5 -6.6328 -9.9738 -7.8856 0.0000 34.4602 0.0000
# 6 0.0000 0.0000 0.0000 -0.3749 0.0000 19.7635
#
#
#
# Elastic Compliance Matrix: (Units=1/GPa)
#
#
# Indices 1 2 3 4 5 6 
#
# 1 0.018162 -0.004446 -0.001259 0.000000 0.001921 0.000000
# 2 -0.004446 0.013670 -0.001775 0.000000 0.002695 0.000000
# 3 -0.001259 -0.001775 0.012775 0.000000 0.002167 0.000000
# 4 0.000000 0.000000 0.000000 0.053075 0.000000 0.001007
# 5 0.001921 0.002695 0.002167 0.000000 0.030665 0.000000
# 6 0.000000 0.000000 0.000000 0.001007 0.000000 0.050617
#
#
# Mechanical properties :
#
#
# Convention : Reuss Voigt Hill
#
# Bulk Modulus (GPa) = 33.73075 36.38041 35.05558
# Shear Modulus (GPa) = 24.53331 26.64966 25.59148
#
# Velocity S-wave (km/s) = 3.50919 3.65742 3.58407
# Velocity P-wave (km/s) = 5.77497 6.00805 5.89266
#
# Compressibility (1/GPa) = 0.02964654
#
# Stress axis : x y z
#
# Youngs Moduli (GPa) = 55.06114 73.15272 78.28032
#
# Poissons Ratio (x) = 0.32524 0.09854
# Poissons Ratio (y) = 0.24481 0.13894
# Poissons Ratio (z) = 0.06931 0.12984
#
# Static dielectric constant tensor:
#      x y z
#    x 3.748870 0.000000 -0.039170 
#    y 0.000000 3.552410 0.000000 
#    z -0.039170 0.000000 3.672500 
# 
# 
# High freq. dielectric constant tensor:
#      x y z
#    x 1.781910 0.000000 0.003990 
#    y 0.000000 1.749620 0.000000 
#    z 0.003990 0.000000 1.789170 
# 
# From -- ./inp_files/175299.got.cif
#   From: 2010.06.25/outbox.cif.g09.slc.cpg/sg12_88_cif.got.tgz:175299.got - 2010.06.28 00:19:55.
