data_PCOD8090141
_publ_section_title
;
Structure prediction by ZEFSAII (Michael W. Deem and Ramdas Pophale) SiO2 
 PCOD8090141
Probable space group: C 2/M
;
_chemical_formula_sum "Si O2"
_cell_formula_units_Z 40
_cell_length_a 15.046281
_cell_length_b 17.516751
_cell_length_c 16.973689
_cell_angle_alpha 90.000000
_cell_angle_beta 26.491486
_cell_angle_gamma 90.000000
_cell_volume 1995.523936
_symmetry_space_group_name_H-M "C 2/M"
_symmetry_group_IT_number 12
_symmetry_cell_setting 'monoclinic'
loop_
_space_group_symop_operation_xyz
x,y,z
-x,y,-z
-x,-y,-z
x,-y,z
1/2+x,1/2+y,z
1/2-x,1/2+y,-z
1/2-x,1/2-y,-z
1/2+x,1/2-y,z
loop_
_atom_site_type_symbol
_atom_site_label
_atom_site_fract_x
_atom_site_fract_y
_atom_site_fract_z
Si Si1 0.148013 0.415643 0.615970
Si Si2 0.546813 0.763932 0.775920
Si Si3 0.781414 0.221005 0.847506
Si Si4 0.433973 0.585058 0.638855
Si Si5 0.055218 0.671364 0.541108
O O1 0.057357 0.500000 0.704990
O O2 0.036889 0.352443 0.756703
O O3 0.380263 0.415505 0.450135
O O4 0.123700 0.397420 0.542581
O O5 0.428698 0.712490 0.806066
O O6 0.773298 0.735890 0.601292
O O7 0.440842 0.759290 0.945347
O O8 0.773197 0.142798 0.803560
O O9 0.857344 0.288982 0.731922
O O10 0.500000 0.613934 0.500000
O O11 0.339820 0.500000 0.706803
O O12 0.000000 0.636930 0.500000
#
# Coordination Sequence:
#
# PCOD8090141 Si02
#       5
#     8   8   8   8   8
#     4  10  20  37  57  79 113 147 183 228 271 330
#     4  10  20  35  57  84 106 142 191 223 276 325
#     4  10  19  35  57  81 108 144 183 233 274 321
#     4  10  19  33  55  82 112 145 180 223 281 330
#     4  11  21  37  57  81 115 147 184 228 272 325
#
# _framework density 20.044861000000001
#
# number of rings (size 3 to 8) (size 9 to 14) (size 15 to 20)
#    0.000    1.800    4.000    1.800    0.000    2.000 
#    0.000    0.000    0.000    3.600    0.000    5.600 
#    0.000    0.000    0.000    0.000    0.000    0.000 
#
# Total GULP energy -247982.691556 kJ/mol
# GULP energy per Si atom -12399.134578 kJ/mol
# Density = 1.999924 g / cm^3
# Si number density = 20.044861 Si / 1000 Ang^3
#
#
#
# Elastic Constant Matrix: (Units=GPa)
#
#
# Indices 1 2 3 4 5 6 
#
# 1 75.2526 15.7774 14.2294 0.0043 18.0042 0.0101
# 2 15.7774 95.2357 29.2147 0.0026 5.4373 0.0060
# 3 14.2294 29.2147 99.3472 -0.0183 15.3525 0.0050
# 4 0.0043 0.0026 -0.0183 19.9408 0.0249 6.0251
# 5 18.0042 5.4373 15.3525 0.0249 25.9504 -0.0033
# 6 0.0101 0.0060 0.0050 6.0251 -0.0033 19.1955
#
#
#
# Elastic Compliance Matrix: (Units=1/GPa)
#
#
# Indices 1 2 3 4 5 6 
#
# 1 0.016332 -0.002070 -0.000051 0.000015 -0.010867 -0.000014
# 2 -0.002070 0.011808 -0.003319 -0.000005 0.000925 0.000000
# 3 -0.000051 -0.003319 0.012037 0.000023 -0.006390 -0.000010
# 4 0.000015 -0.000005 0.000023 0.055403 -0.000078 -0.017390
# 5 -0.010867 0.000925 -0.006390 -0.000078 0.049661 0.000040
# 6 -0.000014 0.000000 -0.000010 -0.017390 0.000040 0.057554
#
#
# Mechanical properties :
#
#
# Convention : Reuss Voigt Hill
#
# Bulk Modulus (GPa) = 34.13271 43.14205 38.63738
# Shear Modulus (GPa) = 22.37731 27.05828 24.71780
#
# Velocity S-wave (km/s) = 3.34482 3.67807 3.51540
# Velocity P-wave (km/s) = 5.65529 6.29341 5.98286
#
# Compressibility (1/GPa) = 0.02929741
#
# Stress axis : x y z
#
# Youngs Moduli (GPa) = 61.22890 84.68520 83.08041
#
# Poissons Ratio (x) = 0.17526 0.00426
# Poissons Ratio (y) = 0.12671 0.27575
# Poissons Ratio (z) = 0.00314 0.28107
#
# Static dielectric constant tensor:
#      x y z
#    x 3.683040 -0.000050 0.214410 
#    y -0.000050 3.689300 0.000210 
#    z 0.214410 0.000210 3.516930 
# 
# 
# High freq. dielectric constant tensor:
#      x y z
#    x 1.785110 -0.000010 0.016620 
#    y -0.000010 1.764280 0.000020 
#    z 0.016620 0.000020 1.765440 
# 
# From -- ./inp_files/60257.got.cif
#   From: 2010.06.25/outbox.cif.g09.slc.cpg/sg12_31_cif.got.tgz:60257.got - 2010.06.28 00:19:55.
