data_PCOD8090374
_publ_section_title
;
Structure prediction by ZEFSAII (Michael W. Deem and Ramdas Pophale) SiO2 
 PCOD8090374
Probable space group: C 2/M
;
_chemical_formula_sum "Si O2"
_cell_formula_units_Z 64
_cell_length_a 20.659472
_cell_length_b 9.008499
_cell_length_c 19.866453
_cell_angle_alpha 90.000000
_cell_angle_beta 103.518875
_cell_angle_gamma 90.000000
_cell_volume 3594.919167
_symmetry_space_group_name_H-M "C 2/M"
_symmetry_group_IT_number 12
_symmetry_cell_setting 'monoclinic'
loop_
_space_group_symop_operation_xyz
x,y,z
-x,y,-z
-x,-y,-z
x,-y,z
1/2+x,1/2+y,z
1/2-x,1/2+y,-z
1/2-x,1/2-y,-z
1/2+x,1/2-y,z
loop_
_atom_site_type_symbol
_atom_site_label
_atom_site_fract_x
_atom_site_fract_y
_atom_site_fract_z
Si Si1 0.924317 0.825828 0.672130
Si Si2 0.056845 0.171902 0.960937
Si Si3 0.699955 0.174853 0.540068
Si Si4 0.063197 0.176275 0.472376
Si Si5 0.192634 0.327203 0.027754
Si Si6 0.325237 0.827019 0.824377
Si Si7 0.717212 0.326995 0.312432
Si Si8 0.460681 0.673040 0.822840
O O1 0.949928 0.763504 0.606950
O O2 0.850020 0.767036 0.668444
O O3 0.971281 0.780493 0.746823
O O4 0.921536 0.000000 0.663146
O O5 0.028234 0.206890 0.879478
O O6 0.076674 0.000000 0.973992
O O7 0.121059 0.270658 0.986806
O O8 0.000000 0.216465 0.000000
O O9 0.750000 0.250000 0.500000
O O10 0.627291 0.243470 0.517618
O O11 0.722616 0.207289 0.622299
O O12 0.699249 0.000000 0.524899
O O13 0.000000 0.226259 0.500000
O O14 0.074836 0.000000 0.478638
O O15 0.195461 0.500000 0.012957
O O16 0.204787 0.293912 0.109430
O O17 0.250000 0.250000 0.000000
O O18 0.274960 0.757449 0.756845
O O19 0.398860 0.758931 0.839769
O O20 0.331583 0.000000 0.811683
O O21 0.711451 0.500000 0.294374
O O22 0.441914 0.500000 0.823660
#
# Coordination Sequence:
#
# PCOD8090374 Si02
#       8
#     8   8   8   8   8   8   8   8
#     4   8  14  29  50  74 103 137 178 216 261 317
#     4  10  19  33  56  83 108 140 183 223 267 325
#     4  11  21  35  56  82 112 143 184 231 274 323
#     4  10  20  35  54  77 110 149 185 222 270 326
#     4  11  24  39  56  79 112 149 183 227 276 327
#     4  10  20  33  52  81 110 137 178 229 274 318
#     4   9  18  33  54  77 105 141 179 224 276 329
#     4   9  17  31  53  78 107 141 176 220 269 323
#
# _framework density 17.802904000000002
#
# number of rings (size 3 to 8) (size 9 to 14) (size 15 to 20)
#    0.000    2.250    2.500    1.875    0.000    3.500 
#    0.000    1.250    0.000    3.000    0.000    0.000 
#    0.000    0.000    0.000    0.000    0.000    0.000 
#
# Total GULP energy -396696.388981 kJ/mol
# GULP energy per Si atom -12396.762156 kJ/mol
# Density = 1.776238 g / cm^3
# Si number density = 17.802904 Si / 1000 Ang^3
#
#
#
# Elastic Constant Matrix: (Units=GPa)
#
#
# Indices 1 2 3 4 5 6 
#
# 1 113.2940 55.9267 81.0262 0.0000 -1.9591 0.0000
# 2 55.9267 80.2515 66.6067 0.0000 -1.8979 0.0000
# 3 81.0262 66.6067 166.8936 0.0000 1.8795 0.0000
# 4 0.0000 0.0000 0.0000 27.2768 0.0000 3.6215
# 5 -1.9591 -1.8979 1.8795 0.0000 25.3351 0.0000
# 6 0.0000 0.0000 0.0000 3.6215 0.0000 26.9147
#
#
#
# Elastic Compliance Matrix: (Units=1/GPa)
#
#
# Indices 1 2 3 4 5 6 
#
# 1 0.015755 -0.006872 -0.004918 0.000000 0.001068 0.000000
# 2 -0.006872 0.021727 -0.005352 0.000000 0.001493 0.000000
# 3 -0.004918 -0.005352 0.010533 0.000000 -0.001563 0.000000
# 4 0.000000 0.000000 0.000000 0.037328 0.000000 -0.005023
# 5 0.001068 0.001493 -0.001563 0.000000 0.039781 0.000000
# 6 0.000000 0.000000 0.000000 -0.005023 0.000000 0.037830
#
#
# Mechanical properties :
#
#
# Convention : Reuss Voigt Hill
#
# Bulk Modulus (GPa) = 72.82872 85.28426 79.05649
# Shear Modulus (GPa) = 24.77508 26.36397 25.56953
#
# Velocity S-wave (km/s) = 3.73450 3.85240 3.79391
# Velocity P-wave (km/s) = 7.71962 8.23387 7.98089
#
# Compressibility (1/GPa) = 0.01373085
#
# Stress axis : x y z
#
# Youngs Moduli (GPa) = 63.47184 46.02578 94.93904
#
# Poissons Ratio (x) = 0.31630 0.46695
# Poissons Ratio (y) = 0.43619 0.50807
# Poissons Ratio (z) = 0.31218 0.24631
#
# Static dielectric constant tensor:
#      x y z
#    x 3.619560 0.000000 0.325770 
#    y 0.000000 3.209120 0.000000 
#    z 0.325770 0.000000 3.992170 
# 
# 
# High freq. dielectric constant tensor:
#      x y z
#    x 1.657330 0.000000 0.006880 
#    y 0.000000 1.678970 0.000000 
#    z 0.006880 0.000000 1.711140 
# 
# From -- ./inp_files/319248.got.cif
#   From: 2010.06.25/outbox.cif.g09.slc.cpg/sg12_160_cif.got.tgz:319248.got - 2010.06.28 00:19:55.
