data_PCOD8091808
_publ_section_title
;
Structure prediction by ZEFSAII (Michael W. Deem and Ramdas Pophale) SiO2 
 PCOD8091808
Probable space group: C 2/M
;
_chemical_formula_sum "Si O2"
_cell_formula_units_Z 48
_cell_length_a 10.068511
_cell_length_b 21.713879
_cell_length_c 12.885496
_cell_angle_alpha 90.000000
_cell_angle_beta 65.101811
_cell_angle_gamma 90.000000
_cell_volume 2555.280237
_symmetry_space_group_name_H-M "C 2/M"
_symmetry_group_IT_number 12
_symmetry_cell_setting 'monoclinic'
loop_
_space_group_symop_operation_xyz
x,y,z
-x,y,-z
-x,-y,-z
x,-y,z
1/2+x,1/2+y,z
1/2-x,1/2+y,-z
1/2-x,1/2-y,-z
1/2+x,1/2-y,z
loop_
_atom_site_type_symbol
_atom_site_label
_atom_site_fract_x
_atom_site_fract_y
_atom_site_fract_z
Si Si1 0.699000 0.428314 0.199490
Si Si2 0.859132 0.430869 0.486138
Si Si3 0.626705 0.931998 0.044090
Si Si4 0.434201 0.127175 0.262070
Si Si5 0.919160 0.738502 0.423371
Si Si6 0.949698 0.875606 0.401739
O O1 0.740630 0.500000 0.208667
O O2 0.797842 0.378679 0.228768
O O3 0.531783 0.415944 0.287411
O O4 0.723720 0.415024 0.067752
O O5 0.816020 0.500000 0.531895
O O6 0.904963 0.428258 0.351356
O O7 0.723812 0.385838 0.554581
O O8 0.000000 0.405952 0.500000
O O9 0.586822 0.884081 0.149356
O O10 0.640560 0.000000 0.089452
O O11 0.500000 0.932017 0.000000
O O12 0.440516 0.192250 0.319691
O O13 0.750000 0.750000 0.500000
O O14 0.989681 0.804213 0.370159
O O15 0.000000 0.712776 0.500000
O O16 0.000000 0.897333 0.500000
#
# Coordination Sequence:
#
# PCOD8091808 Si02
#       6
#     8   8   8   8   8   8
#     4  10  19  34  57  86 113 138 182 238 282 323
#     4  11  22  33  50  82 114 140 175 224 283 337
#     4   8  16  30  52  81 110 141 180 228 278 321
#     4  11  18  32  54  79 109 146 179 225 270 325
#     4  11  22  37  54  79 113 150 188 222 271 328
#     4  11  21  35  55  80 108 148 185 226 275 325
#
# _framework density 18.784631999999998
#
# number of rings (size 3 to 8) (size 9 to 14) (size 15 to 20)
#    0.000    1.667    3.333    4.500    0.000    0.667 
#    0.000    0.833    0.000    1.000    0.000    4.667 
#    0.000    0.000    0.000    0.000    0.000    0.000 
#
# Total GULP energy -297398.755373 kJ/mol
# GULP energy per Si atom -12391.614807 kJ/mol
# Density = 1.874188 g / cm^3
# Si number density = 18.784632 Si / 1000 Ang^3
#
#
#
# Elastic Constant Matrix: (Units=GPa)
#
#
# Indices 1 2 3 4 5 6 
#
# 1 83.3741 25.3860 42.8976 0.0000 -8.1038 0.0000
# 2 25.3860 104.7791 58.5295 0.0000 -2.7214 0.0000
# 3 42.8976 58.5295 154.4867 0.0000 -25.7827 0.0000
# 4 0.0000 0.0000 0.0000 24.9300 0.0000 1.9629
# 5 -8.1038 -2.7214 -25.7827 0.0000 19.3402 0.0000
# 6 0.0000 0.0000 0.0000 1.9629 0.0000 20.8233
#
#
#
# Elastic Compliance Matrix: (Units=1/GPa)
#
#
# Indices 1 2 3 4 5 6 
#
# 1 0.014236 -0.001719 -0.003018 0.000000 0.001700 0.000000
# 2 -0.001719 0.012818 -0.005399 0.000000 -0.006115 0.000000
# 3 -0.003018 -0.005399 0.011600 0.000000 0.013439 0.000000
# 4 0.000000 0.000000 0.000000 0.040412 0.000000 -0.003809
# 5 0.001700 -0.006115 0.013439 0.000000 0.069474 0.000000
# 6 0.000000 0.000000 0.000000 -0.003809 0.000000 0.048382
#
#
# Mechanical properties :
#
#
# Convention : Reuss Voigt Hill
#
# Bulk Modulus (GPa) = 54.40631 66.25176 60.32903
# Shear Modulus (GPa) = 22.38940 27.40716 24.89828
#
# Velocity S-wave (km/s) = 3.45614 3.82386 3.64464
# Velocity P-wave (km/s) = 6.70467 7.40551 7.06378
#
# Compressibility (1/GPa) = 0.01838022
#
# Stress axis : x y z
#
# Youngs Moduli (GPa) = 70.24663 78.01776 86.21013
#
# Poissons Ratio (x) = 0.13411 0.26018
# Poissons Ratio (y) = 0.12076 0.46547
# Poissons Ratio (z) = 0.21200 0.42124
#
# Static dielectric constant tensor:
#      x y z
#    x 3.252970 0.000000 -0.176630 
#    y 0.000000 3.519380 0.000000 
#    z -0.176630 0.000000 3.770170 
# 
# 
# High freq. dielectric constant tensor:
#      x y z
#    x 1.701120 0.000000 -0.015350 
#    y 0.000000 1.726920 0.000000 
#    z -0.015350 0.000000 1.725260 
# 
# From -- ./inp_files/132986.got.cif
#   From: 2010.06.25/outbox.cif.g09.slc.cpg/sg12_67_cif.got.tgz:132986.got - 2010.06.28 00:19:55.
