data_PCOD8091449
_publ_section_title
;
Structure prediction by ZEFSAII (Michael W. Deem and Ramdas Pophale) SiO2 
 PCOD8091449
Probable space group: C 2/M
;
_chemical_formula_sum "Si O2"
_cell_formula_units_Z 64
_cell_length_a 12.318830
_cell_length_b 27.796903
_cell_length_c 15.027665
_cell_angle_alpha 90.000000
_cell_angle_beta 38.349813
_cell_angle_gamma 90.000000
_cell_volume 3192.801546
_symmetry_space_group_name_H-M "C 2/M"
_symmetry_group_IT_number 12
_symmetry_cell_setting 'monoclinic'
loop_
_space_group_symop_operation_xyz
x,y,z
-x,y,-z
-x,-y,-z
x,-y,z
1/2+x,1/2+y,z
1/2-x,1/2+y,-z
1/2-x,1/2-y,-z
1/2+x,1/2-y,z
loop_
_atom_site_type_symbol
_atom_site_label
_atom_site_fract_x
_atom_site_fract_y
_atom_site_fract_z
Si Si1 0.919429 0.445770 0.169366
Si Si2 0.166880 0.752872 0.700517
Si Si3 0.860052 0.908197 0.520564
Si Si4 0.722275 0.686098 0.518482
Si Si5 0.620432 0.551688 0.223352
Si Si6 0.818996 0.213857 0.780335
Si Si7 0.870676 0.203238 0.003915
Si Si8 0.275023 0.130983 0.033789
O O1 0.001098 0.500000 0.126548
O O2 0.787803 0.438267 0.335667
O O3 0.813082 0.443008 0.145163
O O4 0.054122 0.401700 0.087869
O O5 0.150599 0.714199 0.630867
O O6 0.273352 0.799158 0.588507
O O7 0.260794 0.723671 0.717366
O O8 0.977612 0.771382 0.855032
O O9 0.772164 0.869672 0.510302
O O10 0.000000 0.883733 0.500000
O O11 0.966989 0.946236 0.393614
O O12 0.522918 0.704872 0.643479
O O13 0.607242 0.500000 0.184001
O O14 0.611092 0.594957 0.158552
O O15 0.774367 0.260543 0.867053
O O16 0.712572 0.168611 0.891388
O O17 0.767981 0.157494 0.030919
O O18 0.000000 0.186752 0.000000
#
# Coordination Sequence:
#
# PCOD8091449 Si02
#       8
#     8   8   8   8   8   8   8   8
#     4  10  23  37  54  85 118 147 185 234 288 340
#     4  10  22  35  53  76 114 150 186 236 273 315
#     4  10  19  34  56  81 111 151 189 228 279 345
#     4  11  21  35  53  80 111 146 195 230 269 332
#     4  10  20  36  56  82 116 148 182 231 284 342
#     4  11  22  37  54  81 114 151 191 233 271 334
#     4  10  23  40  56  78 113 151 191 238 285 329
#     4  12  22  36  57  82 111 151 196 230 280 344
#
# _framework density 20.045092
#
# number of rings (size 3 to 8) (size 9 to 14) (size 15 to 20)
#    0.000    1.500    2.500    2.625    3.500    5.500 
#    0.000    0.000    0.000    1.500    0.000    0.000 
#    0.000   10.000    0.000    0.000    0.000    0.000 
#
# Total GULP energy -396449.688034 kJ/mol
# GULP energy per Si atom -12389.052751 kJ/mol
# Density = 1.999947 g / cm^3
# Si number density = 20.045092 Si / 1000 Ang^3
#
#
#
# Elastic Constant Matrix: (Units=GPa)
#
#
# Indices 1 2 3 4 5 6 
#
# 1 51.1041 42.7320 24.6694 0.0000 7.5624 0.0001
# 2 42.7320 131.5812 29.3921 0.0000 7.6549 0.0000
# 3 24.6694 29.3921 86.8537 0.0000 4.4592 0.0000
# 4 0.0000 0.0000 0.0000 26.9073 0.0000 2.0071
# 5 7.5624 7.6549 4.4592 0.0000 28.0604 0.0000
# 6 0.0001 0.0000 0.0000 2.0071 0.0000 27.4081
#
#
#
# Elastic Compliance Matrix: (Units=1/GPa)
#
#
# Indices 1 2 3 4 5 6 
#
# 1 0.029742 -0.008159 -0.005434 0.000000 -0.004926 0.000000
# 2 -0.008159 0.010552 -0.001229 0.000000 -0.000485 0.000000
# 3 -0.005434 -0.001229 0.013491 0.000000 -0.000344 0.000000
# 4 0.000000 0.000000 0.000000 0.037369 0.000000 -0.002736
# 5 -0.004926 -0.000485 -0.000344 0.000000 0.037152 0.000000
# 6 0.000000 0.000000 0.000000 -0.002736 0.000000 0.036686
#
#
# Mechanical properties :
#
#
# Convention : Reuss Voigt Hill
#
# Bulk Modulus (GPa) = 41.42114 51.45844 46.43979
# Shear Modulus (GPa) = 24.66933 27.99154 26.33043
#
# Velocity S-wave (km/s) = 3.51193 3.74094 3.62824
# Velocity P-wave (km/s) = 6.09538 6.66232 6.38515
#
# Compressibility (1/GPa) = 0.02414226
#
# Stress axis : x y z
#
# Youngs Moduli (GPa) = 33.62253 94.76807 74.12619
#
# Poissons Ratio (x) = 0.77317 0.40279
# Poissons Ratio (y) = 0.27431 0.09108
# Poissons Ratio (z) = 0.18270 0.11645
#
# Static dielectric constant tensor:
#      x y z
#    x 3.568300 0.000000 0.260860 
#    y 0.000000 3.766090 0.000000 
#    z 0.260860 0.000000 4.071810 
# 
# 
# High freq. dielectric constant tensor:
#      x y z
#    x 1.726110 0.000000 0.001260 
#    y 0.000000 1.782400 0.000000 
#    z 0.001260 0.000000 1.816990 
# 
# From -- ./inp_files/218928.got.cif
#   From: 2010.06.25/outbox.cif.g09.slc.cpg/sg12_110_cif.got.tgz:218928.got - 2010.06.28 00:19:55.
