data_PCOD8091817
_publ_section_title
;
Structure prediction by ZEFSAII (Michael W. Deem and Ramdas Pophale) SiO2 
 PCOD8091817
Probable space group: C 2/M
;
_chemical_formula_sum "Si O2"
_cell_formula_units_Z 56
_cell_length_a 10.937652
_cell_length_b 20.849505
_cell_length_c 24.095400
_cell_angle_alpha 90.000000
_cell_angle_beta 150.699572
_cell_angle_gamma 90.000000
_cell_volume 2689.107498
_symmetry_space_group_name_H-M "C 2/M"
_symmetry_group_IT_number 12
_symmetry_cell_setting 'monoclinic'
loop_
_space_group_symop_operation_xyz
x,y,z
-x,y,-z
-x,-y,-z
x,-y,z
1/2+x,1/2+y,z
1/2-x,1/2+y,-z
1/2-x,1/2-y,-z
1/2+x,1/2-y,z
loop_
_atom_site_type_symbol
_atom_site_label
_atom_site_fract_x
_atom_site_fract_y
_atom_site_fract_z
Si Si1 0.590174 0.926486 0.363156
Si Si2 0.604943 0.143240 0.262684
Si Si3 0.843965 0.778194 0.881458
Si Si4 0.892884 0.194658 0.520335
Si Si5 0.035210 0.882270 0.153455
Si Si6 0.772828 0.361837 0.868673
Si Si7 0.930055 0.430049 0.093823
O O1 0.666839 0.915445 0.329298
O O2 0.722625 0.869853 0.451125
O O3 0.292336 0.920010 0.251071
O O4 0.666154 0.000000 0.410315
O O5 0.434942 0.194310 0.226946
O O6 0.431582 0.120146 0.144043
O O7 0.863891 0.176469 0.346713
O O8 0.979842 0.813967 0.884307
O O9 0.797922 0.705055 0.845861
O O10 0.000000 0.785937 0.000000
O O11 0.750000 0.250000 0.500000
O O12 0.000000 0.213938 0.500000
O O13 0.983126 0.869724 0.198255
O O14 0.820767 0.925910 0.041542
O O15 0.817864 0.418720 0.842689
O O16 0.000000 0.363918 0.000000
O O17 0.947793 0.500000 0.127053
#
# Coordination Sequence:
#
# PCOD8091817 Si02
#       7
#     8   8   8   8   8   8   8
#     4  10  22  40  64  91 121 161 207 254 306 365
#     4  10  22  37  63  92 119 158 200 255 304 355
#     4  10  19  34  57  86 118 148 199 247 305 353
#     4  10  24  45  69  95 123 164 209 263 316 370
#     4  10  21  37  57  88 121 164 200 248 301 367
#     4   9  22  33  53  81 119 168 197 244 291 366
#     4  11  22  36  56  87 126 164 200 241 299 367
#
# _framework density 20.824753000000001
#
# number of rings (size 3 to 8) (size 9 to 14) (size 15 to 20)
#    0.000    2.000    1.429    0.857    4.000   10.286 
#    0.000    2.143    0.000    0.429    0.000    0.000 
#    0.000    0.000    0.000    0.000    0.000    0.000 
#
# Total GULP energy -346873.180362 kJ/mol
# GULP energy per Si atom -12388.327870 kJ/mol
# Density = 2.077736 g / cm^3
# Si number density = 20.824753 Si / 1000 Ang^3
#
#
#
# Elastic Constant Matrix: (Units=GPa)
#
#
# Indices 1 2 3 4 5 6 
#
# 1 79.2631 30.3080 21.0030 -0.0017 23.0007 -0.0001
# 2 30.3080 112.5355 34.2670 0.0023 9.9639 -0.0001
# 3 21.0030 34.2670 71.5270 -0.0165 14.4120 0.0017
# 4 -0.0017 0.0023 -0.0165 19.9256 0.0048 -1.5199
# 5 23.0007 9.9639 14.4120 0.0048 23.3196 -0.0003
# 6 -0.0001 -0.0001 0.0017 -1.5199 -0.0003 26.7968
#
#
#
# Elastic Compliance Matrix: (Units=1/GPa)
#
#
# Indices 1 2 3 4 5 6 
#
# 1 0.018988 -0.003460 -0.000505 0.000006 -0.016938 0.000000
# 2 -0.003460 0.011084 -0.004600 -0.000006 0.001520 0.000000
# 3 -0.000505 -0.004600 0.018089 0.000018 -0.008716 0.000000
# 4 0.000006 -0.000006 0.000018 0.050405 -0.000024 0.002859
# 5 -0.016938 0.001520 -0.008716 -0.000024 0.064326 0.000000
# 6 0.000000 0.000000 0.000000 0.002859 0.000000 0.037480
#
#
# Mechanical properties :
#
#
# Convention : Reuss Voigt Hill
#
# Bulk Modulus (GPa) = 32.22696 48.27572 40.25134
# Shear Modulus (GPa) = 21.94452 25.85824 23.90138
#
# Velocity S-wave (km/s) = 3.24971 3.52761 3.39150
# Velocity P-wave (km/s) = 5.43964 6.31065 5.89126
#
# Compressibility (1/GPa) = 0.03102992
#
# Stress axis : x y z
#
# Youngs Moduli (GPa) = 52.66407 90.21785 55.28186
#
# Poissons Ratio (x) = 0.31220 0.02792
# Poissons Ratio (y) = 0.18224 0.25432
# Poissons Ratio (z) = 0.02659 0.41504
#
# Static dielectric constant tensor:
#      x y z
#    x 4.423940 -0.000020 0.068400 
#    y -0.000020 3.791040 0.000000 
#    z 0.068400 0.000000 3.677970 
# 
# 
# High freq. dielectric constant tensor:
#      x y z
#    x 1.809890 0.000000 0.015030 
#    y 0.000000 1.811670 0.000000 
#    z 0.015030 0.000000 1.800200 
# 
# From -- ./inp_files/358937.got.cif
#   From: 2010.06.25/outbox.cif.g09.slc.cpg/sg12_180_cif.got.tgz:358937.got - 2010.06.28 00:19:55.
