data_PCOD8091019
_publ_section_title
;
Structure prediction by ZEFSAII (Michael W. Deem and Ramdas Pophale) SiO2 
 PCOD8091019
Probable space group: C 2/M
;
_chemical_formula_sum "Si O2"
_cell_formula_units_Z 56
_cell_length_a 23.937568
_cell_length_b 9.138435
_cell_length_c 14.467076
_cell_angle_alpha 90.000000
_cell_angle_beta 71.126860
_cell_angle_gamma 90.000000
_cell_volume 2994.557038
_symmetry_space_group_name_H-M "C 2/M"
_symmetry_group_IT_number 12
_symmetry_cell_setting 'monoclinic'
loop_
_space_group_symop_operation_xyz
x,y,z
-x,y,-z
-x,-y,-z
x,-y,z
1/2+x,1/2+y,z
1/2-x,1/2+y,-z
1/2-x,1/2-y,-z
1/2+x,1/2-y,z
loop_
_atom_site_type_symbol
_atom_site_label
_atom_site_fract_x
_atom_site_fract_y
_atom_site_fract_z
Si Si1 0.820517 0.830333 0.871516
Si Si2 0.379901 0.168038 0.549637
Si Si3 0.735257 0.668156 0.414424
Si Si4 0.297465 0.330609 0.095730
Si Si5 0.072619 0.331900 0.277823
Si Si6 0.349436 0.831990 0.229551
Si Si7 0.059284 0.326318 0.668139
O O1 0.765034 0.748903 0.855692
O O2 0.880799 0.768333 0.799103
O O3 0.814624 0.000000 0.848779
O O4 0.821867 0.804617 0.980296
O O5 0.321739 0.261289 0.603005
O O6 0.422962 0.181854 0.613951
O O7 0.412364 0.234389 0.442074
O O8 0.361080 0.000000 0.542447
O O9 0.722734 0.500000 0.444117
O O10 0.750000 0.750000 0.500000
O O11 0.788884 0.686706 0.316279
O O12 0.287785 0.500000 0.123290
O O13 0.346322 0.263773 0.138379
O O14 0.082117 0.500000 0.241834
O O15 0.007906 0.272646 0.284524
O O16 0.402942 0.771612 0.264243
O O17 0.360694 0.000000 0.195889
O O18 0.060753 0.500000 0.660543
#
# Coordination Sequence:
#
# PCOD8091019 Si02
#       7
#     8   8   8   8   8   8   8
#     4  10  21  38  58  81 111 139 170 222 279 323
#     4  10  19  34  54  79 109 143 182 225 268 313
#     4  11  21  33  51  77 108 142 177 218 267 316
#     4  10  21  37  59  84 107 137 177 220 270 328
#     4  10  20  34  58  83 105 141 187 226 262 314
#     4  10  20  35  55  79 111 147 179 219 270 316
#     4   9  18  35  54  77 110 147 184 220 262 314
#
# _framework density 18.700596000000001
#
# number of rings (size 3 to 8) (size 9 to 14) (size 15 to 20)
#    0.000    2.000    1.429    2.571    0.000    7.429 
#    0.000    2.143    0.000    6.000    0.000    0.000 
#    0.000    0.000    0.000    0.000    0.000    0.000 
#
# Total GULP energy -347293.257082 kJ/mol
# GULP energy per Si atom -12403.330610 kJ/mol
# Density = 1.865803 g / cm^3
# Si number density = 18.700596 Si / 1000 Ang^3
#
#
#
# Elastic Constant Matrix: (Units=GPa)
#
#
# Indices 1 2 3 4 5 6 
#
# 1 145.3076 49.8543 56.4472 0.0000 6.7804 0.0000
# 2 49.8543 86.0617 44.8684 0.0000 6.3046 0.0000
# 3 56.4472 44.8684 75.2396 0.0000 7.7737 0.0000
# 4 0.0000 0.0000 0.0000 30.8147 0.0000 1.5695
# 5 6.7804 6.3046 7.7737 0.0000 29.3681 0.0000
# 6 0.0000 0.0000 0.0000 1.5695 0.0000 25.8310
#
#
#
# Elastic Compliance Matrix: (Units=1/GPa)
#
#
# Indices 1 2 3 4 5 6 
#
# 1 0.010149 -0.002766 -0.005947 0.000000 -0.000175 0.000000
# 2 -0.002766 0.017644 -0.008349 0.000000 -0.000939 0.000000
# 3 -0.005947 -0.008349 0.023034 0.000000 -0.002932 0.000000
# 4 0.000000 0.000000 0.000000 0.032553 0.000000 -0.001978
# 5 -0.000175 -0.000939 -0.002932 0.000000 0.035069 0.000000
# 6 0.000000 0.000000 0.000000 -0.001978 0.000000 0.038833
#
#
# Mechanical properties :
#
#
# Convention : Reuss Voigt Hill
#
# Bulk Modulus (GPa) = 59.87003 67.66096 63.76549
# Shear Modulus (GPa) = 25.38407 27.56534 26.47471
#
# Velocity S-wave (km/s) = 3.68828 3.84348 3.76668
# Velocity P-wave (km/s) = 7.08678 7.48039 7.28624
#
# Compressibility (1/GPa) = 0.01670285
#
# Stress axis : x y z
#
# Youngs Moduli (GPa) = 98.52938 56.67730 43.41378
#
# Poissons Ratio (x) = 0.15678 0.25816
# Poissons Ratio (y) = 0.27255 0.36248
# Poissons Ratio (z) = 0.58591 0.47322
#
# Static dielectric constant tensor:
#      x y z
#    x 3.627030 0.000000 0.029630 
#    y 0.000000 3.408020 0.000000 
#    z 0.029630 0.000000 3.962890 
# 
# 
# High freq. dielectric constant tensor:
#      x y z
#    x 1.729360 0.000000 0.010250 
#    y 0.000000 1.712180 0.000000 
#    z 0.010250 0.000000 1.722460 
# 
# From -- ./inp_files/237432.got.cif
#   From: 2010.06.25/outbox.cif.g09.slc.cpg/sg12_119_cif.got.tgz:237432.got - 2010.06.28 00:19:55.
