data_PCOD8091008
_publ_section_title
;
Structure prediction by ZEFSAII (Michael W. Deem and Ramdas Pophale) SiO2 
 PCOD8091008
Probable space group: C 2/M
;
_chemical_formula_sum "Si O2"
_cell_formula_units_Z 64
_cell_length_a 18.543574
_cell_length_b 10.851315
_cell_length_c 27.843858
_cell_angle_alpha 90.000000
_cell_angle_beta 141.210794
_cell_angle_gamma 90.000000
_cell_volume 3509.913998
_symmetry_space_group_name_H-M "C 2/M"
_symmetry_group_IT_number 12
_symmetry_cell_setting 'monoclinic'
loop_
_space_group_symop_operation_xyz
x,y,z
-x,y,-z
-x,-y,-z
x,-y,z
1/2+x,1/2+y,z
1/2-x,1/2+y,-z
1/2-x,1/2-y,-z
1/2+x,1/2-y,z
loop_
_atom_site_type_symbol
_atom_site_label
_atom_site_fract_x
_atom_site_fract_y
_atom_site_fract_z
Si Si1 0.297164 0.857227 0.173663
Si Si2 0.620249 0.135757 0.578556
Si Si3 0.221092 0.726946 0.406749
Si Si4 0.895773 0.137115 0.571386
Si Si5 0.352796 0.140879 0.786993
Si Si6 0.975605 0.359570 0.758650
Si Si7 0.615525 0.141667 0.089344
Si Si8 0.372693 0.787429 0.315119
O O1 0.400228 0.806987 0.193049
O O2 0.200337 0.751674 0.116379
O O3 0.341738 0.862634 0.251459
O O4 0.257529 0.000000 0.140999
O O5 0.500000 0.198290 0.500000
O O6 0.724357 0.215767 0.612690
O O7 0.627249 0.122007 0.639550
O O8 0.627727 0.000000 0.559497
O O9 0.180261 0.834111 0.421326
O O10 0.314559 0.642981 0.482310
O O11 0.112895 0.649273 0.331766
O O12 0.001596 0.229343 0.623616
O O13 0.945037 0.000000 0.601615
O O14 0.427214 0.205593 0.782587
O O15 0.415675 0.160858 0.870724
O O16 0.222162 0.184421 0.723553
O O17 0.342529 0.000000 0.766820
O O18 0.999926 0.500000 0.782746
O O19 0.664486 0.000000 0.107339
O O20 0.500000 0.159263 0.000000
#
# Coordination Sequence:
#
# PCOD8091008 Si02
#       8
#     8   8   8   8   8   8   8   8
#     4  10  21  36  57  84 112 147 181 220 271 328
#     4  11  22  35  50  69  97 138 182 230 284 334
#     4  11  21  38  50  71 102 141 184 231 282 327
#     4  11  23  35  51  74 100 139 190 238 283 329
#     4   9  18  32  56  81 107 141 175 216 268 325
#     4  10  19  34  54  78 110 142 180 224 272 324
#     4   9  19  38  63  89 116 146 179 218 265 321
#     4  11  19  35  52  75 107 135 181 232 275 326
#
# _framework density 18.234065999999999
#
# number of rings (size 3 to 8) (size 9 to 14) (size 15 to 20)
#    0.000    1.750    3.750    1.500    0.000    0.750 
#    0.000    1.250    0.000    0.000    0.000    0.000 
#    0.000    0.000    0.000    0.000    0.000    0.000 
#
# Total GULP energy -396553.726323 kJ/mol
# GULP energy per Si atom -12392.303948 kJ/mol
# Density = 1.819256 g / cm^3
# Si number density = 18.234066 Si / 1000 Ang^3
#
#
#
# Elastic Constant Matrix: (Units=GPa)
#
#
# Indices 1 2 3 4 5 6 
#
# 1 99.6266 28.1740 36.3964 0.0000 12.2724 0.0000
# 2 28.1740 74.0399 29.5900 0.0000 12.4919 0.0000
# 3 36.3964 29.5900 98.0405 0.0000 0.8701 0.0000
# 4 0.0000 0.0000 0.0000 21.6295 0.0000 3.3035
# 5 12.2724 12.4919 0.8701 0.0000 23.2198 0.0000
# 6 0.0000 0.0000 0.0000 3.3035 0.0000 18.5827
#
#
#
# Elastic Compliance Matrix: (Units=1/GPa)
#
#
# Indices 1 2 3 4 5 6 
#
# 1 0.012830 -0.002382 -0.003997 0.000000 -0.005350 0.000000
# 2 -0.002382 0.017488 -0.004323 0.000000 -0.007987 0.000000
# 3 -0.003997 -0.004323 0.012953 0.000000 0.003953 0.000000
# 4 0.000000 0.000000 0.000000 0.047523 0.000000 -0.008448
# 5 -0.005350 -0.007987 0.003953 0.000000 0.050043 0.000000
# 6 0.000000 0.000000 0.000000 -0.008448 0.000000 0.055316
#
#
# Mechanical properties :
#
#
# Convention : Reuss Voigt Hill
#
# Bulk Modulus (GPa) = 45.72921 51.11419 48.42170
# Shear Modulus (GPa) = 22.23742 24.52283 23.38013
#
# Velocity S-wave (km/s) = 3.49600 3.67125 3.58470
# Velocity P-wave (km/s) = 6.43657 6.78704 6.61413
#
# Compressibility (1/GPa) = 0.02186786
#
# Stress axis : x y z
#
# Youngs Moduli (GPa) = 77.94066 57.18218 77.20134
#
# Poissons Ratio (x) = 0.13623 0.30854
# Poissons Ratio (y) = 0.18569 0.33373
# Poissons Ratio (z) = 0.31149 0.24719
#
# Static dielectric constant tensor:
#      x y z
#    x 3.695880 0.000000 -0.003580 
#    y 0.000000 3.162730 0.000000 
#    z -0.003580 0.000000 3.191920 
# 
# 
# High freq. dielectric constant tensor:
#      x y z
#    x 1.718920 0.000000 0.000530 
#    y 0.000000 1.692000 0.000000 
#    z 0.000530 0.000000 1.689400 
# 
# From -- ./inp_files/315331.got.cif
#   From: 2010.06.25/outbox.cif.g09.slc.cpg/sg12_158_cif.got.tgz:315331.got - 2010.06.28 00:19:55.
