data_PCOD8091442
_publ_section_title
;
Structure prediction by ZEFSAII (Michael W. Deem and Ramdas Pophale) SiO2 
 PCOD8091442
Probable space group: C 2/M
;
_chemical_formula_sum "Si O2"
_cell_formula_units_Z 64
_cell_length_a 20.097356
_cell_length_b 9.027836
_cell_length_c 24.421154
_cell_angle_alpha 90.000000
_cell_angle_beta 128.641432
_cell_angle_gamma 90.000000
_cell_volume 3460.813849
_symmetry_space_group_name_H-M "C 2/M"
_symmetry_group_IT_number 12
_symmetry_cell_setting 'monoclinic'
loop_
_space_group_symop_operation_xyz
x,y,z
-x,y,-z
-x,-y,-z
x,-y,z
1/2+x,1/2+y,z
1/2-x,1/2+y,-z
1/2-x,1/2-y,-z
1/2+x,1/2-y,z
loop_
_atom_site_type_symbol
_atom_site_label
_atom_site_fract_x
_atom_site_fract_y
_atom_site_fract_z
Si Si1 0.552509 0.827865 0.299256
Si Si2 0.211616 0.172666 0.927950
Si Si3 0.505833 0.325583 0.441299
Si Si4 0.398782 0.830145 0.300083
Si Si5 0.734802 0.327727 0.152053
Si Si6 0.840081 0.175807 0.556723
Si Si7 0.956795 0.827044 0.923713
Si Si8 0.484456 0.673871 0.162481
O O1 0.462631 0.802013 0.282783
O O2 0.625746 0.738413 0.368378
O O3 0.545935 0.762399 0.235048
O O4 0.577789 0.000000 0.309875
O O5 0.259167 0.232999 0.899455
O O6 0.112232 0.208696 0.871705
O O7 0.228892 0.000000 0.942417
O O8 0.250000 0.250000 0.000000
O O9 0.500000 0.262258 0.500000
O O10 0.496283 0.500000 0.436446
O O11 0.425583 0.263328 0.366641
O O12 0.594924 0.278119 0.458717
O O13 0.305411 0.778282 0.232630
O O14 0.398967 0.000000 0.318411
O O15 0.746926 0.500000 0.142877
O O16 0.643353 0.294674 0.130955
O O17 0.750000 0.250000 0.500000
O O18 0.830028 0.000000 0.555572
O O19 0.998697 0.763344 0.889928
O O20 0.976853 0.000000 0.936031
O O21 0.000000 0.753444 0.000000
O O22 0.505811 0.500000 0.177882
#
# Coordination Sequence:
#
# PCOD8091442 Si02
#       8
#     8   8   8   8   8   8   8   8
#     4  10  19  34  56  81 111 143 178 224 274 318
#     4  11  22  34  54  81 108 138 179 226 271 321
#     4   9  19  36  57  80 109 144 178 219 267 317
#     4   9  18  32  53  80 108 140 175 219 268 316
#     4  10  19  35  56  78 107 138 178 225 270 320
#     4  10  20  36  58  83 113 146 182 220 264 320
#     4   9  18  34  55  76 105 144 180 219 271 328
#     4  10  20  35  55  80 107 141 183 222 269 327
#
# _framework density 18.492760000000001
#
# number of rings (size 3 to 8) (size 9 to 14) (size 15 to 20)
#    0.000    2.250    1.250    1.875    0.000    4.250 
#    2.250    0.625    0.000    1.500    0.000    0.000 
#    0.000    0.000    0.000    0.000    0.000    0.000 
#
# Total GULP energy -396857.928873 kJ/mol
# GULP energy per Si atom -12401.810277 kJ/mol
# Density = 1.845067 g / cm^3
# Si number density = 18.492760 Si / 1000 Ang^3
#
#
#
# Elastic Constant Matrix: (Units=GPa)
#
#
# Indices 1 2 3 4 5 6 
#
# 1 46.4168 24.4482 32.9607 0.0000 -10.6588 0.0000
# 2 24.4482 56.2810 43.6617 0.0000 0.2966 0.0000
# 3 32.9607 43.6617 134.4844 0.0000 -7.3572 0.0000
# 4 0.0000 0.0000 0.0000 36.0914 0.0000 -1.6909
# 5 -10.6588 0.2966 -7.3572 0.0000 36.9505 0.0000
# 6 0.0000 0.0000 0.0000 -1.6909 0.0000 18.6364
#
#
#
# Elastic Compliance Matrix: (Units=1/GPa)
#
#
# Indices 1 2 3 4 5 6 
#
# 1 0.032004 -0.010995 -0.003806 0.000000 0.008562 0.000000
# 2 -0.010995 0.027639 -0.006535 0.000000 -0.004695 0.000000
# 3 -0.003806 -0.006535 0.010548 0.000000 0.001055 0.000000
# 4 0.000000 0.000000 0.000000 0.027826 0.000000 0.002525
# 5 0.008562 -0.004695 0.001055 0.000000 0.029781 0.000000
# 6 0.000000 0.000000 0.000000 0.002525 0.000000 0.053888
#
#
# Mechanical properties :
#
#
# Convention : Reuss Voigt Hill
#
# Bulk Modulus (GPa) = 36.33910 48.81371 42.57641
# Shear Modulus (GPa) = 21.41054 27.40975 24.41015
#
# Velocity S-wave (km/s) = 3.40631 3.85410 3.63710
# Velocity P-wave (km/s) = 5.92990 6.80139 6.38054
#
# Compressibility (1/GPa) = 0.02751857
#
# Stress axis : x y z
#
# Youngs Moduli (GPa) = 31.24629 36.18097 94.80467
#
# Poissons Ratio (x) = 0.39781 0.36080
# Poissons Ratio (y) = 0.34355 0.61958
# Poissons Ratio (z) = 0.11892 0.23645
#
# Static dielectric constant tensor:
#      x y z
#    x 3.337040 0.000000 -0.004260 
#    y 0.000000 3.190080 0.000000 
#    z -0.004260 0.000000 3.962060 
# 
# 
# High freq. dielectric constant tensor:
#      x y z
#    x 1.706930 0.000000 0.000100 
#    y 0.000000 1.704130 0.000000 
#    z 0.000100 0.000000 1.730120 
# 
# From -- ./inp_files/346307.got.cif
#   From: 2010.06.25/outbox.cif.g09.slc.cpg/sg12_174_cif.got.tgz:346307.got - 2010.06.28 00:19:55.
