data_PCOD8091841
_publ_section_title
;
Structure prediction by ZEFSAII (Michael W. Deem and Ramdas Pophale) SiO2 
 PCOD8091841
Probable space group: C 2/M
;
_chemical_formula_sum "Si O2"
_cell_formula_units_Z 40
_cell_length_a 16.694846
_cell_length_b 21.091395
_cell_length_c 10.488227
_cell_angle_alpha 90.000000
_cell_angle_beta 145.148141
_cell_angle_gamma 90.000000
_cell_volume 2110.440083
_symmetry_space_group_name_H-M "C 2/M"
_symmetry_group_IT_number 12
_symmetry_cell_setting 'monoclinic'
loop_
_space_group_symop_operation_xyz
x,y,z
-x,y,-z
-x,-y,-z
x,-y,z
1/2+x,1/2+y,z
1/2-x,1/2+y,-z
1/2-x,1/2-y,-z
1/2+x,1/2-y,z
loop_
_atom_site_type_symbol
_atom_site_label
_atom_site_fract_x
_atom_site_fract_y
_atom_site_fract_z
Si Si1 0.214074 0.679414 0.209535
Si Si2 0.850511 0.696439 0.359407
Si Si3 0.559379 0.215493 0.253142
Si Si4 0.420855 0.572598 0.529096
Si Si5 0.445732 0.352952 0.071753
O O1 0.322530 0.729258 0.286185
O O2 0.163355 0.715452 0.270246
O O3 0.277978 0.612087 0.329224
O O4 0.077155 0.670220 0.942726
O O5 0.856598 0.688251 0.518841
O O6 0.000000 0.674590 0.500000
O O7 0.723864 0.651905 0.145955
O O8 0.510464 0.287717 0.208391
O O9 0.500000 0.582691 0.500000
O O10 0.378498 0.500000 0.494687
O O11 0.511827 0.593586 0.770469
O O12 0.500000 0.369730 0.000000
#
# Coordination Sequence:
#
# PCOD8091841 Si02
#       5
#     8   8   8   8   8
#     4  10  19  35  57  83 118 154 187 234 291 359
#     4  11  21  30  55  94 121 142 187 239 307 350
#     4  10  19  34  57  90 121 151 177 239 311 357
#     4  11  25  41  59  81 115 161 205 243 281 338
#     4  11  21  38  61  86 123 155 190 238 296 356
#
# _framework density 18.953392999999998
#
# number of rings (size 3 to 8) (size 9 to 14) (size 15 to 20)
#    0.000    1.400    6.000    2.400    2.800    2.000 
#    0.000    2.000    0.000    1.800    0.000    0.000 
#    0.000    0.000    0.000    0.000    0.000    0.000 
#
# Total GULP energy -247941.462896 kJ/mol
# GULP energy per Si atom -12397.073145 kJ/mol
# Density = 1.891025 g / cm^3
# Si number density = 18.953393 Si / 1000 Ang^3
#
#
#
# Elastic Constant Matrix: (Units=GPa)
#
#
# Indices 1 2 3 4 5 6 
#
# 1 56.7161 25.5013 38.9220 0.0000 8.2019 0.0000
# 2 25.5013 91.3094 53.7152 0.0000 1.6302 0.0000
# 3 38.9220 53.7152 97.9941 0.0000 2.4550 0.0000
# 4 0.0000 0.0000 0.0000 22.7645 0.0000 -9.4306
# 5 8.2019 1.6302 2.4550 0.0000 40.0024 0.0000
# 6 0.0000 0.0000 0.0000 -9.4306 0.0000 12.9474
#
#
#
# Elastic Compliance Matrix: (Units=1/GPa)
#
#
# Indices 1 2 3 4 5 6 
#
# 1 0.025204 -0.001676 -0.008978 0.000000 -0.004549 0.000000
# 2 -0.001676 0.016276 -0.008261 0.000000 0.000187 0.000000
# 3 -0.008978 -0.008261 0.018272 0.000000 0.001056 0.000000
# 4 0.000000 0.000000 0.000000 0.062911 0.000000 0.045823
# 5 -0.004549 0.000187 0.001056 0.000000 0.025859 0.000000
# 6 0.000000 0.000000 0.000000 0.045823 0.000000 0.110612
#
#
# Mechanical properties :
#
#
# Convention : Reuss Voigt Hill
#
# Bulk Modulus (GPa) = 45.61466 53.58852 49.60159
# Shear Modulus (GPa) = 16.43263 23.66826 20.05044
#
# Velocity S-wave (km/s) = 2.94768 3.53762 3.25604
# Velocity P-wave (km/s) = 5.97529 6.70981 6.35317
#
# Compressibility (1/GPa) = 0.02192278
#
# Stress axis : x y z
#
# Youngs Moduli (GPa) = 39.67550 61.43965 54.72808
#
# Poissons Ratio (x) = 0.10300 0.49135
# Poissons Ratio (y) = 0.06652 0.45208
# Poissons Ratio (z) = 0.35621 0.50752
#
# Static dielectric constant tensor:
#      x y z
#    x 3.445360 0.000000 -0.067970 
#    y 0.000000 3.064320 0.000000 
#    z -0.067970 0.000000 4.229850 
# 
# 
# High freq. dielectric constant tensor:
#      x y z
#    x 1.739120 0.000000 -0.002410 
#    y 0.000000 1.680920 0.000000 
#    z -0.002410 0.000000 1.763460 
# 
# From -- ./inp_files/48907.got.cif
#   From: 2010.06.25/outbox.cif.g09.slc.cpg/sg12_25_cif.got.tgz:48907.got - 2010.06.28 00:19:55.
