data_PCOD8091438
_publ_section_title
;
Structure prediction by ZEFSAII (Michael W. Deem and Ramdas Pophale) SiO2 
 PCOD8091438
Probable space group: C 2/M
;
_chemical_formula_sum "Si O2"
_cell_formula_units_Z 56
_cell_length_a 29.104165
_cell_length_b 9.092734
_cell_length_c 19.921089
_cell_angle_alpha 90.000000
_cell_angle_beta 33.239954
_cell_angle_gamma 90.000000
_cell_volume 2889.744347
_symmetry_space_group_name_H-M "C 2/M"
_symmetry_group_IT_number 12
_symmetry_cell_setting 'monoclinic'
loop_
_space_group_symop_operation_xyz
x,y,z
-x,y,-z
-x,-y,-z
x,-y,z
1/2+x,1/2+y,z
1/2-x,1/2+y,-z
1/2-x,1/2-y,-z
1/2+x,1/2-y,z
loop_
_atom_site_type_symbol
_atom_site_label
_atom_site_fract_x
_atom_site_fract_y
_atom_site_fract_z
Si Si1 0.370142 0.327230 0.441576
Si Si2 0.242719 0.669880 0.796179
Si Si3 0.714662 0.327346 0.694420
Si Si4 0.420004 0.328984 0.641486
Si Si5 0.531771 0.174216 0.287458
Si Si6 0.065729 0.168889 0.782319
Si Si7 0.410742 0.830248 0.927358
O O1 0.371993 0.500000 0.455127
O O2 0.281091 0.262089 0.569800
O O3 0.440635 0.249435 0.400799
O O4 0.384189 0.290313 0.346547
O O5 0.234711 0.500000 0.783482
O O6 0.214388 0.775027 0.771067
O O7 0.337479 0.708012 0.699846
O O8 0.182772 0.703909 0.932798
O O9 0.735054 0.500000 0.664980
O O10 0.623344 0.291820 0.775435
O O11 0.500000 0.281567 0.500000
O O12 0.423852 0.500000 0.656555
O O13 0.415288 0.233496 0.714680
O O14 0.580559 0.224050 0.160195
O O15 0.521445 0.000000 0.305314
O O16 0.978518 0.255129 0.893328
O O17 0.040455 0.000000 0.812737
O O18 0.432388 0.000000 0.904324
#
# Coordination Sequence:
#
# PCOD8091438 Si02
#       7
#     8   8   8   8   8   8   8
#     4  10  19  34  56  81 110 145 182 218 268 331
#     4  10  22  39  56  77 109 147 186 225 267 323
#     4  11  22  35  53  81 113 143 180 228 277 317
#     4  10  21  37  57  81 109 142 180 221 270 329
#     4  10  20  35  57  83 110 140 178 227 276 318
#     4   9  20  36  55  80 110 144 181 224 272 324
#     4   9  20  38  57  79 108 143 184 227 269 318
#
# _framework density 19.378876999999999
#
# number of rings (size 3 to 8) (size 9 to 14) (size 15 to 20)
#    0.000    2.143    0.000    2.571    0.000    6.000 
#    0.000    2.857    0.000    0.000    0.000    0.000 
#    0.000    0.000    0.000    0.000    0.000    0.000 
#
# Total GULP energy -347306.831847 kJ/mol
# GULP energy per Si atom -12403.815423 kJ/mol
# Density = 1.933477 g / cm^3
# Si number density = 19.378877 Si / 1000 Ang^3
#
#
#
# Elastic Constant Matrix: (Units=GPa)
#
#
# Indices 1 2 3 4 5 6 
#
# 1 118.9052 46.9659 45.1982 -0.0066 2.0564 0.0051
# 2 46.9659 70.9673 35.6801 -0.0046 0.2362 0.0047
# 3 45.1982 35.6801 110.6805 -0.0139 -8.0820 0.0060
# 4 -0.0066 -0.0046 -0.0139 26.7353 0.0068 -0.1400
# 5 2.0564 0.2362 -8.0820 0.0068 16.5531 -0.0064
# 6 0.0051 0.0047 0.0060 -0.1400 -0.0064 36.4224
#
#
#
# Elastic Compliance Matrix: (Units=1/GPa)
#
#
# Indices 1 2 3 4 5 6 
#
# 1 0.012213 -0.006513 -0.003102 0.000001 -0.002939 -0.000001
# 2 -0.006513 0.020434 -0.004034 0.000000 -0.001452 -0.000001
# 3 -0.003102 -0.004034 0.012065 0.000003 0.006334 0.000000
# 4 0.000001 0.000000 0.000003 0.037405 -0.000014 0.000144
# 5 -0.002939 -0.001452 0.006334 -0.000014 0.063890 0.000011
# 6 -0.000001 -0.000001 0.000000 0.000144 0.000011 0.027456
#
#
# Mechanical properties :
#
#
# Convention : Reuss Voigt Hill
#
# Bulk Modulus (GPa) = 57.42594 61.80459 59.61526
# Shear Modulus (GPa) = 24.20558 27.45608 25.83083
#
# Velocity S-wave (km/s) = 3.53805 3.76813 3.65490
# Velocity P-wave (km/s) = 6.81088 7.13398 6.97430
#
# Compressibility (1/GPa) = 0.01741373
#
# Stress axis : x y z
#
# Youngs Moduli (GPa) = 81.88282 48.93810 82.88626
#
# Poissons Ratio (x) = 0.31872 0.25714
# Poissons Ratio (y) = 0.53328 0.33434
# Poissons Ratio (z) = 0.25402 0.19740
#
# Static dielectric constant tensor:
#      x y z
#    x 3.586320 -0.000010 0.006740 
#    y -0.000010 3.536760 0.000020 
#    z 0.006740 0.000020 3.543380 
# 
# 
# High freq. dielectric constant tensor:
#      x y z
#    x 1.756080 0.000000 -0.000190 
#    y 0.000000 1.754750 0.000000 
#    z -0.000190 0.000000 1.753390 
# 
# From -- ./inp_files/238361.got.cif
#   From: 2010.06.25/outbox.cif.g09.slc.cpg/sg12_120_cif.got.tgz:238361.got - 2010.06.28 00:19:55.
