data_PCOD8091404
_publ_section_title
;
Structure prediction by ZEFSAII (Michael W. Deem and Ramdas Pophale) SiO2 
 PCOD8091404
Probable space group: C 2/M
;
_chemical_formula_sum "Si O2"
_cell_formula_units_Z 44
_cell_length_a 25.817021
_cell_length_b 13.865232
_cell_length_c 6.182677
_cell_angle_alpha 90.000000
_cell_angle_beta 84.378129
_cell_angle_gamma 90.000000
_cell_volume 2202.499734
_symmetry_space_group_name_H-M "C 2/M"
_symmetry_group_IT_number 12
_symmetry_cell_setting 'monoclinic'
loop_
_space_group_symop_operation_xyz
x,y,z
-x,y,-z
-x,-y,-z
x,-y,z
1/2+x,1/2+y,z
1/2-x,1/2+y,-z
1/2-x,1/2-y,-z
1/2+x,1/2-y,z
loop_
_atom_site_type_symbol
_atom_site_label
_atom_site_fract_x
_atom_site_fract_y
_atom_site_fract_z
Si Si1 0.410743 0.256604 0.739352
Si Si2 0.853369 0.891546 0.479680
Si Si3 0.257219 0.389621 0.822202
Si Si4 0.000000 0.293998 0.000000
Si Si5 0.553348 0.894572 0.603085
Si Si6 0.823541 0.233514 0.106380
O O1 0.396991 0.359338 0.636333
O O2 0.465926 0.268476 0.842878
O O3 0.410596 0.177115 0.548828
O O4 0.364156 0.225693 0.915965
O O5 0.795882 0.885116 0.603705
O O6 0.856569 0.820609 0.275528
O O7 0.866762 0.000000 0.402101
O O8 0.241374 0.500000 0.879129
O O9 0.206427 0.326357 0.784393
O O10 0.283441 0.344264 0.024743
O O11 0.958253 0.357867 0.148970
O O12 0.500000 0.905350 0.500000
O O13 0.580361 0.000000 0.609369
#
# Coordination Sequence:
#
# PCOD8091404 Si02
#       6
#     8   8   8   4   8   8
#     4  10  21  35  54  82 110 142 184 229 271 322
#     4  10  20  36  56  78 108 147 188 228 273 326
#     4   9  19  34  54  81 110 143 183 224 271 328
#     4  10  19  36  59  78 110 148 181 222 271 320
#     4   9  18  33  54  79 106 139 177 216 265 324
#     4  10  19  34  56  80 111 146 182 225 276 326
#
# _framework density 19.9773
#
# number of rings (size 3 to 8) (size 9 to 14) (size 15 to 20)
#    0.000    2.364    0.000    2.455    0.000    2.182 
#    0.000    3.182    0.000   10.364    0.000    0.000 
#    0.000    0.000    0.000    0.000    0.000    0.000 
#
# Total GULP energy -272757.793169 kJ/mol
# GULP energy per Si atom -12398.081508 kJ/mol
# Density = 1.993183 g / cm^3
# Si number density = 19.977300 Si / 1000 Ang^3
#
#
#
# Elastic Constant Matrix: (Units=GPa)
#
#
# Indices 1 2 3 4 5 6 
#
# 1 69.0349 54.9760 32.7920 0.0000 2.8451 0.0000
# 2 54.9760 141.8416 57.0374 0.0000 -9.6328 0.0000
# 3 32.7920 57.0374 108.9015 0.0000 -7.4402 0.0000
# 4 0.0000 0.0000 0.0000 22.4424 0.0000 -5.7122
# 5 2.8451 -9.6328 -7.4402 0.0000 29.9578 0.0000
# 6 0.0000 0.0000 0.0000 -5.7122 0.0000 21.0834
#
#
#
# Elastic Compliance Matrix: (Units=1/GPa)
#
#
# Indices 1 2 3 4 5 6 
#
# 1 0.022368 -0.007827 -0.003004 0.000000 -0.005387 0.000000
# 2 -0.007827 0.011760 -0.003554 0.000000 0.003642 0.000000
# 3 -0.003004 -0.003554 0.012095 0.000000 0.002146 0.000000
# 4 0.000000 0.000000 0.000000 0.047859 0.000000 0.012967
# 5 -0.005387 0.003642 0.002146 0.000000 0.035596 0.000000
# 6 0.000000 0.000000 0.000000 0.012967 0.000000 0.050944
#
#
# Mechanical properties :
#
#
# Convention : Reuss Voigt Hill
#
# Bulk Modulus (GPa) = 57.29570 67.70986 62.50278
# Shear Modulus (GPa) = 23.23323 26.36155 24.79739
#
# Velocity S-wave (km/s) = 3.41395 3.63654 3.52700
# Velocity P-wave (km/s) = 6.65453 7.18328 6.92395
#
# Compressibility (1/GPa) = 0.01745332
#
# Stress axis : x y z
#
# Youngs Moduli (GPa) = 44.70763 85.03207 82.67918
#
# Poissons Ratio (x) = 0.66558 0.24834
# Poissons Ratio (y) = 0.34994 0.29381
# Poissons Ratio (z) = 0.13429 0.30218
#
# Static dielectric constant tensor:
#      x y z
#    x 3.436920 0.000000 -0.001070 
#    y 0.000000 3.736770 0.000000 
#    z -0.001070 0.000000 3.722290 
# 
# 
# High freq. dielectric constant tensor:
#      x y z
#    x 1.760570 0.000000 0.000440 
#    y 0.000000 1.769630 0.000000 
#    z 0.000440 0.000000 1.787170 
# 
# From -- ./inp_files/24298.got.cif
#   From: 2010.06.25/outbox.cif.g09.slc.cpg/sg12_13_cif.got.tgz:24298.got - 2010.06.28 00:19:55.
