data_PCOD8091135
_publ_section_title
;
Structure prediction by ZEFSAII (Michael W. Deem and Ramdas Pophale) SiO2 
 PCOD8091135
Probable space group: C 2/M
;
_chemical_formula_sum "Si O2"
_cell_formula_units_Z 56
_cell_length_a 14.187693
_cell_length_b 27.288202
_cell_length_c 8.556802
_cell_angle_alpha 90.000000
_cell_angle_beta 60.484178
_cell_angle_gamma 90.000000
_cell_volume 2882.883471
_symmetry_space_group_name_H-M "C 2/M"
_symmetry_group_IT_number 12
_symmetry_cell_setting 'monoclinic'
loop_
_space_group_symop_operation_xyz
x,y,z
-x,y,-z
-x,-y,-z
x,-y,z
1/2+x,1/2+y,z
1/2-x,1/2+y,-z
1/2-x,1/2-y,-z
1/2+x,1/2-y,z
loop_
_atom_site_type_symbol
_atom_site_label
_atom_site_fract_x
_atom_site_fract_y
_atom_site_fract_z
Si Si1 0.894585 0.631205 0.983878
Si Si2 0.979226 0.093815 0.837469
Si Si3 0.547029 0.689230 0.632040
Si Si4 0.277784 0.852701 0.381556
Si Si5 0.982279 0.298811 0.331510
Si Si6 0.703617 0.444300 0.606811
Si Si7 0.251638 0.556896 0.068263
O O1 0.851225 0.585856 0.916885
O O2 0.921117 0.675961 0.845110
O O3 0.800041 0.649731 0.177631
O O4 0.000000 0.615441 0.000000
O O5 0.984222 0.151362 0.794547
O O6 0.076156 0.064522 0.672453
O O7 0.861792 0.072456 0.887160
O O8 0.000000 0.084638 0.000000
O O9 0.500000 0.683900 0.500000
O O10 0.673448 0.677432 0.518645
O O11 0.529277 0.742997 0.719073
O O12 0.373783 0.828465 0.397171
O O13 0.272094 0.909621 0.436755
O O14 0.000000 0.299169 0.500000
O O15 0.734109 0.500000 0.542285
O O16 0.734472 0.431071 0.759976
O O17 0.229336 0.500000 0.057881
#
# Coordination Sequence:
#
# PCOD8091135 Si02
#       7
#     8   8   8   8   8   8   8
#     4  10  22  37  54  77 107 138 176 220 259 304
#     4   9  18  32  53  82 111 137 171 214 259 314
#     4  10  20  35  55  80 108 138 172 213 265 317
#     4  10  20  36  56  78 108 139 173 217 262 311
#     4  10  21  38  56  76 104 140 180 218 257 305
#     4   9  18  33  55  81 107 138 174 214 262 314
#     4  10  19  34  55  78 107 142 177 214 259 309
#
# _framework density 19.424997000000001
#
# number of rings (size 3 to 8) (size 9 to 14) (size 15 to 20)
#    0.000    2.286    0.000    2.571    0.000    4.286 
#    0.000   10.000    0.000   12.429    0.000    0.000 
#    0.000    0.000    0.000    0.000    0.000    0.000 
#
# Total GULP energy -347176.064437 kJ/mol
# GULP energy per Si atom -12399.145158 kJ/mol
# Density = 1.938079 g / cm^3
# Si number density = 19.424997 Si / 1000 Ang^3
#
#
#
# Elastic Constant Matrix: (Units=GPa)
#
#
# Indices 1 2 3 4 5 6 
#
# 1 57.4857 43.5513 16.0279 0.0000 -2.1374 0.0000
# 2 43.5513 141.8046 48.5192 0.0000 -4.9678 0.0000
# 3 16.0279 48.5192 75.1797 0.0000 -3.5605 0.0000
# 4 0.0000 0.0000 0.0000 30.9772 0.0000 5.1938
# 5 -2.1374 -4.9678 -3.5605 0.0000 13.9886 0.0000
# 6 0.0000 0.0000 0.0000 5.1938 0.0000 30.1421
#
#
#
# Elastic Compliance Matrix: (Units=1/GPa)
#
#
# Indices 1 2 3 4 5 6 
#
# 1 0.022694 -0.006798 -0.000406 0.000000 0.000950 0.000000
# 2 -0.006798 0.011129 -0.005663 0.000000 0.001472 0.000000
# 3 -0.000406 -0.005663 0.017152 0.000000 0.002292 0.000000
# 4 0.000000 0.000000 0.000000 0.033242 0.000000 -0.005728
# 5 0.000950 0.001472 0.002292 0.000000 0.072738 0.000000
# 6 0.000000 0.000000 0.000000 -0.005728 0.000000 0.034163
#
#
# Mechanical properties :
#
#
# Convention : Reuss Voigt Hill
#
# Bulk Modulus (GPa) = 39.61932 54.51854 47.06893
# Shear Modulus (GPa) = 22.19593 26.11301 24.15447
#
# Velocity S-wave (km/s) = 3.38397 3.67045 3.53012
# Velocity P-wave (km/s) = 5.97568 6.78896 6.39526
#
# Compressibility (1/GPa) = 0.02524021
#
# Stress axis : x y z
#
# Youngs Moduli (GPa) = 44.06430 89.85526 58.30319
#
# Poissons Ratio (x) = 0.61080 0.02369
# Poissons Ratio (y) = 0.29953 0.33020
# Poissons Ratio (z) = 0.01790 0.50889
#
# Static dielectric constant tensor:
#      x y z
#    x 3.801650 0.000000 -0.222350 
#    y 0.000000 3.673890 0.000000 
#    z -0.222350 0.000000 3.653050 
# 
# 
# High freq. dielectric constant tensor:
#      x y z
#    x 1.756440 0.000000 -0.001800 
#    y 0.000000 1.759610 0.000000 
#    z -0.001800 0.000000 1.751570 
# 
# From -- ./inp_files/65761.got.cif
#   From: 2010.06.25/outbox.cif.g09.slc.cpg/sg12_33_cif.got.tgz:65761.got - 2010.06.28 00:19:55.
