data_PCOD8091457
_publ_section_title
;
Structure prediction by ZEFSAII (Michael W. Deem and Ramdas Pophale) SiO2 
 PCOD8091457
Probable space group: C 2/M
;
_chemical_formula_sum "Si O2"
_cell_formula_units_Z 48
_cell_length_a 29.695372
_cell_length_b 9.195790
_cell_length_c 10.006225
_cell_angle_alpha 90.000000
_cell_angle_beta 99.664905
_cell_angle_gamma 90.000000
_cell_volume 2693.641232
_symmetry_space_group_name_H-M "C 2/M"
_symmetry_group_IT_number 12
_symmetry_cell_setting 'monoclinic'
loop_
_space_group_symop_operation_xyz
x,y,z
-x,y,-z
-x,-y,-z
x,-y,z
1/2+x,1/2+y,z
1/2-x,1/2+y,-z
1/2-x,1/2-y,-z
1/2+x,1/2-y,z
loop_
_atom_site_type_symbol
_atom_site_label
_atom_site_fract_x
_atom_site_fract_y
_atom_site_fract_z
Si Si1 0.131132 0.667812 0.664450
Si Si2 0.958744 0.168615 0.076986
Si Si3 0.632204 0.831274 0.976733
Si Si4 0.219705 0.830234 0.093417
Si Si5 0.960104 0.169869 0.384256
Si Si6 0.727216 0.167698 0.608918
O O1 0.121161 0.500000 0.629809
O O2 0.141645 0.691738 0.825289
O O3 0.087214 0.756945 0.595021
O O4 0.175550 0.724677 0.607139
O O5 0.916928 0.267561 0.008354
O O6 0.972557 0.206117 0.236636
O O7 0.944714 0.000000 0.057763
O O8 0.000000 0.208226 0.000000
O O9 0.634397 0.000000 0.018657
O O10 0.669855 0.741522 0.076758
O O11 0.242491 0.805448 0.246704
O O12 0.216083 0.000000 0.054334
O O13 0.250000 0.750000 0.000000
O O14 0.000000 0.231030 0.500000
O O15 0.953634 0.000000 0.404144
O O16 0.750000 0.250000 0.500000
O O17 0.725274 0.000000 0.570063
#
# Coordination Sequence:
#
# PCOD8091457 Si02
#       6
#     8   8   8   8   8   8
#     4   9  18  35  55  76 106 139 175 219 264 313
#     4   9  18  34  54  76 106 140 173 217 271 319
#     4  10  19  34  56  82 109 139 181 225 265 317
#     4  11  21  36  58  83 110 141 182 226 269 322
#     4   9  18  33  53  77 101 132 177 218 257 313
#     4  10  22  39  55  78 112 145 179 222 271 320
#
# _framework density 17.819744
#
# number of rings (size 3 to 8) (size 9 to 14) (size 15 to 20)
#    0.000    2.333    1.667    1.000    0.000    3.333 
#    3.000    0.000    0.000    0.000    0.000    0.000 
#    0.000    0.000    0.000    0.000    0.000    0.000 
#
# Total GULP energy -297642.108001 kJ/mol
# GULP energy per Si atom -12401.754500 kJ/mol
# Density = 1.777919 g / cm^3
# Si number density = 17.819744 Si / 1000 Ang^3
#
#
#
# Elastic Constant Matrix: (Units=GPa)
#
#
# Indices 1 2 3 4 5 6 
#
# 1 173.9697 77.1751 78.8455 0.0000 4.4661 0.0000
# 2 77.1751 91.7602 56.0403 0.0000 7.9781 0.0000
# 3 78.8455 56.0403 70.1381 0.0000 9.1322 0.0000
# 4 0.0000 0.0000 0.0000 25.4629 0.0000 2.4820
# 5 4.4661 7.9781 9.1322 0.0000 34.8145 0.0000
# 6 0.0000 0.0000 0.0000 2.4820 0.0000 38.2819
#
#
#
# Elastic Compliance Matrix: (Units=1/GPa)
#
#
# Indices 1 2 3 4 5 6 
#
# 1 0.012502 -0.003805 -0.011305 0.000000 0.002234 0.000000
# 2 -0.003805 0.022448 -0.013514 0.000000 -0.001111 0.000000
# 3 -0.011305 -0.013514 0.038486 0.000000 -0.005548 0.000000
# 4 0.000000 0.000000 0.000000 0.039523 0.000000 -0.002562
# 5 0.002234 -0.001111 -0.005548 0.000000 0.030147 0.000000
# 6 0.000000 0.000000 0.000000 -0.002562 0.000000 0.026288
#
#
# Mechanical properties :
#
#
# Convention : Reuss Voigt Hill
#
# Bulk Modulus (GPa) = 61.77199 84.44328 73.10763
# Shear Modulus (GPa) = 21.54811 27.96565 24.75688
#
# Velocity S-wave (km/s) = 3.48117 3.96582 3.73137
# Velocity P-wave (km/s) = 7.13430 8.27409 7.72524
#
# Compressibility (1/GPa) = 0.01618857
#
# Stress axis : x y z
#
# Youngs Moduli (GPa) = 79.98482 44.54713 25.98336
#
# Poissons Ratio (x) = 0.16950 0.29374
# Poissons Ratio (y) = 0.30435 0.35114
# Poissons Ratio (z) = 0.90424 0.60201
#
# Static dielectric constant tensor:
#      x y z
#    x 3.410770 0.000000 0.113150 
#    y 0.000000 3.354890 0.000000 
#    z 0.113150 0.000000 3.128300 
# 
# 
# High freq. dielectric constant tensor:
#      x y z
#    x 1.698660 0.000000 0.009140 
#    y 0.000000 1.691410 0.000000 
#    z 0.009140 0.000000 1.675220 
# 
# From -- ./inp_files/185960.got.cif
#   From: 2010.06.25/outbox.cif.g09.slc.cpg/sg12_93_cif.got.tgz:185960.got - 2010.06.28 00:19:55.
