data_PCOD8091742
_publ_section_title
;
Structure prediction by ZEFSAII (Michael W. Deem and Ramdas Pophale) SiO2 
 PCOD8091742
Probable space group: C 2/M
;
_chemical_formula_sum "Si O2"
_cell_formula_units_Z 64
_cell_length_a 28.259399
_cell_length_b 8.846400
_cell_length_c 23.857250
_cell_angle_alpha 90.000000
_cell_angle_beta 147.019333
_cell_angle_gamma 90.000000
_cell_volume 3246.630786
_symmetry_space_group_name_H-M "C 2/M"
_symmetry_group_IT_number 12
_symmetry_cell_setting 'monoclinic'
loop_
_space_group_symop_operation_xyz
x,y,z
-x,y,-z
-x,-y,-z
x,-y,z
1/2+x,1/2+y,z
1/2-x,1/2+y,-z
1/2-x,1/2-y,-z
1/2+x,1/2-y,z
loop_
_atom_site_type_symbol
_atom_site_label
_atom_site_fract_x
_atom_site_fract_y
_atom_site_fract_z
Si Si1 0.333079 0.679190 0.447679
Si Si2 0.898369 0.325263 0.897641
Si Si3 0.994829 0.179051 0.181816
Si Si4 0.899331 0.322839 0.401678
Si Si5 0.492553 0.320632 0.680275
Si Si6 0.844693 0.326695 0.966877
Si Si7 0.649702 0.324884 0.760133
Si Si8 0.655429 0.321654 0.267598
O O1 0.327922 0.500000 0.442994
O O2 0.352253 0.733459 0.404160
O O3 0.407730 0.740051 0.563613
O O4 0.242132 0.746754 0.378992
O O5 0.877337 0.500000 0.863716
O O6 0.858469 0.272492 0.916830
O O7 0.854163 0.223374 0.806611
O O8 0.000000 0.293243 0.000000
O O9 0.073074 0.240819 0.220826
O O10 0.006747 0.245733 0.256173
O O11 0.996274 0.000000 0.184304
O O12 0.901998 0.229565 0.066074
O O13 0.886978 0.500000 0.399647
O O14 0.854275 0.275223 0.299327
O O15 0.000000 0.275934 0.500000
O O16 0.491598 0.500000 0.681357
O O17 0.578508 0.264348 0.733320
O O18 0.874479 0.500000 0.001973
O O19 0.743794 0.304361 0.882362
O O20 0.633223 0.500000 0.727656
O O21 0.663850 0.500000 0.281285
#
# Coordination Sequence:
#
# PCOD8091742 Si02
#       8
#     8   8   8   8   8   8   8   8
#     4  11  22  38  62  85 112 154 198 235 280 342
#     4  10  19  34  57  83 115 150 187 232 283 347
#     4  10  22  40  59  80 113 154 192 237 292 346
#     4  11  22  36  58  90 125 151 181 233 292 343
#     4   9  20  39  60  82 110 151 200 238 278 340
#     4  10  21  36  57  86 114 144 188 239 285 336
#     4  10  20  37  61  86 115 154 196 234 276 339
#     4  11  23  37  57  86 118 149 188 240 299 349
#
# _framework density 19.712743
#
# number of rings (size 3 to 8) (size 9 to 14) (size 15 to 20)
#    0.000    1.750    2.500    1.875    0.000    4.250 
#    0.000    1.875    0.000    0.000    0.000    0.000 
#    0.000    0.000    0.000    0.000    0.000    0.000 
#
# Total GULP energy -396946.397093 kJ/mol
# GULP energy per Si atom -12404.574909 kJ/mol
# Density = 1.966788 g / cm^3
# Si number density = 19.712743 Si / 1000 Ang^3
#
#
#
# Elastic Constant Matrix: (Units=GPa)
#
#
# Indices 1 2 3 4 5 6 
#
# 1 92.1383 24.6231 78.0858 0.0000 -10.8205 0.0000
# 2 24.6231 46.7313 32.0006 0.0000 3.4612 0.0000
# 3 78.0858 32.0006 137.5559 0.0000 5.7336 0.0000
# 4 0.0000 0.0000 0.0000 31.8857 0.0000 5.3344
# 5 -10.8205 3.4612 5.7336 0.0000 33.1425 0.0000
# 6 0.0000 0.0000 0.0000 5.3344 0.0000 5.2468
#
#
#
# Elastic Compliance Matrix: (Units=1/GPa)
#
#
# Indices 1 2 3 4 5 6 
#
# 1 0.024750 -0.004658 -0.013420 0.000000 0.010888 0.000000
# 2 -0.004658 0.026420 -0.003348 0.000000 -0.003701 0.000000
# 3 -0.013420 -0.003348 0.015950 0.000000 -0.006791 0.000000
# 4 0.000000 0.000000 0.000000 0.037790 0.000000 -0.038420
# 5 0.010888 -0.003701 -0.006791 0.000000 0.035289 0.000000
# 6 0.000000 0.000000 0.000000 -0.038420 0.000000 0.229652
#
#
# Mechanical properties :
#
#
# Convention : Reuss Voigt Hill
#
# Bulk Modulus (GPa) = 41.20616 60.64939 50.92777
# Shear Modulus (GPa) = 11.88240 23.50277 17.69258
#
# Velocity S-wave (km/s) = 2.45782 3.45666 2.99911
# Velocity P-wave (km/s) = 5.38546 6.83847 6.15499
#
# Compressibility (1/GPa) = 0.02426822
#
# Stress axis : x y z
#
# Youngs Moduli (GPa) = 40.40422 37.85040 62.69688
#
# Poissons Ratio (x) = 0.17629 0.84139
# Poissons Ratio (y) = 0.18819 0.20991
# Poissons Ratio (z) = 0.54222 0.12672
#
# Static dielectric constant tensor:
#      x y z
#    x 3.772940 0.000000 0.114970 
#    y 0.000000 3.346500 0.000000 
#    z 0.114970 0.000000 3.696010 
# 
# 
# High freq. dielectric constant tensor:
#      x y z
#    x 1.771110 0.000000 0.011300 
#    y 0.000000 1.748760 0.000000 
#    z 0.011300 0.000000 1.778170 
# 
# From -- ./inp_files/353438.got.cif
#   From: 2010.06.25/outbox.cif.g09.slc.cpg/sg12_177_cif.got.tgz:353438.got - 2010.06.28 00:19:55.
