data_PCOD8091527
_publ_section_title
;
Structure prediction by ZEFSAII (Michael W. Deem and Ramdas Pophale) SiO2 
 PCOD8091527
Probable space group: C 2/M
;
_chemical_formula_sum "Si O2"
_cell_formula_units_Z 64
_cell_length_a 8.790403
_cell_length_b 28.789102
_cell_length_c 15.405818
_cell_angle_alpha 90.000000
_cell_angle_beta 130.660242
_cell_angle_gamma 90.000000
_cell_volume 2957.514365
_symmetry_space_group_name_H-M "C 2/M"
_symmetry_group_IT_number 12
_symmetry_cell_setting 'monoclinic'
loop_
_space_group_symop_operation_xyz
x,y,z
-x,y,-z
-x,-y,-z
x,-y,z
1/2+x,1/2+y,z
1/2-x,1/2+y,-z
1/2-x,1/2-y,-z
1/2+x,1/2-y,z
loop_
_atom_site_type_symbol
_atom_site_label
_atom_site_fract_x
_atom_site_fract_y
_atom_site_fract_z
Si Si1 0.976413 0.256057 0.231082
Si Si2 0.876827 0.302040 0.369552
Si Si3 0.193355 0.097486 0.744966
Si Si4 0.122807 0.310309 0.129412
Si Si5 0.294682 0.446076 0.557634
Si Si6 0.392371 0.909916 0.345745
Si Si7 0.402565 0.945144 0.169008
Si Si8 0.768810 0.551052 0.940138
O O1 0.157900 0.219992 0.294116
O O2 0.974616 0.290189 0.147575
O O3 0.992142 0.285050 0.326257
O O4 0.767078 0.229407 0.147244
O O5 0.854172 0.357334 0.359627
O O6 0.000000 0.286395 0.500000
O O7 0.245908 0.151645 0.770080
O O8 0.369726 0.068934 0.765744
O O9 0.149499 0.082976 0.828833
O O10 0.993404 0.085326 0.616801
O O11 0.000000 0.330411 0.000000
O O12 0.334785 0.500000 0.548744
O O13 0.221551 0.443436 0.630010
O O14 0.128101 0.423350 0.433258
O O15 0.312944 0.918999 0.219224
O O16 0.397358 0.000000 0.181433
O O17 0.259457 0.929944 0.035464
O O18 0.671804 0.500000 0.899083
O O19 0.000000 0.548570 0.000000
#
# Coordination Sequence:
#
# PCOD8091527 Si02
#       8
#     8   8   8   8   8   8   8   8
#     4  10  24  40  63  92 120 160 201 247 320 370
#     4  11  21  41  63  89 122 157 204 257 302 366
#     4  11  21  35  59  86 114 151 202 245 295 346
#     4  11  22  40  63  90 125 158 200 252 307 370
#     4  11  22  38  57  81 119 161 197 239 294 356
#     4  11  22  38  59  82 118 159 202 238 299 358
#     4  10  19  34  56  84 115 150 194 244 292 348
#     4   8  15  30  52  79 111 145 183 232 290 339
#
# _framework density 21.639792
#
# number of rings (size 3 to 8) (size 9 to 14) (size 15 to 20)
#    0.000    1.625    1.250    6.750    0.000    0.500 
#    0.000    1.875    0.000    5.250    0.000    0.000 
#    0.000    0.000    0.000    0.000    0.000    0.000 
#
# Total GULP energy -396777.358307 kJ/mol
# GULP energy per Si atom -12399.292447 kJ/mol
# Density = 2.159054 g / cm^3
# Si number density = 21.639792 Si / 1000 Ang^3
#
#
#
# Elastic Constant Matrix: (Units=GPa)
#
#
# Indices 1 2 3 4 5 6 
#
# 1 56.8060 12.6751 9.4321 0.0000 -16.8288 0.0000
# 2 12.6751 87.3538 13.2611 0.0000 -0.7448 0.0000
# 3 9.4321 13.2611 48.3542 0.0000 -19.6800 0.0000
# 4 0.0000 0.0000 0.0000 35.0420 0.0000 -1.4397
# 5 -16.8288 -0.7448 -19.6800 0.0000 36.8529 0.0000
# 6 0.0000 0.0000 0.0000 -1.4397 0.0000 28.0451
#
#
#
# Elastic Compliance Matrix: (Units=1/GPa)
#
#
# Indices 1 2 3 4 5 6 
#
# 1 0.021130 -0.003103 0.000806 0.000000 0.010017 0.000000
# 2 -0.003103 0.012509 -0.004215 0.000000 -0.003415 0.000000
# 3 0.000806 -0.004215 0.027847 0.000000 0.015154 0.000000
# 4 0.000000 0.000000 0.000000 0.028598 0.000000 0.001468
# 5 0.010017 -0.003415 0.015154 0.000000 0.039732 0.000000
# 6 0.000000 0.000000 0.000000 0.001468 0.000000 0.035732
#
#
# Mechanical properties :
#
#
# Convention : Reuss Voigt Hill
#
# Bulk Modulus (GPa) = 20.63499 29.25006 24.94253
# Shear Modulus (GPa) = 25.67722 30.46438 28.07080
#
# Velocity S-wave (km/s) = 3.44841 3.75613 3.60555
# Velocity P-wave (km/s) = 5.04100 5.68836 5.37444
#
# Compressibility (1/GPa) = 0.04846136
#
# Stress axis : x y z
#
# Youngs Moduli (GPa) = 47.32673 79.94430 35.91056
#
# Poissons Ratio (x) = 0.24806 -0.02895
# Poissons Ratio (y) = 0.14685 0.15137
# Poissons Ratio (z) = -0.03815 0.33698
#
# Static dielectric constant tensor:
#      x y z
#    x 3.829510 0.000000 -0.258170 
#    y 0.000000 3.793740 0.000000 
#    z -0.258170 0.000000 4.253040 
# 
# 
# High freq. dielectric constant tensor:
#      x y z
#    x 1.842050 0.000000 -0.012880 
#    y 0.000000 1.847490 0.000000 
#    z -0.012880 0.000000 1.850240 
# 
# From -- ./inp_files/201326.got.cif
#   From: 2010.06.25/outbox.cif.g09.slc.cpg/sg12_101_cif.got.tgz:201326.got - 2010.06.28 00:19:55.
