data_PCOD8091599
_publ_section_title
;
Structure prediction by ZEFSAII (Michael W. Deem and Ramdas Pophale) SiO2 
 PCOD8091599
Probable space group: C 2/M
;
_chemical_formula_sum "Si O2"
_cell_formula_units_Z 48
_cell_length_a 14.923839
_cell_length_b 9.470918
_cell_length_c 18.777820
_cell_angle_alpha 90.000000
_cell_angle_beta 89.450382
_cell_angle_gamma 90.000000
_cell_volume 2653.981073
_symmetry_space_group_name_H-M "C 2/M"
_symmetry_group_IT_number 12
_symmetry_cell_setting 'monoclinic'
loop_
_space_group_symop_operation_xyz
x,y,z
-x,y,-z
-x,-y,-z
x,-y,z
1/2+x,1/2+y,z
1/2-x,1/2+y,-z
1/2-x,1/2-y,-z
1/2+x,1/2-y,z
loop_
_atom_site_type_symbol
_atom_site_label
_atom_site_fract_x
_atom_site_fract_y
_atom_site_fract_z
Si Si1 0.157996 0.666119 0.332863
Si Si2 0.898674 0.335931 0.825687
Si Si3 0.071073 0.834835 0.835042
Si Si4 0.358529 0.666930 0.316076
Si Si5 0.983931 0.835148 0.582081
Si Si6 0.737751 0.663064 0.929159
O O1 0.152615 0.500000 0.348900
O O2 0.117992 0.702734 0.256163
O O3 0.259869 0.723750 0.336354
O O4 0.102543 0.748777 0.392747
O O5 0.921125 0.500000 0.834665
O O6 0.811121 0.292664 0.870425
O O7 0.980711 0.246284 0.855746
O O8 0.110123 0.773756 0.760569
O O9 0.140633 0.804468 0.897436
O O10 0.049427 0.000000 0.828108
O O11 0.351723 0.500000 0.309962
O O12 0.428348 0.716031 0.375664
O O13 0.000000 0.800937 0.500000
O O14 0.965574 0.000000 0.595695
O O15 0.747668 0.500000 0.948959
O O16 0.750000 0.750000 0.000000
#
# Coordination Sequence:
#
# PCOD8091599 Si02
#       6
#     8   8   8   8   8   8
#     4  10  19  34  57  80 104 141 184 222 266 321
#     4  10  20  35  56  82 108 137 179 228 271 314
#     4  10  19  35  59  81 104 143 187 218 259 326
#     4   9  17  33  56  78 105 143 179 216 266 319
#     4  10  21  36  54  80 113 144 177 222 273 320
#     4  10  22  39  57  80 112 145 179 220 271 325
#
# _framework density 18.086037999999999
#
# number of rings (size 3 to 8) (size 9 to 14) (size 15 to 20)
#    0.000    2.167    3.333    0.000    0.000    3.000 
#    0.000    5.000    0.000    0.000    0.000    0.000 
#    0.000    0.000    0.000    0.000    0.000    0.000 
#
# Total GULP energy -297663.396799 kJ/mol
# GULP energy per Si atom -12402.641533 kJ/mol
# Density = 1.804487 g / cm^3
# Si number density = 18.086038 Si / 1000 Ang^3
#
#
#
# Elastic Constant Matrix: (Units=GPa)
#
#
# Indices 1 2 3 4 5 6 
#
# 1 105.0595 36.3467 11.3067 0.0000 5.0978 0.0000
# 2 36.3467 38.2938 29.4906 0.0000 -1.3081 0.0000
# 3 11.3067 29.4906 79.0681 0.0000 7.2313 0.0000
# 4 0.0000 0.0000 0.0000 27.4555 0.0000 -4.7489
# 5 5.0978 -1.3081 7.2313 0.0000 26.0249 0.0000
# 6 0.0000 0.0000 0.0000 -4.7489 0.0000 31.9240
#
#
#
# Elastic Compliance Matrix: (Units=1/GPa)
#
#
# Indices 1 2 3 4 5 6 
#
# 1 0.015997 -0.019663 0.005565 0.000000 -0.005668 0.000000
# 2 -0.019663 0.061675 -0.021370 0.000000 0.012890 0.000000
# 3 0.005565 -0.021370 0.020542 0.000000 -0.007872 0.000000
# 4 0.000000 0.000000 0.000000 0.037384 0.000000 0.005561
# 5 -0.005668 0.012890 -0.007872 0.000000 0.042370 0.000000
# 6 0.000000 0.000000 0.000000 0.005561 0.000000 0.032152
#
#
# Mechanical properties :
#
#
# Convention : Reuss Voigt Hill
#
# Bulk Modulus (GPa) = 36.66087 41.85660 39.25873
# Shear Modulus (GPa) = 17.23246 26.76604 21.99925
#
# Velocity S-wave (km/s) = 3.09010 3.85116 3.49143
# Velocity P-wave (km/s) = 5.74856 6.55504 6.16500
#
# Compressibility (1/GPa) = 0.02727704
#
# Stress axis : x y z
#
# Youngs Moduli (GPa) = 62.51103 16.21408 48.68025
#
# Poissons Ratio (x) = 0.31881 -0.27088
# Poissons Ratio (y) = 1.22914 1.04032
# Poissons Ratio (z) = -0.34785 0.34650
#
# Static dielectric constant tensor:
#      x y z
#    x 3.499770 0.000000 0.026030 
#    y 0.000000 3.083530 0.000000 
#    z 0.026030 0.000000 3.340100 
# 
# 
# High freq. dielectric constant tensor:
#      x y z
#    x 1.714820 0.000000 0.001510 
#    y 0.000000 1.675830 0.000000 
#    z 0.001510 0.000000 1.700330 
# 
# From -- ./inp_files/212625.got.cif
#   From: 2010.06.25/outbox.cif.g09.slc.cpg/sg12_107_cif.got.tgz:212625.got - 2010.06.28 00:19:55.
