data_PCOD8091573
_publ_section_title
;
Structure prediction by ZEFSAII (Michael W. Deem and Ramdas Pophale) SiO2 
 PCOD8091573
Probable space group: C 2/M
;
_chemical_formula_sum "Si O2"
_cell_formula_units_Z 56
_cell_length_a 20.024113
_cell_length_b 9.482539
_cell_length_c 19.300606
_cell_angle_alpha 90.000000
_cell_angle_beta 57.309701
_cell_angle_gamma 90.000000
_cell_volume 3084.293887
_symmetry_space_group_name_H-M "C 2/M"
_symmetry_group_IT_number 12
_symmetry_cell_setting 'monoclinic'
loop_
_space_group_symop_operation_xyz
x,y,z
-x,y,-z
-x,-y,-z
x,-y,z
1/2+x,1/2+y,z
1/2-x,1/2+y,-z
1/2-x,1/2-y,-z
1/2+x,1/2-y,z
loop_
_atom_site_type_symbol
_atom_site_label
_atom_site_fract_x
_atom_site_fract_y
_atom_site_fract_z
Si Si1 0.828467 0.663817 0.441466
Si Si2 0.918020 0.164591 0.010203
Si Si3 0.050977 0.665573 0.138632
Si Si4 0.285805 0.665570 0.195179
Si Si5 0.388671 0.832521 0.747672
Si Si6 0.516138 0.167806 0.567640
Si Si7 0.869308 0.662156 0.261286
O O1 0.809031 0.500000 0.463037
O O2 0.750000 0.750000 0.500000
O O3 0.896582 0.714899 0.456429
O O4 0.860180 0.694492 0.347146
O O5 0.846589 0.206447 0.100696
O O6 0.917626 0.000000 0.991848
O O7 0.905512 0.251968 0.947209
O O8 0.000000 0.209661 0.000000
O O9 0.066383 0.500000 0.120490
O O10 0.088036 0.722719 0.189401
O O11 0.958067 0.701589 0.189206
O O12 0.286955 0.500000 0.209824
O O13 0.199414 0.719251 0.220947
O O14 0.307920 0.742414 0.253816
O O15 0.449659 0.770058 0.656807
O O16 0.394512 0.000000 0.744253
O O17 0.500000 0.228778 0.500000
O O18 0.510557 0.000000 0.570942
O O19 0.850611 0.500000 0.255162
#
# Coordination Sequence:
#
# PCOD8091573 Si02
#       7
#     8   8   8   8   8   8   8
#     4  10  21  36  55  82 111 138 173 219 266 312
#     4  10  20  34  50  77 114 141 170 218 270 316
#     4  10  19  34  57  78 101 139 181 220 262 312
#     4  10  21  35  55  80 106 140 180 220 261 313
#     4   9  18  34  53  77 106 136 178 224 261 304
#     4   9  17  31  53  80 106 134 173 221 263 302
#     4  10  20  35  54  77 109 141 173 218 265 310
#
# _framework density 18.156507000000001
#
# number of rings (size 3 to 8) (size 9 to 14) (size 15 to 20)
#    0.000    2.286    2.857    0.000    2.000    2.000 
#    0.000    0.714    0.000    1.286    0.000    0.000 
#    0.000    0.000    0.000    0.000    0.000    0.000 
#
# Total GULP energy -347262.550661 kJ/mol
# GULP energy per Si atom -12402.233952 kJ/mol
# Density = 1.811518 g / cm^3
# Si number density = 18.156507 Si / 1000 Ang^3
#
#
#
# Elastic Constant Matrix: (Units=GPa)
#
#
# Indices 1 2 3 4 5 6 
#
# 1 153.9133 39.0286 72.9990 0.0000 8.4758 0.0003
# 2 39.0286 33.9710 36.8931 0.0001 4.8243 0.0008
# 3 72.9990 36.8931 111.6311 0.0000 8.0364 -0.0001
# 4 0.0000 0.0001 0.0000 21.8383 0.0000 2.3692
# 5 8.4758 4.8243 8.0364 0.0000 37.6047 0.0000
# 6 0.0003 0.0008 -0.0001 2.3692 0.0000 22.4951
#
#
#
# Elastic Compliance Matrix: (Units=1/GPa)
#
#
# Indices 1 2 3 4 5 6 
#
# 1 0.010428 -0.007087 -0.004442 0.000000 -0.000492 0.000000
# 2 -0.007087 0.051003 -0.012051 0.000000 -0.002370 -0.000002
# 3 -0.004442 -0.012051 0.015907 0.000000 -0.000852 0.000001
# 4 0.000000 0.000000 0.000000 0.046320 0.000000 -0.004878
# 5 -0.000492 -0.002370 -0.000852 0.000000 0.027190 0.000000
# 6 0.000000 -0.000002 0.000001 -0.004878 0.000000 0.044968
#
#
# Mechanical properties :
#
#
# Convention : Reuss Voigt Hill
#
# Bulk Modulus (GPa) = 33.13606 66.37297 49.75451
# Shear Modulus (GPa) = 19.76019 26.42727 23.09373
#
# Velocity S-wave (km/s) = 3.30256 3.81928 3.57028
# Velocity P-wave (km/s) = 5.72995 7.48896 6.66772
#
# Compressibility (1/GPa) = 0.03017861
#
# Stress axis : x y z
#
# Youngs Moduli (GPa) = 95.89673 19.60666 62.86674
#
# Poissons Ratio (x) = 0.13895 0.27923
# Poissons Ratio (y) = 0.67961 0.75761
# Poissons Ratio (z) = 0.42593 0.23628
#
# Static dielectric constant tensor:
#      x y z
#    x 3.529170 0.000000 -0.037020 
#    y 0.000000 3.004230 0.000000 
#    z -0.037020 0.000000 3.532380 
# 
# 
# High freq. dielectric constant tensor:
#      x y z
#    x 1.712810 0.000000 0.002990 
#    y 0.000000 1.663350 0.000000 
#    z 0.002990 0.000000 1.715270 
# 
# From -- ./inp_files/275663.got.cif
#   From: 2010.06.25/outbox.cif.g09.slc.cpg/sg12_138_cif.got.tgz:275663.got - 2010.06.28 00:19:55.
