data_PCOD8091040
_publ_section_title
;
Structure prediction by ZEFSAII (Michael W. Deem and Ramdas Pophale) SiO2 
 PCOD8091040
Probable space group: C 2/M
;
_chemical_formula_sum "Si O2"
_cell_formula_units_Z 52
_cell_length_a 22.230395
_cell_length_b 21.637961
_cell_length_c 4.935427
_cell_angle_alpha 90.000000
_cell_angle_beta 81.789823
_cell_angle_gamma 90.000000
_cell_volume 2349.709339
_symmetry_space_group_name_H-M "C 2/M"
_symmetry_group_IT_number 12
_symmetry_cell_setting 'monoclinic'
loop_
_space_group_symop_operation_xyz
x,y,z
-x,y,-z
-x,-y,-z
x,-y,z
1/2+x,1/2+y,z
1/2-x,1/2+y,-z
1/2-x,1/2-y,-z
1/2+x,1/2-y,z
loop_
_atom_site_type_symbol
_atom_site_label
_atom_site_fract_x
_atom_site_fract_y
_atom_site_fract_z
Si Si1 0.543680 0.253738 0.224030
Si Si2 0.955692 0.000000 0.782913
Si Si3 0.071559 0.123275 0.406737
Si Si4 0.130600 0.428668 0.817774
Si Si5 0.764463 0.930497 0.809532
Si Si6 0.567888 0.122636 0.349392
Si Si7 0.342299 0.571118 0.237422
O O1 0.500000 0.244043 0.500000
O O2 0.588800 0.312637 0.243630
O O3 0.580462 0.189371 0.196295
O O4 0.500000 0.265305 0.000000
O O5 0.913692 0.937325 0.795472
O O6 0.000000 0.000000 0.500000
O O7 0.000000 0.000000 0.000000
O O8 0.104453 0.114955 0.675248
O O9 0.000000 0.126035 0.500000
O O10 0.134823 0.500000 0.720172
O O11 0.111310 0.386543 0.577576
O O12 0.196739 0.402478 0.865413
O O13 0.083829 0.425017 0.099062
O O14 0.812736 0.897953 0.984895
O O15 0.760589 0.000000 0.926722
O O16 0.787940 0.928552 0.489359
O O17 0.500000 0.110916 0.500000
O O18 0.368343 0.500000 0.183361
#
# Coordination Sequence:
#
# PCOD8091040 Si02
#       7
#     8   4   8   8   8   8   8
#     4  10  21  38  56  78 114 159 193 217 266 348
#     4  10  20  32  48  78 114 140 176 230 283 328
#     4  10  21  36  56  85 116 152 189 238 291 333
#     4  11  22  38  61  87 115 147 182 231 285 336
#     4   9  20  36  55  78 109 150 190 223 276 341
#     4  11  22  37  59  87 118 147 182 226 279 344
#     4  10  19  34  54  81 113 148 189 238 279 327
#
# _framework density 22.130398
#
# number of rings (size 3 to 8) (size 9 to 14) (size 15 to 20)
#    0.000    1.846    0.769    4.154    0.000    9.231 
#    0.000    0.000    0.000    5.538    0.000    0.000 
#    0.000    0.000    0.000    0.000    0.000    0.000 
#
# Total GULP energy -322303.382579 kJ/mol
# GULP energy per Si atom -12396.283945 kJ/mol
# Density = 2.208003 g / cm^3
# Si number density = 22.130398 Si / 1000 Ang^3
#
#
#
# Elastic Constant Matrix: (Units=GPa)
#
#
# Indices 1 2 3 4 5 6 
#
# 1 89.4114 37.2131 8.5849 0.0000 29.7766 0.0000
# 2 37.2131 80.0187 12.2628 0.0000 18.1190 0.0000
# 3 8.5849 12.2628 90.1197 0.0000 34.1974 0.0000
# 4 0.0000 0.0000 0.0000 32.6850 0.0000 7.6317
# 5 29.7766 18.1190 34.1974 0.0000 44.3695 0.0000
# 6 0.0000 0.0000 0.0000 7.6317 0.0000 13.4860
#
#
#
# Elastic Compliance Matrix: (Units=1/GPa)
#
#
# Indices 1 2 3 4 5 6 
#
# 1 0.017299 -0.005880 0.003740 0.000000 -0.012091 0.000000
# 2 -0.005880 0.015778 -0.000904 0.000000 -0.001800 0.000000
# 3 0.003740 -0.000904 0.016502 0.000000 -0.014860 0.000000
# 4 0.000000 0.000000 0.000000 0.035253 0.000000 -0.019950
# 5 -0.012091 -0.001800 -0.014860 0.000000 0.042841 0.000000
# 6 0.000000 0.000000 0.000000 -0.019950 0.000000 0.085441
#
#
# Mechanical properties :
#
#
# Convention : Reuss Voigt Hill
#
# Bulk Modulus (GPa) = 22.99290 41.74127 32.36709
# Shear Modulus (GPa) = 21.39510 31.54069 26.46789
#
# Velocity S-wave (km/s) = 3.11267 3.77930 3.46207
# Velocity P-wave (km/s) = 4.83018 6.16008 5.53522
#
# Compressibility (1/GPa) = 0.04349168
#
# Stress axis : x y z
#
# Youngs Moduli (GPa) = 57.80585 63.37952 60.59940
#
# Poissons Ratio (x) = 0.37270 -0.22667
# Poissons Ratio (y) = 0.33993 0.05476
# Poissons Ratio (z) = -0.21622 0.05727
#
# Static dielectric constant tensor:
#      x y z
#    x 4.006520 0.000000 0.061980 
#    y 0.000000 -10.718250 0.000000 
#    z 0.061980 0.000000 4.164580 
# 
# 
# High freq. dielectric constant tensor:
#      x y z
#    x 1.864170 0.000000 0.001220 
#    y 0.000000 1.837530 0.000000 
#    z 0.001220 0.000000 1.897090 
# 
# From -- ./inp_files/21266.got.cif
#   From: 2010.06.25/outbox.cif.g09.slc.cpg/sg12_11_cif.got.tgz:21266.got - 2010.06.28 00:19:55.
