data_PCOD8091246
_publ_section_title
;
Structure prediction by ZEFSAII (Michael W. Deem and Ramdas Pophale) SiO2 
 PCOD8091246
Probable space group: C 2/M
;
_chemical_formula_sum "Si O2"
_cell_formula_units_Z 56
_cell_length_a 29.369394
_cell_length_b 9.116244
_cell_length_c 11.005663
_cell_angle_alpha 90.000000
_cell_angle_beta 71.025935
_cell_angle_gamma 90.000000
_cell_volume 2786.537176
_symmetry_space_group_name_H-M "C 2/M"
_symmetry_group_IT_number 12
_symmetry_cell_setting 'monoclinic'
loop_
_space_group_symop_operation_xyz
x,y,z
-x,y,-z
-x,-y,-z
x,-y,z
1/2+x,1/2+y,z
1/2-x,1/2+y,-z
1/2-x,1/2-y,-z
1/2+x,1/2-y,z
loop_
_atom_site_type_symbol
_atom_site_label
_atom_site_fract_x
_atom_site_fract_y
_atom_site_fract_z
Si Si1 0.977119 0.824619 0.389269
Si Si2 0.976839 0.325918 0.889399
Si Si3 0.319308 0.664551 0.258695
Si Si4 0.774710 0.164706 0.634776
Si Si5 0.628870 0.666090 0.552307
Si Si6 0.376228 0.327643 0.976960
Si Si7 0.709088 0.339042 0.098087
O O1 0.000714 0.751229 0.249662
O O2 0.000000 0.779213 0.500000
O O3 0.922110 0.764235 0.441877
O O4 0.980031 0.000000 0.368053
O O5 0.980631 0.500000 0.867999
O O6 0.921921 0.275920 0.942391
O O7 0.000000 0.279717 0.000000
O O8 0.300367 0.500000 0.260538
O O9 0.274377 0.751874 0.356078
O O10 0.365536 0.673512 0.307198
O O11 0.339009 0.723591 0.114303
O O12 0.823346 0.244322 0.543843
O O13 0.780269 0.162078 0.771841
O O14 0.770733 0.000000 0.583566
O O15 0.628580 0.500000 0.502935
O O16 0.391146 0.500000 0.974888
O O17 0.346158 0.289262 0.880681
O O18 0.713239 0.500000 0.036888
O O19 0.750000 0.250000 0.000000
#
# Coordination Sequence:
#
# PCOD8091246 Si02
#       7
#     8   8   8   8   8   8   8
#     4  10  22  41  68  93 117 156 206 255 305 363
#     4  11  25  43  63  90 124 160 201 254 315 371
#     4  10  19  34  55  81 114 148 186 232 281 340
#     4  10  20  33  53  80 114 148 183 228 279 341
#     4   9  19  35  56  82 111 145 187 235 285 341
#     4  10  21  36  59  86 113 150 198 245 292 352
#     4  10  20  34  54  80 113 150 188 236 286 341
#
# _framework density 20.096627999999999
#
# number of rings (size 3 to 8) (size 9 to 14) (size 15 to 20)
#    0.000    2.000    1.429    1.714    2.000    3.714 
#    0.000    1.429    0.000    0.000    0.000    0.000 
#    0.000    0.000    0.000    0.000    0.000    0.000 
#
# Total GULP energy -346914.928135 kJ/mol
# GULP energy per Si atom -12389.818862 kJ/mol
# Density = 2.005089 g / cm^3
# Si number density = 20.096628 Si / 1000 Ang^3
#
#
#
# Elastic Constant Matrix: (Units=GPa)
#
#
# Indices 1 2 3 4 5 6 
#
# 1 157.3470 40.3483 43.0657 0.0000 -9.6916 0.0000
# 2 40.3483 52.7513 29.9140 0.0000 -4.9416 0.0000
# 3 43.0657 29.9140 92.0188 0.0000 -11.0933 0.0000
# 4 0.0000 0.0000 0.0000 26.0471 0.0000 -2.5285
# 5 -9.6916 -4.9416 -11.0933 0.0000 34.0251 0.0000
# 6 0.0000 0.0000 0.0000 -2.5285 0.0000 27.5690
#
#
#
# Elastic Compliance Matrix: (Units=1/GPa)
#
#
# Indices 1 2 3 4 5 6 
#
# 1 0.008289 -0.005047 -0.002126 0.000000 0.000935 0.000000
# 2 -0.005047 0.026344 -0.006156 0.000000 0.000381 0.000000
# 3 -0.002126 -0.006156 0.014243 0.000000 0.003144 0.000000
# 4 0.000000 0.000000 0.000000 0.038737 0.000000 0.003553
# 5 0.000935 0.000381 0.003144 0.000000 0.030737 0.000000
# 6 0.000000 0.000000 0.000000 0.003553 0.000000 0.036598
#
#
# Mechanical properties :
#
#
# Convention : Reuss Voigt Hill
#
# Bulk Modulus (GPa) = 45.00934 58.75256 51.88095
# Shear Modulus (GPa) = 26.45347 30.11418 28.28383
#
# Velocity S-wave (km/s) = 3.63204 3.87521 3.75559
# Velocity P-wave (km/s) = 6.32725 7.02292 6.68414
#
# Compressibility (1/GPa) = 0.02221761
#
# Stress axis : x y z
#
# Youngs Moduli (GPa) = 120.64163 37.95958 70.21216
#
# Poissons Ratio (x) = 0.19158 0.14927
# Poissons Ratio (y) = 0.60887 0.43223
# Poissons Ratio (z) = 0.25648 0.23368
#
# Static dielectric constant tensor:
#      x y z
#    x 3.959150 0.000000 0.134930 
#    y 0.000000 3.521980 0.000000 
#    z 0.134930 0.000000 3.647760 
# 
# 
# High freq. dielectric constant tensor:
#      x y z
#    x 1.802970 0.000000 0.007000 
#    y 0.000000 1.748680 0.000000 
#    z 0.007000 0.000000 1.795770 
# 
# From -- ./inp_files/180739.got.cif
#   From: 2010.06.25/outbox.cif.g09.slc.cpg/sg12_91_cif.got.tgz:180739.got - 2010.06.28 00:19:55.
