data_PCOD8091983
_publ_section_title
;
Structure prediction by ZEFSAII (Michael W. Deem and Ramdas Pophale) SiO2 
 PCOD8091983
Probable space group: C 2/M
;
_chemical_formula_sum "Si O2"
_cell_formula_units_Z 56
_cell_length_a 17.221280
_cell_length_b 17.350746
_cell_length_c 22.979485
_cell_angle_alpha 90.000000
_cell_angle_beta 24.509691
_cell_angle_gamma 90.000000
_cell_volume 2848.472163
_symmetry_space_group_name_H-M "C 2/M"
_symmetry_group_IT_number 12
_symmetry_cell_setting 'monoclinic'
loop_
_space_group_symop_operation_xyz
x,y,z
-x,y,-z
-x,-y,-z
x,-y,z
1/2+x,1/2+y,z
1/2-x,1/2+y,-z
1/2-x,1/2-y,-z
1/2+x,1/2-y,z
loop_
_atom_site_type_symbol
_atom_site_label
_atom_site_fract_x
_atom_site_fract_y
_atom_site_fract_z
Si Si1 0.178406 0.409205 0.631811
Si Si2 0.375083 0.586987 0.291555
Si Si3 0.255000 0.090099 0.094359
Si Si4 0.414773 0.413268 0.672129
Si Si5 0.035515 0.588835 0.604755
Si Si6 0.127570 0.349390 0.789681
Si Si7 0.822870 0.690104 0.661539
O O1 0.182581 0.500000 0.644251
O O2 0.385840 0.374457 0.478336
O O3 0.046391 0.393472 0.666190
O O4 0.097839 0.360804 0.740992
O O5 0.345950 0.500000 0.290781
O O6 0.588584 0.603131 0.162384
O O7 0.241457 0.603980 0.437784
O O8 0.326821 0.638055 0.269318
O O9 0.189772 0.124044 0.201172
O O10 0.313184 0.000000 0.058323
O O11 0.429445 0.140945 0.955784
O O12 0.463810 0.500000 0.657194
O O13 0.277788 0.412041 0.709954
O O14 0.974959 0.500000 0.635110
O O15 0.885920 0.646232 0.677379
O O16 0.216531 0.268501 0.748937
O O17 0.000000 0.707123 0.500000
#
# Coordination Sequence:
#
# PCOD8091983 Si02
#       7
#     8   8   8   8   8   8   8
#     4  10  19  34  58  86 114 145 187 236 282 330
#     4   9  17  35  61  85 106 139 193 243 276 317
#     4  10  20  36  59  83 109 147 192 233 272 324
#     4  10  19  35  57  81 109 147 196 237 268 318
#     4   9  17  35  62  87 108 140 192 243 280 320
#     4  12  23  34  50  84 122 154 180 216 286 349
#     4  10  21  36  54  84 116 148 186 231 284 332
#
# _framework density 19.659662000000001
#
# number of rings (size 3 to 8) (size 9 to 14) (size 15 to 20)
#    0.000    2.000    1.429    3.429    0.000    4.571 
#    2.571    2.143    3.143    0.000    0.000    4.000 
#    0.000    0.000    0.000    0.000    0.000    0.000 
#
# Total GULP energy -347190.664909 kJ/mol
# GULP energy per Si atom -12399.666604 kJ/mol
# Density = 1.961492 g / cm^3
# Si number density = 19.659662 Si / 1000 Ang^3
#
#
#
# Elastic Constant Matrix: (Units=GPa)
#
#
# Indices 1 2 3 4 5 6 
#
# 1 110.6091 39.2075 27.3693 -0.0334 2.7047 0.0220
# 2 39.2075 69.9471 40.0880 0.0083 -5.4284 -0.0542
# 3 27.3693 40.0880 53.1554 -0.0663 6.0990 -0.0712
# 4 -0.0334 0.0083 -0.0663 25.6504 0.0304 -8.9969
# 5 2.7047 -5.4284 6.0990 0.0304 27.0385 -0.0650
# 6 0.0220 -0.0542 -0.0712 -8.9969 -0.0650 19.2844
#
#
#
# Elastic Compliance Matrix: (Units=1/GPa)
#
#
# Indices 1 2 3 4 5 6 
#
# 1 0.011484 -0.005887 -0.001238 0.000002 -0.002051 -0.000040
# 2 -0.005887 0.030876 -0.021592 -0.000082 0.011658 0.000015
# 3 -0.001238 -0.021592 0.037180 0.000154 -0.012598 0.000107
# 4 0.000002 -0.000082 0.000154 0.046614 -0.000052 0.021747
# 5 -0.002051 0.011658 -0.012598 -0.000052 0.042372 0.000107
# 6 -0.000040 0.000015 0.000107 0.021747 0.000107 0.062002
#
#
# Mechanical properties :
#
#
# Convention : Reuss Voigt Hill
#
# Bulk Modulus (GPa) = 45.23690 49.67125 47.45408
# Shear Modulus (GPa) = 16.93012 22.86446 19.89729
#
# Velocity S-wave (km/s) = 2.93774 3.41400 3.18478
# Velocity P-wave (km/s) = 5.87937 6.39226 6.14117
#
# Compressibility (1/GPa) = 0.02210585
#
# Stress axis : x y z
#
# Youngs Moduli (GPa) = 87.07709 32.38753 26.89602
#
# Poissons Ratio (x) = 0.19066 0.03330
# Poissons Ratio (y) = 0.51261 0.58075
# Poissons Ratio (z) = 0.10781 0.69932
#
# Static dielectric constant tensor:
#      x y z
#    x 3.622780 0.000050 -0.024670 
#    y 0.000050 3.376600 0.000160 
#    z -0.024670 0.000160 3.375710 
# 
# 
# High freq. dielectric constant tensor:
#      x y z
#    x 1.777470 0.000000 -0.005730 
#    y 0.000000 1.743460 0.000010 
#    z -0.005730 0.000010 1.745400 
# 
# From -- ./inp_files/76011.got.cif
#   From: 2010.06.25/outbox.cif.g09.slc.cpg/sg12_39_cif.got.tgz:76011.got - 2010.06.28 00:19:55.
