data_PCOD8091663
_publ_section_title
;
Structure prediction by ZEFSAII (Michael W. Deem and Ramdas Pophale) SiO2 
 PCOD8091663
Probable space group: C 2/M
;
_chemical_formula_sum "Si O2"
_cell_formula_units_Z 64
_cell_length_a 19.957146
_cell_length_b 8.710836
_cell_length_c 19.282611
_cell_angle_alpha 90.000000
_cell_angle_beta 91.813046
_cell_angle_gamma 90.000000
_cell_volume 3350.477007
_symmetry_space_group_name_H-M "C 2/M"
_symmetry_group_IT_number 12
_symmetry_cell_setting 'monoclinic'
loop_
_space_group_symop_operation_xyz
x,y,z
-x,y,-z
-x,-y,-z
x,-y,z
1/2+x,1/2+y,z
1/2-x,1/2+y,-z
1/2-x,1/2-y,-z
1/2+x,1/2-y,z
loop_
_atom_site_type_symbol
_atom_site_label
_atom_site_fract_x
_atom_site_fract_y
_atom_site_fract_z
Si Si1 0.431345 0.817667 0.914246
Si Si2 0.977026 0.324307 0.301027
Si Si3 0.381782 0.823793 0.768104
Si Si4 0.295712 0.681956 0.441414
Si Si5 0.358660 0.181856 0.200390
Si Si6 0.254989 0.680223 0.702499
Si Si7 0.947569 0.819117 0.442918
Si Si8 0.918299 0.682719 0.064683
O O1 0.388969 0.757528 0.846955
O O2 0.507461 0.754727 0.914647
O O3 0.434280 0.000000 0.908584
O O4 0.397269 0.763842 0.986089
O O5 0.961405 0.500000 0.320694
O O6 0.920899 0.257953 0.247598
O O7 0.976020 0.222625 0.369192
O O8 0.047766 0.308018 0.266932
O O9 0.330907 0.718820 0.723883
O O10 0.356896 0.000000 0.767173
O O11 0.293517 0.500000 0.446566
O O12 0.250000 0.750000 0.500000
O O13 0.266979 0.731367 0.366595
O O14 0.371995 0.744880 0.452195
O O15 0.290128 0.237596 0.233915
O O16 0.366364 0.245558 0.121473
O O17 0.361274 0.000000 0.197638
O O18 0.246710 0.500000 0.688451
O O19 0.000000 0.747902 0.500000
O O20 0.945277 0.000000 0.450707
O O21 0.920515 0.500000 0.065908
#
# Coordination Sequence:
#
# PCOD8091663 Si02
#       8
#     8   8   8   8   8   8   8   8
#     4   8  13  23  44  76 110 138 171 226 282 321
#     4  10  19  34  57  82 107 139 181 229 269 314
#     4  10  20  34  53  82 114 143 182 233 279 321
#     4  11  24  42  62  84 113 147 181 219 265 324
#     4   9  16  30  51  76 105 139 183 227 267 318
#     4  11  23  38  56  77 109 151 187 224 271 326
#     4  10  23  41  59  83 113 141 171 217 270 322
#     4   8  12  22  45  76 106 137 177 225 276 322
#
# _framework density 19.101758
#
# number of rings (size 3 to 8) (size 9 to 14) (size 15 to 20)
#    0.000    2.375    2.500    1.500    1.750    1.250 
#    0.000    0.625    0.000    0.000    0.000    3.500 
#    0.000    0.000    0.000    0.000    0.000    0.000 
#
# Total GULP energy -396631.513448 kJ/mol
# GULP energy per Si atom -12394.734795 kJ/mol
# Density = 1.905828 g / cm^3
# Si number density = 19.101758 Si / 1000 Ang^3
#
#
#
# Elastic Constant Matrix: (Units=GPa)
#
#
# Indices 1 2 3 4 5 6 
#
# 1 67.4168 20.9292 36.9815 0.0000 17.1124 0.0000
# 2 20.9292 22.6578 19.7882 0.0000 -0.6487 0.0000
# 3 36.9815 19.7882 136.7737 0.0000 -1.4195 0.0000
# 4 0.0000 0.0000 0.0000 11.3111 0.0000 -5.8311
# 5 17.1124 -0.6487 -1.4195 0.0000 29.4858 0.0000
# 6 0.0000 0.0000 0.0000 -5.8311 0.0000 15.5180
#
#
#
# Elastic Compliance Matrix: (Units=1/GPa)
#
#
# Indices 1 2 3 4 5 6 
#
# 1 0.029114 -0.023308 -0.004683 0.000000 -0.017635 0.000000
# 2 -0.023308 0.069195 -0.003555 0.000000 0.014878 0.000000
# 3 -0.004683 -0.003555 0.009124 0.000000 0.003079 0.000000
# 4 0.000000 0.000000 0.000000 0.109649 0.000000 0.041202
# 5 -0.017635 0.014878 0.003079 0.000000 0.044625 0.000000
# 6 0.000000 0.000000 0.000000 0.041202 0.000000 0.079923
#
#
# Mechanical properties :
#
#
# Convention : Reuss Voigt Hill
#
# Bulk Modulus (GPa) = 22.55192 42.47179 32.51186
# Shear Modulus (GPa) = 11.91891 21.20627 16.56259
#
# Velocity S-wave (km/s) = 2.50065 3.33554 2.94780
# Velocity P-wave (km/s) = 4.49104 6.09239 5.35195
#
# Compressibility (1/GPa) = 0.04434212
#
# Stress axis : x y z
#
# Youngs Moduli (GPa) = 34.34784 14.45192 109.60436
#
# Poissons Ratio (x) = 0.33684 0.51326
# Poissons Ratio (y) = 0.80058 0.38959
# Poissons Ratio (z) = 0.16084 0.05137
#
# Static dielectric constant tensor:
#      x y z
#    x 3.635200 0.000000 -0.125460 
#    y 0.000000 3.099530 0.000000 
#    z -0.125460 0.000000 3.988050 
# 
# 
# High freq. dielectric constant tensor:
#      x y z
#    x 1.735200 0.000000 -0.006330 
#    y 0.000000 1.697360 0.000000 
#    z -0.006330 0.000000 1.762080 
# 
# From -- ./inp_files/314149.got.cif
#   From: 2010.06.25/outbox.cif.g09.slc.cpg/sg12_158_cif.got.tgz:314149.got - 2010.06.28 00:19:55.
