data_PCOD8091612
_publ_section_title
;
Structure prediction by ZEFSAII (Michael W. Deem and Ramdas Pophale) SiO2 
 PCOD8091612
Probable space group: C 2/M
;
_chemical_formula_sum "Si O2"
_cell_formula_units_Z 64
_cell_length_a 30.426274
_cell_length_b 9.320296
_cell_length_c 22.874527
_cell_angle_alpha 90.000000
_cell_angle_beta 148.604462
_cell_angle_gamma 90.000000
_cell_volume 3379.254794
_symmetry_space_group_name_H-M "C 2/M"
_symmetry_group_IT_number 12
_symmetry_cell_setting 'monoclinic'
loop_
_space_group_symop_operation_xyz
x,y,z
-x,y,-z
-x,-y,-z
x,-y,z
1/2+x,1/2+y,z
1/2-x,1/2+y,-z
1/2-x,1/2-y,-z
1/2+x,1/2-y,z
loop_
_atom_site_type_symbol
_atom_site_label
_atom_site_fract_x
_atom_site_fract_y
_atom_site_fract_z
Si Si1 0.373451 0.167059 0.999508
Si Si2 0.684080 0.329940 0.769094
Si Si3 0.501018 0.833974 0.755296
Si Si4 0.913037 0.163795 0.934350
Si Si5 0.472231 0.329343 0.333425
Si Si6 0.301087 0.836110 0.720465
Si Si7 0.674168 0.831561 0.383412
Si Si8 0.370693 0.664442 0.417629
O O1 0.276997 0.223848 0.893267
O O2 0.423413 0.254709 0.007201
O O3 0.377602 0.000000 0.987138
O O4 0.419233 0.195785 0.112625
O O5 0.685774 0.500000 0.765905
O O6 0.618035 0.280628 0.743515
O O7 0.657386 0.262857 0.675734
O O8 0.514733 0.738521 0.714563
O O9 0.414607 0.787156 0.688970
O O10 0.496437 0.000000 0.731968
O O11 0.840881 0.235676 0.814188
O O12 0.887624 0.000000 0.917158
O O13 0.000000 0.177668 0.000000
O O14 0.479353 0.500000 0.334716
O O15 0.543754 0.268329 0.458868
O O16 0.328320 0.785119 0.687192
O O17 0.200578 0.820027 0.613552
O O18 0.329625 0.000000 0.764414
O O19 0.750000 0.750000 0.500000
O O20 0.691797 0.000000 0.408972
O O21 0.389872 0.500000 0.424947
#
# Coordination Sequence:
#
# PCOD8091612 Si02
#       8
#     8   8   8   8   8   8   8   8
#     4  10  20  38  61  80 106 147 188 227 269 324
#     4   9  17  32  57  87 110 136 183 236 276 315
#     4  10  22  38  54  78 114 150 186 228 275 325
#     4  11  23  36  52  80 113 141 174 223 279 327
#     4  10  20  34  57  84 110 144 186 230 276 323
#     4  10  19  34  57  81 105 142 188 223 264 329
#     4  10  21  36  55  81 111 146 189 232 274 325
#     4   9  16  30  55  86 112 135 176 232 276 319
#
# _framework density 18.939087000000001
#
# number of rings (size 3 to 8) (size 9 to 14) (size 15 to 20)
#    0.000    2.125    1.250    2.250    0.000    6.500 
#    0.000    1.250    0.000    0.750    0.000    0.000 
#    0.000    0.000    0.000    0.000    0.000    0.000 
#
# Total GULP energy -396816.594838 kJ/mol
# GULP energy per Si atom -12400.518589 kJ/mol
# Density = 1.889598 g / cm^3
# Si number density = 18.939087 Si / 1000 Ang^3
#
#
#
# Elastic Constant Matrix: (Units=GPa)
#
#
# Indices 1 2 3 4 5 6 
#
# 1 130.4677 32.1528 50.7701 0.0000 1.1408 0.0000
# 2 32.1528 43.4105 34.4843 0.0000 -1.0235 0.0000
# 3 50.7701 34.4843 127.8431 0.0000 1.3084 0.0000
# 4 0.0000 0.0000 0.0000 26.0205 0.0000 -5.4597
# 5 1.1408 -1.0235 1.3084 0.0000 26.3885 0.0000
# 6 0.0000 0.0000 0.0000 -5.4597 0.0000 27.8720
#
#
#
# Elastic Compliance Matrix: (Units=1/GPa)
#
#
# Indices 1 2 3 4 5 6 
#
# 1 0.009975 -0.005419 -0.002494 0.000000 -0.000518 0.000000
# 2 -0.005419 0.032324 -0.006585 0.000000 0.001815 0.000000
# 3 -0.002494 -0.006585 0.010596 0.000000 -0.000673 0.000000
# 4 0.000000 0.000000 0.000000 0.040078 0.000000 0.007851
# 5 -0.000518 0.001815 -0.000673 0.000000 0.038021 0.000000
# 6 0.000000 0.000000 0.000000 0.007851 0.000000 0.037416
#
#
# Mechanical properties :
#
#
# Convention : Reuss Voigt Hill
#
# Bulk Modulus (GPa) = 41.84618 59.61507 50.73063
# Shear Modulus (GPa) = 24.34568 28.34381 26.34474
#
# Velocity S-wave (km/s) = 3.58924 3.87276 3.73369
# Velocity P-wave (km/s) = 6.27056 7.17937 6.74030
#
# Compressibility (1/GPa) = 0.02389704
#
# Stress axis : x y z
#
# Youngs Moduli (GPa) = 100.24586 30.93690 94.37550
#
# Poissons Ratio (x) = 0.16765 0.23542
# Poissons Ratio (y) = 0.54325 0.62151
# Poissons Ratio (z) = 0.25006 0.20373
#
# Static dielectric constant tensor:
#      x y z
#    x 3.601620 0.000000 0.110100 
#    y 0.000000 3.236270 0.000000 
#    z 0.110100 0.000000 3.702900 
# 
# 
# High freq. dielectric constant tensor:
#      x y z
#    x 1.745600 0.000000 0.004460 
#    y 0.000000 1.698510 0.000000 
#    z 0.004460 0.000000 1.747940 
# 
# From -- ./inp_files/353434.got.cif
#   From: 2010.06.25/outbox.cif.g09.slc.cpg/sg12_177_cif.got.tgz:353434.got - 2010.06.28 00:19:55.
