data_PCOD8091079
_publ_section_title
;
Structure prediction by ZEFSAII (Michael W. Deem and Ramdas Pophale) SiO2 
 PCOD8091079
Probable space group: C 2/M
;
_chemical_formula_sum "Si O2"
_cell_formula_units_Z 56
_cell_length_a 14.377452
_cell_length_b 18.942683
_cell_length_c 12.462824
_cell_angle_alpha 90.000000
_cell_angle_beta 108.671272
_cell_angle_gamma 90.000000
_cell_volume 3215.584500
_symmetry_space_group_name_H-M "C 2/M"
_symmetry_group_IT_number 12
_symmetry_cell_setting 'monoclinic'
loop_
_space_group_symop_operation_xyz
x,y,z
-x,y,-z
-x,-y,-z
x,-y,z
1/2+x,1/2+y,z
1/2-x,1/2+y,-z
1/2-x,1/2-y,-z
1/2+x,1/2-y,z
loop_
_atom_site_type_symbol
_atom_site_label
_atom_site_fract_x
_atom_site_fract_y
_atom_site_fract_z
Si Si1 0.600436 0.916543 0.993271
Si Si2 0.731374 0.918601 0.236929
Si Si3 0.218652 0.651363 0.638013
Si Si4 0.876808 0.199749 0.356036
Si Si5 0.407626 0.704188 0.615068
Si Si6 0.892127 0.636275 0.618743
Si Si7 0.097307 0.418193 0.752701
O O1 0.687173 0.895319 0.105891
O O2 0.590502 0.000000 0.986750
O O3 0.500000 0.882492 0.000000
O O4 0.616699 0.887598 0.879106
O O5 0.820579 0.866474 0.287312
O O6 0.651481 0.910967 0.301973
O O7 0.766871 0.000000 0.248187
O O8 0.179779 0.726088 0.670185
O O9 0.335925 0.653149 0.657515
O O10 0.159031 0.620917 0.513777
O O11 0.197623 0.595041 0.723998
O O12 0.894449 0.184081 0.486726
O O13 0.976080 0.200186 0.320318
O O14 0.369241 0.781750 0.631262
O O15 0.008675 0.622014 0.658262
O O16 0.070407 0.500000 0.746733
#
# Coordination Sequence:
#
# PCOD8091079 Si02
#       7
#     8   8   8   8   8   8   8
#     4   9  18  33  52  75 107 143 173 213 269 315
#     4  11  20  33  56  80 105 138 180 226 261 299
#     4  11  20  34  53  80 111 143 171 205 270 327
#     4  10  19  35  55  77 104 145 182 211 254 315
#     4  10  19  34  55  75 107 145 177 204 258 326
#     4  11  18  32  56  81 107 138 171 214 266 326
#     4  11  22  34  52  82 113 138 170 218 273 320
#
# _framework density 17.415185000000001
#
# number of rings (size 3 to 8) (size 9 to 14) (size 15 to 20)
#    0.000    1.571    5.714    1.714    0.000    1.714 
#    0.000    2.857    0.000    0.857    0.000    3.000 
#    0.000    0.000    0.000    0.000    0.000    0.000 
#
# Total GULP energy -347025.923621 kJ/mol
# GULP energy per Si atom -12393.782986 kJ/mol
# Density = 1.737555 g / cm^3
# Si number density = 17.415185 Si / 1000 Ang^3
#
#
#
# Elastic Constant Matrix: (Units=GPa)
#
#
# Indices 1 2 3 4 5 6 
#
# 1 105.0668 18.0962 36.9894 0.0000 -8.6593 0.0000
# 2 18.0962 42.0778 42.4483 0.0000 7.1056 0.0000
# 3 36.9894 42.4483 73.6140 0.0000 -9.6270 0.0000
# 4 0.0000 0.0000 0.0000 6.0729 0.0000 0.9470
# 5 -8.6593 7.1056 -9.6270 0.0000 24.2505 0.0000
# 6 0.0000 0.0000 0.0000 0.9470 0.0000 29.0372
#
#
#
# Elastic Compliance Matrix: (Units=1/GPa)
#
#
# Indices 1 2 3 4 5 6 
#
# 1 0.011665 0.001239 -0.006411 0.000000 0.001257 0.000000
# 2 0.001239 0.094178 -0.061681 0.000000 -0.051639 0.000000
# 3 -0.006411 -0.061681 0.057419 0.000000 0.038578 0.000000
# 4 0.000000 0.000000 0.000000 0.165508 0.000000 -0.005398
# 5 0.001257 -0.051639 0.038578 0.000000 0.072131 0.000000
# 6 0.000000 0.000000 0.000000 -0.005398 0.000000 0.034615
#
#
# Mechanical properties :
#
#
# Convention : Reuss Voigt Hill
#
# Bulk Modulus (GPa) = 33.83743 46.20292 40.02017
# Shear Modulus (GPa) = 8.63448 20.08708 14.36078
#
# Velocity S-wave (km/s) = 2.22908 3.39989 2.87472
# Velocity P-wave (km/s) = 5.10853 6.48076 5.83512
#
# Compressibility (1/GPa) = 0.02955307
#
# Stress axis : x y z
#
# Youngs Moduli (GPa) = 85.72525 10.61824 17.41595
#
# Poissons Ratio (x) = -0.01315 0.11166
# Poissons Ratio (y) = -0.10619 1.07424
# Poissons Ratio (z) = 0.54961 0.65495
#
# Static dielectric constant tensor:
#      x y z
#    x 3.320620 0.000000 -0.035940 
#    y 0.000000 2.995130 0.000000 
#    z -0.035940 0.000000 3.304480 
# 
# 
# High freq. dielectric constant tensor:
#      x y z
#    x 1.672690 0.000000 -0.008810 
#    y 0.000000 1.650310 0.000000 
#    z -0.008810 0.000000 1.656160 
# 
# From -- ./inp_files/147176.got.cif
#   From: 2010.06.25/outbox.cif.g09.slc.cpg/sg12_74_cif.got.tgz:147176.got - 2010.06.28 00:19:55.
