data_PCOD8091142
_publ_section_title
;
Structure prediction by ZEFSAII (Michael W. Deem and Ramdas Pophale) SiO2 
 PCOD8091142
Probable space group: C 2/M
;
_chemical_formula_sum "Si O2"
_cell_formula_units_Z 48
_cell_length_a 18.134193
_cell_length_b 8.802802
_cell_length_c 21.029412
_cell_angle_alpha 90.000000
_cell_angle_beta 48.523043
_cell_angle_gamma 90.000000
_cell_volume 2515.109544
_symmetry_space_group_name_H-M "C 2/M"
_symmetry_group_IT_number 12
_symmetry_cell_setting 'monoclinic'
loop_
_space_group_symop_operation_xyz
x,y,z
-x,y,-z
-x,-y,-z
x,-y,z
1/2+x,1/2+y,z
1/2-x,1/2+y,-z
1/2-x,1/2-y,-z
1/2+x,1/2-y,z
loop_
_atom_site_type_symbol
_atom_site_label
_atom_site_fract_x
_atom_site_fract_y
_atom_site_fract_z
Si Si1 0.475836 0.830706 0.415712
Si Si2 0.349272 0.675628 0.919311
Si Si3 0.474206 0.325604 0.085841
Si Si4 0.839596 0.328583 0.597123
Si Si5 0.775861 0.677371 0.233407
Si Si6 0.382862 0.818204 0.766447
O O1 0.381872 0.754800 0.506140
O O2 0.569394 0.835467 0.407669
O O3 0.517239 0.756077 0.326651
O O4 0.440011 0.000000 0.421038
O O5 0.330005 0.500000 0.915346
O O6 0.429128 0.699405 0.927998
O O7 0.387802 0.757147 0.834382
O O8 0.250000 0.750000 0.000000
O O9 0.438084 0.500000 0.108610
O O10 0.389735 0.217585 0.160969
O O11 0.500000 0.275081 0.000000
O O12 0.798989 0.500000 0.609736
O O13 0.755497 0.225664 0.676939
O O14 0.758632 0.500000 0.235033
O O15 0.715026 0.762327 0.213311
O O16 0.380410 0.000000 0.767482
#
# Coordination Sequence:
#
# PCOD8091142 Si02
#       6
#     8   8   8   8   8   8
#     4   7  12  24  46  73  99 136 180 215 252 305
#     4  11  23  38  58  83 108 135 172 216 263 317
#     4  10  22  40  59  77 101 137 176 213 260 317
#     4   8  13  26  47  71 102 138 177 216 258 308
#     4  11  21  32  51  81 112 140 176 220 264 309
#     4  10  19  34  55  78 109 145 179 216 262 313
#
# _framework density 19.084655000000001
#
# number of rings (size 3 to 8) (size 9 to 14) (size 15 to 20)
#    0.000    2.500    0.000    5.500    0.000    3.000 
#    0.000    7.500    0.000    1.000    0.000    0.000 
#    0.000    0.000    0.000    0.000    0.000    0.000 
#
# Total GULP energy -297367.766479 kJ/mol
# GULP energy per Si atom -12390.323603 kJ/mol
# Density = 1.904122 g / cm^3
# Si number density = 19.084655 Si / 1000 Ang^3
#
#
#
# Elastic Constant Matrix: (Units=GPa)
#
#
# Indices 1 2 3 4 5 6 
#
# 1 52.0004 31.1562 49.7344 0.0000 3.4013 0.0000
# 2 31.1562 94.7512 60.0141 0.0000 0.5979 0.0002
# 3 49.7344 60.0141 194.0747 0.0000 10.2681 0.0000
# 4 0.0000 0.0000 0.0000 18.3839 0.0000 1.3898
# 5 3.4013 0.5979 10.2681 0.0000 23.2305 0.0000
# 6 0.0000 0.0002 0.0000 1.3898 0.0000 22.1258
#
#
#
# Elastic Compliance Matrix: (Units=1/GPa)
#
#
# Indices 1 2 3 4 5 6 
#
# 1 0.027845 -0.005820 -0.005251 0.000000 -0.001606 0.000000
# 2 -0.005820 0.014392 -0.003056 0.000000 0.001832 0.000000
# 3 -0.005251 -0.003056 0.007576 0.000000 -0.002501 0.000000
# 4 0.000000 0.000000 0.000000 0.054655 0.000000 -0.003433
# 5 -0.001606 0.001832 -0.002501 0.000000 0.044340 0.000000
# 6 0.000000 0.000000 0.000000 -0.003433 0.000000 0.045412
#
#
# Mechanical properties :
#
#
# Convention : Reuss Voigt Hill
#
# Bulk Modulus (GPa) = 46.38533 69.18174 57.78354
# Shear Modulus (GPa) = 21.77141 26.07614 23.92378
#
# Velocity S-wave (km/s) = 3.38121 3.70041 3.54441
# Velocity P-wave (km/s) = 6.29295 7.38824 6.86248
#
# Compressibility (1/GPa) = 0.02155854
#
# Stress axis : x y z
#
# Youngs Moduli (GPa) = 35.91329 69.48465 132.00313
#
# Poissons Ratio (x) = 0.40440 0.69314
# Poissons Ratio (y) = 0.20901 0.40338
# Poissons Ratio (z) = 0.18858 0.21234
#
# Static dielectric constant tensor:
#      x y z
#    x 3.047380 0.000000 0.181040 
#    y 0.000000 3.388400 0.000000 
#    z 0.181040 0.000000 4.371050 
# 
# 
# High freq. dielectric constant tensor:
#      x y z
#    x 1.695600 0.000000 0.003820 
#    y 0.000000 1.722740 0.000000 
#    z 0.003820 0.000000 1.775240 
# 
# From -- ./inp_files/313625.got.cif
#   From: 2010.06.25/outbox.cif.g09.slc.cpg/sg12_157_cif.got.tgz:313625.got - 2010.06.28 00:19:55.
