data_PCOD8092203
_publ_section_title
;
Structure prediction by ZEFSAII (Michael W. Deem and Ramdas Pophale) SiO2 
 PCOD8092203
Probable space group: C 2/M
;
_chemical_formula_sum "Si O2"
_cell_formula_units_Z 40
_cell_length_a 35.903857
_cell_length_b 7.467296
_cell_length_c 27.766152
_cell_angle_alpha 90.000000
_cell_angle_beta 164.810198
_cell_angle_gamma 90.000000
_cell_volume 1950.519618
_symmetry_space_group_name_H-M "C 2/M"
_symmetry_group_IT_number 12
_symmetry_cell_setting 'monoclinic'
loop_
_space_group_symop_operation_xyz
x,y,z
-x,y,-z
-x,-y,-z
x,-y,z
1/2+x,1/2+y,z
1/2-x,1/2+y,-z
1/2-x,1/2-y,-z
1/2+x,1/2-y,z
loop_
_atom_site_type_symbol
_atom_site_label
_atom_site_fract_x
_atom_site_fract_y
_atom_site_fract_z
Si Si1 0.235581 0.707761 0.037605
Si Si2 0.706245 0.000000 0.715998
Si Si3 0.621073 0.000000 0.719517
Si Si4 0.416542 0.198989 0.942363
Si Si5 0.863729 0.197980 0.711660
Si Si6 0.927978 0.709737 0.687608
O O1 0.265938 0.500000 0.086917
O O2 0.339472 0.823350 0.200861
O O3 0.250000 0.750000 0.000000
O O4 0.074826 0.764582 0.847244
O O5 0.701764 0.000000 0.768707
O O6 0.548033 0.000000 0.497745
O O7 0.787472 0.175116 0.797922
O O8 0.533155 0.174589 0.129873
O O9 0.354546 0.000000 0.854489
O O10 0.500000 0.275931 0.000000
O O11 0.914301 0.183688 0.719846
O O12 0.699913 0.265960 0.508373
O O13 0.876634 0.000000 0.750729
O O14 0.916153 0.500000 0.684221
#
# Coordination Sequence:
#
# PCOD8092203 Si02
#       6
#     8   4   4   8   8   8
#     4  11  23  42  64  92 131 170 215 274 329 387
#     4  11  25  46  68  94 133 181 228 274 323 390
#     4  11  26  44  68  98 128 179 235 272 326 388
#     4  11  24  42  65  95 130 168 217 268 331 393
#     4  10  19  34  59  90 123 159 199 251 312 386
#     4   9  20  35  56  89 124 159 199 249 317 378
#
# _framework density 20.507355
#
# number of rings (size 3 to 8) (size 9 to 14) (size 15 to 20)
#    0.000    1.600    2.000    2.100    1.400    5.600 
#    0.000    4.000    0.000    0.000    0.000    0.000 
#    0.000    0.000    0.000    0.000    0.000    0.000 
#
# Total GULP energy -247958.752061 kJ/mol
# GULP energy per Si atom -12397.937603 kJ/mol
# Density = 2.046068 g / cm^3
# Si number density = 20.507355 Si / 1000 Ang^3
#
#
#
# Elastic Constant Matrix: (Units=GPa)
#
#
# Indices 1 2 3 4 5 6 
#
# 1 108.5354 43.1034 66.6904 0.0005 1.9437 0.0006
# 2 43.1034 104.1995 52.2439 0.0005 -0.7678 -0.0002
# 3 66.6904 52.2439 146.4018 0.0008 7.6445 0.0014
# 4 0.0005 0.0005 0.0008 2.5990 0.0007 -2.0104
# 5 1.9437 -0.7678 7.6445 0.0007 10.6419 0.0010
# 6 0.0006 -0.0002 0.0014 -2.0104 0.0010 30.7094
#
#
#
# Elastic Compliance Matrix: (Units=1/GPa)
#
#
# Indices 1 2 3 4 5 6 
#
# 1 0.013560 -0.003019 -0.005153 -0.000001 0.001007 0.000000
# 2 -0.003019 0.012525 -0.003294 -0.000002 0.003821 0.000000
# 3 -0.005153 -0.003294 0.010719 0.000000 -0.006996 0.000000
# 4 -0.000001 -0.000002 0.000000 0.405292 -0.000030 0.026533
# 5 0.001007 0.003821 -0.006996 -0.000030 0.099086 -0.000005
# 6 0.000000 0.000000 0.000000 0.026533 -0.000005 0.034300
#
#
# Mechanical properties :
#
#
# Convention : Reuss Voigt Hill
#
# Bulk Modulus (GPa) = 72.07908 75.91246 73.99577
# Shear Modulus (GPa) = 8.29135 21.92998 15.11067
#
# Velocity S-wave (km/s) = 2.01293 3.27367 2.71743
# Velocity P-wave (km/s) = 6.37391 7.16846 6.78283
#
# Compressibility (1/GPa) = 0.01387365
#
# Stress axis : x y z
#
# Youngs Moduli (GPa) = 73.74437 79.83727 93.29655
#
# Poissons Ratio (x) = 0.24100 0.48071
# Poissons Ratio (y) = 0.22260 0.30734
# Poissons Ratio (z) = 0.37997 0.26300
#
# Static dielectric constant tensor:
#      x y z
#    x 3.698050 0.000000 0.033370 
#    y 0.000000 3.746930 0.000000 
#    z 0.033370 0.000000 3.695430 
# 
# 
# High freq. dielectric constant tensor:
#      x y z
#    x 1.799800 0.000000 0.000970 
#    y 0.000000 1.811540 0.000000 
#    z 0.000970 0.000000 1.804340 
# 
# From -- ./inp_files/353141.got.cif
#   From: 2010.06.25/outbox.cif.g09.slc.cpg/sg12_177_cif.got.tgz:353141.got - 2010.06.28 00:19:55.
