data_PCOD8092251
_publ_section_title
;
Structure prediction by ZEFSAII (Michael W. Deem and Ramdas Pophale) SiO2 
 PCOD8092251
Probable space group: C 2/M
;
_chemical_formula_sum "Si O2"
_cell_formula_units_Z 56
_cell_length_a 14.117197
_cell_length_b 17.577010
_cell_length_c 14.325441
_cell_angle_alpha 90.000000
_cell_angle_beta 46.899498
_cell_angle_gamma 90.000000
_cell_volume 2595.477726
_symmetry_space_group_name_H-M "C 2/M"
_symmetry_group_IT_number 12
_symmetry_cell_setting 'monoclinic'
loop_
_space_group_symop_operation_xyz
x,y,z
-x,y,-z
-x,-y,-z
x,-y,z
1/2+x,1/2+y,z
1/2-x,1/2+y,-z
1/2-x,1/2-y,-z
1/2+x,1/2-y,z
loop_
_atom_site_type_symbol
_atom_site_label
_atom_site_fract_x
_atom_site_fract_y
_atom_site_fract_z
Si Si1 0.006903 0.689663 0.734340
Si Si2 0.701054 0.363078 0.096412
Si Si3 0.064652 0.088073 0.646022
Si Si4 0.026535 0.583811 0.082810
Si Si5 0.281059 0.700974 0.105767
Si Si6 0.365339 0.309792 0.249765
Si Si7 0.116636 0.232166 0.491908
O O1 0.003314 0.768533 0.798432
O O2 0.107506 0.705585 0.582422
O O3 0.047253 0.624964 0.781104
O O4 0.867049 0.671606 0.784705
O O5 0.589603 0.400626 0.234428
O O6 0.771958 0.291261 0.097438
O O7 0.819026 0.421913 0.004457
O O8 0.649371 0.341443 0.027400
O O9 0.142605 0.110002 0.689277
O O10 0.111856 0.144850 0.531975
O O11 0.093589 0.000000 0.600670
O O12 0.965434 0.500000 0.122254
O O13 0.000000 0.623747 0.000000
O O14 0.365819 0.678061 0.138906
O O15 0.250227 0.249846 0.350292
O O16 0.000000 0.246235 0.500000
#
# Coordination Sequence:
#
# PCOD8092251 Si02
#       7
#     8   8   8   8   8   8   8
#     4  10  19  36  56  87 111 152 196 243 294 347
#     4  10  19  36  57  89 119 154 195 253 294 358
#     4  11  23  39  58  89 125 157 196 248 315 369
#     4  10  21  35  55  85 122 160 193 239 301 360
#     4  10  19  34  60  88 114 150 207 239 293 352
#     4  11  21  39  61  86 117 157 201 256 293 354
#     4  11  21  40  66  88 115 155 207 261 302 347
#
# _framework density 21.575989
#
# number of rings (size 3 to 8) (size 9 to 14) (size 15 to 20)
#    0.000    1.571    4.286    3.000    0.000    0.857 
#    0.000    7.143    0.000    0.857    0.000    0.000 
#    0.000    0.000    0.000    0.000    0.000    0.000 
#
# Total GULP energy -346949.978342 kJ/mol
# GULP energy per Si atom -12391.070655 kJ/mol
# Density = 2.152688 g / cm^3
# Si number density = 21.575989 Si / 1000 Ang^3
#
#
#
# Elastic Constant Matrix: (Units=GPa)
#
#
# Indices 1 2 3 4 5 6 
#
# 1 91.1814 11.1620 8.5576 0.0000 31.7236 0.0000
# 2 11.1620 95.1571 28.8748 0.0000 11.7925 0.0000
# 3 8.5576 28.8748 68.4513 0.0001 10.2217 0.0000
# 4 0.0000 0.0000 0.0001 23.2929 0.0000 2.8092
# 5 31.7236 11.7925 10.2217 0.0000 38.8206 0.0000
# 6 0.0000 0.0000 0.0000 2.8092 0.0000 12.2080
#
#
#
# Elastic Compliance Matrix: (Units=1/GPa)
#
#
# Indices 1 2 3 4 5 6 
#
# 1 0.015330 -0.000272 0.000059 0.000000 -0.012460 0.000000
# 2 -0.000272 0.012278 -0.004811 0.000000 -0.002241 0.000000
# 3 0.000059 -0.004811 0.017092 0.000000 -0.003087 0.000000
# 4 0.000000 0.000000 0.000000 0.044157 0.000000 -0.010161
# 5 -0.012460 -0.002241 -0.003087 0.000000 0.037436 0.000000
# 6 0.000000 0.000000 0.000000 -0.010161 0.000000 0.084251
#
#
# Mechanical properties :
#
#
# Convention : Reuss Voigt Hill
#
# Bulk Modulus (GPa) = 28.85777 39.10873 33.98325
# Shear Modulus (GPa) = 21.53849 28.61067 25.07458
#
# Velocity S-wave (km/s) = 3.16296 3.64544 3.41273
# Velocity P-wave (km/s) = 5.17137 5.99035 5.59586
#
# Compressibility (1/GPa) = 0.03465271
#
# Stress axis : x y z
#
# Youngs Moduli (GPa) = 65.23108 81.44432 58.50730
#
# Poissons Ratio (x) = 0.02215 -0.00344
# Poissons Ratio (y) = 0.01774 0.28146
# Poissons Ratio (z) = -0.00384 0.39181
#
# Static dielectric constant tensor:
#      x y z
#    x 4.031460 0.000000 0.095130 
#    y 0.000000 3.567480 0.000000 
#    z 0.095130 0.000000 3.828760 
# 
# 
# High freq. dielectric constant tensor:
#      x y z
#    x 1.857350 0.000000 0.000970 
#    y 0.000000 1.806210 0.000000 
#    z 0.000970 0.000000 1.847350 
# 
# From -- ./inp_files/216298.got.cif
#   From: 2010.06.25/outbox.cif.g09.slc.cpg/sg12_109_cif.got.tgz:216298.got - 2010.06.28 00:19:55.
