data_PCOD8092417
_publ_section_title
;
Structure prediction by ZEFSAII (Michael W. Deem and Ramdas Pophale) SiO2 
 PCOD8092417
Probable space group: C 2/M
;
_chemical_formula_sum "Si O2"
_cell_formula_units_Z 44
_cell_length_a 24.057286
_cell_length_b 14.095031
_cell_length_c 7.862198
_cell_angle_alpha 90.000000
_cell_angle_beta 123.828359
_cell_angle_gamma 90.000000
_cell_volume 2214.652403
_symmetry_space_group_name_H-M "C 2/M"
_symmetry_group_IT_number 12
_symmetry_cell_setting 'monoclinic'
loop_
_space_group_symop_operation_xyz
x,y,z
-x,y,-z
-x,-y,-z
x,-y,z
1/2+x,1/2+y,z
1/2-x,1/2+y,-z
1/2-x,1/2-y,-z
1/2+x,1/2-y,z
loop_
_atom_site_type_symbol
_atom_site_label
_atom_site_fract_x
_atom_site_fract_y
_atom_site_fract_z
Si Si1 0.000000 0.697507 0.000000
Si Si2 0.352454 0.226935 0.248449
Si Si3 0.746546 0.892187 0.412935
Si Si4 0.043444 0.604725 0.742367
Si Si5 0.233854 0.107234 0.950026
Si Si6 0.361878 0.752400 0.646056
O O1 0.068596 0.759444 0.129791
O O2 0.999195 0.630755 0.164541
O O3 0.399808 0.182959 0.186661
O O4 0.333838 0.331572 0.147072
O O5 0.384848 0.237167 0.489112
O O6 0.288250 0.158119 0.162353
O O7 0.741461 0.888267 0.201519
O O8 0.678315 0.846337 0.366352
O O9 0.813328 0.837955 0.592139
O O10 0.751276 0.000000 0.487186
O O11 0.075361 0.500000 0.822802
O O12 0.000000 0.603594 0.500000
O O13 0.220832 0.000000 0.989795
#
# Coordination Sequence:
#
# PCOD8092417 Si02
#       6
#     4   8   8   8   8   8
#     4  12  23  40  59  84 122 156 189 234 291 350
#     4  10  19  35  54  81 116 146 187 237 284 338
#     4   9  19  37  58  81 113 151 195 239 285 342
#     4  11  23  38  56  81 113 150 188 228 280 343
#     4   9  18  33  57  82 108 147 190 235 286 338
#     4  10  21  35  56  85 115 154 191 236 290 340
#
# _framework density 19.867677
#
# number of rings (size 3 to 8) (size 9 to 14) (size 15 to 20)
#    0.000    2.000    1.818    1.909    0.000    5.818 
#    0.000    0.455    0.000    1.636    0.000    0.000 
#    0.000    0.000    0.000    0.000    0.000    0.000 
#
# Total GULP energy -272738.014982 kJ/mol
# GULP energy per Si atom -12397.182499 kJ/mol
# Density = 1.982246 g / cm^3
# Si number density = 19.867677 Si / 1000 Ang^3
#
#
#
# Elastic Constant Matrix: (Units=GPa)
#
#
# Indices 1 2 3 4 5 6 
#
# 1 76.2177 26.7239 21.8989 0.0000 9.2565 0.0000
# 2 26.7239 139.8662 29.9641 0.0000 16.4466 0.0000
# 3 21.8989 29.9641 98.9861 0.0000 18.7987 0.0000
# 4 0.0000 0.0000 0.0000 15.8426 0.0000 3.0285
# 5 9.2565 16.4466 18.7987 0.0000 30.5973 0.0000
# 6 0.0000 0.0000 0.0000 3.0285 0.0000 25.6369
#
#
#
# Elastic Compliance Matrix: (Units=1/GPa)
#
#
# Indices 1 2 3 4 5 6 
#
# 1 0.014742 -0.002105 -0.002255 0.000000 -0.001943 0.000000
# 2 -0.002105 0.008205 -0.001473 0.000000 -0.002868 0.000000
# 3 -0.002255 -0.001473 0.012190 0.000000 -0.006015 0.000000
# 4 0.000000 0.000000 0.000000 0.064579 0.000000 -0.007629
# 5 -0.001943 -0.002868 -0.006015 0.000000 0.038508 0.000000
# 6 0.000000 0.000000 0.000000 -0.007629 0.000000 0.039907
#
#
# Mechanical properties :
#
#
# Convention : Reuss Voigt Hill
#
# Bulk Modulus (GPa) = 42.60856 52.47152 47.54004
# Shear Modulus (GPa) = 25.30087 30.18091 27.74089
#
# Velocity S-wave (km/s) = 3.57244 3.90179 3.74074
# Velocity P-wave (km/s) = 6.20558 6.83860 6.52976
#
# Compressibility (1/GPa) = 0.02346946
#
# Stress axis : x y z
#
# Youngs Moduli (GPa) = 67.83168 121.87979 82.03681
#
# Poissons Ratio (x) = 0.25658 0.18501
# Poissons Ratio (y) = 0.14280 0.12086
# Poissons Ratio (z) = 0.15298 0.17956
#
# Static dielectric constant tensor:
#      x y z
#    x 3.495150 0.000000 -0.031500 
#    y 0.000000 3.766110 0.000000 
#    z -0.031500 0.000000 3.627390 
# 
# 
# High freq. dielectric constant tensor:
#      x y z
#    x 1.761670 0.000000 -0.009630 
#    y 0.000000 1.762810 0.000000 
#    z -0.009630 0.000000 1.779520 
# 
# From -- ./inp_files/96599.got.cif
#   From: 2010.06.25/outbox.cif.g09.slc.cpg/sg12_49_cif.got.tgz:96599.got - 2010.06.28 00:19:55.
