data_PCOD8092774
_publ_section_title
;
Structure prediction by ZEFSAII (Michael W. Deem and Ramdas Pophale) SiO2 
 PCOD8092774
Probable space group: C 2/M
;
_chemical_formula_sum "Si O2"
_cell_formula_units_Z 56
_cell_length_a 30.398962
_cell_length_b 8.964961
_cell_length_c 11.816567
_cell_angle_alpha 90.000000
_cell_angle_beta 119.520802
_cell_angle_gamma 90.000000
_cell_volume 2802.244400
_symmetry_space_group_name_H-M "C 2/M"
_symmetry_group_IT_number 12
_symmetry_cell_setting 'monoclinic'
loop_
_space_group_symop_operation_xyz
x,y,z
-x,y,-z
-x,-y,-z
x,-y,z
1/2+x,1/2+y,z
1/2-x,1/2+y,-z
1/2-x,1/2-y,-z
1/2+x,1/2-y,z
loop_
_atom_site_type_symbol
_atom_site_label
_atom_site_fract_x
_atom_site_fract_y
_atom_site_fract_z
Si Si1 0.837317 0.674117 0.354766
Si Si2 0.246091 0.323108 0.119138
Si Si3 0.941952 0.823757 0.909212
Si Si4 0.362732 0.165276 0.960918
Si Si5 0.505280 0.334506 0.373778
Si Si6 0.409034 0.827068 0.639645
Si Si7 0.590251 0.164524 0.747905
O O1 0.825181 0.500000 0.319587
O O2 0.788986 0.770800 0.261007
O O3 0.855350 0.703568 0.507749
O O4 0.883222 0.725155 0.331662
O O5 0.249182 0.500000 0.105820
O O6 0.194912 0.277227 0.122519
O O7 0.250000 0.250000 0.000000
O O8 0.905045 0.772721 0.962560
O O9 0.915739 0.766591 0.761639
O O10 0.943248 0.000000 0.907530
O O11 0.000000 0.763778 0.000000
O O12 0.369352 0.000000 0.914884
O O13 0.368029 0.155828 0.102415
O O14 0.500000 0.337366 0.500000
O O15 0.516087 0.500000 0.337840
O O16 0.547866 0.218972 0.393354
O O17 0.452138 0.276579 0.259084
O O18 0.414761 0.000000 0.677163
O O19 0.566792 0.000000 0.695427
#
# Coordination Sequence:
#
# PCOD8092774 Si02
#       7
#     8   8   8   8   8   8   8
#     4  10  21  38  59  89 123 157 201 249 305 367
#     4  11  22  38  62  93 128 165 206 255 308 366
#     4  11  25  44  65  91 123 158 205 260 308 362
#     4  10  22  40  62  89 120 159 207 250 298 365
#     4  11  22  33  50  83 122 155 196 245 299 363
#     4  11  23  40  63  86 119 164 206 252 306 370
#     4  10  19  35  57  83 120 158 198 246 298 365
#
# _framework density 19.983981
#
# number of rings (size 3 to 8) (size 9 to 14) (size 15 to 20)
#    0.000    1.429    2.857    2.571    0.000    7.429 
#    0.000    0.714    0.000    0.000    0.000    0.000 
#    0.000    0.000    0.000    0.000    0.000    0.000 
#
# Total GULP energy -347077.494594 kJ/mol
# GULP energy per Si atom -12395.624807 kJ/mol
# Density = 1.993850 g / cm^3
# Si number density = 19.983981 Si / 1000 Ang^3
#
#
#
# Elastic Constant Matrix: (Units=GPa)
#
#
# Indices 1 2 3 4 5 6 
#
# 1 101.1184 45.0393 44.8092 0.0000 13.9074 0.0000
# 2 45.0393 74.0478 40.1427 0.0000 7.6403 0.0000
# 3 44.8092 40.1427 110.4674 0.0000 11.2310 0.0000
# 4 0.0000 0.0000 0.0000 33.8101 0.0000 2.3864
# 5 13.9074 7.6403 11.2310 0.0000 31.0289 0.0000
# 6 0.0000 0.0000 0.0000 2.3864 0.0000 33.1802
#
#
#
# Elastic Compliance Matrix: (Units=1/GPa)
#
#
# Indices 1 2 3 4 5 6 
#
# 1 0.014909 -0.006981 -0.003121 0.000000 -0.003834 0.000000
# 2 -0.006981 0.020207 -0.004489 0.000000 -0.000222 0.000000
# 3 -0.003121 -0.004489 0.012142 0.000000 -0.001891 0.000000
# 4 0.000000 0.000000 0.000000 0.029728 0.000000 -0.002138
# 5 -0.003834 -0.000222 -0.001891 0.000000 0.034685 0.000000
# 6 0.000000 0.000000 0.000000 -0.002138 0.000000 0.030292
#
#
# Mechanical properties :
#
#
# Convention : Reuss Voigt Hill
#
# Bulk Modulus (GPa) = 55.31997 60.62400 57.97198
# Shear Modulus (GPa) = 28.22137 29.98001 29.10069
#
# Velocity S-wave (km/s) = 3.76200 3.87745 3.82016
# Velocity P-wave (km/s) = 6.82733 7.10269 6.96637
#
# Compressibility (1/GPa) = 0.01807666
#
# Stress axis : x y z
#
# Youngs Moduli (GPa) = 67.07328 49.48717 82.35956
#
# Poissons Ratio (x) = 0.34546 0.25705
# Poissons Ratio (y) = 0.46823 0.36970
# Poissons Ratio (z) = 0.20934 0.22214
#
# Static dielectric constant tensor:
#      x y z
#    x 3.558480 0.000000 0.142220 
#    y 0.000000 3.800980 0.000000 
#    z 0.142220 0.000000 3.762600 
# 
# 
# High freq. dielectric constant tensor:
#      x y z
#    x 1.764810 0.000000 0.009220 
#    y 0.000000 1.780090 0.000000 
#    z 0.009220 0.000000 1.786170 
# 
# From -- ./inp_files/187719.got.cif
#   From: 2010.06.25/outbox.cif.g09.slc.cpg/sg12_94_cif.got.tgz:187719.got - 2010.06.28 00:19:55.
