data_PCOD8092760
_publ_section_title
;
Structure prediction by ZEFSAII (Michael W. Deem and Ramdas Pophale) SiO2 
 PCOD8092760
Probable space group: C 2/M
;
_chemical_formula_sum "Si O2"
_cell_formula_units_Z 64
_cell_length_a 14.591205
_cell_length_b 14.282386
_cell_length_c 18.017958
_cell_angle_alpha 90.000000
_cell_angle_beta 117.886223
_cell_angle_gamma 90.000000
_cell_volume 3318.867230
_symmetry_space_group_name_H-M "C 2/M"
_symmetry_group_IT_number 12
_symmetry_cell_setting 'monoclinic'
loop_
_space_group_symop_operation_xyz
x,y,z
-x,y,-z
-x,-y,-z
x,-y,z
1/2+x,1/2+y,z
1/2-x,1/2+y,-z
1/2-x,1/2-y,-z
1/2+x,1/2-y,z
loop_
_atom_site_type_symbol
_atom_site_label
_atom_site_fract_x
_atom_site_fract_y
_atom_site_fract_z
Si Si1 0.452750 0.318665 0.658104
Si Si2 0.487652 0.748713 0.170310
Si Si3 0.723989 0.306944 0.918269
Si Si4 0.155459 0.109998 0.656462
Si Si5 0.716288 0.742712 0.213879
Si Si6 0.921936 0.394797 0.032196
Si Si7 0.745432 0.393206 0.351251
Si Si8 0.112730 0.745780 0.517193
O O1 0.490583 0.241576 0.733112
O O2 0.548598 0.376110 0.661039
O O3 0.375788 0.389329 0.672020
O O4 0.387698 0.264628 0.570719
O O5 0.399078 0.666152 0.127656
O O6 0.592638 0.727760 0.165989
O O7 0.434291 0.840692 0.114956
O O8 0.743311 0.239946 0.854418
O O9 0.750000 0.250000 0.000000
O O10 0.805404 0.392742 0.952254
O O11 0.250838 0.157406 0.737047
O O12 0.145697 0.158882 0.572440
O O13 0.177835 0.000000 0.654470
O O14 0.767139 0.658673 0.280930
O O15 0.952714 0.500000 0.062192
O O16 0.000000 0.352456 0.000000
O O17 0.781705 0.500000 0.357919
O O18 0.810781 0.340440 0.439257
O O19 0.000000 0.712561 0.500000
#
# Coordination Sequence:
#
# PCOD8092760 Si02
#       8
#     8   8   8   8   8   8   8   8
#     4  10  19  35  57  83 113 146 193 234 284 343
#     4  10  20  36  57  81 114 153 183 224 290 340
#     4  10  20  36  59  79 109 150 186 220 286 341
#     4  10  20  34  57  86 117 148 184 241 298 338
#     4  10  20  37  55  86 117 149 190 235 281 340
#     4  10  20  35  58  88 115 142 182 237 292 346
#     4  10  21  36  56  80 113 158 197 231 275 333
#     4   9  20  36  56  80 113 151 194 237 285 334
#
# _framework density 19.283688000000001
#
# number of rings (size 3 to 8) (size 9 to 14) (size 15 to 20)
#    0.000    2.125    2.500    0.750    0.000    4.000 
#    0.000    3.750    0.000    0.000    0.000    7.000 
#    0.000    0.000    0.000    0.000    0.000    0.000 
#
# Total GULP energy -396527.561799 kJ/mol
# GULP energy per Si atom -12391.486306 kJ/mol
# Density = 1.923980 g / cm^3
# Si number density = 19.283688 Si / 1000 Ang^3
#
#
#
# Elastic Constant Matrix: (Units=GPa)
#
#
# Indices 1 2 3 4 5 6 
#
# 1 80.4605 28.5133 40.2663 0.0000 14.9624 0.0000
# 2 28.5133 114.2904 49.9965 0.0000 0.3021 0.0000
# 3 40.2663 49.9965 135.7054 0.0000 -7.0818 0.0000
# 4 0.0000 0.0000 0.0000 14.3574 0.0000 3.5805
# 5 14.9624 0.3021 -7.0818 0.0000 36.9089 0.0000
# 6 0.0000 0.0000 0.0000 3.5805 0.0000 14.7569
#
#
#
# Elastic Compliance Matrix: (Units=1/GPa)
#
#
# Indices 1 2 3 4 5 6 
#
# 1 0.016961 -0.002185 -0.004632 0.000000 -0.007747 0.000000
# 2 -0.002185 0.010737 -0.003299 0.000000 0.000165 0.000000
# 3 -0.004632 -0.003299 0.010160 0.000000 0.003854 0.000000
# 4 0.000000 0.000000 0.000000 0.074137 0.000000 -0.017988
# 5 -0.007747 0.000165 0.003854 0.000000 0.030972 0.000000
# 6 0.000000 0.000000 0.000000 -0.017988 0.000000 0.072129
#
#
# Mechanical properties :
#
#
# Convention : Reuss Voigt Hill
#
# Bulk Modulus (GPa) = 56.73132 63.11206 59.92169
# Shear Modulus (GPa) = 20.72930 27.31664 24.02297
#
# Velocity S-wave (km/s) = 3.28222 3.76781 3.53337
# Velocity P-wave (km/s) = 6.62172 7.19221 6.91285
#
# Compressibility (1/GPa) = 0.01762695
#
# Stress axis : x y z
#
# Youngs Moduli (GPa) = 58.95724 93.13222 98.42610
#
# Poissons Ratio (x) = 0.20347 0.45592
# Poissons Ratio (y) = 0.12881 0.32471
# Poissons Ratio (z) = 0.27310 0.30725
#
# Static dielectric constant tensor:
#      x y z
#    x 3.936040 0.000000 0.282590 
#    y 0.000000 3.137820 0.000000 
#    z 0.282590 0.000000 3.935580 
# 
# 
# High freq. dielectric constant tensor:
#      x y z
#    x 1.762670 0.000000 0.008520 
#    y 0.000000 1.700030 0.000000 
#    z 0.008520 0.000000 1.769060 
# 
# From -- ./inp_files/270321.got.cif
#   From: 2010.06.25/outbox.cif.g09.slc.cpg/sg12_136_cif.got.tgz:270321.got - 2010.06.28 00:19:55.
