data_PCOD8092849
_publ_section_title
;
Structure prediction by ZEFSAII (Michael W. Deem and Ramdas Pophale) SiO2 
 PCOD8092849
Probable space group: C 2/M
;
_chemical_formula_sum "Si O2"
_cell_formula_units_Z 64
_cell_length_a 20.436514
_cell_length_b 8.943950
_cell_length_c 20.174245
_cell_angle_alpha 90.000000
_cell_angle_beta 113.782584
_cell_angle_gamma 90.000000
_cell_volume 3374.377144
_symmetry_space_group_name_H-M "C 2/M"
_symmetry_group_IT_number 12
_symmetry_cell_setting 'monoclinic'
loop_
_space_group_symop_operation_xyz
x,y,z
-x,y,-z
-x,-y,-z
x,-y,z
1/2+x,1/2+y,z
1/2-x,1/2+y,-z
1/2-x,1/2-y,-z
1/2+x,1/2-y,z
loop_
_atom_site_type_symbol
_atom_site_label
_atom_site_fract_x
_atom_site_fract_y
_atom_site_fract_z
Si Si1 0.083893 0.322168 0.202568
Si Si2 0.913987 0.676885 0.569019
Si Si3 0.577311 0.821803 0.052340
Si Si4 0.326210 0.823744 0.027072
Si Si5 0.688898 0.177311 0.356810
Si Si6 0.849856 0.174070 0.418542
Si Si7 0.559611 0.326013 0.672624
Si Si8 0.570852 0.823541 0.811691
O O1 0.084746 0.500000 0.203010
O O2 0.097637 0.261840 0.133826
O O3 0.145273 0.257499 0.276018
O O4 0.006995 0.267635 0.196888
O O5 0.920316 0.500000 0.568460
O O6 0.849794 0.727948 0.591355
O O7 0.899807 0.739825 0.490472
O O8 0.987734 0.738692 0.626697
O O9 0.574300 0.000000 0.050464
O O10 0.500000 0.758257 0.000000
O O11 0.635456 0.763170 0.023696
O O12 0.372501 0.776925 0.109482
O O13 0.317110 0.000000 0.019992
O O14 0.250000 0.750000 0.000000
O O15 0.769477 0.240384 0.388785
O O16 0.690622 0.000000 0.351853
O O17 0.880526 0.202913 0.358300
O O18 0.851240 0.000000 0.438029
O O19 0.541377 0.500000 0.671584
O O20 0.592576 0.263348 0.754024
O O21 0.571317 0.000000 0.798322
#
# Coordination Sequence:
#
# PCOD8092849 Si02
#       8
#     8   8   8   8   8   8   8   8
#     4   9  15  28  54  82 106 133 180 236 272 307
#     4  11  21  36  60  84 107 142 186 227 271 326
#     4   9  15  27  52  83 107 135 183 232 267 308
#     4  10  21  35  55  85 117 148 181 224 276 328
#     4   9  18  33  54  80 107 140 181 226 274 320
#     4  10  22  38  54  78 113 145 179 227 280 327
#     4  11  23  37  56  82 113 147 182 223 274 330
#     4  10  19  35  58  81 109 145 185 229 273 320
#
# _framework density 18.966463000000001
#
# number of rings (size 3 to 8) (size 9 to 14) (size 15 to 20)
#    0.000    2.125    2.500    1.500    0.000    4.000 
#    0.000    3.125    0.000    1.125    0.000    0.000 
#    0.000    0.000    0.000    0.000    0.000    0.000 
#
# Total GULP energy -396840.308218 kJ/mol
# GULP energy per Si atom -12401.259632 kJ/mol
# Density = 1.892329 g / cm^3
# Si number density = 18.966463 Si / 1000 Ang^3
#
#
#
# Elastic Constant Matrix: (Units=GPa)
#
#
# Indices 1 2 3 4 5 6 
#
# 1 117.0888 33.1490 45.5915 0.0000 -8.5255 0.0000
# 2 33.1490 38.6673 34.2476 0.0000 -7.9120 0.0000
# 3 45.5915 34.2476 131.2133 0.0000 -17.5989 0.0000
# 4 0.0000 0.0000 0.0000 21.1824 0.0000 2.1294
# 5 -8.5255 -7.9120 -17.5989 0.0000 35.2934 0.0000
# 6 0.0000 0.0000 0.0000 2.1294 0.0000 24.0790
#
#
#
# Elastic Compliance Matrix: (Units=1/GPa)
#
#
# Indices 1 2 3 4 5 6 
#
# 1 0.011620 -0.008304 -0.001868 0.000000 0.000014 0.000000
# 2 -0.008304 0.039955 -0.007085 0.000000 0.003418 0.000000
# 3 -0.001868 -0.007085 0.010552 0.000000 0.003222 0.000000
# 4 0.000000 0.000000 0.000000 0.047632 0.000000 -0.004212
# 5 0.000014 0.003418 0.003222 0.000000 0.030710 0.000000
# 6 0.000000 0.000000 0.000000 -0.004212 0.000000 0.041902
#
#
# Mechanical properties :
#
#
# Convention : Reuss Voigt Hill
#
# Bulk Modulus (GPa) = 36.21546 56.99396 46.60471
# Shear Modulus (GPa) = 22.11510 27.70972 24.91241
#
# Velocity S-wave (km/s) = 3.41839 3.82643 3.62815
# Velocity P-wave (km/s) = 5.89207 7.04537 6.49437
#
# Compressibility (1/GPa) = 0.02761252
#
# Stress axis : x y z
#
# Youngs Moduli (GPa) = 86.05898 25.02812 94.77230
#
# Poissons Ratio (x) = 0.20784 0.17705
# Poissons Ratio (y) = 0.71465 0.67143
# Poissons Ratio (z) = 0.16077 0.17732
#
# Static dielectric constant tensor:
#      x y z
#    x 3.687740 0.000000 -0.122550 
#    y 0.000000 3.061630 0.000000 
#    z -0.122550 0.000000 3.819960 
# 
# 
# High freq. dielectric constant tensor:
#      x y z
#    x 1.743900 0.000000 -0.005740 
#    y 0.000000 1.693780 0.000000 
#    z -0.005740 0.000000 1.753470 
# 
# From -- ./inp_files/320002.got.cif
#   From: 2010.06.25/outbox.cif.g09.slc.cpg/sg12_161_cif.got.tgz:320002.got - 2010.06.28 00:19:55.
