data_PCOD8092798
_publ_section_title
;
Structure prediction by ZEFSAII (Michael W. Deem and Ramdas Pophale) SiO2 
 PCOD8092798
Probable space group: C 2/M
;
_chemical_formula_sum "Si O2"
_cell_formula_units_Z 64
_cell_length_a 15.426152
_cell_length_b 8.875104
_cell_length_c 33.187250
_cell_angle_alpha 90.000000
_cell_angle_beta 46.003019
_cell_angle_gamma 90.000000
_cell_volume 3268.575427
_symmetry_space_group_name_H-M "C 2/M"
_symmetry_group_IT_number 12
_symmetry_cell_setting 'monoclinic'
loop_
_space_group_symop_operation_xyz
x,y,z
-x,y,-z
-x,-y,-z
x,-y,z
1/2+x,1/2+y,z
1/2-x,1/2+y,-z
1/2-x,1/2-y,-z
1/2+x,1/2-y,z
loop_
_atom_site_type_symbol
_atom_site_label
_atom_site_fract_x
_atom_site_fract_y
_atom_site_fract_z
Si Si1 0.874051 0.677354 0.061427
Si Si2 0.195881 0.320992 0.057460
Si Si3 0.560222 0.178027 0.438975
Si Si4 0.629784 0.672898 0.554243
Si Si5 0.471722 0.327243 0.327219
Si Si6 0.709809 0.822388 0.666354
Si Si7 0.262291 0.320821 0.738739
Si Si8 0.923086 0.321236 0.135608
O O1 0.848143 0.500000 0.067098
O O2 0.765067 0.763005 0.074658
O O3 0.882904 0.736458 0.104462
O O4 0.000000 0.718319 0.000000
O O5 0.206842 0.500000 0.051127
O O6 0.056911 0.267850 0.104556
O O7 0.250000 0.250000 0.000000
O O8 0.500000 0.229839 0.500000
O O9 0.486417 0.246542 0.426067
O O10 0.694331 0.242524 0.393833
O O11 0.563314 0.000000 0.434043
O O12 0.631391 0.500000 0.539897
O O13 0.750000 0.750000 0.500000
O O14 0.618543 0.686698 0.605818
O O15 0.480347 0.500000 0.310104
O O16 0.421448 0.225769 0.307104
O O17 0.603581 0.262974 0.295055
O O18 0.723492 0.761633 0.707381
O O19 0.727888 0.000000 0.657973
O O20 0.259389 0.500000 0.739736
O O21 0.169968 0.254722 0.801588
O O22 0.919346 0.500000 0.136404
#
# Coordination Sequence:
#
# PCOD8092798 Si02
#       8
#     8   8   8   8   8   8   8   8
#     4  10  19  35  57  85 117 154 196 237 286 346
#     4  11  21  35  57  87 119 156 196 241 293 345
#     4  11  23  38  57  84 117 152 191 240 294 349
#     4  11  22  37  57  85 117 151 190 238 293 352
#     4  10  21  39  60  83 114 151 191 235 287 343
#     4  11  22  38  61  88 115 151 195 240 290 347
#     4   9  19  39  61  82 114 157 197 235 286 348
#     4   9  19  36  59  83 115 158 196 233 288 351
#
# _framework density 19.580396
#
# number of rings (size 3 to 8) (size 9 to 14) (size 15 to 20)
#    0.000    1.750    2.500    2.250    0.000    6.250 
#    0.000    0.000    0.000    5.250    0.000    0.000 
#    0.000    0.000    0.000    0.000    0.000    0.000 
#
# Total GULP energy -396882.265002 kJ/mol
# GULP energy per Si atom -12402.570781 kJ/mol
# Density = 1.953583 g / cm^3
# Si number density = 19.580396 Si / 1000 Ang^3
#
#
#
# Elastic Constant Matrix: (Units=GPa)
#
#
# Indices 1 2 3 4 5 6 
#
# 1 170.4179 41.9904 70.3245 0.0001 4.0972 0.0010
# 2 41.9904 55.8110 38.3551 0.0002 3.2048 0.0000
# 3 70.3245 38.3551 143.9883 0.0003 -1.3680 0.0009
# 4 0.0001 0.0002 0.0003 14.0948 0.0002 -0.6342
# 5 4.0972 3.2048 -1.3680 0.0002 31.4836 0.0006
# 6 0.0010 0.0000 0.0009 -0.6342 0.0006 38.4122
#
#
#
# Elastic Compliance Matrix: (Units=1/GPa)
#
#
# Indices 1 2 3 4 5 6 
#
# 1 0.008069 -0.004056 -0.002868 0.000000 -0.000762 0.000000
# 2 -0.004056 0.024168 -0.004477 0.000000 -0.002127 0.000000
# 3 -0.002868 -0.004477 0.009550 0.000000 0.001244 0.000000
# 4 0.000000 0.000000 0.000000 0.071001 -0.000001 0.001172
# 5 -0.000762 -0.002127 0.001244 -0.000001 0.032132 -0.000001
# 6 0.000000 0.000000 0.000000 0.001172 -0.000001 0.026053
#
#
# Mechanical properties :
#
#
# Convention : Reuss Voigt Hill
#
# Bulk Modulus (GPa) = 52.67214 74.61746 63.64480
# Shear Modulus (GPa) = 24.98703 31.43460 28.21081
#
# Velocity S-wave (km/s) = 3.57616 4.01111 3.79986
# Velocity P-wave (km/s) = 6.63406 7.72288 7.19909
#
# Compressibility (1/GPa) = 0.01898537
#
# Stress axis : x y z
#
# Youngs Moduli (GPa) = 123.92935 41.37644 104.71256
#
# Poissons Ratio (x) = 0.16784 0.30028
# Poissons Ratio (y) = 0.50271 0.46879
# Poissons Ratio (z) = 0.35539 0.18524
#
# Static dielectric constant tensor:
#      x y z
#    x 3.803090 0.000000 0.009400 
#    y 0.000000 3.326510 0.000000 
#    z 0.009400 0.000000 3.713090 
# 
# 
# High freq. dielectric constant tensor:
#      x y z
#    x 1.779670 0.000000 0.000240 
#    y 0.000000 1.739160 0.000000 
#    z 0.000240 0.000000 1.761870 
# 
# From -- ./inp_files/375513.got.cif
#   From: 2010.06.25/outbox.cif.g09.slc.cpg/sg12_188_cif.got.tgz:375513.got - 2010.06.28 00:19:55.
