data_PCOD8092970
_publ_section_title
;
Structure prediction by ZEFSAII (Michael W. Deem and Ramdas Pophale) SiO2 
 PCOD8092970
Probable space group: C 2/M
;
_chemical_formula_sum "Si O2"
_cell_formula_units_Z 64
_cell_length_a 14.278212
_cell_length_b 16.252885
_cell_length_c 15.323515
_cell_angle_alpha 90.000000
_cell_angle_beta 120.624265
_cell_angle_gamma 90.000000
_cell_volume 3060.038348
_symmetry_space_group_name_H-M "C 2/M"
_symmetry_group_IT_number 12
_symmetry_cell_setting 'monoclinic'
loop_
_space_group_symop_operation_xyz
x,y,z
-x,y,-z
-x,-y,-z
x,-y,z
1/2+x,1/2+y,z
1/2-x,1/2+y,-z
1/2-x,1/2-y,-z
1/2+x,1/2-y,z
loop_
_atom_site_type_symbol
_atom_site_label
_atom_site_fract_x
_atom_site_fract_y
_atom_site_fract_z
Si Si1 0.571291 0.242444 0.608658
Si Si2 0.288767 0.407525 0.059266
Si Si3 0.761342 0.092248 0.845416
Si Si4 0.605246 0.091128 0.214371
Si Si5 0.480595 0.089320 0.326009
Si Si6 0.689477 0.267253 0.261544
Si Si7 0.960987 0.801256 0.214884
Si Si8 0.071694 0.677646 0.956238
O O1 0.500000 0.289170 0.500000
O O2 0.509272 0.155599 0.592592
O O3 0.694804 0.227743 0.633903
O O4 0.577941 0.287360 0.704743
O O5 0.259340 0.500000 0.071664
O O6 0.403932 0.386115 0.159626
O O7 0.303025 0.397232 0.963001
O O8 0.190784 0.348927 0.046866
O O9 0.631469 0.102784 0.780396
O O10 0.816636 0.167071 0.819960
O O11 0.793628 0.000000 0.826104
O O12 0.578733 0.099647 0.304500
O O13 0.677128 0.171706 0.223806
O O14 0.494563 0.095863 0.105167
O O15 0.658989 0.000000 0.222889
O O16 0.484513 0.000000 0.372308
O O17 0.592255 0.297753 0.278674
O O18 0.917296 0.735980 0.122941
O O19 0.000000 0.720068 0.000000
#
# Coordination Sequence:
#
# PCOD8092970 Si02
#       8
#     8   8   8   8   8   8   8   8
#     4  11  23  43  67  90 114 156 210 261 323 380
#     4  11  23  38  59  88 130 171 209 249 295 363
#     4   9  18  35  61  90 124 168 207 246 298 363
#     4  10  19  35  58  87 128 163 204 250 299 351
#     4   9  16  35  62  91 122 149 191 262 316 355
#     4  10  22  39  62  92 122 164 201 253 322 368
#     4  11  25  40  58  91 128 162 205 256 305 371
#     4  11  22  35  61  91 125 169 211 247 297 353
#
# _framework density 20.914770999999998
#
# number of rings (size 3 to 8) (size 9 to 14) (size 15 to 20)
#    0.000    1.750    3.750    1.500    7.000    2.250 
#    0.000    1.250    0.000    1.500    0.000    0.000 
#    0.000    0.000    0.000    0.000    0.000    0.000 
#
# Total GULP energy -396422.968815 kJ/mol
# GULP energy per Si atom -12388.217775 kJ/mol
# Density = 2.086717 g / cm^3
# Si number density = 20.914771 Si / 1000 Ang^3
#
#
#
# Elastic Constant Matrix: (Units=GPa)
#
#
# Indices 1 2 3 4 5 6 
#
# 1 81.9770 29.5926 33.7370 0.0000 12.2043 0.0000
# 2 29.5926 113.5921 23.0493 0.0000 -5.7431 0.0000
# 3 33.7370 23.0493 93.8954 0.0000 4.1800 0.0000
# 4 0.0000 0.0000 0.0000 14.1642 0.0000 2.7179
# 5 12.2043 -5.7431 4.1800 0.0000 23.5463 0.0000
# 6 0.0000 0.0000 0.0000 2.7179 0.0000 27.6158
#
#
#
# Elastic Compliance Matrix: (Units=1/GPa)
#
#
# Indices 1 2 3 4 5 6 
#
# 1 0.016855 -0.003883 -0.004709 0.000000 -0.008847 0.000000
# 2 -0.003883 0.010331 -0.001353 0.000000 0.004773 0.000000
# 3 -0.004709 -0.001353 0.012681 0.000000 -0.000140 0.000000
# 4 0.000000 0.000000 0.000000 0.071960 0.000000 -0.007082
# 5 -0.008847 0.004773 -0.000140 0.000000 0.048244 0.000000
# 6 0.000000 0.000000 0.000000 -0.007082 0.000000 0.036908
#
#
# Mechanical properties :
#
#
# Convention : Reuss Voigt Hill
#
# Bulk Modulus (GPa) = 50.05975 51.35805 50.70890
# Shear Modulus (GPa) = 22.36852 26.60430 24.48641
#
# Velocity S-wave (km/s) = 3.27388 3.57043 3.42537
# Velocity P-wave (km/s) = 6.18693 6.45031 6.31999
#
# Compressibility (1/GPa) = 0.01997613
#
# Stress axis : x y z
#
# Youngs Moduli (GPa) = 59.32811 96.79704 78.86036
#
# Poissons Ratio (x) = 0.37585 0.37137
# Poissons Ratio (y) = 0.23036 0.10673
# Poissons Ratio (z) = 0.27939 0.13100
#
# Static dielectric constant tensor:
#      x y z
#    x 3.782500 0.000000 0.023640 
#    y 0.000000 3.976690 0.000000 
#    z 0.023640 0.000000 3.387990 
# 
# 
# High freq. dielectric constant tensor:
#      x y z
#    x 1.811810 0.000000 -0.004660 
#    y 0.000000 1.814420 0.000000 
#    z -0.004660 0.000000 1.782360 
# 
# From -- ./inp_files/216831.got.cif
#   From: 2010.06.25/outbox.cif.g09.slc.cpg/sg12_109_cif.got.tgz:216831.got - 2010.06.28 00:19:55.
