data_PCOD8092894
_publ_section_title
;
Structure prediction by ZEFSAII (Michael W. Deem and Ramdas Pophale) SiO2 
 PCOD8092894
Probable space group: C 2/M
;
_chemical_formula_sum "Si O2"
_cell_formula_units_Z 56
_cell_length_a 19.006782
_cell_length_b 9.098043
_cell_length_c 19.427147
_cell_angle_alpha 90.000000
_cell_angle_beta 115.573442
_cell_angle_gamma 90.000000
_cell_volume 3030.315815
_symmetry_space_group_name_H-M "C 2/M"
_symmetry_group_IT_number 12
_symmetry_cell_setting 'monoclinic'
loop_
_space_group_symop_operation_xyz
x,y,z
-x,y,-z
-x,-y,-z
x,-y,z
1/2+x,1/2+y,z
1/2-x,1/2+y,-z
1/2-x,1/2-y,-z
1/2+x,1/2-y,z
loop_
_atom_site_type_symbol
_atom_site_label
_atom_site_fract_x
_atom_site_fract_y
_atom_site_fract_z
Si Si1 0.843185 0.841950 0.690478
Si Si2 0.631457 0.325727 0.745091
Si Si3 0.947241 0.329699 0.911684
Si Si4 0.576221 0.325335 0.571926
Si Si5 0.728879 0.670210 0.559853
Si Si6 0.795022 0.836300 0.825759
Si Si7 0.007429 0.168495 0.804880
O O1 0.798585 0.703075 0.641515
O O2 0.824297 0.853915 0.761625
O O3 0.935177 0.815024 0.721516
O O4 0.821073 0.000000 0.645734
O O5 0.644239 0.500000 0.745238
O O6 0.588956 0.270021 0.656268
O O7 0.714151 0.250266 0.792715
O O8 0.581131 0.281084 0.790587
O O9 0.930098 0.500000 0.890043
O O10 0.864435 0.251422 0.893224
O O11 0.995478 0.267778 0.866968
O O12 0.000000 0.304419 0.000000
O O13 0.500000 0.261223 0.500000
O O14 0.571960 0.500000 0.570843
O O15 0.648911 0.268128 0.557693
O O16 0.722393 0.500000 0.542890
O O17 0.750000 0.750000 0.500000
O O18 0.784382 0.000000 0.853790
O O19 0.016316 0.000000 0.833263
#
# Coordination Sequence:
#
# PCOD8092894 Si02
#       7
#     8   8   8   8   8   8   8
#     4   9  18  34  53  75 104 138 180 226 272 325
#     4  10  19  35  58  83 113 147 190 232 275 336
#     4  10  21  38  61  87 115 146 184 229 273 328
#     4   9  19  34  54  77 104 144 188 230 278 329
#     4  11  22  34  52  75 102 138 183 232 282 332
#     4  10  20  35  58  84 112 146 183 226 276 330
#     4   9  20  35  57  86 114 147 183 227 277 330
#
# _framework density 18.479921000000001
#
# number of rings (size 3 to 8) (size 9 to 14) (size 15 to 20)
#    0.000    2.286    1.429    2.143    2.000    4.000 
#    0.000    0.714    0.000    2.143    0.000    0.000 
#    0.000    0.000    0.000    0.000    0.000    0.000 
#
# Total GULP energy -347020.115231 kJ/mol
# GULP energy per Si atom -12393.575544 kJ/mol
# Density = 1.843786 g / cm^3
# Si number density = 18.479921 Si / 1000 Ang^3
#
#
#
# Elastic Constant Matrix: (Units=GPa)
#
#
# Indices 1 2 3 4 5 6 
#
# 1 121.5091 46.8007 54.8102 0.0000 14.7369 0.0000
# 2 46.8007 74.9070 46.5337 0.0000 7.5503 0.0000
# 3 54.8102 46.5337 100.6402 0.0000 13.1966 0.0000
# 4 0.0000 0.0000 0.0000 26.1955 0.0000 3.2359
# 5 14.7369 7.5503 13.1966 0.0000 25.2476 0.0000
# 6 0.0000 0.0000 0.0000 3.2359 0.0000 24.8740
#
#
#
# Elastic Compliance Matrix: (Units=1/GPa)
#
#
# Indices 1 2 3 4 5 6 
#
# 1 0.012351 -0.004864 -0.003997 0.000000 -0.003665 0.000000
# 2 -0.004864 0.020677 -0.006949 0.000000 0.000288 0.000000
# 3 -0.003997 -0.006949 0.015833 0.000000 -0.003865 0.000000
# 4 0.000000 0.000000 0.000000 0.038798 0.000000 -0.005047
# 5 -0.003665 0.000288 -0.003865 0.000000 0.043681 0.000000
# 6 0.000000 0.000000 0.000000 -0.005047 0.000000 0.040859
#
#
# Mechanical properties :
#
#
# Convention : Reuss Voigt Hill
#
# Bulk Modulus (GPa) = 58.00315 65.92728 61.96521
# Shear Modulus (GPa) = 23.85886 25.19087 24.52487
#
# Velocity S-wave (km/s) = 3.59704 3.69609 3.64690
# Velocity P-wave (km/s) = 6.97903 7.34624 7.16499
#
# Compressibility (1/GPa) = 0.01724044
#
# Stress axis : x y z
#
# Youngs Moduli (GPa) = 80.96698 48.36308 63.15969
#
# Poissons Ratio (x) = 0.23525 0.25242
# Poissons Ratio (y) = 0.39385 0.43890
# Poissons Ratio (z) = 0.32359 0.33608
#
# Static dielectric constant tensor:
#      x y z
#    x 3.587730 0.000000 0.096070 
#    y 0.000000 3.356900 0.000000 
#    z 0.096070 0.000000 3.204110 
# 
# 
# High freq. dielectric constant tensor:
#      x y z
#    x 1.722180 0.000000 0.008810 
#    y 0.000000 1.706160 0.000000 
#    z 0.008810 0.000000 1.707320 
# 
# From -- ./inp_files/313782.got.cif
#   From: 2010.06.25/outbox.cif.g09.slc.cpg/sg12_157_cif.got.tgz:313782.got - 2010.06.28 00:19:55.
