data_PCOD8092773
_publ_section_title
;
Structure prediction by ZEFSAII (Michael W. Deem and Ramdas Pophale) SiO2 
 PCOD8092773
Probable space group: C 2/M
;
_chemical_formula_sum "Si O2"
_cell_formula_units_Z 64
_cell_length_a 23.900280
_cell_length_b 8.947854
_cell_length_c 28.971865
_cell_angle_alpha 90.000000
_cell_angle_beta 149.598866
_cell_angle_gamma 90.000000
_cell_volume 3135.396554
_symmetry_space_group_name_H-M "C 2/M"
_symmetry_group_IT_number 12
_symmetry_cell_setting 'monoclinic'
loop_
_space_group_symop_operation_xyz
x,y,z
-x,y,-z
-x,-y,-z
x,-y,z
1/2+x,1/2+y,z
1/2-x,1/2+y,-z
1/2-x,1/2-y,-z
1/2+x,1/2-y,z
loop_
_atom_site_type_symbol
_atom_site_label
_atom_site_fract_x
_atom_site_fract_y
_atom_site_fract_z
Si Si1 0.364780 0.677351 0.021479
Si Si2 0.932602 0.176550 0.326208
Si Si3 0.720543 0.823302 0.713795
Si Si4 0.453560 0.321855 0.918401
Si Si5 0.685951 0.675942 0.496939
Si Si6 0.223612 0.829859 0.349529
Si Si7 0.027475 0.829858 0.810903
Si Si8 0.141531 0.676041 0.816083
O O1 0.368340 0.500000 0.020888
O O2 0.248473 0.736267 0.919640
O O3 0.463777 0.743473 0.061157
O O4 0.384053 0.727317 0.088052
O O5 0.887470 0.242692 0.342248
O O6 0.857664 0.245354 0.232612
O O7 0.058403 0.226934 0.406617
O O8 0.921093 0.000000 0.319040
O O9 0.829680 0.765515 0.818758
O O10 0.726006 0.779692 0.663654
O O11 0.707606 0.000000 0.710232
O O12 0.453273 0.500000 0.917968
O O13 0.500000 0.260634 0.000000
O O14 0.697089 0.500000 0.498612
O O15 0.750000 0.750000 0.500000
O O16 0.736079 0.721934 0.581558
O O17 0.092150 0.816523 0.251402
O O18 0.257895 0.000000 0.385827
O O19 0.036224 0.726455 0.771734
O O20 0.051099 0.000000 0.812433
O O21 0.141088 0.500000 0.807891
#
# Coordination Sequence:
#
# PCOD8092773 Si02
#       8
#     8   8   8   8   8   8   8   8
#     4   9  17  31  52  82 117 154 195 238 287 344
#     4  11  25  43  60  83 118 156 191 237 300 356
#     4  10  20  37  62  91 118 152 200 245 286 342
#     4   9  15  27  52  83 114 152 199 243 279 327
#     4  11  25  44  66  90 117 153 196 241 297 358
#     4  10  21  38  63  92 121 154 195 244 297 349
#     4  10  19  35  57  83 120 158 191 235 295 353
#     4  11  22  35  56  86 116 153 201 246 289 343
#
# _framework density 20.412089999999999
#
# number of rings (size 3 to 8) (size 9 to 14) (size 15 to 20)
#    0.000    1.875    1.250    3.000    0.000    8.500 
#    0.000    3.125    0.000    4.125    0.000    0.000 
#    0.000    0.000    0.000    0.000    0.000    0.000 
#
# Total GULP energy -396825.038495 kJ/mol
# GULP energy per Si atom -12400.782453 kJ/mol
# Density = 2.036563 g / cm^3
# Si number density = 20.412090 Si / 1000 Ang^3
#
#
#
# Elastic Constant Matrix: (Units=GPa)
#
#
# Indices 1 2 3 4 5 6 
#
# 1 155.8538 45.2284 49.8653 0.0000 2.3449 0.0000
# 2 45.2284 49.3555 36.2673 0.0000 2.9469 0.0001
# 3 49.8653 36.2673 96.0810 -0.0003 -7.6519 -0.0002
# 4 0.0000 0.0000 -0.0003 26.7707 -0.0001 -2.4625
# 5 2.3449 2.9469 -7.6519 -0.0001 34.7543 0.0000
# 6 0.0000 0.0001 -0.0002 -2.4625 0.0000 31.8768
#
#
#
# Elastic Compliance Matrix: (Units=1/GPa)
#
#
# Indices 1 2 3 4 5 6 
#
# 1 0.009066 -0.006623 -0.002249 0.000000 -0.000545 0.000000
# 2 -0.006623 0.033683 -0.009638 0.000000 -0.004531 0.000000
# 3 -0.002249 -0.009638 0.015563 0.000000 0.004395 0.000000
# 4 0.000000 0.000000 0.000000 0.037622 0.000000 0.002906
# 5 -0.000545 -0.004531 0.004395 0.000000 0.030162 0.000000
# 6 0.000000 0.000000 0.000000 0.002906 0.000000 0.031595
#
#
# Mechanical properties :
#
#
# Convention : Reuss Voigt Hill
#
# Bulk Modulus (GPa) = 46.96371 62.66802 54.81587
# Shear Modulus (GPa) = 24.77618 30.00897 27.39258
#
# Velocity S-wave (km/s) = 3.48774 3.83842 3.66728
# Velocity P-wave (km/s) = 6.26713 7.10019 6.69663
#
# Compressibility (1/GPa) = 0.02129303
#
# Stress axis : x y z
#
# Youngs Moduli (GPa) = 110.30381 29.68874 64.25562
#
# Poissons Ratio (x) = 0.19663 0.14449
# Poissons Ratio (y) = 0.73053 0.61928
# Poissons Ratio (z) = 0.24803 0.28613
#
# Static dielectric constant tensor:
#      x y z
#    x 3.815170 0.000000 0.024860 
#    y 0.000000 3.337370 0.000000 
#    z 0.024860 0.000000 3.831410 
# 
# 
# High freq. dielectric constant tensor:
#      x y z
#    x 1.815550 0.000000 -0.001830 
#    y 0.000000 1.762410 0.000000 
#    z -0.001830 0.000000 1.800860 
# 
# From -- ./inp_files/382431.got.cif
#   From: 2010.06.25/outbox.cif.g09.slc.cpg/sg12_192_cif.got.tgz:382431.got - 2010.06.28 00:19:55.
