data_PCOD8092120
_publ_section_title
;
Structure prediction by ZEFSAII (Michael W. Deem and Ramdas Pophale) SiO2 
 PCOD8092120
Probable space group: C 2/M
;
_chemical_formula_sum "Si O2"
_cell_formula_units_Z 56
_cell_length_a 22.291007
_cell_length_b 15.755314
_cell_length_c 8.717784
_cell_angle_alpha 90.000000
_cell_angle_beta 61.258263
_cell_angle_gamma 90.000000
_cell_volume 2684.488028
_symmetry_space_group_name_H-M "C 2/M"
_symmetry_group_IT_number 12
_symmetry_cell_setting 'monoclinic'
loop_
_space_group_symop_operation_xyz
x,y,z
-x,y,-z
-x,-y,-z
x,-y,z
1/2+x,1/2+y,z
1/2-x,1/2+y,-z
1/2-x,1/2-y,-z
1/2+x,1/2-y,z
loop_
_atom_site_type_symbol
_atom_site_label
_atom_site_fract_x
_atom_site_fract_y
_atom_site_fract_z
Si Si1 0.886973 0.775291 0.374794
Si Si2 0.609841 0.907771 0.059825
Si Si3 0.199625 0.092177 0.664095
Si Si4 0.662844 0.097831 0.663735
Si Si5 0.027807 0.734373 0.298687
Si Si6 0.234412 0.370060 0.103355
Si Si7 0.165644 0.196252 0.237501
O O1 0.855438 0.830247 0.272991
O O2 0.873014 0.673382 0.390606
O O3 0.853747 0.821417 0.563416
O O4 0.969109 0.786245 0.279980
O O5 0.545839 0.848558 0.177678
O O6 0.664785 0.912837 0.129877
O O7 0.577095 0.000000 0.076584
O O8 0.647944 0.878540 0.858193
O O9 0.256364 0.106963 0.462538
O O10 0.237688 0.084947 0.779885
O O11 0.164021 0.000000 0.680707
O O12 0.639049 0.000000 0.651623
O O13 0.096089 0.790083 0.226377
O O14 0.000000 0.706825 0.500000
O O15 0.217851 0.274323 0.169737
O O16 0.292836 0.378638 0.898679
#
# Coordination Sequence:
#
# PCOD8092120 Si02
#       7
#     8   8   8   8   8   8   8
#     4  11  21  38  60  83 122 162 197 239 295 353
#     4  10  21  37  57  86 121 155 194 240 297 359
#     4  11  23  37  59  91 122 154 197 248 304 349
#     4  10  22  37  57  90 124 155 194 244 300 355
#     4   9  21  38  56  84 113 158 204 239 284 355
#     4  10  19  34  59  85 115 148 195 249 296 344
#     4   9  19  35  59  85 109 151 201 240 292 354
#
# _framework density 20.860588
#
# number of rings (size 3 to 8) (size 9 to 14) (size 15 to 20)
#    0.000    2.000    1.429    1.714    6.000    1.429 
#    0.000    2.143    0.000    6.429    0.000    0.000 
#    0.000    0.000    0.000    0.000    0.000    0.000 
#
# Total GULP energy -346985.635784 kJ/mol
# GULP energy per Si atom -12392.344135 kJ/mol
# Density = 2.081311 g / cm^3
# Si number density = 20.860588 Si / 1000 Ang^3
#
#
#
# Elastic Constant Matrix: (Units=GPa)
#
#
# Indices 1 2 3 4 5 6 
#
# 1 93.5468 31.5414 27.7524 0.0000 -7.7382 0.0000
# 2 31.5414 75.6662 17.4897 0.0000 -8.8140 0.0000
# 3 27.7524 17.4897 94.0719 0.0000 -6.3799 0.0000
# 4 0.0000 0.0000 0.0000 19.3053 0.0000 -1.0746
# 5 -7.7382 -8.8140 -6.3799 0.0000 24.1850 0.0000
# 6 0.0000 0.0000 0.0000 -1.0746 0.0000 13.8018
#
#
#
# Elastic Compliance Matrix: (Units=1/GPa)
#
#
# Indices 1 2 3 4 5 6 
#
# 1 0.013274 -0.004648 -0.002931 0.000000 0.001780 0.000000
# 2 -0.004648 0.015921 -0.001320 0.000000 0.003967 0.000000
# 3 -0.002931 -0.001320 0.011856 0.000000 0.001709 0.000000
# 4 0.000000 0.000000 0.000000 0.052025 0.000000 0.004051
# 5 0.001780 0.003967 0.001709 0.000000 0.043814 0.000000
# 6 0.000000 0.000000 0.000000 0.004051 0.000000 0.072770
#
#
# Mechanical properties :
#
#
# Convention : Reuss Voigt Hill
#
# Bulk Modulus (GPa) = 43.00585 46.31687 44.66136
# Shear Modulus (GPa) = 21.25776 23.89184 22.57480
#
# Velocity S-wave (km/s) = 3.19570 3.38791 3.29321
# Velocity P-wave (km/s) = 5.85468 6.12823 5.99302
#
# Compressibility (1/GPa) = 0.02325265
#
# Stress axis : x y z
#
# Youngs Moduli (GPa) = 75.33560 62.81125 84.34486
#
# Poissons Ratio (x) = 0.29197 0.24722
# Poissons Ratio (y) = 0.35019 0.11130
# Poissons Ratio (z) = 0.22081 0.08288
#
# Static dielectric constant tensor:
#      x y z
#    x 3.593400 0.000000 -0.038540 
#    y 0.000000 3.627320 0.000000 
#    z -0.038540 0.000000 3.919130 
# 
# 
# High freq. dielectric constant tensor:
#      x y z
#    x 1.804480 0.000000 0.003320 
#    y 0.000000 1.791690 0.000000 
#    z 0.003320 0.000000 1.820600 
# 
# From -- ./inp_files/87844.got.cif
#   From: 2010.06.25/outbox.cif.g09.slc.cpg/sg12_44_cif.got.tgz:87844.got - 2010.06.28 00:19:55.
