data_PCOD8092182
_publ_section_title
;
Structure prediction by ZEFSAII (Michael W. Deem and Ramdas Pophale) SiO2 
 PCOD8092182
Probable space group: C 2/M
;
_chemical_formula_sum "Si O2"
_cell_formula_units_Z 56
_cell_length_a 27.294950
_cell_length_b 9.078973
_cell_length_c 12.502460
_cell_angle_alpha 90.000000
_cell_angle_beta 112.909445
_cell_angle_gamma 90.000000
_cell_volume 2853.851045
_symmetry_space_group_name_H-M "C 2/M"
_symmetry_group_IT_number 12
_symmetry_cell_setting 'monoclinic'
loop_
_space_group_symop_operation_xyz
x,y,z
-x,y,-z
-x,-y,-z
x,-y,z
1/2+x,1/2+y,z
1/2-x,1/2+y,-z
1/2-x,1/2-y,-z
1/2+x,1/2-y,z
loop_
_atom_site_type_symbol
_atom_site_label
_atom_site_fract_x
_atom_site_fract_y
_atom_site_fract_z
Si Si1 0.161007 0.666952 0.665497
Si Si2 0.604134 0.674731 0.250041
Si Si3 0.987274 0.169592 0.199626
Si Si4 0.386519 0.329667 0.982063
Si Si5 0.457807 0.167925 0.382396
Si Si6 0.694704 0.826361 0.931618
Si Si7 0.196022 0.825492 0.489208
O O1 0.179634 0.500000 0.655396
O O2 0.097935 0.680100 0.605371
O O3 0.179344 0.715165 0.798201
O O4 0.185553 0.779310 0.601875
O O5 0.600197 0.500000 0.247168
O O6 0.545625 0.739946 0.228250
O O7 0.647862 0.730846 0.372249
O O8 0.621072 0.726626 0.145880
O O9 0.948844 0.189894 0.064638
O O10 0.957461 0.245193 0.272213
O O11 0.994091 0.000000 0.235360
O O12 0.369245 0.500000 0.979882
O O13 0.349803 0.231556 0.025794
O O14 0.500000 0.238136 0.500000
O O15 0.472436 0.000000 0.367503
O O16 0.699611 0.000000 0.951819
O O17 0.750000 0.750000 0.000000
O O18 0.250000 0.750000 0.500000
O O19 0.202240 0.000000 0.487082
#
# Coordination Sequence:
#
# PCOD8092182 Si02
#       7
#     8   8   8   8   8   8   8
#     4  10  22  41  61  84 119 156 192 241 296 348
#     4   9  20  38  59  86 120 157 193 240 296 346
#     4  10  19  34  59  89 118 150 194 240 286 352
#     4  10  20  37  62  90 120 155 194 237 296 358
#     4  10  20  35  57  84 118 157 192 234 292 351
#     4  11  24  41  62  88 120 155 198 248 297 351
#     4  11  24  41  62  86 117 155 201 248 293 349
#
# _framework density 19.622608
#
# number of rings (size 3 to 8) (size 9 to 14) (size 15 to 20)
#    0.000    1.857    1.429    2.143    2.000    3.714 
#    0.000    2.143    0.000    1.714    0.000    0.000 
#    0.000    0.000    0.000    0.000    0.000    0.000 
#
# Total GULP energy -347255.066122 kJ/mol
# GULP energy per Si atom -12401.966647 kJ/mol
# Density = 1.957795 g / cm^3
# Si number density = 19.622608 Si / 1000 Ang^3
#
#
#
# Elastic Constant Matrix: (Units=GPa)
#
#
# Indices 1 2 3 4 5 6 
#
# 1 125.0808 41.9672 52.4222 0.0000 0.1774 0.0000
# 2 41.9672 59.5053 35.4236 0.0000 -6.0109 0.0000
# 3 52.4222 35.4236 91.3923 0.0000 -11.2408 0.0000
# 4 0.0000 0.0000 0.0000 27.4303 0.0000 -2.3183
# 5 0.1774 -6.0109 -11.2408 0.0000 37.0390 0.0000
# 6 0.0000 0.0000 0.0000 -2.3183 0.0000 33.0591
#
#
#
# Elastic Compliance Matrix: (Units=1/GPa)
#
#
# Indices 1 2 3 4 5 6 
#
# 1 0.012015 -0.005772 -0.004962 0.000000 -0.002500 0.000000
# 2 -0.005772 0.024656 -0.005973 0.000000 0.002216 0.000000
# 3 -0.004962 -0.005973 0.016607 0.000000 0.004094 0.000000
# 4 0.000000 0.000000 0.000000 0.036673 0.000000 0.002572
# 5 -0.002500 0.002216 0.004094 0.000000 0.028613 0.000000
# 6 0.000000 0.000000 0.000000 0.002572 0.000000 0.030429
#
#
# Mechanical properties :
#
#
# Convention : Reuss Voigt Hill
#
# Bulk Modulus (GPa) = 50.34502 59.51161 54.92832
# Shear Modulus (GPa) = 26.45118 29.25003 27.85060
#
# Velocity S-wave (km/s) = 3.67549 3.86506 3.77146
# Velocity P-wave (km/s) = 6.61246 7.09310 6.85699
#
# Compressibility (1/GPa) = 0.01986294
#
# Stress axis : x y z
#
# Youngs Moduli (GPa) = 83.23215 40.55824 60.21726
#
# Poissons Ratio (x) = 0.23412 0.29878
# Poissons Ratio (y) = 0.48045 0.35968
# Poissons Ratio (z) = 0.41297 0.24226
#
# Static dielectric constant tensor:
#      x y z
#    x 3.685260 0.000000 0.127340 
#    y 0.000000 3.413730 0.000000 
#    z 0.127340 0.000000 3.757770 
# 
# 
# High freq. dielectric constant tensor:
#      x y z
#    x 1.775050 0.000000 0.005020 
#    y 0.000000 1.743710 0.000000 
#    z 0.005020 0.000000 1.777930 
# 
# From -- ./inp_files/180765.got.cif
#   From: 2010.06.25/outbox.cif.g09.slc.cpg/sg12_91_cif.got.tgz:180765.got - 2010.06.28 00:19:55.
