data_PCOD8092195
_publ_section_title
;
Structure prediction by ZEFSAII (Michael W. Deem and Ramdas Pophale) SiO2 
 PCOD8092195
Probable space group: C 2/M
;
_chemical_formula_sum "Si O2"
_cell_formula_units_Z 40
_cell_length_a 15.453539
_cell_length_b 8.658567
_cell_length_c 16.350623
_cell_angle_alpha 90.000000
_cell_angle_beta 119.541880
_cell_angle_gamma 90.000000
_cell_volume 1903.379118
_symmetry_space_group_name_H-M "C 2/M"
_symmetry_group_IT_number 12
_symmetry_cell_setting 'monoclinic'
loop_
_space_group_symop_operation_xyz
x,y,z
-x,y,-z
-x,-y,-z
x,-y,z
1/2+x,1/2+y,z
1/2-x,1/2+y,-z
1/2-x,1/2-y,-z
1/2+x,1/2-y,z
loop_
_atom_site_type_symbol
_atom_site_label
_atom_site_fract_x
_atom_site_fract_y
_atom_site_fract_z
Si Si1 0.542905 0.820335 0.107797
Si Si2 0.704969 0.322944 0.605476
Si Si3 0.070759 0.822319 0.795504
Si Si4 0.257704 0.178414 0.214094
Si Si5 0.885454 0.822936 0.603206
O O1 0.481230 0.724346 0.144864
O O2 0.658411 0.778667 0.164359
O O3 0.529916 0.000000 0.121195
O O4 0.500000 0.775204 0.000000
O O5 0.699754 0.500000 0.631710
O O6 0.685079 0.215813 0.674537
O O7 0.814156 0.290528 0.620000
O O8 0.622303 0.287666 0.497373
O O9 0.170056 0.722452 0.827283
O O10 0.997313 0.793751 0.684659
O O11 0.102231 0.000000 0.816107
O O12 0.229112 0.000000 0.195356
O O13 0.852576 0.000000 0.605499
#
# Coordination Sequence:
#
# PCOD8092195 Si02
#       5
#     8   8   8   8   8
#     4  11  25  46  70  95 123 157 202 259 322 380
#     4  10  19  34  59  89 126 167 210 257 307 361
#     4  11  23  41  66  95 128 165 209 257 310 369
#     4  12  25  41  63  93 129 168 212 255 307 370
#     4   9  19  35  58  90 125 166 209 255 308 365
#
# _framework density 21.015256000000001
#
# number of rings (size 3 to 8) (size 9 to 14) (size 15 to 20)
#    0.000    1.400    2.000    3.600    0.000    4.800 
#    0.000    4.000    0.000    0.000    0.000    0.000 
#    0.000    0.000    0.000    0.000    0.000    0.000 
#
# Total GULP energy -248089.629943 kJ/mol
# GULP energy per Si atom -12404.481497 kJ/mol
# Density = 2.096742 g / cm^3
# Si number density = 21.015256 Si / 1000 Ang^3
#
#
#
# Elastic Constant Matrix: (Units=GPa)
#
#
# Indices 1 2 3 4 5 6 
#
# 1 92.7819 8.5200 32.7594 0.0000 -13.2173 0.0000
# 2 8.5200 58.3900 28.1078 0.0000 2.1898 0.0000
# 3 32.7594 28.1078 100.5190 0.0000 -5.3695 0.0000
# 4 0.0000 0.0000 0.0000 27.6125 0.0000 -4.7757
# 5 -13.2173 2.1898 -5.3695 0.0000 5.7678 0.0000
# 6 0.0000 0.0000 0.0000 -4.7757 0.0000 33.5477
#
#
#
# Elastic Compliance Matrix: (Units=1/GPa)
#
#
# Indices 1 2 3 4 5 6 
#
# 1 0.017523 -0.002583 -0.002937 0.000000 0.038401 0.000000
# 2 -0.002583 0.021195 -0.006136 0.000000 -0.019679 0.000000
# 3 -0.002937 -0.006136 0.013034 0.000000 0.007734 0.000000
# 4 0.000000 0.000000 0.000000 0.037130 0.000000 0.005286
# 5 0.038401 -0.019679 0.007734 0.000000 0.276048 0.000000
# 6 0.000000 0.000000 0.000000 0.005286 0.000000 0.030561
#
#
# Mechanical properties :
#
#
# Convention : Reuss Voigt Hill
#
# Bulk Modulus (GPa) = 35.16223 43.38503 39.27363
# Shear Modulus (GPa) = 11.67453 25.53916 18.60685
#
# Velocity S-wave (km/s) = 2.35952 3.48985 2.97879
# Velocity P-wave (km/s) = 4.91845 6.07685 5.52808
#
# Compressibility (1/GPa) = 0.02843961
#
# Stress axis : x y z
#
# Youngs Moduli (GPa) = 57.06901 47.18108 76.71970
#
# Poissons Ratio (x) = 0.12188 0.22533
# Poissons Ratio (y) = 0.14742 0.47075
# Poissons Ratio (z) = 0.16761 0.28950
#
# Static dielectric constant tensor:
#      x y z
#    x 3.559910 0.000000 -0.008010 
#    y 0.000000 3.779250 0.000000 
#    z -0.008010 0.000000 4.006780 
# 
# 
# High freq. dielectric constant tensor:
#      x y z
#    x 1.813620 0.000000 -0.003420 
#    y 0.000000 1.826710 0.000000 
#    z -0.003420 0.000000 1.826980 
# 
# From -- ./inp_files/211153.got.cif
#   From: 2010.06.25/outbox.cif.g09.slc.cpg/sg12_106_cif.got.tgz:211153.got - 2010.06.28 00:19:55.
