data_PCOD8092305
_publ_section_title
;
Structure prediction by ZEFSAII (Michael W. Deem and Ramdas Pophale) SiO2 
 PCOD8092305
Probable space group: C 2/M
;
_chemical_formula_sum "Si O2"
_cell_formula_units_Z 56
_cell_length_a 31.380817
_cell_length_b 14.354248
_cell_length_c 12.717450
_cell_angle_alpha 90.000000
_cell_angle_beta 26.448451
_cell_angle_gamma 90.000000
_cell_volume 2551.453110
_symmetry_space_group_name_H-M "C 2/M"
_symmetry_group_IT_number 12
_symmetry_cell_setting 'monoclinic'
loop_
_space_group_symop_operation_xyz
x,y,z
-x,y,-z
-x,-y,-z
x,-y,z
1/2+x,1/2+y,z
1/2-x,1/2+y,-z
1/2-x,1/2-y,-z
1/2+x,1/2-y,z
loop_
_atom_site_type_symbol
_atom_site_label
_atom_site_fract_x
_atom_site_fract_y
_atom_site_fract_z
Si Si1 0.226178 0.390910 0.762854
Si Si2 0.693205 0.105007 0.289355
Si Si3 0.888915 0.266578 0.129954
Si Si4 0.754933 0.390994 0.048275
Si Si5 0.125935 0.103857 0.974598
Si Si6 0.456936 0.389313 0.488963
Si Si7 0.612807 0.245982 0.630665
O O1 0.243419 0.500000 0.705138
O O2 0.142432 0.354902 0.871254
O O3 0.190369 0.371808 0.962531
O O4 0.328462 0.340549 0.521078
O O5 0.803493 0.105239 0.081586
O O6 0.631517 0.166315 0.504298
O O7 0.651006 0.000000 0.385575
O O8 0.690902 0.148386 0.175324
O O9 0.836178 0.174981 0.198228
O O10 0.855132 0.286590 0.323081
O O11 0.999896 0.239842 0.879947
O O12 0.743679 0.500000 0.050952
O O13 0.648676 0.347653 0.295563
O O14 0.121057 0.000000 0.936606
O O15 0.022853 0.139097 0.244278
O O16 0.500000 0.345439 0.500000
O O17 0.456011 0.500000 0.499233
#
# Coordination Sequence:
#
# PCOD8092305 Si02
#       7
#     8   8   8   8   8   8   8
#     4  11  24  43  67  96 133 172 209 261 329 390
#     4  10  20  37  64  94 122 162 210 258 314 376
#     4  11  25  45  64  92 129 168 217 272 325 376
#     4   9  18  34  58  91 130 165 203 257 318 384
#     4  10  19  34  61  93 125 161 206 259 317 376
#     4   9  14  25  50  88 126 158 196 244 304 373
#     4  11  25  45  66  90 128 169 219 274 315 381
#
# _framework density 21.948277000000001
#
# number of rings (size 3 to 8) (size 9 to 14) (size 15 to 20)
#    0.000    1.857    2.857    1.286    0.000    4.000 
#    0.000    3.571    0.000    2.571    0.000    0.000 
#    0.000    0.000    0.000    0.000    0.000    0.000 
#
# Total GULP energy -347049.763947 kJ/mol
# GULP energy per Si atom -12394.634427 kJ/mol
# Density = 2.189832 g / cm^3
# Si number density = 21.948277 Si / 1000 Ang^3
#
#
#
# Elastic Constant Matrix: (Units=GPa)
#
#
# Indices 1 2 3 4 5 6 
#
# 1 135.6990 47.6810 38.0734 0.0000 34.8801 0.0000
# 2 47.6810 97.1605 38.3522 0.0000 15.8762 0.0000
# 3 38.0734 38.3522 72.6585 0.0000 29.3569 0.0000
# 4 0.0000 0.0000 0.0000 26.1754 0.0000 4.9271
# 5 34.8801 15.8762 29.3569 0.0000 31.7269 0.0000
# 6 0.0000 0.0000 0.0000 4.9271 0.0000 27.7367
#
#
#
# Elastic Compliance Matrix: (Units=1/GPa)
#
#
# Indices 1 2 3 4 5 6 
#
# 1 0.011496 -0.004067 0.000650 0.000000 -0.011205 0.000000
# 2 -0.004067 0.014441 -0.006993 0.000000 0.003715 0.000000
# 3 0.000650 -0.006993 0.025535 0.000000 -0.020843 0.000000
# 4 0.000000 0.000000 0.000000 0.039526 0.000000 -0.007021
# 5 -0.011205 0.003715 -0.020843 0.000000 0.061264 0.000000
# 6 0.000000 0.000000 0.000000 -0.007021 0.000000 0.037301
#
#
# Mechanical properties :
#
#
# Convention : Reuss Voigt Hill
#
# Bulk Modulus (GPa) = 32.62378 61.52568 47.07473
# Shear Modulus (GPa) = 22.66549 29.22189 25.94369
#
# Velocity S-wave (km/s) = 3.21702 3.65279 3.44181
# Velocity P-wave (km/s) = 5.35678 6.77374 6.10650
#
# Compressibility (1/GPa) = 0.03065249
#
# Stress axis : x y z
#
# Youngs Moduli (GPa) = 86.98590 69.24538 39.16240
#
# Poissons Ratio (x) = 0.28165 -0.02546
# Poissons Ratio (y) = 0.35381 0.27385
# Poissons Ratio (z) = -0.05655 0.48421
#
# Static dielectric constant tensor:
#      x y z
#    x 4.204970 0.000000 0.217900 
#    y 0.000000 3.681500 0.000000 
#    z 0.217900 0.000000 3.892060 
# 
# 
# High freq. dielectric constant tensor:
#      x y z
#    x 1.874440 0.000000 0.014450 
#    y 0.000000 1.843740 0.000000 
#    z 0.014450 0.000000 1.849800 
# 
# From -- ./inp_files/189619.got.cif
#   From: 2010.06.25/outbox.cif.g09.slc.cpg/sg12_95_cif.got.tgz:189619.got - 2010.06.28 00:19:55.
