data_PCOD8092393
_publ_section_title
;
Structure prediction by ZEFSAII (Michael W. Deem and Ramdas Pophale) SiO2 
 PCOD8092393
Probable space group: C 2/M
;
_chemical_formula_sum "Si O2"
_cell_formula_units_Z 40
_cell_length_a 8.350615
_cell_length_b 33.372647
_cell_length_c 14.214488
_cell_angle_alpha 90.000000
_cell_angle_beta 31.442567
_cell_angle_gamma 90.000000
_cell_volume 2066.399259
_symmetry_space_group_name_H-M "C 2/M"
_symmetry_group_IT_number 12
_symmetry_cell_setting 'monoclinic'
loop_
_space_group_symop_operation_xyz
x,y,z
-x,y,-z
-x,-y,-z
x,-y,z
1/2+x,1/2+y,z
1/2-x,1/2+y,-z
1/2-x,1/2-y,-z
1/2+x,1/2-y,z
loop_
_atom_site_type_symbol
_atom_site_label
_atom_site_fract_x
_atom_site_fract_y
_atom_site_fract_z
Si Si1 0.247253 0.500000 0.794298
Si Si2 0.854227 0.792308 0.807500
Si Si3 0.808177 0.938888 0.501096
Si Si4 0.170904 0.848415 0.513250
Si Si5 0.376439 0.782754 0.667325
Si Si6 0.135608 0.500000 0.202781
O O1 0.475123 0.461398 0.684068
O O2 0.043463 0.500000 0.804183
O O3 0.000000 0.500000 0.000000
O O4 0.955925 0.755490 0.690133
O O5 0.950199 0.832943 0.706902
O O6 0.011187 0.788971 0.832637
O O7 0.500000 0.792377 0.000000
O O8 0.737910 0.893629 0.504977
O O9 0.479008 0.961027 0.680704
O O10 0.000000 0.939384 0.500000
O O11 0.480265 0.821832 0.354687
O O12 0.000000 0.845551 0.500000
O O13 0.500000 0.776760 0.500000
O O14 0.500000 0.500000 0.000000
#
# Coordination Sequence:
#
# PCOD8092393 Si02
#       6
#     4   8   8   8   8   4
#     4   9  17  33  56  80 104 135 171 209 252 302
#     4  11  21  34  52  76 102 132 170 218 258 298
#     4   8  17  34  55  74 103 141 171 202 254 314
#     4  10  19  35  54  73 100 139 174 206 253 309
#     4  10  20  35  53  72  99 137 173 209 254 309
#     4   9  17  35  56  78 102 133 173 209 250 308
#
# _framework density 19.357343
#
# number of rings (size 3 to 8) (size 9 to 14) (size 15 to 20)
#    0.000    2.400    0.000    6.000    0.000    0.800 
#    0.000   15.000    0.000    0.000    0.000    0.000 
#    0.000    0.000    0.000    0.000    0.000    0.000 
#
# Total GULP energy -247855.045465 kJ/mol
# GULP energy per Si atom -12392.752273 kJ/mol
# Density = 1.931328 g / cm^3
# Si number density = 19.357343 Si / 1000 Ang^3
#
#
#
# Elastic Constant Matrix: (Units=GPa)
#
#
# Indices 1 2 3 4 5 6 
#
# 1 80.2637 44.2285 19.0115 0.0000 -16.2039 0.0000
# 2 44.2285 186.1914 66.3419 0.0000 -5.7185 0.0000
# 3 19.0115 66.3419 120.2141 0.0000 -17.7212 0.0000
# 4 0.0000 0.0000 0.0000 -11.6713 0.0000 -7.4445
# 5 -16.2039 -5.7185 -17.7212 0.0000 32.0495 0.0000
# 6 0.0000 0.0000 0.0000 -7.4445 0.0000 20.8251
#
#
#
# Elastic Compliance Matrix: (Units=1/GPa)
#
#
# Indices 1 2 3 4 5 6 
#
# 1 0.015960 -0.003811 0.000728 0.000000 0.007791 0.000000
# 2 -0.003811 0.007621 -0.004014 0.000000 -0.002786 0.000000
# 3 0.000728 -0.004014 0.011287 0.000000 0.005893 0.000000
# 4 0.000000 0.000000 0.000000 -0.069771 0.000000 -0.024942
# 5 0.007791 -0.002786 0.005893 0.000000 0.037902 0.000000
# 6 0.000000 0.000000 0.000000 -0.024942 0.000000 0.039103
#
#
# Mechanical properties :
#
#
# Convention : Reuss Voigt Hill
#
# Bulk Modulus (GPa) = 48.37117 71.75922 60.06520
# Shear Modulus (GPa) = 79.13160 25.37982 52.25571
#
# Velocity S-wave (km/s) = 6.40063 3.62487 5.20134
# Velocity P-wave (km/s) = 8.92563 7.39397 8.19566
#
# Compressibility (1/GPa) = 0.02067347
#
# Stress axis : x y z
#
# Youngs Moduli (GPa) = 62.65827 131.22278 88.59737
#
# Poissons Ratio (x) = 0.50011 -0.06448
# Poissons Ratio (y) = 0.23880 0.35559
# Poissons Ratio (z) = -0.04560 0.52667
#
# Static dielectric constant tensor:
#      x y z
#    x 3.933350 0.000000 -0.304370 
#    y 0.000000 3.859460 0.000000 
#    z -0.304370 0.000000 3.745320 
# 
# 
# High freq. dielectric constant tensor:
#      x y z
#    x 1.751500 0.000000 -0.014330 
#    y 0.000000 1.752320 0.000000 
#    z -0.014330 0.000000 1.743990 
# 
# From -- ./inp_files/68773.got.cif
#   From: 2010.06.25/outbox.cif.g09.slc.cpg/sg12_35_cif.got.tgz:68773.got - 2010.06.28 00:19:55.
