data_PCOD8092270
_publ_section_title
;
Structure prediction by ZEFSAII (Michael W. Deem and Ramdas Pophale) SiO2 
 PCOD8092270
Probable space group: C 2/M
;
_chemical_formula_sum "Si O2"
_cell_formula_units_Z 64
_cell_length_a 30.825232
_cell_length_b 8.547182
_cell_length_c 19.517077
_cell_angle_alpha 90.000000
_cell_angle_beta 142.669553
_cell_angle_gamma 90.000000
_cell_volume 3118.251737
_symmetry_space_group_name_H-M "C 2/M"
_symmetry_group_IT_number 12
_symmetry_cell_setting 'monoclinic'
loop_
_space_group_symop_operation_xyz
x,y,z
-x,y,-z
-x,-y,-z
x,-y,z
1/2+x,1/2+y,z
1/2-x,1/2+y,-z
1/2-x,1/2-y,-z
1/2+x,1/2-y,z
loop_
_atom_site_type_symbol
_atom_site_label
_atom_site_fract_x
_atom_site_fract_y
_atom_site_fract_z
Si Si1 0.336136 0.320365 0.770712
Si Si2 0.417226 0.679990 0.007263
Si Si3 0.579947 0.184143 0.762419
Si Si4 0.177042 0.318147 0.763639
Si Si5 0.682396 0.183036 0.009366
Si Si6 0.573664 0.684797 0.241691
Si Si7 0.189401 0.180136 0.631644
Si Si8 0.574083 0.183010 0.389159
O O1 0.310105 0.500000 0.732518
O O2 0.400970 0.306520 0.906262
O O3 0.366453 0.255393 0.736665
O O4 0.269823 0.215500 0.710001
O O5 0.409823 0.500000 0.022527
O O6 0.360036 0.787407 0.973872
O O7 0.495673 0.748923 0.122183
O O8 0.605800 0.223695 0.717814
O O9 0.635714 0.251795 0.887981
O O10 0.501005 0.254198 0.676996
O O11 0.577328 0.000000 0.769848
O O12 0.178999 0.500000 0.745203
O O13 0.178395 0.213932 0.697813
O O14 0.244090 0.279542 0.896551
O O15 0.699568 0.000000 0.023478
O O16 0.571616 0.500000 0.235058
O O17 0.595676 0.739254 0.344639
O O18 0.135053 0.285260 0.520686
O O19 0.172382 0.000000 0.596099
O O20 0.566924 0.000000 0.367835
#
# Coordination Sequence:
#
# PCOD8092270 Si02
#       8
#     8   8   8   8   8   8   8   8
#     4  10  21  39  63  90 123 162 200 239 294 359
#     4  10  19  34  60  91 124 161 195 236 294 356
#     4   9  21  39  62  90 122 157 199 243 294 356
#     4  11  22  40  63  89 120 160 200 241 297 360
#     4  11  20  35  59  92 127 158 194 243 292 349
#     4  10  21  38  62  94 125 156 198 247 295 350
#     4  12  26  43  61  87 119 154 201 256 301 350
#     4  11  23  43  65  86 116 159 203 248 300 356
#
# _framework density 20.524321
#
# number of rings (size 3 to 8) (size 9 to 14) (size 15 to 20)
#    0.000    1.500    2.500    3.000    0.000    3.000 
#    0.000    6.875    0.000    2.250    0.000    0.000 
#    0.000    0.000    0.000    0.000    0.000    0.000 
#
# Total GULP energy -396906.700651 kJ/mol
# GULP energy per Si atom -12403.334395 kJ/mol
# Density = 2.047761 g / cm^3
# Si number density = 20.524321 Si / 1000 Ang^3
#
#
#
# Elastic Constant Matrix: (Units=GPa)
#
#
# Indices 1 2 3 4 5 6 
#
# 1 128.2917 20.0097 32.7619 0.0000 -7.7607 0.0000
# 2 20.0097 28.1859 -6.5783 0.0000 1.1599 0.0000
# 3 32.7619 -6.5783 94.8849 0.0000 -1.8052 0.0000
# 4 0.0000 0.0000 0.0000 18.6224 0.0000 -0.0796
# 5 -7.7607 1.1599 -1.8052 0.0000 12.8408 0.0000
# 6 0.0000 0.0000 0.0000 -0.0796 0.0000 20.9793
#
#
#
# Elastic Compliance Matrix: (Units=1/GPa)
#
#
# Indices 1 2 3 4 5 6 
#
# 1 0.010627 -0.008786 -0.004152 0.000000 0.006632 0.000000
# 2 -0.008786 0.043436 0.005885 0.000000 -0.008406 0.000000
# 3 -0.004152 0.005885 0.012356 0.000000 -0.001304 0.000000
# 4 0.000000 0.000000 0.000000 0.053700 0.000000 0.000204
# 5 0.006632 -0.008406 -0.001304 0.000000 0.082461 0.000000
# 6 0.000000 0.000000 0.000000 0.000204 0.000000 0.047667
#
#
# Mechanical properties :
#
#
# Convention : Reuss Voigt Hill
#
# Bulk Modulus (GPa) = 19.11610 38.19436 28.65523
# Shear Modulus (GPa) = 17.74377 24.16645 20.95511
#
# Velocity S-wave (km/s) = 2.94347 3.43513 3.19876
# Velocity P-wave (km/s) = 4.57013 5.86372 5.25687
#
# Compressibility (1/GPa) = 0.05231192
#
# Stress axis : x y z
#
# Youngs Moduli (GPa) = 94.10313 23.02262 80.93281
#
# Poissons Ratio (x) = 0.20228 0.33604
# Poissons Ratio (y) = 0.82679 -0.47630
# Poissons Ratio (z) = 0.39073 -0.13549
#
# Static dielectric constant tensor:
#      x y z
#    x 3.891830 0.000000 0.057240 
#    y 0.000000 3.461590 0.000000 
#    z 0.057240 0.000000 3.673390 
# 
# 
# High freq. dielectric constant tensor:
#      x y z
#    x 1.814270 0.000000 -0.001660 
#    y 0.000000 1.783340 0.000000 
#    z -0.001660 0.000000 1.800270 
# 
# From -- ./inp_files/295803.got.cif
#   From: 2010.06.25/outbox.cif.g09.slc.cpg/sg12_148_cif.got.tgz:295803.got - 2010.06.28 00:19:55.
