data_PCOD8092644
_publ_section_title
;
Structure prediction by ZEFSAII (Michael W. Deem and Ramdas Pophale) SiO2 
 PCOD8092644
Probable space group: C 2/M
;
_chemical_formula_sum "Si O2"
_cell_formula_units_Z 48
_cell_length_a 20.359944
_cell_length_b 9.159735
_cell_length_c 14.711647
_cell_angle_alpha 90.000000
_cell_angle_beta 107.754519
_cell_angle_gamma 90.000000
_cell_volume 2612.927077
_symmetry_space_group_name_H-M "C 2/M"
_symmetry_group_IT_number 12
_symmetry_cell_setting 'monoclinic'
loop_
_space_group_symop_operation_xyz
x,y,z
-x,y,-z
-x,-y,-z
x,-y,z
1/2+x,1/2+y,z
1/2-x,1/2+y,-z
1/2-x,1/2-y,-z
1/2+x,1/2-y,z
loop_
_atom_site_type_symbol
_atom_site_label
_atom_site_fract_x
_atom_site_fract_y
_atom_site_fract_z
Si Si1 0.399543 0.672113 0.094330
Si Si2 0.661854 0.829135 0.098983
Si Si3 0.960497 0.672447 0.613221
Si Si4 0.960031 0.328629 0.815808
Si Si5 0.604223 0.172535 0.594315
Si Si6 0.810727 0.829898 0.230755
O O1 0.406291 0.500000 0.083373
O O2 0.474380 0.744163 0.117520
O O3 0.365422 0.712254 0.176042
O O4 0.350468 0.736486 0.996292
O O5 0.604614 0.790538 0.149361
O O6 0.734994 0.778786 0.169397
O O7 0.661424 0.000000 0.073793
O O8 0.963762 0.500000 0.610581
O O9 0.941548 0.727002 0.706191
O O10 0.903285 0.722590 0.514746
O O11 0.036077 0.730100 0.617871
O O12 0.977579 0.500000 0.824169
O O13 0.670110 0.248419 0.667708
O O14 0.613487 0.000000 0.606968
O O15 0.811271 0.000000 0.251875
#
# Coordination Sequence:
#
# PCOD8092644 Si02
#       6
#     8   8   8   8   8   8
#     4  11  22  35  53  76 103 134 170 215 257 296
#     4  10  22  37  53  73 102 139 174 207 248 304
#     4   8  15  29  52  80 102 125 167 213 248 291
#     4  10  19  35  57  77 100 134 173 210 249 299
#     4   9  16  30  54  79 101 129 169 212 248 292
#     4  10  21  36  51  75 107 136 168 207 255 303
#
# _framework density 18.370203
#
# number of rings (size 3 to 8) (size 9 to 14) (size 15 to 20)
#    0.000    2.333    1.667    2.500    0.000    4.000 
#    0.000    3.333    0.000    0.000    0.000    0.000 
#    0.000    0.000    0.000    0.000    0.000    0.000 
#
# Total GULP energy -297585.434580 kJ/mol
# GULP energy per Si atom -12399.393108 kJ/mol
# Density = 1.832839 g / cm^3
# Si number density = 18.370203 Si / 1000 Ang^3
#
#
#
# Elastic Constant Matrix: (Units=GPa)
#
#
# Indices 1 2 3 4 5 6 
#
# 1 65.7713 30.4265 29.0848 0.0000 21.2673 0.0000
# 2 30.4265 42.4757 41.3690 0.0000 13.6062 0.0000
# 3 29.0848 41.3690 133.7132 0.0000 30.6502 0.0000
# 4 0.0000 0.0000 0.0000 30.6994 0.0000 7.3351
# 5 21.2673 13.6062 30.6502 0.0000 24.2351 0.0000
# 6 0.0000 0.0000 0.0000 7.3351 0.0000 20.5053
#
#
#
# Elastic Compliance Matrix: (Units=1/GPa)
#
#
# Indices 1 2 3 4 5 6 
#
# 1 0.027892 -0.017432 0.003793 0.000000 -0.019487 0.000000
# 2 -0.017432 0.045752 -0.011240 0.000000 0.003827 0.000000
# 3 0.003793 -0.011240 0.013305 0.000000 -0.013844 0.000000
# 4 0.000000 0.000000 0.000000 0.035618 0.000000 -0.012741
# 5 -0.019487 0.003827 -0.013844 0.000000 0.073724 0.000000
# 6 0.000000 0.000000 0.000000 -0.012741 0.000000 0.053326
#
#
# Mechanical properties :
#
#
# Convention : Reuss Voigt Hill
#
# Bulk Modulus (GPa) = 26.88901 49.30229 38.09565
# Shear Modulus (GPa) = 16.03738 24.49328 20.26533
#
# Velocity S-wave (km/s) = 2.95788 3.65542 3.32499
# Velocity P-wave (km/s) = 5.13171 6.68675 5.96016
#
# Compressibility (1/GPa) = 0.03718992
#
# Stress axis : x y z
#
# Youngs Moduli (GPa) = 35.85217 21.85717 75.16121
#
# Poissons Ratio (x) = 0.38102 -0.28509
# Poissons Ratio (y) = 0.62498 0.84484
# Poissons Ratio (z) = -0.13599 0.24568
#
# Static dielectric constant tensor:
#      x y z
#    x 3.269440 0.000000 -0.039020 
#    y 0.000000 3.112100 0.000000 
#    z -0.039020 0.000000 3.795360 
# 
# 
# High freq. dielectric constant tensor:
#      x y z
#    x 1.695930 0.000000 0.005160 
#    y 0.000000 1.688790 0.000000 
#    z 0.005160 0.000000 1.730630 
# 
# From -- ./inp_files/229807.got.cif
#   From: 2010.06.25/outbox.cif.g09.slc.cpg/sg12_115_cif.got.tgz:229807.got - 2010.06.28 00:19:55.
