data_PCOD8092264
_publ_section_title
;
Structure prediction by ZEFSAII (Michael W. Deem and Ramdas Pophale) SiO2 
 PCOD8092264
Probable space group: C 2/M
;
_chemical_formula_sum "Si O2"
_cell_formula_units_Z 56
_cell_length_a 23.174009
_cell_length_b 13.662044
_cell_length_c 20.057215
_cell_angle_alpha 90.000000
_cell_angle_beta 24.067098
_cell_angle_gamma 90.000000
_cell_volume 2589.651390
_symmetry_space_group_name_H-M "C 2/M"
_symmetry_group_IT_number 12
_symmetry_cell_setting 'monoclinic'
loop_
_space_group_symop_operation_xyz
x,y,z
-x,y,-z
-x,-y,-z
x,-y,z
1/2+x,1/2+y,z
1/2-x,1/2+y,-z
1/2-x,1/2-y,-z
1/2+x,1/2-y,z
loop_
_atom_site_type_symbol
_atom_site_label
_atom_site_fract_x
_atom_site_fract_y
_atom_site_fract_z
Si Si1 0.903010 0.892340 0.211673
Si Si2 0.340100 0.823448 0.447728
Si Si3 0.641172 0.789942 0.816844
Si Si4 0.269095 0.615144 0.800555
Si Si5 0.025098 0.390052 0.822566
Si Si6 0.593400 0.270008 0.239367
Si Si7 0.664192 0.381895 0.030063
O O1 0.766318 0.897749 0.404102
O O2 0.868601 0.827263 0.182284
O O3 0.039126 0.853886 0.109818
O O4 0.933815 0.000000 0.151700
O O5 0.250000 0.750000 0.500000
O O6 0.451517 0.877892 0.281073
O O7 0.432642 0.768265 0.405991
O O8 0.766225 0.829155 0.731968
O O9 0.644806 0.829359 0.736872
O O10 0.500000 0.833020 0.000000
O O11 0.288999 0.500000 0.767424
O O12 0.400268 0.661061 0.702045
O O13 0.134142 0.641168 0.990033
O O14 0.049641 0.500000 0.819129
O O15 0.623300 0.339621 0.144924
O O16 0.694677 0.174961 0.141235
O O17 0.687449 0.500000 0.009192
#
# Coordination Sequence:
#
# PCOD8092264 Si02
#       7
#     8   8   8   8   8   8   8
#     4  11  23  40  62  89 119 156 203 248 294 351
#     4  12  22  38  59  86 121 160 193 240 301 357
#     4  10  19  36  60  87 120 155 199 245 294 341
#     4  10  21  37  61  91 119 155 199 244 294 351
#     4  10  19  34  60  90 120 153 195 244 295 349
#     4  11  21  36  58  84 123 158 193 245 299 353
#     4  10  20  35  58  89 120 155 198 246 297 350
#
# _framework density 21.624531000000001
#
# number of rings (size 3 to 8) (size 9 to 14) (size 15 to 20)
#    0.000    1.429    2.857    4.714    0.000    4.286 
#    0.000    1.429    0.000    1.714    0.000    0.000 
#    0.000    0.000    0.000    0.000    0.000    0.000 
#
# Total GULP energy -347117.749618 kJ/mol
# GULP energy per Si atom -12397.062486 kJ/mol
# Density = 2.157531 g / cm^3
# Si number density = 21.624531 Si / 1000 Ang^3
#
#
#
# Elastic Constant Matrix: (Units=GPa)
#
#
# Indices 1 2 3 4 5 6 
#
# 1 138.8361 64.0316 21.3370 -0.0010 -21.5763 0.0006
# 2 64.0316 124.6002 14.9334 -0.0013 -15.7141 0.0009
# 3 21.3370 14.9334 43.8446 -0.0021 -14.4388 0.0015
# 4 -0.0010 -0.0013 -0.0021 20.7425 0.0010 6.1182
# 5 -21.5763 -15.7141 -14.4388 0.0010 29.2191 -0.0006
# 6 0.0006 0.0009 0.0015 6.1182 -0.0006 37.3693
#
#
#
# Elastic Compliance Matrix: (Units=1/GPa)
#
#
# Indices 1 2 3 4 5 6 
#
# 1 0.010234 -0.004490 -0.002099 0.000000 0.004105 0.000000
# 2 -0.004490 0.010684 -0.000781 0.000000 0.002045 0.000000
# 3 -0.002099 -0.000781 0.028004 0.000003 0.011868 -0.000001
# 4 0.000000 0.000000 0.000003 0.050656 -0.000001 -0.008294
# 5 0.004105 0.002045 0.011868 -0.000001 0.044220 0.000000
# 6 0.000000 0.000000 -0.000001 -0.008294 0.000000 0.028118
#
#
# Mechanical properties :
#
#
# Convention : Reuss Voigt Hill
#
# Bulk Modulus (GPa) = 29.25468 56.43162 42.84315
# Shear Modulus (GPa) = 25.24607 31.26478 28.25542
#
# Velocity S-wave (km/s) = 3.42054 3.80649 3.61867
# Velocity P-wave (km/s) = 5.39981 6.74329 6.10860
#
# Compressibility (1/GPa) = 0.03418257
#
# Stress axis : x y z
#
# Youngs Moduli (GPa) = 97.71246 93.59362 35.70947
#
# Poissons Ratio (x) = 0.42023 0.07496
# Poissons Ratio (y) = 0.43872 0.02788
# Poissons Ratio (z) = 0.20513 0.07307
#
# Static dielectric constant tensor:
#      x y z
#    x 4.048050 0.000000 -0.001210 
#    y 0.000000 3.943230 0.000000 
#    z -0.001210 0.000000 3.791510 
# 
# 
# High freq. dielectric constant tensor:
#      x y z
#    x 1.850350 0.000000 -0.003500 
#    y 0.000000 1.857120 0.000000 
#    z -0.003500 0.000000 1.818730 
# 
# From -- ./inp_files/284497.got.cif
#   From: 2010.06.25/outbox.cif.g09.slc.cpg/sg12_143_cif.got.tgz:284497.got - 2010.06.28 00:19:55.
