data_PCOD8092645
_publ_section_title
;
Structure prediction by ZEFSAII (Michael W. Deem and Ramdas Pophale) SiO2 
 PCOD8092645
Probable space group: C 2/M
;
_chemical_formula_sum "Si O2"
_cell_formula_units_Z 64
_cell_length_a 14.567885
_cell_length_b 9.196554
_cell_length_c 29.626945
_cell_angle_alpha 90.000000
_cell_angle_beta 60.639052
_cell_angle_gamma 90.000000
_cell_volume 3459.393079
_symmetry_space_group_name_H-M "C 2/M"
_symmetry_group_IT_number 12
_symmetry_cell_setting 'monoclinic'
loop_
_space_group_symop_operation_xyz
x,y,z
-x,y,-z
-x,-y,-z
x,-y,z
1/2+x,1/2+y,z
1/2-x,1/2+y,-z
1/2-x,1/2-y,-z
1/2+x,1/2-y,z
loop_
_atom_site_type_symbol
_atom_site_label
_atom_site_fract_x
_atom_site_fract_y
_atom_site_fract_z
Si Si1 0.756264 0.333623 0.362260
Si Si2 0.472920 0.827708 0.807198
Si Si3 0.977041 0.171540 0.555666
Si Si4 0.181285 0.669557 0.075916
Si Si5 0.679193 0.327996 0.740897
Si Si6 0.938225 0.333576 0.384520
Si Si7 0.899367 0.328682 0.728071
Si Si8 0.888761 0.329486 0.006442
O O1 0.758198 0.500000 0.344271
O O2 0.639217 0.279514 0.401155
O O3 0.810242 0.232529 0.312138
O O4 0.821347 0.320161 0.392789
O O5 0.392543 0.780574 0.865432
O O6 0.582339 0.746216 0.790063
O O7 0.427419 0.768658 0.770724
O O8 0.492406 0.000000 0.802547
O O9 0.059972 0.243770 0.569650
O O10 0.000000 0.229965 0.500000
O O11 0.991591 0.000000 0.554177
O O12 0.207441 0.500000 0.071754
O O13 0.119552 0.708890 0.044652
O O14 0.291856 0.752227 0.054959
O O15 0.663488 0.500000 0.742363
O O16 0.781135 0.282698 0.745021
O O17 0.967745 0.500000 0.388161
O O18 0.021679 0.265020 0.328734
O O19 0.914455 0.500000 0.725024
O O20 0.877872 0.500000 0.017949
O O21 0.000000 0.272592 0.000000
#
# Coordination Sequence:
#
# PCOD8092645 Si02
#       8
#     8   8   8   8   8   8   8   8
#     4  10  20  36  57  76 102 141 175 208 263 321
#     4  10  20  37  55  75 109 145 178 216 263 320
#     4  10  22  38  55  80 111 137 170 222 272 310
#     4   9  19  34  54  79 105 142 185 220 260 318
#     4  11  21  33  52  79 105 133 174 217 261 310
#     4  10  19  35  57  77 100 137 178 209 255 318
#     4   9  18  33  52  74 103 137 170 212 261 310
#     4   9  18  34  55  78 109 144 178 223 276 316
#
# _framework density 18.500354999999999
#
# number of rings (size 3 to 8) (size 9 to 14) (size 15 to 20)
#    0.000    2.250    2.500    0.375    0.000    3.000 
#    0.000    1.250    0.000    0.000    0.000    0.000 
#    0.000    0.000    0.000    0.000    0.000    0.000 
#
# Total GULP energy -396864.150465 kJ/mol
# GULP energy per Si atom -12402.004702 kJ/mol
# Density = 1.845825 g / cm^3
# Si number density = 18.500355 Si / 1000 Ang^3
#
#
#
# Elastic Constant Matrix: (Units=GPa)
#
#
# Indices 1 2 3 4 5 6 
#
# 1 90.1018 22.0280 12.8350 0.0000 -2.0395 0.0000
# 2 22.0280 35.0211 19.1583 0.0000 -3.9165 0.0000
# 3 12.8350 19.1583 76.1894 0.0000 2.2581 0.0000
# 4 0.0000 0.0000 0.0000 26.0239 0.0000 -1.7209
# 5 -2.0395 -3.9165 2.2581 0.0000 26.1898 0.0000
# 6 0.0000 0.0000 0.0000 -1.7209 0.0000 27.0314
#
#
#
# Elastic Compliance Matrix: (Units=1/GPa)
#
#
# Indices 1 2 3 4 5 6 
#
# 1 0.013118 -0.008194 -0.000144 0.000000 -0.000191 0.000000
# 2 -0.008194 0.039093 -0.008626 0.000000 0.005952 0.000000
# 3 -0.000144 -0.008626 0.015396 0.000000 -0.002629 0.000000
# 4 0.000000 0.000000 0.000000 0.038589 0.000000 0.002457
# 5 -0.000191 0.005952 -0.002629 0.000000 0.039285 0.000000
# 6 0.000000 0.000000 0.000000 0.002457 0.000000 0.037150
#
#
# Mechanical properties :
#
#
# Convention : Reuss Voigt Hill
#
# Bulk Modulus (GPa) = 29.69171 34.37277 32.03224
# Shear Modulus (GPa) = 21.95058 25.66843 23.80950
#
# Velocity S-wave (km/s) = 3.44829 3.72890 3.59134
# Velocity P-wave (km/s) = 5.65141 6.09585 5.87783
#
# Compressibility (1/GPa) = 0.03367944
#
# Stress axis : x y z
#
# Youngs Moduli (GPa) = 76.23164 25.58031 64.95022
#
# Poissons Ratio (x) = 0.20960 0.00934
# Poissons Ratio (y) = 0.62463 0.56027
# Poissons Ratio (z) = 0.01096 0.22066
#
# Static dielectric constant tensor:
#      x y z
#    x 3.518360 0.000000 0.005150 
#    y 0.000000 3.194560 0.000000 
#    z 0.005150 0.000000 3.419420 
# 
# 
# High freq. dielectric constant tensor:
#      x y z
#    x 1.727380 0.000000 -0.001220 
#    y 0.000000 1.697940 0.000000 
#    z -0.001220 0.000000 1.714030 
# 
# From -- ./inp_files/359814.got.cif
#   From: 2010.06.25/outbox.cif.g09.slc.cpg/sg12_180_cif.got.tgz:359814.got - 2010.06.28 00:19:55.
