data_PCOD8092374
_publ_section_title
;
Structure prediction by ZEFSAII (Michael W. Deem and Ramdas Pophale) SiO2 
 PCOD8092374
Probable space group: C 2/M
;
_chemical_formula_sum "Si O2"
_cell_formula_units_Z 44
_cell_length_a 26.400432
_cell_length_b 17.162172
_cell_length_c 5.021302
_cell_angle_alpha 90.000000
_cell_angle_beta 103.438914
_cell_angle_gamma 90.000000
_cell_volume 2212.799389
_symmetry_space_group_name_H-M "C 2/M"
_symmetry_group_IT_number 12
_symmetry_cell_setting 'monoclinic'
loop_
_space_group_symop_operation_xyz
x,y,z
-x,y,-z
-x,-y,-z
x,-y,z
1/2+x,1/2+y,z
1/2-x,1/2+y,-z
1/2-x,1/2-y,-z
1/2+x,1/2-y,z
loop_
_atom_site_type_symbol
_atom_site_label
_atom_site_fract_x
_atom_site_fract_y
_atom_site_fract_z
Si Si1 0.706439 0.914567 0.168363
Si Si2 0.102281 0.248411 0.503731
Si Si3 0.962785 0.000000 0.198149
Si Si4 0.942977 0.169209 0.056539
Si Si5 0.638093 0.911419 0.598737
Si Si6 0.778203 0.214919 0.282392
O O1 0.681927 0.911235 0.429260
O O2 0.763139 0.875852 0.250530
O O3 0.718580 0.000000 0.080802
O O4 0.664784 0.880994 0.904216
O O5 0.061814 0.219232 0.678458
O O6 0.096055 0.343319 0.474115
O O7 0.160613 0.226614 0.658483
O O8 0.094842 0.204883 0.212915
O O9 0.928900 0.079764 0.128332
O O10 0.000000 0.000000 0.500000
O O11 0.000000 0.000000 0.000000
O O12 0.000000 0.175715 0.000000
O O13 0.613642 0.000000 0.593226
O O14 0.750000 0.250000 0.500000
O O15 0.750000 0.250000 0.000000
#
# Coordination Sequence:
#
# PCOD8092374 Si02
#       6
#     8   8   4   8   8   8
#     4  10  19  35  53  79 117 163 199 235 281 346
#     4  12  22  37  64  89 119 157 202 245 308 355
#     4  10  20  42  68  88 118 156 198 244 306 368
#     4  11  24  42  64  89 116 153 200 253 298 360
#     4  10  20  35  59  84 116 158 206 238 281 359
#     4  12  21  36  57  84 123 158 191 244 294 351
#
# _framework density 19.884315000000001
#
# number of rings (size 3 to 8) (size 9 to 14) (size 15 to 20)
#    0.000    1.091    3.636    4.909    0.000    0.000 
#    3.273    0.000    0.000    3.273    0.000    0.000 
#    0.000    0.000    0.000    0.000    0.000    0.000 
#
# Total GULP energy -272545.001063 kJ/mol
# GULP energy per Si atom -12388.409139 kJ/mol
# Density = 1.983906 g / cm^3
# Si number density = 19.884315 Si / 1000 Ang^3
#
#
#
# Elastic Constant Matrix: (Units=GPa)
#
#
# Indices 1 2 3 4 5 6 
#
# 1 53.6784 30.6601 11.4913 0.0000 -5.9185 0.0000
# 2 30.6601 168.1206 40.8652 0.0000 8.9694 0.0000
# 3 11.4913 40.8652 104.0897 0.0000 -10.6696 0.0000
# 4 0.0000 0.0000 0.0000 35.3776 0.0000 4.2207
# 5 -5.9185 8.9694 -10.6696 0.0000 31.7617 0.0000
# 6 0.0000 0.0000 0.0000 4.2207 0.0000 27.6487
#
#
#
# Elastic Compliance Matrix: (Units=1/GPa)
#
#
# Indices 1 2 3 4 5 6 
#
# 1 0.021620 -0.004161 -0.000228 0.000000 0.005127 0.000000
# 2 -0.004161 0.007630 -0.002938 0.000000 -0.003917 0.000000
# 3 -0.000228 -0.002938 0.011254 0.000000 0.004568 0.000000
# 4 0.000000 0.000000 0.000000 0.028791 0.000000 -0.004395
# 5 0.005127 -0.003917 0.004568 0.000000 0.035080 0.000000
# 6 0.000000 0.000000 0.000000 -0.004395 0.000000 0.036839
#
#
# Mechanical properties :
#
#
# Convention : Reuss Voigt Hill
#
# Bulk Modulus (GPa) = 38.68281 54.65801 46.67041
# Shear Modulus (GPa) = 30.39808 35.14906 32.77357
#
# Velocity S-wave (km/s) = 3.91416 4.20894 4.06422
# Velocity P-wave (km/s) = 6.31852 7.15317 6.74876
#
# Compressibility (1/GPa) = 0.02585127
#
# Stress axis : x y z
#
# Youngs Moduli (GPa) = 46.25283 131.06170 88.85952
#
# Poissons Ratio (x) = 0.54536 0.02023
# Poissons Ratio (y) = 0.19246 0.26104
# Poissons Ratio (z) = 0.01053 0.38501
#
# Static dielectric constant tensor:
#      x y z
#    x 3.412770 0.000000 -0.062960 
#    y 0.000000 5.793160 0.000000 
#    z -0.062960 0.000000 3.889230 
# 
# 
# High freq. dielectric constant tensor:
#      x y z
#    x 1.733430 0.000000 -0.023870 
#    y 0.000000 1.797020 0.000000 
#    z -0.023870 0.000000 1.796230 
# 
# From -- ./inp_files/24871.got.cif
#   From: 2010.06.25/outbox.cif.g09.slc.cpg/sg12_13_cif.got.tgz:24871.got - 2010.06.28 00:19:55.
