data_PCOD8092000
_publ_section_title
;
Structure prediction by ZEFSAII (Michael W. Deem and Ramdas Pophale) SiO2 
 PCOD8092000
Probable space group: C 2/M
;
_chemical_formula_sum "Si O2"
_cell_formula_units_Z 64
_cell_length_a 18.674016
_cell_length_b 16.129197
_cell_length_c 14.992708
_cell_angle_alpha 90.000000
_cell_angle_beta 139.181485
_cell_angle_gamma 90.000000
_cell_volume 2951.793107
_symmetry_space_group_name_H-M "C 2/M"
_symmetry_group_IT_number 12
_symmetry_cell_setting 'monoclinic'
loop_
_space_group_symop_operation_xyz
x,y,z
-x,y,-z
-x,-y,-z
x,-y,z
1/2+x,1/2+y,z
1/2-x,1/2+y,-z
1/2-x,1/2-y,-z
1/2+x,1/2-y,z
loop_
_atom_site_type_symbol
_atom_site_label
_atom_site_fract_x
_atom_site_fract_y
_atom_site_fract_z
Si Si1 0.398291 0.903731 0.957753
Si Si2 0.249941 0.827564 0.319501
Si Si3 0.824062 0.850102 0.337055
Si Si4 0.954207 0.903206 0.784084
Si Si5 0.121525 0.597361 0.863817
Si Si6 0.496062 0.405827 0.368820
Si Si7 0.687087 0.594729 0.078819
Si Si8 0.034628 0.403000 0.436836
O O1 0.287872 0.892723 0.798124
O O2 0.421721 0.000000 0.992461
O O3 0.500000 0.862577 0.000000
O O4 0.391553 0.861840 0.050145
O O5 0.294833 0.734721 0.359557
O O6 0.137777 0.840680 0.267260
O O7 0.234623 0.850890 0.202531
O O8 0.337558 0.883694 0.455175
O O9 0.888000 0.905035 0.470266
O O10 0.906263 0.844364 0.329075
O O11 0.984083 0.876266 0.712680
O O12 0.917482 0.000000 0.754898
O O13 0.059711 0.887840 0.944899
O O14 0.100717 0.500000 0.852472
O O15 0.245032 0.615650 0.946798
O O16 0.034853 0.635706 0.710828
O O17 0.449757 0.500000 0.326626
O O18 0.707225 0.500000 0.125942
O O19 0.011243 0.500000 0.416821
O O20 0.000000 0.363448 0.500000
#
# Coordination Sequence:
#
# PCOD8092000 Si02
#       8
#     8   8   8   8   8   8   8   8
#     4  10  21  39  61  85 115 153 202 258 311 365
#     4  12  24  36  57  90 130 164 193 244 315 381
#     4  11  24  40  62  88 122 162 203 254 312 369
#     4  10  22  40  65  94 122 158 210 264 311 362
#     4   9  18  33  59  89 112 148 202 258 307 352
#     4  10  22  44  71  92 112 155 219 271 306 356
#     4  10  19  36  61  86 118 160 208 253 297 362
#     4  10  19  34  58  86 121 161 204 247 294 367
#
# _framework density 21.681736000000001
#
# number of rings (size 3 to 8) (size 9 to 14) (size 15 to 20)
#    0.000    1.750    1.250    3.750    1.750    5.500 
#    0.000    7.500    0.000    0.000    0.000    0.000 
#    0.000    0.000    0.000    0.000    0.000    0.000 
#
# Total GULP energy -396738.315400 kJ/mol
# GULP energy per Si atom -12398.072356 kJ/mol
# Density = 2.163239 g / cm^3
# Si number density = 21.681736 Si / 1000 Ang^3
#
#
#
# Elastic Constant Matrix: (Units=GPa)
#
#
# Indices 1 2 3 4 5 6 
#
# 1 117.7705 33.3955 38.2488 0.0000 15.3872 0.0000
# 2 33.3955 36.3956 8.6946 0.0000 3.4969 0.0000
# 3 38.2488 8.6946 100.1464 0.0000 18.8859 0.0000
# 4 0.0000 0.0000 0.0000 9.8523 0.0000 2.5059
# 5 15.3872 3.4969 18.8859 0.0000 34.9500 0.0000
# 6 0.0000 0.0000 0.0000 2.5059 0.0000 23.8045
#
#
#
# Elastic Compliance Matrix: (Units=1/GPa)
#
#
# Indices 1 2 3 4 5 6 
#
# 1 0.013091 -0.010902 -0.003532 0.000000 -0.002764 0.000000
# 2 -0.010902 0.037224 0.000812 0.000000 0.000637 0.000000
# 3 -0.003532 0.000812 0.012232 0.000000 -0.005136 0.000000
# 4 0.000000 0.000000 0.000000 0.104291 0.000000 -0.010979
# 5 -0.002764 0.000637 -0.005136 0.000000 0.032541 0.000000
# 6 0.000000 0.000000 0.000000 -0.010979 0.000000 0.043165
#
#
# Mechanical properties :
#
#
# Convention : Reuss Voigt Hill
#
# Bulk Modulus (GPa) = 28.32612 46.11003 37.21807
# Shear Modulus (GPa) = 17.75840 25.31959 21.53900
#
# Velocity S-wave (km/s) = 2.86501 3.42099 3.15527
# Velocity P-wave (km/s) = 4.90278 6.07595 5.52062
#
# Compressibility (1/GPa) = 0.03530311
#
# Stress axis : x y z
#
# Youngs Moduli (GPa) = 76.38908 26.86411 81.74964
#
# Poissons Ratio (x) = 0.29288 0.28874
# Poissons Ratio (y) = 0.83283 -0.06639
# Poissons Ratio (z) = 0.26981 -0.02182
#
# Static dielectric constant tensor:
#      x y z
#    x 4.095820 0.000000 -0.061340 
#    y 0.000000 3.491430 0.000000 
#    z -0.061340 0.000000 4.091910 
# 
# 
# High freq. dielectric constant tensor:
#      x y z
#    x 1.853210 0.000000 0.001300 
#    y 0.000000 1.812480 0.000000 
#    z 0.001300 0.000000 1.867380 
# 
# From -- ./inp_files/226869.got.cif
#   From: 2010.06.25/outbox.cif.g09.slc.cpg/sg12_114_cif.got.tgz:226869.got - 2010.06.28 00:19:55.
