data_PCOD8092806
_publ_section_title
;
Structure prediction by ZEFSAII (Michael W. Deem and Ramdas Pophale) SiO2 
 PCOD8092806
Probable space group: C 2/M
;
_chemical_formula_sum "Si O2"
_cell_formula_units_Z 64
_cell_length_a 16.145582
_cell_length_b 17.446825
_cell_length_c 16.005120
_cell_angle_alpha 90.000000
_cell_angle_beta 48.354038
_cell_angle_gamma 90.000000
_cell_volume 3369.021904
_symmetry_space_group_name_H-M "C 2/M"
_symmetry_group_IT_number 12
_symmetry_cell_setting 'monoclinic'
loop_
_space_group_symop_operation_xyz
x,y,z
-x,y,-z
-x,-y,-z
x,-y,z
1/2+x,1/2+y,z
1/2-x,1/2+y,-z
1/2-x,1/2-y,-z
1/2+x,1/2-y,z
loop_
_atom_site_type_symbol
_atom_site_label
_atom_site_fract_x
_atom_site_fract_y
_atom_site_fract_z
Si Si1 0.741925 0.587809 0.894422
Si Si2 0.306476 0.586298 0.427286
Si Si3 0.171088 0.412483 0.679322
Si Si4 0.671072 0.708725 0.358807
Si Si5 0.703610 0.360601 0.742647
Si Si6 0.541761 0.821587 0.195167
Si Si7 0.533336 0.690371 0.069959
Si Si8 0.963838 0.211124 0.389540
O O1 0.744865 0.500000 0.924312
O O2 0.739952 0.586031 0.794943
O O3 0.847774 0.633498 0.856046
O O4 0.633026 0.629803 0.001622
O O5 0.352019 0.500000 0.401998
O O6 0.206833 0.599028 0.559126
O O7 0.253175 0.602734 0.372345
O O8 0.411238 0.640614 0.374691
O O9 0.177221 0.500000 0.703696
O O10 0.254950 0.366514 0.681888
O O11 0.047123 0.383107 0.776966
O O12 0.746086 0.776904 0.273609
O O13 0.578670 0.684653 0.353962
O O14 0.620140 0.737387 0.481145
O O15 0.571255 0.354157 0.821836
O O16 0.568810 0.761767 0.103476
O O17 0.486917 0.780757 0.311911
O O18 0.500000 0.720361 0.000000
#
# Coordination Sequence:
#
# PCOD8092806 Si02
#       8
#     8   8   8   8   8   8   8   8
#     4  11  25  40  58  87 115 146 188 240 296 338
#     4  10  20  34  54  87 122 152 189 231 280 334
#     4  10  21  35  57  86 118 155 190 229 280 341
#     4  10  19  35  57  88 120 149 193 227 275 337
#     4  11  19  37  61  83 114 154 185 235 284 343
#     4  12  20  40  62  82 114 154 192 229 286 340
#     4  10  23  39  63  85 105 147 197 246 283 337
#     4  10  20  33  59  87 116 154 191 233 270 341
#
# _framework density 18.99661
#
# number of rings (size 3 to 8) (size 9 to 14) (size 15 to 20)
#    0.000    1.500    3.750    1.875    0.000    5.250 
#    0.000    2.500    0.000    6.000    0.000    0.000 
#    0.000    0.000    0.000    0.000    0.000    0.000 
#
# Total GULP energy -396855.300224 kJ/mol
# GULP energy per Si atom -12401.728132 kJ/mol
# Density = 1.895337 g / cm^3
# Si number density = 18.996610 Si / 1000 Ang^3
#
#
#
# Elastic Constant Matrix: (Units=GPa)
#
#
# Indices 1 2 3 4 5 6 
#
# 1 82.9333 44.4417 27.6219 0.0000 -14.5273 0.0000
# 2 44.4417 123.1948 40.6198 0.0000 -12.7661 0.0000
# 3 27.6219 40.6198 54.2335 0.0000 -9.6712 0.0000
# 4 0.0000 0.0000 0.0000 27.4006 0.0000 0.4054
# 5 -14.5273 -12.7661 -9.6712 0.0000 32.9784 0.0000
# 6 0.0000 0.0000 0.0000 0.4054 0.0000 22.1613
#
#
#
# Elastic Compliance Matrix: (Units=1/GPa)
#
#
# Indices 1 2 3 4 5 6 
#
# 1 0.016497 -0.003964 -0.004655 0.000000 0.004368 0.000000
# 2 -0.003964 0.011846 -0.006698 0.000000 0.000875 0.000000
# 3 -0.004655 -0.006698 0.026377 0.000000 0.003092 0.000000
# 4 0.000000 0.000000 0.000000 0.036505 0.000000 -0.000668
# 5 0.004368 0.000875 0.003092 0.000000 0.033493 0.000000
# 6 0.000000 0.000000 0.000000 -0.000668 0.000000 0.045136
#
#
# Mechanical properties :
#
#
# Convention : Reuss Voigt Hill
#
# Bulk Modulus (GPa) = 41.51333 53.96983 47.74158
# Shear Modulus (GPa) = 23.97891 26.35328 25.16609
#
# Velocity S-wave (km/s) = 3.55670 3.72864 3.64368
# Velocity P-wave (km/s) = 6.22634 6.85630 6.54890
#
# Compressibility (1/GPa) = 0.02408865
#
# Stress axis : x y z
#
# Youngs Moduli (GPa) = 60.61547 84.41489 37.91161
#
# Poissons Ratio (x) = 0.33462 0.17646
# Poissons Ratio (y) = 0.24028 0.25391
# Poissons Ratio (z) = 0.28214 0.56537
#
# Static dielectric constant tensor:
#      x y z
#    x 3.518980 0.000000 0.000100 
#    y 0.000000 3.374160 0.000000 
#    z 0.000100 0.000000 3.540250 
# 
# 
# High freq. dielectric constant tensor:
#      x y z
#    x 1.742710 0.000000 -0.004030 
#    y 0.000000 1.733860 0.000000 
#    z -0.004030 0.000000 1.735250 
# 
# From -- ./inp_files/225319.got.cif
#   From: 2010.06.25/outbox.cif.g09.slc.cpg/sg12_113_cif.got.tgz:225319.got - 2010.06.28 00:19:55.
