data_PCOD8092160
_publ_section_title
;
Structure prediction by ZEFSAII (Michael W. Deem and Ramdas Pophale) SiO2 
 PCOD8092160
Probable space group: C 2/M
;
_chemical_formula_sum "Si O2"
_cell_formula_units_Z 48
_cell_length_a 15.011824
_cell_length_b 13.907858
_cell_length_c 11.867523
_cell_angle_alpha 90.000000
_cell_angle_beta 86.363694
_cell_angle_gamma 90.000000
_cell_volume 2472.740631
_symmetry_space_group_name_H-M "C 2/M"
_symmetry_group_IT_number 12
_symmetry_cell_setting 'monoclinic'
loop_
_space_group_symop_operation_xyz
x,y,z
-x,y,-z
-x,-y,-z
x,-y,z
1/2+x,1/2+y,z
1/2-x,1/2+y,-z
1/2-x,1/2-y,-z
1/2+x,1/2-y,z
loop_
_atom_site_type_symbol
_atom_site_label
_atom_site_fract_x
_atom_site_fract_y
_atom_site_fract_z
Si Si1 0.131328 0.614507 0.782703
Si Si2 0.909294 0.395646 0.559624
Si Si3 0.398974 0.106331 0.970038
Si Si4 0.245157 0.343738 0.576033
Si Si5 0.556027 0.783787 0.241620
Si Si6 0.441639 0.391842 0.610167
O O1 0.128107 0.500000 0.760014
O O2 0.209373 0.668514 0.706988
O O3 0.037715 0.661140 0.753316
O O4 0.154993 0.634688 0.912400
O O5 0.931760 0.500000 0.608889
O O6 0.829705 0.409278 0.477324
O O7 0.881526 0.324462 0.662673
O O8 0.000000 0.351702 0.500000
O O9 0.390432 0.192195 0.878356
O O10 0.368450 0.000000 0.926549
O O11 0.500000 0.096053 0.000000
O O12 0.250000 0.250000 0.500000
O O13 0.340300 0.394308 0.574432
O O14 0.544353 0.671394 0.276150
O O15 0.500000 0.353003 0.500000
O O16 0.470813 0.500000 0.640273
#
# Coordination Sequence:
#
# PCOD8092160 Si02
#       6
#     8   8   8   8   8   8
#     4  10  19  34  59  88 115 141 176 229 290 341
#     4  11  20  31  54  86 115 139 169 225 292 342
#     4   8  16  30  53  85 116 142 171 218 285 346
#     4  12  22  36  54  81 115 148 183 227 276 331
#     4  11  18  33  55  84 113 142 180 224 274 338
#     4  11  24  40  54  74 110 157 200 231 266 323
#
# _framework density 19.411660000000001
#
# number of rings (size 3 to 8) (size 9 to 14) (size 15 to 20)
#    0.000    1.500    3.333    5.500    0.000    0.000 
#    0.000    0.833    0.000    4.500    0.000    0.000 
#    0.000    0.000    0.000    0.000    0.000    0.000 
#
# Total GULP energy -297341.564520 kJ/mol
# GULP energy per Si atom -12389.231855 kJ/mol
# Density = 1.936748 g / cm^3
# Si number density = 19.411660 Si / 1000 Ang^3
#
#
#
# Elastic Constant Matrix: (Units=GPa)
#
#
# Indices 1 2 3 4 5 6 
#
# 1 79.1906 3.2887 33.6149 0.0000 -8.9103 0.0000
# 2 3.2887 114.3766 65.3471 0.0000 -6.1236 0.0000
# 3 33.6149 65.3471 158.1337 0.0000 -17.5810 0.0000
# 4 0.0000 0.0000 0.0000 33.6375 0.0000 -0.1475
# 5 -8.9103 -6.1236 -17.5810 0.0000 25.4629 0.0000
# 6 0.0000 0.0000 0.0000 -0.1475 0.0000 10.3364
#
#
#
# Elastic Compliance Matrix: (Units=1/GPa)
#
#
# Indices 1 2 3 4 5 6 
#
# 1 0.014351 0.001701 -0.003412 0.000000 0.003075 0.000000
# 2 0.001701 0.011654 -0.005199 0.000000 -0.000192 0.000000
# 3 -0.003412 -0.005199 0.009668 0.000000 0.004231 0.000000
# 4 0.000000 0.000000 0.000000 0.029731 0.000000 0.000424
# 5 0.003075 -0.000192 0.004231 0.000000 0.043224 0.000000
# 6 0.000000 0.000000 0.000000 0.000424 0.000000 0.096752
#
#
# Mechanical properties :
#
#
# Convention : Reuss Voigt Hill
#
# Bulk Modulus (GPa) = 45.75717 61.80025 53.77871
# Shear Modulus (GPa) = 22.07667 30.51738 26.29702
#
# Velocity S-wave (km/s) = 3.37603 3.96929 3.68462
# Velocity P-wave (km/s) = 6.23057 7.27412 6.77247
#
# Compressibility (1/GPa) = 0.02185450
#
# Stress axis : x y z
#
# Youngs Moduli (GPa) = 69.67957 85.80611 103.43606
#
# Poissons Ratio (x) = -0.14598 0.35291
# Poissons Ratio (y) = -0.11855 0.53775
# Poissons Ratio (z) = 0.23774 0.44610
#
# Static dielectric constant tensor:
#      x y z
#    x 3.400980 0.000000 -0.109990 
#    y 0.000000 3.474670 0.000000 
#    z -0.109990 0.000000 4.111880 
# 
# 
# High freq. dielectric constant tensor:
#      x y z
#    x 1.726080 0.000000 -0.008870 
#    y 0.000000 1.749300 0.000000 
#    z -0.008870 0.000000 1.756730 
# 
# From -- ./inp_files/142829.got.cif
#   From: 2010.06.25/outbox.cif.g09.slc.cpg/sg12_72_cif.got.tgz:142829.got - 2010.06.28 00:19:55.
