data_PCOD8092962
_publ_section_title
;
Structure prediction by ZEFSAII (Michael W. Deem and Ramdas Pophale) SiO2 
 PCOD8092962
Probable space group: C 2/M
;
_chemical_formula_sum "Si O2"
_cell_formula_units_Z 52
_cell_length_a 5.022809
_cell_length_b 19.940821
_cell_length_c 26.878859
_cell_angle_alpha 90.000000
_cell_angle_beta 73.133408
_cell_angle_gamma 90.000000
_cell_volume 2576.349135
_symmetry_space_group_name_H-M "C 2/M"
_symmetry_group_IT_number 12
_symmetry_cell_setting 'monoclinic'
loop_
_space_group_symop_operation_xyz
x,y,z
-x,y,-z
-x,-y,-z
x,-y,z
1/2+x,1/2+y,z
1/2-x,1/2+y,-z
1/2-x,1/2-y,-z
1/2+x,1/2-y,z
loop_
_atom_site_type_symbol
_atom_site_label
_atom_site_fract_x
_atom_site_fract_y
_atom_site_fract_z
Si Si1 0.170830 0.420860 0.368406
Si Si2 0.029069 0.291005 0.944948
Si Si3 0.637034 0.603351 0.125824
Si Si4 0.733473 0.077602 0.698582
Si Si5 0.046510 0.424670 0.189053
Si Si6 0.595943 0.206182 0.438634
Si Si7 0.193359 0.000000 0.037153
O O1 0.180948 0.500000 0.385283
O O2 0.450085 0.398690 0.324657
O O3 0.128846 0.369724 0.416347
O O4 0.919972 0.407557 0.344559
O O5 0.215998 0.224321 0.944011
O O6 0.194631 0.329188 0.893321
O O7 0.000000 0.329393 0.000000
O O8 0.808295 0.567992 0.160399
O O9 0.631282 0.563599 0.074634
O O10 0.318187 0.618020 0.158762
O O11 0.583990 0.111098 0.754547
O O12 0.732784 0.000000 0.711591
O O13 0.157824 0.500000 0.193892
O O14 0.500000 0.195873 0.500000
O O15 0.377915 0.250979 0.419735
O O16 0.500000 0.000000 0.000000
O O17 0.000000 0.000000 0.000000
#
# Coordination Sequence:
#
# PCOD8092962 Si02
#       7
#     8   8   8   8   8   8   4
#     4  10  19  35  58  87 115 149 201 250 294 329
#     4  10  22  40  59  76  97 136 184 219 258 318
#     4  12  22  37  58  82 110 142 175 223 276 332
#     4   9  19  33  56  83 113 147 186 241 281 329
#     4  11  20  36  56  84 115 144 182 219 280 350
#     4  10  21  37  58  85 121 164 201 237 293 363
#     4  12  24  36  52  82 118 138 164 214 281 340
#
# _framework density 20.183599999999998
#
# number of rings (size 3 to 8) (size 9 to 14) (size 15 to 20)
#    0.000    1.538    1.538    4.154    0.000    4.615 
#    0.000    0.000    0.000   24.000    0.000    0.000 
#    0.000    0.000    0.000    0.000    0.000    0.000 
#
# Total GULP energy -322258.122718 kJ/mol
# GULP energy per Si atom -12394.543181 kJ/mol
# Density = 2.013766 g / cm^3
# Si number density = 20.183600 Si / 1000 Ang^3
#
#
#
# Elastic Constant Matrix: (Units=GPa)
#
#
# Indices 1 2 3 4 5 6 
#
# 1 112.5939 17.9476 24.0860 0.0000 -5.7167 0.0000
# 2 17.9476 69.1302 40.3501 0.0000 1.7361 0.0000
# 3 24.0860 40.3501 86.6660 0.0000 -3.0877 0.0000
# 4 0.0000 0.0000 0.0000 23.2365 0.0000 -5.1959
# 5 -5.7167 1.7361 -3.0877 0.0000 24.8344 0.0000
# 6 0.0000 0.0000 0.0000 -5.1959 0.0000 20.4707
#
#
#
# Elastic Compliance Matrix: (Units=1/GPa)
#
#
# Indices 1 2 3 4 5 6 
#
# 1 0.009628 -0.001419 -0.001942 0.000000 0.002074 0.000000
# 2 -0.001419 0.020234 -0.009129 0.000000 -0.002876 0.000000
# 3 -0.001942 -0.009129 0.016408 0.000000 0.002231 0.000000
# 4 0.000000 0.000000 0.000000 0.045625 0.000000 0.011581
# 5 0.002074 -0.002876 0.002231 0.000000 0.041223 0.000000
# 6 0.000000 0.000000 0.000000 0.011581 0.000000 0.051790
#
#
# Mechanical properties :
#
#
# Convention : Reuss Voigt Hill
#
# Bulk Modulus (GPa) = 46.96501 48.12860 47.54680
# Shear Modulus (GPa) = 23.04317 26.10873 24.57595
#
# Velocity S-wave (km/s) = 3.38254 3.60051 3.49323
# Velocity P-wave (km/s) = 6.21086 6.41733 6.31494
#
# Compressibility (1/GPa) = 0.02129245
#
# Stress axis : x y z
#
# Youngs Moduli (GPa) = 103.86130 49.42077 60.94615
#
# Poissons Ratio (x) = 0.07011 0.11833
# Poissons Ratio (y) = 0.14733 0.55638
# Poissons Ratio (z) = 0.20165 0.45116
#
# Static dielectric constant tensor:
#      x y z
#    x 3.857740 0.000000 -0.191040 
#    y 0.000000 3.336480 0.000000 
#    z -0.191040 0.000000 3.830140 
# 
# 
# High freq. dielectric constant tensor:
#      x y z
#    x 1.809350 0.000000 -0.008930 
#    y 0.000000 1.750080 0.000000 
#    z -0.008930 0.000000 1.787380 
# 
# From -- ./inp_files/331245.got.cif
#   From: 2010.06.25/outbox.cif.g09.slc.cpg/sg12_166_cif.got.tgz:331245.got - 2010.06.28 00:19:55.
