data_PCOD8092124
_publ_section_title
;
Structure prediction by ZEFSAII (Michael W. Deem and Ramdas Pophale) SiO2 
 PCOD8092124
Probable space group: C 2/M
;
_chemical_formula_sum "Si O2"
_cell_formula_units_Z 56
_cell_length_a 28.301946
_cell_length_b 12.971399
_cell_length_c 12.125619
_cell_angle_alpha 90.000000
_cell_angle_beta 42.736854
_cell_angle_gamma 90.000000
_cell_volume 3020.936003
_symmetry_space_group_name_H-M "C 2/M"
_symmetry_group_IT_number 12
_symmetry_cell_setting 'monoclinic'
loop_
_space_group_symop_operation_xyz
x,y,z
-x,y,-z
-x,-y,-z
x,-y,z
1/2+x,1/2+y,z
1/2-x,1/2+y,-z
1/2-x,1/2-y,-z
1/2+x,1/2-y,z
loop_
_atom_site_type_symbol
_atom_site_label
_atom_site_fract_x
_atom_site_fract_y
_atom_site_fract_z
Si Si1 0.935503 0.884598 0.172628
Si Si2 0.684634 0.119276 0.062441
Si Si3 0.024085 0.620921 0.336061
Si Si4 0.190823 0.819711 0.727733
Si Si5 0.096117 0.279049 0.594037
Si Si6 0.819948 0.383333 0.370067
Si Si7 0.776355 0.281835 0.782718
O O1 0.876759 0.887392 0.178589
O O2 0.914728 0.824486 0.318172
O O3 0.954063 0.000000 0.178474
O O4 0.000000 0.831059 0.000000
O O5 0.604530 0.153560 0.179154
O O6 0.702914 0.137575 0.158908
O O7 0.694224 0.000000 0.018426
O O8 0.739522 0.180164 0.893532
O O9 0.013322 0.500000 0.333188
O O10 0.000000 0.650052 0.500000
O O11 0.976435 0.684631 0.333541
O O12 0.170402 0.698334 0.745841
O O13 0.243723 0.861426 0.546106
O O14 0.220807 0.837838 0.798170
O O15 0.123674 0.367658 0.629131
O O16 0.153956 0.251481 0.403009
O O17 0.826769 0.500000 0.312901
#
# Coordination Sequence:
#
# PCOD8092124 Si02
#       7
#     8   8   8   8   8   8   8
#     4  10  22  38  55  78 107 144 186 225 271 328
#     4  10  22  37  54  82 115 146 184 228 275 328
#     4  10  19  34  59  86 111 144 183 225 279 334
#     4   9  19  32  52  77 104 141 174 221 272 316
#     4  10  20  35  59  83 110 145 181 229 276 325
#     4   9  17  31  52  81 108 132 175 222 269 327
#     4  10  21  36  55  82 110 144 184 226 277 320
#
# _framework density 18.537299999999998
#
# number of rings (size 3 to 8) (size 9 to 14) (size 15 to 20)
#    0.000    2.286    1.429    1.714    2.000    4.000 
#    0.000    0.000    0.000    2.571    0.000    0.000 
#    0.000    0.000    0.000    0.000    0.000    0.000 
#
# Total GULP energy -347105.075145 kJ/mol
# GULP energy per Si atom -12396.609827 kJ/mol
# Density = 1.849511 g / cm^3
# Si number density = 18.537300 Si / 1000 Ang^3
#
#
#
# Elastic Constant Matrix: (Units=GPa)
#
#
# Indices 1 2 3 4 5 6 
#
# 1 131.1125 17.6910 29.5588 0.0000 -14.4114 0.0000
# 2 17.6910 70.0691 15.3401 0.0000 -8.0967 0.0000
# 3 29.5588 15.3401 64.4364 0.0000 -5.4274 0.0000
# 4 0.0000 0.0000 0.0000 17.6436 0.0000 -3.1417
# 5 -14.4114 -8.0967 -5.4274 0.0000 24.0803 0.0000
# 6 0.0000 0.0000 0.0000 -3.1417 0.0000 21.2727
#
#
#
# Elastic Compliance Matrix: (Units=1/GPa)
#
#
# Indices 1 2 3 4 5 6 
#
# 1 0.009031 -0.001012 -0.003543 0.000000 0.004266 0.000000
# 2 -0.001012 0.015628 -0.002920 0.000000 0.003991 0.000000
# 3 -0.003543 -0.002920 0.017918 0.000000 0.000937 0.000000
# 4 0.000000 0.000000 0.000000 0.058208 0.000000 0.008597
# 5 0.004266 0.003991 0.000937 0.000000 0.045634 0.000000
# 6 0.000000 0.000000 0.000000 0.008597 0.000000 0.048278
#
#
# Mechanical properties :
#
#
# Convention : Reuss Voigt Hill
#
# Bulk Modulus (GPa) = 36.19497 43.42200 39.80848
# Shear Modulus (GPa) = 22.84608 26.13452 24.49030
#
# Velocity S-wave (km/s) = 3.51442 3.75885 3.63869
# Velocity P-wave (km/s) = 6.00300 6.50489 6.25898
#
# Compressibility (1/GPa) = 0.02762815
#
# Stress axis : x y z
#
# Youngs Moduli (GPa) = 110.72779 63.98965 55.80855
#
# Poissons Ratio (x) = 0.06473 0.19771
# Poissons Ratio (y) = 0.11201 0.16297
# Poissons Ratio (z) = 0.39227 0.18686
#
# Static dielectric constant tensor:
#      x y z
#    x 3.597920 0.000000 -0.119560 
#    y 0.000000 3.214510 0.000000 
#    z -0.119560 0.000000 3.378010 
# 
# 
# High freq. dielectric constant tensor:
#      x y z
#    x 1.731650 0.000000 -0.010110 
#    y 0.000000 1.704240 0.000000 
#    z -0.010110 0.000000 1.711220 
# 
# From -- ./inp_files/182468.got.cif
#   From: 2010.06.25/outbox.cif.g09.slc.cpg/sg12_92_cif.got.tgz:182468.got - 2010.06.28 00:19:55.
