data_PCOD8092090
_publ_section_title
;
Structure prediction by ZEFSAII (Michael W. Deem and Ramdas Pophale) SiO2 
 PCOD8092090
Probable space group: C 2/M
;
_chemical_formula_sum "Si O2"
_cell_formula_units_Z 48
_cell_length_a 23.795397
_cell_length_b 10.402792
_cell_length_c 10.988118
_cell_angle_alpha 90.000000
_cell_angle_beta 115.789770
_cell_angle_gamma 90.000000
_cell_volume 2449.063053
_symmetry_space_group_name_H-M "C 2/M"
_symmetry_group_IT_number 12
_symmetry_cell_setting 'monoclinic'
loop_
_space_group_symop_operation_xyz
x,y,z
-x,y,-z
-x,-y,-z
x,-y,z
1/2+x,1/2+y,z
1/2-x,1/2+y,-z
1/2-x,1/2-y,-z
1/2+x,1/2-y,z
loop_
_atom_site_type_symbol
_atom_site_label
_atom_site_fract_x
_atom_site_fract_y
_atom_site_fract_z
Si Si1 0.580745 0.638884 0.234818
Si Si2 0.835650 0.355163 0.305878
Si Si3 0.448075 0.274897 0.541639
Si Si4 0.648462 0.146837 0.956846
Si Si5 0.802524 0.147135 0.809777
Si Si6 0.496956 0.856572 0.192150
O O1 0.559798 0.500000 0.161239
O O2 0.576058 0.626796 0.377555
O O3 0.651376 0.669822 0.260760
O O4 0.535602 0.754192 0.145552
O O5 0.858517 0.500000 0.351397
O O6 0.887361 0.262716 0.408937
O O7 0.825968 0.330712 0.153966
O O8 0.768091 0.329395 0.303630
O O9 0.500000 0.336335 0.500000
O O10 0.481856 0.156644 0.645819
O O11 0.575135 0.175332 0.888967
O O12 0.662133 0.000000 0.012859
O O13 0.682277 0.250360 0.072012
O O14 0.808701 0.000000 0.865853
O O15 0.512833 0.000000 0.161615
#
# Coordination Sequence:
#
# PCOD8092090 Si02
#       6
#     8   8   8   8   8   8
#     4   9  21  38  53  78 115 148 183 223 269 326
#     4  10  19  34  59  84 110 144 181 225 275 328
#     4  10  19  35  60  84 108 137 180 230 280 324
#     4  10  20  36  58  86 112 138 183 235 273 316
#     4  10  22  39  55  77 112 154 188 216 265 332
#     4   9  19  34  57  84 107 136 180 229 276 321
#
# _framework density 19.599332
#
# number of rings (size 3 to 8) (size 9 to 14) (size 15 to 20)
#    1.000    1.333    1.667    1.000    0.000    3.667 
#    0.000    5.000    0.000    0.000    0.000    0.000 
#    0.000    0.000    0.000    0.000    0.000    0.000 
#
# Total GULP energy -297334.403784 kJ/mol
# GULP energy per Si atom -12388.933491 kJ/mol
# Density = 1.955472 g / cm^3
# Si number density = 19.599332 Si / 1000 Ang^3
#
#
#
# Elastic Constant Matrix: (Units=GPa)
#
#
# Indices 1 2 3 4 5 6 
#
# 1 112.3491 31.5805 8.6189 0.0000 6.3447 0.0000
# 2 31.5805 83.4213 12.9385 0.0000 13.8244 0.0000
# 3 8.6189 12.9385 43.7012 0.0000 13.2098 0.0000
# 4 0.0000 0.0000 0.0000 19.5929 0.0000 0.0795
# 5 6.3447 13.8244 13.2098 0.0000 23.8249 0.0000
# 6 0.0000 0.0000 0.0000 0.0795 0.0000 18.4220
#
#
#
# Elastic Compliance Matrix: (Units=1/GPa)
#
#
# Indices 1 2 3 4 5 6 
#
# 1 0.009994 -0.003637 -0.000874 0.000000 -0.000067 0.000000
# 2 -0.003637 0.014722 -0.001624 0.000000 -0.006673 0.000000
# 3 -0.000874 -0.001624 0.027848 0.000000 -0.014265 0.000000
# 4 0.000000 0.000000 0.000000 0.051040 0.000000 -0.000220
# 5 -0.000067 -0.006673 -0.014265 0.000000 0.053772 0.000000
# 6 0.000000 0.000000 0.000000 -0.000220 0.000000 0.054284
#
#
# Mechanical properties :
#
#
# Convention : Reuss Voigt Hill
#
# Bulk Modulus (GPa) = 24.81796 38.41639 31.61718
# Shear Modulus (GPa) = 21.06496 24.79021 22.92759
#
# Velocity S-wave (km/s) = 3.28194 3.56033 3.42397
# Velocity P-wave (km/s) = 5.20112 6.04522 5.63899
#
# Compressibility (1/GPa) = 0.04029339
#
# Stress axis : x y z
#
# Youngs Moduli (GPa) = 100.06092 67.92600 35.90924
#
# Poissons Ratio (x) = 0.24703 0.03139
# Poissons Ratio (y) = 0.36390 0.05833
# Poissons Ratio (z) = 0.08747 0.11033
#
# Static dielectric constant tensor:
#      x y z
#    x 3.744570 0.000000 -0.071310 
#    y 0.000000 3.449570 0.000000 
#    z -0.071310 0.000000 3.178200 
# 
# 
# High freq. dielectric constant tensor:
#      x y z
#    x 1.781430 0.000000 -0.001350 
#    y 0.000000 1.753710 0.000000 
#    z -0.001350 0.000000 1.734030 
# 
# From -- ./inp_files/164323.got.cif
#   From: 2010.06.25/outbox.cif.g09.slc.cpg/sg12_83_cif.got.tgz:164323.got - 2010.06.28 00:19:55.
