data_PCOD8093596
_publ_section_title
;
Structure prediction by ZEFSAII (Michael W. Deem and Ramdas Pophale) SiO2 
 PCOD8093596
Probable space group: C 2/M
;
_chemical_formula_sum "Si O2"
_cell_formula_units_Z 40
_cell_length_a 10.510120
_cell_length_b 23.808494
_cell_length_c 14.069687
_cell_angle_alpha 90.000000
_cell_angle_beta 148.610317
_cell_angle_gamma 90.000000
_cell_volume 1833.756420
_symmetry_space_group_name_H-M "C 2/M"
_symmetry_group_IT_number 12
_symmetry_cell_setting 'monoclinic'
loop_
_space_group_symop_operation_xyz
x,y,z
-x,y,-z
-x,-y,-z
x,-y,z
1/2+x,1/2+y,z
1/2-x,1/2+y,-z
1/2-x,1/2-y,-z
1/2+x,1/2-y,z
loop_
_atom_site_type_symbol
_atom_site_label
_atom_site_fract_x
_atom_site_fract_y
_atom_site_fract_z
Si Si1 0.449634 0.151964 0.249008
Si Si2 0.796253 0.562876 0.290754
Si Si3 0.496218 0.342273 0.398551
Si Si4 0.778791 0.724188 0.297908
Si Si5 0.090545 0.855322 0.865139
O O1 0.417627 0.090530 0.275105
O O2 0.722646 0.175761 0.436913
O O3 0.272922 0.195813 0.190375
O O4 0.362517 0.147645 0.083370
O O5 0.710151 0.500000 0.210185
O O6 0.561650 0.597480 0.176401
O O7 0.000000 0.561691 0.500000
O O8 0.500000 0.379841 0.500000
O O9 0.316289 0.290512 0.309642
O O10 0.393615 0.371083 0.237339
O O11 0.534113 0.706481 0.199739
O O12 0.000000 0.697020 0.500000
#
# Coordination Sequence:
#
# PCOD8093596 Si02
#       5
#     8   8   8   8   8
#     4  11  21  38  59  85 119 148 187 245 290 335
#     4  10  19  37  69  94 112 144 183 237 306 346
#     4  11  24  39  54  78 119 163 198 232 275 341
#     4  10  19  36  58  76 112 155 188 238 289 322
#     4  11  22  39  58  86 120 147 190 248 288 333
#
# _framework density 21.813148000000002
#
# number of rings (size 3 to 8) (size 9 to 14) (size 15 to 20)
#    0.000    1.400    4.000    4.200    2.800    3.200 
#    7.200    0.000    0.000    2.400    0.000    2.800 
#    0.000    0.000    0.000    0.000    0.000    0.000 
#
# Total GULP energy -247797.967132 kJ/mol
# GULP energy per Si atom -12389.898357 kJ/mol
# Density = 2.176350 g / cm^3
# Si number density = 21.813148 Si / 1000 Ang^3
#
#
#
# Elastic Constant Matrix: (Units=GPa)
#
#
# Indices 1 2 3 4 5 6 
#
# 1 85.1569 16.7885 20.7468 -0.0003 -35.0663 -0.0003
# 2 16.7885 78.4686 12.2742 0.0000 5.7987 0.0000
# 3 20.7468 12.2742 114.5793 -0.0006 -38.6635 -0.0003
# 4 -0.0003 0.0000 -0.0006 13.8493 -0.0004 -0.9783
# 5 -35.0663 5.7987 -38.6635 -0.0004 40.0339 -0.0004
# 6 -0.0003 0.0000 -0.0003 -0.9783 -0.0004 8.0615
#
#
#
# Elastic Compliance Matrix: (Units=1/GPa)
#
#
# Indices 1 2 3 4 5 6 
#
# 1 0.022844 -0.007741 0.005671 0.000002 0.026608 0.000002
# 2 -0.007741 0.016230 -0.005071 -0.000001 -0.014028 -0.000001
# 3 0.005671 -0.005071 0.015084 0.000001 0.020269 0.000002
# 4 0.000002 -0.000001 0.000001 0.072830 0.000003 0.008838
# 5 0.026608 -0.014028 0.020269 0.000003 0.069893 0.000006
# 6 0.000002 -0.000001 0.000002 0.008838 0.000006 0.125119
#
#
# Mechanical properties :
#
#
# Convention : Reuss Voigt Hill
#
# Bulk Modulus (GPa) = 25.07688 41.98043 33.52866
# Shear Modulus (GPa) = 14.30317 27.61529 20.95923
#
# Velocity S-wave (km/s) = 2.56347 3.56194 3.10313
# Velocity P-wave (km/s) = 4.50367 6.01696 5.31445
#
# Compressibility (1/GPa) = 0.03987736
#
# Stress axis : x y z
#
# Youngs Moduli (GPa) = 43.77463 61.61434 66.29758
#
# Poissons Ratio (x) = 0.47696 -0.37601
# Poissons Ratio (y) = 0.33886 0.33617
# Poissons Ratio (z) = -0.24827 0.31243
#
# Static dielectric constant tensor:
#      x y z
#    x 4.089730 0.000000 -0.367510 
#    y 0.000000 3.730650 0.000000 
#    z -0.367510 0.000000 4.087300 
# 
# 
# High freq. dielectric constant tensor:
#      x y z
#    x 1.849680 0.000000 -0.020680 
#    y 0.000000 1.800300 0.000000 
#    z -0.020680 0.000000 1.874210 
# 
# From -- ./inp_files/208712.got.cif
#   From: 2010.06.25/outbox.cif.g09.slc.cpg/sg12_105_cif.got.tgz:208712.got - 2010.06.28 00:19:55.
