data_PCOD8093711
_publ_section_title
;
Structure prediction by ZEFSAII (Michael W. Deem and Ramdas Pophale) SiO2 
 PCOD8093711
Probable space group: C 2/M
;
_chemical_formula_sum "Si O2"
_cell_formula_units_Z 56
_cell_length_a 21.921319
_cell_length_b 15.763202
_cell_length_c 19.496935
_cell_angle_alpha 90.000000
_cell_angle_beta 25.181714
_cell_angle_gamma 90.000000
_cell_volume 2866.601528
_symmetry_space_group_name_H-M "C 2/M"
_symmetry_group_IT_number 12
_symmetry_cell_setting 'monoclinic'
loop_
_space_group_symop_operation_xyz
x,y,z
-x,y,-z
-x,-y,-z
x,-y,z
1/2+x,1/2+y,z
1/2-x,1/2+y,-z
1/2-x,1/2-y,-z
1/2+x,1/2-y,z
loop_
_atom_site_type_symbol
_atom_site_label
_atom_site_fract_x
_atom_site_fract_y
_atom_site_fract_z
Si Si1 0.481631 0.850749 0.094452
Si Si2 0.568473 0.093557 0.710555
Si Si3 0.987274 0.095243 0.123097
Si Si4 0.230487 0.214509 0.852078
Si Si5 0.505132 0.767543 0.320853
Si Si6 0.248865 0.283169 0.319166
Si Si7 0.402863 0.595839 0.365138
O O1 0.484399 0.913667 0.156417
O O2 0.326572 0.805589 0.256379
O O3 0.500000 0.894592 0.000000
O O4 0.610215 0.786244 0.975207
O O5 0.489273 0.169670 0.750641
O O6 0.735346 0.114924 0.538082
O O7 0.538042 0.000000 0.708927
O O8 0.869073 0.144410 0.199515
O O9 0.955173 0.105910 0.235262
O O10 0.977000 0.000000 0.107982
O O11 0.149032 0.125893 0.945352
O O12 0.341698 0.227656 0.799639
O O13 0.312993 0.216508 0.695271
O O14 0.379822 0.801005 0.497870
O O15 0.483445 0.668344 0.326105
O O16 0.436621 0.500000 0.358708
#
# Coordination Sequence:
#
# PCOD8093711 Si02
#       7
#     8   8   8   8   8   8   8
#     4   9  19  38  59  82 109 146 191 234 282 346
#     4  11  22  36  59  88 114 149 197 239 282 344
#     4  10  20  37  58  83 115 152 199 244 281 339
#     4  10  23  35  54  87 118 150 193 234 293 345
#     4  12  21  37  61  86 119 155 187 244 294 336
#     4  10  19  36  59  81 110 156 200 232 277 344
#     4  10  21  37  62  88 108 147 200 242 289 348
#
# _framework density 19.535328
#
# number of rings (size 3 to 8) (size 9 to 14) (size 15 to 20)
#    0.000    1.714    2.857    3.857    0.000    4.286 
#    0.000    2.143    0.000    5.143    0.000    0.000 
#    0.000    0.000    0.000    0.000    0.000    0.000 
#
# Total GULP energy -347082.757455 kJ/mol
# GULP energy per Si atom -12395.812766 kJ/mol
# Density = 1.949086 g / cm^3
# Si number density = 19.535328 Si / 1000 Ang^3
#
#
#
# Elastic Constant Matrix: (Units=GPa)
#
#
# Indices 1 2 3 4 5 6 
#
# 1 107.9537 39.3032 30.8639 -0.0138 6.2568 -0.0108
# 2 39.3032 93.2864 3.6793 -0.0180 4.3563 -0.0156
# 3 30.8639 3.6793 61.8798 -0.0179 14.1122 -0.0135
# 4 -0.0138 -0.0180 -0.0179 -90.1613 0.0138 -89.5512
# 5 6.2568 4.3563 14.1122 0.0138 28.6303 0.0100
# 6 -0.0108 -0.0156 -0.0135 -89.5512 0.0100 -69.1851
#
#
#
# Elastic Compliance Matrix: (Units=1/GPa)
#
#
# Indices 1 2 3 4 5 6 
#
# 1 0.012939 -0.005252 -0.006398 0.000000 0.001125 0.000000
# 2 -0.005252 0.012933 0.002296 -0.000001 -0.001952 -0.000002
# 3 -0.006398 0.002296 0.021379 0.000000 -0.009489 -0.000006
# 4 0.000000 -0.000001 0.000000 0.038833 -0.000001 -0.050264
# 5 0.001125 -0.001952 -0.009489 -0.000001 0.039656 0.000010
# 6 0.000000 -0.000002 -0.000006 -0.050264 0.000010 0.050607
#
#
# Mechanical properties :
#
#
# Convention : Reuss Voigt Hill
#
# Bulk Modulus (GPa) = 35.03516 45.64586 40.34051
# Shear Modulus (GPa) = 24.44150 -13.52499 5.45826
#
# Velocity S-wave (km/s) = 3.54099 -2.63408 1.67335
# Velocity P-wave (km/s) = 5.88993 3.76369 4.94250
#
# Compressibility (1/GPa) = 0.02854276
#
# Stress axis : x y z
#
# Youngs Moduli (GPa) = 77.28422 77.32202 46.77465
#
# Poissons Ratio (x) = 0.40607 0.29927
# Poissons Ratio (y) = 0.40588 -0.10737
# Poissons Ratio (z) = 0.49447 -0.17749
#
# Static dielectric constant tensor:
#      x y z
#    x 3.517740 0.000000 0.239820 
#    y 0.000000 3.678740 0.000000 
#    z 0.239820 0.000000 3.591750 
# 
# 
# High freq. dielectric constant tensor:
#      x y z
#    x 1.752090 0.000000 0.020410 
#    y 0.000000 1.751570 0.000000 
#    z 0.020410 0.000000 1.765260 
# 
# From -- ./inp_files/75896.got.cif
#   From: 2010.06.25/outbox.cif.g09.slc.cpg/sg12_38_cif.got.tgz:75896.got - 2010.06.28 00:19:55.
