data_PCOD8093007
_publ_section_title
;
Structure prediction by ZEFSAII (Michael W. Deem and Ramdas Pophale) SiO2 
 PCOD8093007
Probable space group: C 2/M
;
_chemical_formula_sum "Si O2"
_cell_formula_units_Z 56
_cell_length_a 20.403775
_cell_length_b 9.088227
_cell_length_c 30.097056
_cell_angle_alpha 90.000000
_cell_angle_beta 33.530605
_cell_angle_gamma 90.000000
_cell_volume 3082.857768
_symmetry_space_group_name_H-M "C 2/M"
_symmetry_group_IT_number 12
_symmetry_cell_setting 'monoclinic'
loop_
_space_group_symop_operation_xyz
x,y,z
-x,y,-z
-x,-y,-z
x,-y,z
1/2+x,1/2+y,z
1/2-x,1/2+y,-z
1/2-x,1/2-y,-z
1/2+x,1/2-y,z
loop_
_atom_site_type_symbol
_atom_site_label
_atom_site_fract_x
_atom_site_fract_y
_atom_site_fract_z
Si Si1 0.547459 0.170604 0.759160
Si Si2 0.436434 0.672272 0.992704
Si Si3 0.316769 0.829157 0.832691
Si Si4 0.688293 0.327736 0.258087
Si Si5 0.076166 0.170079 0.584433
Si Si6 0.907402 0.825230 0.176071
Si Si7 0.801825 0.671020 0.406506
O O1 0.431726 0.210712 0.796067
O O2 0.547879 0.272964 0.801556
O O3 0.663705 0.208854 0.663704
O O4 0.546722 0.000000 0.773996
O O5 0.461010 0.500000 0.979443
O O6 0.497057 0.734896 0.913826
O O7 0.500000 0.743437 0.000000
O O8 0.296781 0.707966 0.072274
O O9 0.309001 0.730624 0.793470
O O10 0.315752 0.000000 0.818650
O O11 0.718654 0.500000 0.240511
O O12 0.559017 0.297108 0.352906
O O13 0.779827 0.243380 0.237606
O O14 0.105511 0.252837 0.613143
O O15 0.166038 0.219348 0.493965
O O16 0.094420 0.000000 0.584877
O O17 0.896049 0.000000 0.182380
O O18 0.821143 0.500000 0.403955
#
# Coordination Sequence:
#
# PCOD8093007 Si02
#       7
#     8   8   8   8   8   8   8
#     4  10  21  36  55  81 113 144 177 220 270 325
#     4   9  17  33  57  81 105 136 181 226 268 319
#     4  10  19  35  59  82 107 143 182 219 266 325
#     4  11  21  34  54  83 113 140 178 227 271 315
#     4   9  18  31  52  82 111 138 176 223 265 312
#     4  11  23  38  57  77 106 148 185 222 272 327
#     4   9  17  32  54  80 109 143 177 214 266 320
#
# _framework density 18.164964000000001
#
# number of rings (size 3 to 8) (size 9 to 14) (size 15 to 20)
#    0.000    2.143    2.857    0.857    0.000    2.286 
#    0.000    2.857    0.000    4.286    0.000    0.000 
#    0.000    0.000    0.000    0.000    0.000    0.000 
#
# Total GULP energy -347152.126434 kJ/mol
# GULP energy per Si atom -12398.290230 kJ/mol
# Density = 1.812362 g / cm^3
# Si number density = 18.164964 Si / 1000 Ang^3
#
#
#
# Elastic Constant Matrix: (Units=GPa)
#
#
# Indices 1 2 3 4 5 6 
#
# 1 79.1312 30.6485 39.1586 0.0010 0.0413 -0.0087
# 2 30.6485 51.0076 28.8710 0.0028 -2.2016 -0.0082
# 3 39.1586 28.8710 110.9782 -0.0011 -3.5287 0.0011
# 4 0.0010 0.0028 -0.0011 22.4213 -0.0002 3.2671
# 5 0.0413 -2.2016 -3.5287 -0.0002 25.8595 0.0032
# 6 -0.0087 -0.0082 0.0011 3.2671 0.0032 32.5423
#
#
#
# Elastic Compliance Matrix: (Units=1/GPa)
#
#
# Indices 1 2 3 4 5 6 
#
# 1 0.018002 -0.008507 -0.004181 0.000000 -0.001324 0.000003
# 2 -0.008507 0.027044 -0.003977 -0.000004 0.001773 0.000005
# 3 -0.004181 -0.003977 0.011560 0.000002 0.001246 -0.000003
# 4 0.000000 -0.000004 0.000002 0.045263 0.000001 -0.004544
# 5 -0.001324 0.001773 0.001246 0.000001 0.038994 -0.000004
# 6 0.000003 0.000005 -0.000003 -0.004544 -0.000004 0.031185
#
#
# Mechanical properties :
#
#
# Convention : Reuss Voigt Hill
#
# Bulk Modulus (GPa) = 42.96378 48.71926 45.84152
# Shear Modulus (GPa) = 23.45899 25.66055 24.55977
#
# Velocity S-wave (km/s) = 3.59756 3.76259 3.68100
# Velocity P-wave (km/s) = 6.40000 6.76423 6.58463
#
# Compressibility (1/GPa) = 0.02327542
#
# Stress axis : x y z
#
# Youngs Moduli (GPa) = 55.54985 36.97614 86.50280
#
# Poissons Ratio (x) = 0.31457 0.36165
# Poissons Ratio (y) = 0.47258 0.34406
# Poissons Ratio (z) = 0.23224 0.14707
#
# Static dielectric constant tensor:
#      x y z
#    x 3.176240 -0.000020 -0.104240 
#    y -0.000020 3.233530 0.000010 
#    z -0.104240 0.000010 3.853040 
# 
# 
# High freq. dielectric constant tensor:
#      x y z
#    x 1.682990 0.000000 -0.008940 
#    y 0.000000 1.690340 0.000000 
#    z -0.008940 0.000000 1.723470 
# 
# From -- ./inp_files/362883.got.cif
#   From: 2010.06.25/outbox.cif.g09.slc.cpg/sg12_182_cif.got.tgz:362883.got - 2010.06.28 00:19:55.
