data_PCOD8093667
_publ_section_title
;
Structure prediction by ZEFSAII (Michael W. Deem and Ramdas Pophale) SiO2 
 PCOD8093667
Probable space group: C 2/M
;
_chemical_formula_sum "Si O2"
_cell_formula_units_Z 48
_cell_length_a 27.396709
_cell_length_b 17.646970
_cell_length_c 8.178849
_cell_angle_alpha 90.000000
_cell_angle_beta 34.790069
_cell_angle_gamma 90.000000
_cell_volume 2256.163682
_symmetry_space_group_name_H-M "C 2/M"
_symmetry_group_IT_number 12
_symmetry_cell_setting 'monoclinic'
loop_
_space_group_symop_operation_xyz
x,y,z
-x,y,-z
-x,-y,-z
x,-y,z
1/2+x,1/2+y,z
1/2-x,1/2+y,-z
1/2-x,1/2-y,-z
1/2+x,1/2-y,z
loop_
_atom_site_type_symbol
_atom_site_label
_atom_site_fract_x
_atom_site_fract_y
_atom_site_fract_z
Si Si1 0.869346 0.146661 0.472001
Si Si2 0.232493 0.853423 0.720845
Si Si3 0.786908 0.667209 0.919652
Si Si4 0.939454 0.000000 0.415970
Si Si5 0.043029 0.265388 0.545586
Si Si6 0.129030 0.261058 0.831067
Si Si7 0.128958 0.000000 0.031132
O O1 0.905470 0.196286 0.521195
O O2 0.878119 0.192239 0.279857
O O3 0.921901 0.069474 0.340590
O O4 0.768264 0.128289 0.783760
O O5 0.269891 0.873431 0.794593
O O6 0.170342 0.778750 0.879774
O O7 0.313503 0.832396 0.382204
O O8 0.179604 0.927889 0.817523
O O9 0.889247 0.666282 0.674213
O O10 0.750000 0.750000 0.000000
O O11 0.880416 0.000000 0.743919
O O12 0.036969 0.000000 0.201478
O O13 0.000000 0.234996 0.500000
O O14 0.965901 0.293060 0.875738
#
# Coordination Sequence:
#
# PCOD8093667 Si02
#       7
#     8   8   8   4   8   8   4
#     4  11  22  38  59  93 124 165 203 255 308 373
#     4  11  22  39  61  88 127 164 209 248 314 367
#     4  10  19  36  58  86 121 159 209 251 304 366
#     4  11  24  37  63  90 136 165 204 237 318 375
#     4  11  23  36  61  90 121 157 210 266 308 359
#     4  11  23  38  63  92 125 160 210 267 302 357
#     4  11  24  39  61  95 127 172 198 248 306 391
#
# _framework density 21.275051999999999
#
# number of rings (size 3 to 8) (size 9 to 14) (size 15 to 20)
#    0.000    1.167    5.000    3.500    4.667    0.667 
#    0.000    2.500    0.000    3.000    0.000    2.917 
#    0.000    0.000    0.000    0.000    0.000    0.000 
#
# Total GULP energy -297351.029103 kJ/mol
# GULP energy per Si atom -12389.626213 kJ/mol
# Density = 2.122663 g / cm^3
# Si number density = 21.275052 Si / 1000 Ang^3
#
#
#
# Elastic Constant Matrix: (Units=GPa)
#
#
# Indices 1 2 3 4 5 6 
#
# 1 71.2450 2.4747 28.6815 0.0000 -10.9043 0.0000
# 2 2.4747 70.3344 38.5258 0.0000 -13.0444 0.0000
# 3 28.6815 38.5258 165.0605 0.0000 -33.0515 0.0000
# 4 0.0000 0.0000 0.0000 18.5676 0.0000 -10.5770
# 5 -10.9043 -13.0444 -33.0515 0.0000 33.8718 0.0000
# 6 0.0000 0.0000 0.0000 -10.5770 0.0000 26.2327
#
#
#
# Elastic Compliance Matrix: (Units=1/GPa)
#
#
# Indices 1 2 3 4 5 6 
#
# 1 0.015425 0.001338 -0.002355 0.000000 0.003183 0.000000
# 2 0.001338 0.016700 -0.003426 0.000000 0.003519 0.000000
# 3 -0.002355 -0.003426 0.008515 0.000000 0.006231 0.000000
# 4 0.000000 0.000000 0.000000 0.069915 0.000000 0.028190
# 5 0.003183 0.003519 0.006231 0.000000 0.037983 0.000000
# 6 0.000000 0.000000 0.000000 0.028190 0.000000 0.049487
#
#
# Mechanical properties :
#
#
# Convention : Reuss Voigt Hill
#
# Bulk Modulus (GPa) = 31.49276 49.55600 40.52438
# Shear Modulus (GPa) = 22.98898 31.53161 27.26030
#
# Velocity S-wave (km/s) = 3.29075 3.85397 3.58345
# Velocity P-wave (km/s) = 5.41050 6.56869 6.01753
#
# Compressibility (1/GPa) = 0.03175333
#
# Stress axis : x y z
#
# Youngs Moduli (GPa) = 64.83034 59.88111 117.44113
#
# Poissons Ratio (x) = -0.08010 0.27660
# Poissons Ratio (y) = -0.08672 0.40230
# Poissons Ratio (z) = 0.15269 0.20512
#
# Static dielectric constant tensor:
#      x y z
#    x 3.896420 0.000000 -1.038390 
#    y 0.000000 3.397130 0.000000 
#    z -1.038390 0.000000 2.478720 
# 
# 
# High freq. dielectric constant tensor:
#      x y z
#    x 1.844600 0.000000 -0.006250 
#    y 0.000000 1.770650 0.000000 
#    z -0.006250 0.000000 1.852700 
# 
# From -- ./inp_files/112779.got.cif
#   From: 2010.06.25/outbox.cif.g09.slc.cpg/sg12_57_cif.got.tgz:112779.got - 2010.06.28 00:19:55.
