data_PCOD8093824
_publ_section_title
;
Structure prediction by ZEFSAII (Michael W. Deem and Ramdas Pophale) SiO2 
 PCOD8093824
Probable space group: C 2/M
;
_chemical_formula_sum "Si O2"
_cell_formula_units_Z 48
_cell_length_a 33.776118
_cell_length_b 8.930730
_cell_length_c 8.013293
_cell_angle_alpha 90.000000
_cell_angle_beta 91.351354
_cell_angle_gamma 90.000000
_cell_volume 2416.500614
_symmetry_space_group_name_H-M "C 2/M"
_symmetry_group_IT_number 12
_symmetry_cell_setting 'monoclinic'
loop_
_space_group_symop_operation_xyz
x,y,z
-x,y,-z
-x,-y,-z
x,-y,z
1/2+x,1/2+y,z
1/2-x,1/2+y,-z
1/2-x,1/2-y,-z
1/2+x,1/2-y,z
loop_
_atom_site_type_symbol
_atom_site_label
_atom_site_fract_x
_atom_site_fract_y
_atom_site_fract_z
Si Si1 0.581196 0.327555 0.159634
Si Si2 0.207354 0.178677 0.008969
Si Si3 0.837815 0.827420 0.673577
Si Si4 0.345280 0.677719 0.309637
Si Si5 0.997842 0.174633 0.308471
Si Si6 0.919771 0.324192 0.179438
O O1 0.580833 0.500000 0.098474
O O2 0.615184 0.302136 0.300042
O O3 0.539352 0.280184 0.231174
O O4 0.592267 0.221690 0.007816
O O5 0.182379 0.231912 0.844872
O O6 0.210295 0.000000 0.010827
O O7 0.250000 0.250000 0.000000
O O8 0.187042 0.245243 0.175987
O O9 0.826708 0.767907 0.486440
O O10 0.826915 0.000000 0.681314
O O11 0.350908 0.500000 0.309409
O O12 0.388716 0.749569 0.302191
O O13 0.000000 0.220942 0.500000
O O14 0.964038 0.268170 0.215782
O O15 0.988464 0.000000 0.284351
O O16 0.917877 0.500000 0.202132
#
# Coordination Sequence:
#
# PCOD8093824 Si02
#       6
#     8   8   8   8   8   8
#     4  10  19  36  60  83 110 150 201 245 282 336
#     4  10  21  38  61  89 120 151 187 236 291 349
#     4   9  18  36  63  90 112 147 198 245 284 334
#     4  10  20  39  65  86 112 154 202 243 283 339
#     4  10  21  37  59  84 110 150 204 250 285 337
#     4  12  24  36  54  83 121 157 191 239 298 349
#
# _framework density 19.863434999999999
#
# number of rings (size 3 to 8) (size 9 to 14) (size 15 to 20)
#    0.000    1.833    1.667    3.000    0.000    7.000 
#    0.000    3.333    0.000    0.000    0.000    0.000 
#    0.000    0.000    0.000    0.000    0.000    0.000 
#
# Total GULP energy -297578.055898 kJ/mol
# GULP energy per Si atom -12399.085662 kJ/mol
# Density = 1.981823 g / cm^3
# Si number density = 19.863435 Si / 1000 Ang^3
#
#
#
# Elastic Constant Matrix: (Units=GPa)
#
#
# Indices 1 2 3 4 5 6 
#
# 1 130.6558 24.9249 62.3578 0.0000 -14.0738 0.0000
# 2 24.9249 37.7722 27.0472 0.0000 -2.4797 0.0000
# 3 62.3578 27.0472 167.1964 0.0000 -15.6198 0.0000
# 4 0.0000 0.0000 0.0000 6.0453 0.0000 -3.7376
# 5 -14.0738 -2.4797 -15.6198 0.0000 25.1335 0.0000
# 6 0.0000 0.0000 0.0000 -3.7376 0.0000 19.1265
#
#
#
# Elastic Compliance Matrix: (Units=1/GPa)
#
#
# Indices 1 2 3 4 5 6 
#
# 1 0.010213 -0.004542 -0.002741 0.000000 0.003567 0.000000
# 2 -0.004542 0.031963 -0.003630 0.000000 -0.001646 0.000000
# 3 -0.002741 -0.003630 0.007871 0.000000 0.002998 0.000000
# 4 0.000000 0.000000 0.000000 0.188151 0.000000 0.036768
# 5 0.003567 -0.001646 0.002998 0.000000 0.043486 0.000000
# 6 0.000000 0.000000 0.000000 0.036768 0.000000 0.059469
#
#
# Mechanical properties :
#
#
# Convention : Reuss Voigt Hill
#
# Bulk Modulus (GPa) = 35.43635 62.69824 49.06730
# Shear Modulus (GPa) = 13.42693 24.81403 19.12048
#
# Velocity S-wave (km/s) = 2.60275 3.53828 3.10594
# Velocity P-wave (km/s) = 5.18759 6.95167 6.13339
#
# Compressibility (1/GPa) = 0.02821961
#
# Stress axis : x y z
#
# Youngs Moduli (GPa) = 97.91866 31.28586 127.05472
#
# Poissons Ratio (x) = 0.14211 0.34824
# Poissons Ratio (y) = 0.44477 0.46126
# Poissons Ratio (z) = 0.26838 0.11358
#
# Static dielectric constant tensor:
#      x y z
#    x 3.652720 0.000000 -0.133020 
#    y 0.000000 3.242200 0.000000 
#    z -0.133020 0.000000 4.062310 
# 
# 
# High freq. dielectric constant tensor:
#      x y z
#    x 1.776610 0.000000 -0.004160 
#    y 0.000000 1.735140 0.000000 
#    z -0.004160 0.000000 1.793060 
# 
# From -- ./inp_files/108697.got.cif
#   From: 2010.06.25/outbox.cif.g09.slc.cpg/sg12_55_cif.got.tgz:108697.got - 2010.06.28 00:19:55.
