data_PCOD8093517
_publ_section_title
;
Structure prediction by ZEFSAII (Michael W. Deem and Ramdas Pophale) SiO2 
 PCOD8093517
Probable space group: C 2/M
;
_chemical_formula_sum "Si O2"
_cell_formula_units_Z 64
_cell_length_a 17.767527
_cell_length_b 20.716334
_cell_length_c 19.078756
_cell_angle_alpha 90.000000
_cell_angle_beta 149.899168
_cell_angle_gamma 90.000000
_cell_volume 3521.932732
_symmetry_space_group_name_H-M "C 2/M"
_symmetry_group_IT_number 12
_symmetry_cell_setting 'monoclinic'
loop_
_space_group_symop_operation_xyz
x,y,z
-x,y,-z
-x,-y,-z
x,-y,z
1/2+x,1/2+y,z
1/2-x,1/2+y,-z
1/2-x,1/2-y,-z
1/2+x,1/2-y,z
loop_
_atom_site_type_symbol
_atom_site_label
_atom_site_fract_x
_atom_site_fract_y
_atom_site_fract_z
Si Si1 0.413418 0.782134 0.498299
Si Si2 0.141057 0.657781 0.400073
Si Si3 0.086464 0.573610 0.862816
Si Si4 0.368257 0.570466 0.339814
Si Si5 0.514504 0.660683 0.355846
Si Si6 0.588770 0.750471 0.231065
Si Si7 0.560372 0.124545 0.125825
Si Si8 0.669029 0.317900 0.927116
O O1 0.500000 0.809436 0.500000
O O2 0.411604 0.831408 0.562359
O O3 0.480543 0.714233 0.578821
O O4 0.248194 0.773387 0.333666
O O5 0.320206 0.645424 0.542072
O O6 0.104162 0.721226 0.323466
O O7 0.049431 0.596529 0.297093
O O8 0.131798 0.500000 0.880150
O O9 0.025632 0.574113 0.893488
O O10 0.229888 0.621016 0.969122
O O11 0.500000 0.564921 0.500000
O O12 0.299168 0.500000 0.267745
O O13 0.441454 0.596531 0.328137
O O14 0.238865 0.614622 0.269617
O O15 0.390900 0.678876 0.199527
O O16 0.523930 0.804844 0.127036
O O17 0.476662 0.689045 0.139634
O O18 0.500000 0.116145 0.000000
O O19 0.750000 0.250000 0.000000
#
# Coordination Sequence:
#
# PCOD8093517 Si02
#       8
#     8   8   8   8   8   8   8   8
#     4  11  19  33  58  89 115 139 188 253 312 340
#     4  10  19  38  58  79 112 151 197 242 291 341
#     4  11  24  39  59  82 116 162 200 235 296 357
#     4  11  23  36  50  77 117 159 193 229 279 340
#     4  11  20  34  57  80 115 156 195 241 281 344
#     4  10  19  36  56  84 117 155 194 234 288 345
#     4  11  22  36  54  82 124 157 190 227 279 346
#     4  12  20  36  59  83 116 153 201 246 284 337
#
# _framework density 18.17184
#
# number of rings (size 3 to 8) (size 9 to 14) (size 15 to 20)
#    0.000    1.125    5.000    5.250    0.000    4.000 
#    2.250    0.000    0.000    0.375    0.000    0.875 
#    0.000    0.000    0.000    0.000    0.000    0.000 
#
# Total GULP energy -396676.147283 kJ/mol
# GULP energy per Si atom -12396.129603 kJ/mol
# Density = 1.813048 g / cm^3
# Si number density = 18.171840 Si / 1000 Ang^3
#
#
#
# Elastic Constant Matrix: (Units=GPa)
#
#
# Indices 1 2 3 4 5 6 
#
# 1 111.0496 45.5540 26.9999 0.0002 1.8286 -0.0013
# 2 45.5540 95.7936 43.8777 0.0029 5.1432 -0.0003
# 3 26.9999 43.8777 91.5181 0.0065 5.8757 0.0006
# 4 0.0002 0.0029 0.0065 24.5299 -0.0013 2.2923
# 5 1.8286 5.1432 5.8757 -0.0013 27.0275 -0.0025
# 6 -0.0013 -0.0003 0.0006 2.2923 -0.0025 21.6690
#
#
#
# Elastic Compliance Matrix: (Units=1/GPa)
#
#
# Indices 1 2 3 4 5 6 
#
# 1 0.011258 -0.004923 -0.000986 0.000001 0.000389 0.000001
# 2 -0.004923 0.015566 -0.005924 0.000000 -0.001341 0.000000
# 3 -0.000986 -0.005924 0.014179 -0.000003 -0.001888 0.000000
# 4 0.000001 0.000000 -0.000003 0.041174 0.000002 -0.004356
# 5 0.000389 -0.001341 -0.001888 0.000002 0.037639 0.000004
# 6 0.000001 0.000000 0.000000 -0.004356 0.000004 0.046610
#
#
# Mechanical properties :
#
#
# Convention : Reuss Voigt Hill
#
# Bulk Modulus (GPa) = 57.68271 59.02497 58.35384
# Shear Modulus (GPa) = 25.52709 26.77392 26.15051
#
# Velocity S-wave (km/s) = 3.75208 3.84262 3.79762
# Velocity P-wave (km/s) = 7.11215 7.22770 7.17016
#
# Compressibility (1/GPa) = 0.01733622
#
# Stress axis : x y z
#
# Youngs Moduli (GPa) = 88.82804 64.24354 70.52479
#
# Poissons Ratio (x) = 0.31626 0.06954
# Poissons Ratio (y) = 0.43728 0.41782
# Poissons Ratio (z) = 0.08759 0.38061
#
# Static dielectric constant tensor:
#      x y z
#    x 3.351190 0.000000 0.233500 
#    y 0.000000 3.319620 -0.000010 
#    z 0.233500 -0.000010 3.617300 
# 
# 
# High freq. dielectric constant tensor:
#      x y z
#    x 1.693290 0.000000 0.013280 
#    y 0.000000 1.671820 0.000000 
#    z 0.013280 0.000000 1.720670 
# 
# From -- ./inp_files/279148.got.cif
#   From: 2010.06.25/outbox.cif.g09.slc.cpg/sg12_140_cif.got.tgz:279148.got - 2010.06.28 00:19:55.
