data_PCOD8093003
_publ_section_title
;
Structure prediction by ZEFSAII (Michael W. Deem and Ramdas Pophale) SiO2 
 PCOD8093003
Probable space group: C 2/M
;
_chemical_formula_sum "Si O2"
_cell_formula_units_Z 56
_cell_length_a 9.613859
_cell_length_b 31.161277
_cell_length_c 12.043255
_cell_angle_alpha 90.000000
_cell_angle_beta 125.938617
_cell_angle_gamma 90.000000
_cell_volume 2921.138734
_symmetry_space_group_name_H-M "C 2/M"
_symmetry_group_IT_number 12
_symmetry_cell_setting 'monoclinic'
loop_
_space_group_symop_operation_xyz
x,y,z
-x,y,-z
-x,-y,-z
x,-y,z
1/2+x,1/2+y,z
1/2-x,1/2+y,-z
1/2-x,1/2-y,-z
1/2+x,1/2-y,z
loop_
_atom_site_type_symbol
_atom_site_label
_atom_site_fract_x
_atom_site_fract_y
_atom_site_fract_z
Si Si1 0.093171 0.160158 0.297886
Si Si2 0.448214 0.743468 0.599650
Si Si3 0.309816 0.550435 0.376288
Si Si4 0.878646 0.606059 0.539485
Si Si5 0.631383 0.823646 0.751423
Si Si6 0.298133 0.048485 0.917340
Si Si7 0.651599 0.377908 0.985414
O O1 0.015266 0.195000 0.345713
O O2 0.196987 0.122285 0.406702
O O3 0.216576 0.182645 0.265981
O O4 0.924566 0.141359 0.162140
O O5 0.500000 0.753059 0.500000
O O6 0.250000 0.750000 0.500000
O O7 0.545203 0.776825 0.728661
O O8 0.500000 0.565206 0.500000
O O9 0.283407 0.500000 0.378551
O O10 0.164000 0.571790 0.385413
O O11 0.284929 0.564498 0.237162
O O12 0.000000 0.585031 0.500000
O O13 0.981083 0.646053 0.636778
O O14 0.711240 0.843930 0.900695
O O15 0.243392 0.077745 0.995658
O O16 0.237649 0.000000 0.915582
O O17 0.500000 0.050867 0.000000
O O18 0.500000 0.388984 0.000000
#
# Coordination Sequence:
#
# PCOD8093003 Si02
#       7
#     8   8   8   8   8   8   8
#     4  10  21  37  57  84 112 146 186 235 284 329
#     4  12  21  38  62  85 112 150 192 232 279 345
#     4  10  21  36  55  83 118 148 183 238 289 333
#     4  10  19  35  59  81 110 150 191 233 280 338
#     4  10  20  38  57  80 113 145 185 241 282 324
#     4  10  21  39  59  82 117 154 187 233 289 342
#     4  10  22  39  59  83 115 150 191 238 286 334
#
# _framework density 19.170607
#
# number of rings (size 3 to 8) (size 9 to 14) (size 15 to 20)
#    0.000    1.714    2.857    2.143    0.000    2.857 
#    2.571    0.000    0.000   10.286    0.000    0.000 
#    0.000    0.000    0.000    0.000    0.000    0.000 
#
# Total GULP energy -347159.292723 kJ/mol
# GULP energy per Si atom -12398.546169 kJ/mol
# Density = 1.912697 g / cm^3
# Si number density = 19.170607 Si / 1000 Ang^3
#
#
#
# Elastic Constant Matrix: (Units=GPa)
#
#
# Indices 1 2 3 4 5 6 
#
# 1 75.4944 47.5087 24.9482 0.0000 -3.6369 0.0000
# 2 47.5087 87.3574 36.4377 0.0000 -11.5568 0.0000
# 3 24.9482 36.4377 119.8561 0.0000 8.2155 0.0000
# 4 0.0000 0.0000 0.0000 14.3352 0.0000 -16.9594
# 5 -3.6369 -11.5568 8.2155 0.0000 21.0985 0.0000
# 6 0.0000 0.0000 0.0000 -16.9594 0.0000 29.2314
#
#
#
# Elastic Compliance Matrix: (Units=1/GPa)
#
#
# Indices 1 2 3 4 5 6 
#
# 1 0.020333 -0.011062 -0.000713 0.000000 -0.002276 0.000000
# 2 -0.011062 0.021019 -0.004876 0.000000 0.011505 0.000000
# 3 -0.000713 -0.004876 0.010445 0.000000 -0.006861 0.000000
# 4 0.000000 0.000000 0.000000 0.222432 0.000000 0.129050
# 5 -0.002276 0.011505 -0.006861 0.000000 0.055978 0.000000
# 6 0.000000 0.000000 0.000000 0.129050 0.000000 0.109082
#
#
# Mechanical properties :
#
#
# Convention : Reuss Voigt Hill
#
# Bulk Modulus (GPa) = 54.07095 55.61079 54.84087
# Shear Modulus (GPa) = 10.44373 24.52056 17.48214
#
# Velocity S-wave (km/s) = 2.33658 3.58029 3.02308
# Velocity P-wave (km/s) = 5.96203 6.79431 6.39173
#
# Compressibility (1/GPa) = 0.01849422
#
# Stress axis : x y z
#
# Youngs Moduli (GPa) = 49.18055 47.57606 95.74376
#
# Poissons Ratio (x) = 0.52627 0.06831
# Poissons Ratio (y) = 0.54402 0.46686
# Poissons Ratio (z) = 0.03509 0.23199
#
# Static dielectric constant tensor:
#      x y z
#    x 3.527330 0.000000 -0.284530 
#    y 0.000000 3.075690 0.000000 
#    z -0.284530 0.000000 4.683710 
# 
# 
# High freq. dielectric constant tensor:
#      x y z
#    x 1.741490 0.000000 0.009590 
#    y 0.000000 1.737430 0.000000 
#    z 0.009590 0.000000 1.754810 
# 
# From -- ./inp_files/125853.got.cif
#   From: 2010.06.25/outbox.cif.g09.slc.cpg/sg12_63_cif.got.tgz:125853.got - 2010.06.28 00:19:55.
