data_PCOD8093733
_publ_section_title
;
Structure prediction by ZEFSAII (Michael W. Deem and Ramdas Pophale) SiO2 
 PCOD8093733
Probable space group: C 2/M
;
_chemical_formula_sum "Si O2"
_cell_formula_units_Z 40
_cell_length_a 14.760369
_cell_length_b 13.132088
_cell_length_c 16.577739
_cell_angle_alpha 90.000000
_cell_angle_beta 140.996137
_cell_angle_gamma 90.000000
_cell_volume 2022.386964
_symmetry_space_group_name_H-M "C 2/M"
_symmetry_group_IT_number 12
_symmetry_cell_setting 'monoclinic'
loop_
_space_group_symop_operation_xyz
x,y,z
-x,y,-z
-x,-y,-z
x,-y,z
1/2+x,1/2+y,z
1/2-x,1/2+y,-z
1/2-x,1/2-y,-z
1/2+x,1/2-y,z
loop_
_atom_site_type_symbol
_atom_site_label
_atom_site_fract_x
_atom_site_fract_y
_atom_site_fract_z
Si Si1 0.890965 0.115083 0.080305
Si Si2 0.862828 0.762338 0.461275
Si Si3 0.322215 0.114569 0.790176
Si Si4 0.863004 0.679719 0.988349
Si Si5 0.641305 0.616670 0.382132
O O1 0.734838 0.138532 0.007989
O O2 0.012038 0.130808 0.230772
O O3 0.896254 0.000000 0.048236
O O4 0.909236 0.200600 0.024041
O O5 0.744318 0.821717 0.328064
O O6 0.788148 0.661228 0.445165
O O7 0.908631 0.830597 0.569261
O O8 0.000000 0.735231 0.500000
O O9 0.278882 0.162597 0.846349
O O10 0.262248 0.000000 0.743366
O O11 0.494363 0.112682 0.904405
O O12 0.673988 0.500000 0.423965
#
# Coordination Sequence:
#
# PCOD8093733 Si02
#       5
#     8   8   8   8   8
#     4  10  19  36  59  82 114 151 187 232 291 349
#     4  11  23  39  62  89 118 154 201 246 290 348
#     4  11  21  36  56  84 115 147 188 240 291 340
#     4  10  20  34  56  85 115 145 188 235 288 345
#     4  10  22  41  62  87 119 155 195 244 297 349
#
# _framework density 19.778608999999999
#
# number of rings (size 3 to 8) (size 9 to 14) (size 15 to 20)
#    0.000    1.600    2.000    4.200    0.000    3.600 
#    0.000    3.000    0.000    0.000    0.000    0.000 
#    0.000    0.000    0.000    0.000    0.000    0.000 
#
# Total GULP energy -247962.508570 kJ/mol
# GULP energy per Si atom -12398.125428 kJ/mol
# Density = 1.973359 g / cm^3
# Si number density = 19.778609 Si / 1000 Ang^3
#
#
#
# Elastic Constant Matrix: (Units=GPa)
#
#
# Indices 1 2 3 4 5 6 
#
# 1 84.3043 16.1576 4.0635 0.0000 7.4963 0.0000
# 2 16.1576 106.9084 15.7953 0.0000 -3.2640 0.0000
# 3 4.0635 15.7953 43.6372 0.0001 2.9374 0.0001
# 4 0.0000 0.0000 0.0001 27.1298 0.0001 -3.3067
# 5 7.4963 -3.2640 2.9374 0.0001 23.9682 0.0000
# 6 0.0000 0.0000 0.0001 -3.3067 0.0000 21.9537
#
#
#
# Elastic Compliance Matrix: (Units=1/GPa)
#
#
# Indices 1 2 3 4 5 6 
#
# 1 0.012629 -0.002013 -0.000165 0.000000 -0.004204 0.000000
# 2 -0.002013 0.010281 -0.003701 0.000000 0.002483 0.000000
# 3 -0.000165 -0.003701 0.024504 0.000000 -0.003456 0.000000
# 4 0.000000 0.000000 0.000000 0.037549 0.000000 0.005656
# 5 -0.004204 0.002483 -0.003456 0.000000 0.043798 0.000000
# 6 0.000000 0.000000 0.000000 0.005656 0.000000 0.046402
#
#
# Mechanical properties :
#
#
# Convention : Reuss Voigt Hill
#
# Bulk Modulus (GPa) = 28.04481 34.09807 31.07144
# Shear Modulus (GPa) = 25.15016 27.86590 26.50803
#
# Velocity S-wave (km/s) = 3.56980 3.75759 3.66490
# Velocity P-wave (km/s) = 5.58582 6.00860 5.80106
#
# Compressibility (1/GPa) = 0.03565722
#
# Stress axis : x y z
#
# Youngs Moduli (GPa) = 79.18101 97.27042 40.80997
#
# Poissons Ratio (x) = 0.19578 0.00671
# Poissons Ratio (y) = 0.15937 0.15104
# Poissons Ratio (z) = 0.01303 0.36000
#
# Static dielectric constant tensor:
#      x y z
#    x 3.638240 0.000000 -0.092600 
#    y 0.000000 3.797910 0.000000 
#    z -0.092600 0.000000 3.554130 
# 
# 
# High freq. dielectric constant tensor:
#      x y z
#    x 1.767910 0.000000 0.002050 
#    y 0.000000 1.775760 0.000000 
#    z 0.002050 0.000000 1.772260 
# 
# From -- ./inp_files/59207.got.cif
#   From: 2010.06.25/outbox.cif.g09.slc.cpg/sg12_30_cif.got.tgz:59207.got - 2010.06.28 00:19:55.
