data_PCOD8093756
_publ_section_title
;
Structure prediction by ZEFSAII (Michael W. Deem and Ramdas Pophale) SiO2 
 PCOD8093756
Probable space group: C 2/M
;
_chemical_formula_sum "Si O2"
_cell_formula_units_Z 56
_cell_length_a 20.083368
_cell_length_b 9.256542
_cell_length_c 17.454426
_cell_angle_alpha 90.000000
_cell_angle_beta 108.345975
_cell_angle_gamma 90.000000
_cell_volume 3079.898256
_symmetry_space_group_name_H-M "C 2/M"
_symmetry_group_IT_number 12
_symmetry_cell_setting 'monoclinic'
loop_
_space_group_symop_operation_xyz
x,y,z
-x,y,-z
-x,-y,-z
x,-y,z
1/2+x,1/2+y,z
1/2-x,1/2+y,-z
1/2-x,1/2-y,-z
1/2+x,1/2-y,z
loop_
_atom_site_type_symbol
_atom_site_label
_atom_site_fract_x
_atom_site_fract_y
_atom_site_fract_z
Si Si1 0.427651 0.170596 0.761714
Si Si2 0.655588 0.167325 0.416186
Si Si3 0.428998 0.666406 0.172367
Si Si4 0.183197 0.833999 0.740224
Si Si5 0.179286 0.167369 0.168266
Si Si6 0.680249 0.334929 0.993219
Si Si7 0.188397 0.167202 0.569956
O O1 0.403726 0.208420 0.666730
O O2 0.504982 0.229560 0.801574
O O3 0.375808 0.244901 0.802270
O O4 0.425462 0.000000 0.775662
O O5 0.730345 0.214096 0.407741
O O6 0.641070 0.249794 0.490505
O O7 0.654616 0.000000 0.435626
O O8 0.453041 0.500000 0.171511
O O9 0.386082 0.687649 0.234974
O O10 0.382831 0.718639 0.083566
O O11 0.243184 0.730434 0.793789
O O12 0.163245 0.791705 0.646033
O O13 0.210227 0.000000 0.753276
O O14 0.156365 0.185059 0.071877
O O15 0.179450 0.000000 0.193235
O O16 0.697287 0.500000 0.979298
O O17 0.750000 0.250000 0.000000
O O18 0.178298 0.000000 0.548931
#
# Coordination Sequence:
#
# PCOD8093756 Si02
#       7
#     8   8   8   8   8   8   8
#     4  11  23  40  58  80 115 154 190 231 283 339
#     4   9  18  33  53  79 110 144 183 230 280 329
#     4  10  22  39  59  82 114 152 187 231 283 334
#     4  10  19  36  59  84 114 150 187 229 281 334
#     4  11  22  35  58  88 114 145 190 235 278 332
#     4  10  21  37  59  86 115 147 186 234 280 330
#     4   9  17  31  54  83 110 140 184 230 275 332
#
# _framework density 18.18242
#
# number of rings (size 3 to 8) (size 9 to 14) (size 15 to 20)
#    0.000    2.000    2.857    0.857    0.000    4.000 
#    0.000    3.571    0.000    4.286    0.000    0.000 
#    0.000    0.000    0.000    0.000    0.000    0.000 
#
# Total GULP energy -347270.596791 kJ/mol
# GULP energy per Si atom -12402.521314 kJ/mol
# Density = 1.814104 g / cm^3
# Si number density = 18.182420 Si / 1000 Ang^3
#
#
#
# Elastic Constant Matrix: (Units=GPa)
#
#
# Indices 1 2 3 4 5 6 
#
# 1 52.9299 34.4608 15.9342 0.0000 10.7738 0.0000
# 2 34.4608 76.2303 43.8899 0.0000 8.4292 0.0000
# 3 15.9342 43.8899 96.5315 0.0000 6.1679 0.0000
# 4 0.0000 0.0000 0.0000 32.6877 0.0000 3.3130
# 5 10.7738 8.4292 6.1679 0.0000 28.5049 0.0000
# 6 0.0000 0.0000 0.0000 3.3130 0.0000 31.3289
#
#
#
# Elastic Compliance Matrix: (Units=1/GPa)
#
#
# Indices 1 2 3 4 5 6 
#
# 1 0.028296 -0.012962 0.001685 0.000000 -0.007226 0.000000
# 2 -0.012962 0.024071 -0.008784 0.000000 -0.000318 0.000000
# 3 0.001685 -0.008784 0.014145 0.000000 -0.001100 0.000000
# 4 0.000000 0.000000 0.000000 0.030924 0.000000 -0.003270
# 5 -0.007226 -0.000318 -0.001100 0.000000 0.038145 0.000000
# 6 0.000000 0.000000 0.000000 -0.003270 0.000000 0.032265
#
#
# Mechanical properties :
#
#
# Convention : Reuss Voigt Hill
#
# Bulk Modulus (GPa) = 37.89597 46.02908 41.96253
# Shear Modulus (GPa) = 23.06632 27.26478 25.16555
#
# Velocity S-wave (km/s) = 3.56561 3.87656 3.72433
# Velocity P-wave (km/s) = 6.15133 6.73847 6.45158
#
# Compressibility (1/GPa) = 0.02638803
#
# Stress axis : x y z
#
# Youngs Moduli (GPa) = 35.34061 41.54435 70.69419
#
# Poissons Ratio (x) = 0.53852 -0.11909
# Poissons Ratio (y) = 0.45810 0.62099
# Poissons Ratio (z) = -0.05953 0.36493
#
# Static dielectric constant tensor:
#      x y z
#    x 3.220050 0.000000 -0.132100 
#    y 0.000000 3.221810 0.000000 
#    z -0.132100 0.000000 3.668220 
# 
# 
# High freq. dielectric constant tensor:
#      x y z
#    x 1.683850 0.000000 -0.008970 
#    y 0.000000 1.706260 0.000000 
#    z -0.008970 0.000000 1.720540 
# 
# From -- ./inp_files/275046.got.cif
#   From: 2010.06.25/outbox.cif.g09.slc.cpg/sg12_138_cif.got.tgz:275046.got - 2010.06.28 00:19:55.
