data_PCOD8093883
_publ_section_title
;
Structure prediction by ZEFSAII (Michael W. Deem and Ramdas Pophale) SiO2 
 PCOD8093883
Probable space group: C 2/M
;
_chemical_formula_sum "Si O2"
_cell_formula_units_Z 64
_cell_length_a 15.246799
_cell_length_b 9.190499
_cell_length_c 24.040021
_cell_angle_alpha 90.000000
_cell_angle_beta 90.031828
_cell_angle_gamma 90.000000
_cell_volume 3368.624034
_symmetry_space_group_name_H-M "C 2/M"
_symmetry_group_IT_number 12
_symmetry_cell_setting 'monoclinic'
loop_
_space_group_symop_operation_xyz
x,y,z
-x,y,-z
-x,-y,-z
x,-y,z
1/2+x,1/2+y,z
1/2-x,1/2+y,-z
1/2-x,1/2-y,-z
1/2+x,1/2-y,z
loop_
_atom_site_type_symbol
_atom_site_label
_atom_site_fract_x
_atom_site_fract_y
_atom_site_fract_z
Si Si1 0.964520 0.669681 0.561671
Si Si2 0.373507 0.828151 0.365610
Si Si3 0.975716 0.834282 0.059764
Si Si4 0.363226 0.826805 0.240594
Si Si5 0.727529 0.335608 0.944807
Si Si6 0.216878 0.332624 0.173907
Si Si7 0.521898 0.166451 0.165473
Si Si8 0.216376 0.173651 0.444631
O O1 0.941963 0.500000 0.571678
O O2 0.878410 0.765523 0.572580
O O3 0.000000 0.694044 0.500000
O O4 0.039608 0.729788 0.603140
O O5 0.371451 0.765502 0.303139
O O6 0.284553 0.781032 0.396528
O O7 0.380063 0.000000 0.364967
O O8 0.873470 0.820272 0.070785
O O9 0.026368 0.749550 0.107427
O O10 0.008942 0.000000 0.061467
O O11 0.000000 0.765198 0.000000
O O12 0.275146 0.764945 0.213927
O O13 0.448086 0.770171 0.206737
O O14 0.357227 0.000000 0.240300
O O15 0.754844 0.500000 0.957618
O O16 0.778062 0.277258 0.890221
O O17 0.750000 0.250000 0.000000
O O18 0.249275 0.500000 0.176756
O O19 0.116707 0.317362 0.194628
O O20 0.500405 0.000000 0.151617
O O21 0.250000 0.250000 0.500000
O O22 0.212491 0.000000 0.453354
#
# Coordination Sequence:
#
# PCOD8093883 Si02
#       8
#     8   8   8   8   8   8   8   8
#     4  10  19  36  60  86 117 157 192 230 291 345
#     4   9  20  38  58  81 117 154 188 232 284 339
#     4  10  20  34  53  79 110 143 181 225 278 337
#     4  10  21  39  60  82 109 151 196 230 273 339
#     4  10  20  33  51  77 110 143 177 224 281 335
#     4  10  21  38  57  81 113 146 181 236 291 328
#     4  10  21  36  57  82 108 142 186 230 278 333
#     4  11  21  36  58  86 118 154 194 239 287 339
#
# _framework density 18.998854999999999
#
# number of rings (size 3 to 8) (size 9 to 14) (size 15 to 20)
#    0.000    2.000    2.500    1.125    0.000    3.000 
#    0.000    3.125    0.000    0.000    0.000    0.000 
#    0.000    0.000    0.000    0.000    0.000    0.000 
#
# Total GULP energy -396823.680455 kJ/mol
# GULP energy per Si atom -12400.740014 kJ/mol
# Density = 1.895561 g / cm^3
# Si number density = 18.998855 Si / 1000 Ang^3
#
#
#
# Elastic Constant Matrix: (Units=GPa)
#
#
# Indices 1 2 3 4 5 6 
#
# 1 130.9533 40.4022 64.8064 0.0000 0.6966 0.0000
# 2 40.4022 50.1679 42.4102 0.0000 3.2847 0.0000
# 3 64.8064 42.4102 146.2784 0.0000 5.8586 0.0000
# 4 0.0000 0.0000 0.0000 21.9473 0.0000 5.9233
# 5 0.6966 3.2847 5.8586 0.0000 31.7385 0.0000
# 6 0.0000 0.0000 0.0000 5.9233 0.0000 30.7217
#
#
#
# Elastic Compliance Matrix: (Units=1/GPa)
#
#
# Indices 1 2 3 4 5 6 
#
# 1 0.011154 -0.006407 -0.003124 0.000000 0.000995 0.000000
# 2 -0.006407 0.030141 -0.005824 0.000000 -0.001904 0.000000
# 3 -0.003124 -0.005824 0.009955 0.000000 -0.001166 0.000000
# 4 0.000000 0.000000 0.000000 0.048065 0.000000 -0.009267
# 5 0.000995 -0.001904 -0.001166 0.000000 0.031898 0.000000
# 6 0.000000 0.000000 0.000000 -0.009267 0.000000 0.034337
#
#
# Mechanical properties :
#
#
# Convention : Reuss Voigt Hill
#
# Bulk Modulus (GPa) = 48.68383 69.18191 58.93287
# Shear Modulus (GPa) = 24.61775 28.86690 26.74233
#
# Velocity S-wave (km/s) = 3.60356 3.90218 3.75584
# Velocity P-wave (km/s) = 6.55701 7.53628 7.06363
#
# Compressibility (1/GPa) = 0.02054070
#
# Stress axis : x y z
#
# Youngs Moduli (GPa) = 89.65741 33.17765 100.44762
#
# Poissons Ratio (x) = 0.21256 0.31377
# Poissons Ratio (y) = 0.57442 0.58500
# Poissons Ratio (z) = 0.28007 0.19322
#
# Static dielectric constant tensor:
#      x y z
#    x 3.707390 0.000000 -0.105660 
#    y 0.000000 3.297280 0.000000 
#    z -0.105660 0.000000 3.599200 
# 
# 
# High freq. dielectric constant tensor:
#      x y z
#    x 1.752360 0.000000 -0.004060 
#    y 0.000000 1.716510 0.000000 
#    z -0.004060 0.000000 1.738250 
# 
# From -- ./inp_files/338902.got.cif
#   From: 2010.06.25/outbox.cif.g09.slc.cpg/sg12_170_cif.got.tgz:338902.got - 2010.06.28 00:19:55.
