data_PCOD8093093
_publ_section_title
;
Structure prediction by ZEFSAII (Michael W. Deem and Ramdas Pophale) SiO2 
 PCOD8093093
Probable space group: C 2/M
;
_chemical_formula_sum "Si O2"
_cell_formula_units_Z 40
_cell_length_a 24.115940
_cell_length_b 8.997461
_cell_length_c 9.661901
_cell_angle_alpha 90.000000
_cell_angle_beta 103.077914
_cell_angle_gamma 90.000000
_cell_volume 2042.085468
_symmetry_space_group_name_H-M "C 2/M"
_symmetry_group_IT_number 12
_symmetry_cell_setting 'monoclinic'
loop_
_space_group_symop_operation_xyz
x,y,z
-x,y,-z
-x,-y,-z
x,-y,z
1/2+x,1/2+y,z
1/2-x,1/2+y,-z
1/2-x,1/2-y,-z
1/2+x,1/2-y,z
loop_
_atom_site_type_symbol
_atom_site_label
_atom_site_fract_x
_atom_site_fract_y
_atom_site_fract_z
Si Si1 0.744939 0.826297 0.145161
Si Si2 0.839647 0.824769 0.414430
Si Si3 0.479165 0.176864 0.843121
Si Si4 0.353558 0.825145 0.705438
Si Si5 0.052031 0.333839 0.632532
O O1 0.793862 0.768135 0.276427
O O2 0.684305 0.788655 0.181167
O O3 0.751810 0.000000 0.123253
O O4 0.750000 0.750000 0.000000
O O5 0.826603 0.751072 0.555090
O O6 0.901609 0.780078 0.395593
O O7 0.836098 0.000000 0.431876
O O8 0.416833 0.239267 0.768478
O O9 0.527339 0.227544 0.762632
O O10 0.474685 0.000000 0.845760
O O11 0.500000 0.243676 0.000000
O O12 0.354735 0.000000 0.675751
O O13 0.078420 0.500000 0.663354
O O14 0.000000 0.342205 0.500000
#
# Coordination Sequence:
#
# PCOD8093093 Si02
#       5
#     8   8   8   8   8
#     4  10  24  41  60  86 116 151 194 240 290 345
#     4  11  23  38  57  86 121 153 188 237 292 347
#     4   9  18  32  55  86 113 139 187 244 282 322
#     4  10  20  39  62  84 111 151 200 241 278 336
#     4  10  19  35  59  86 112 147 195 237 276 337
#
# _framework density 19.587817999999999
#
# number of rings (size 3 to 8) (size 9 to 14) (size 15 to 20)
#    0.000    2.000    2.000    1.200    2.800    2.800 
#    0.000    0.000    0.000    1.200    0.000    0.000 
#    0.000    0.000    0.000    0.000    0.000    0.000 
#
# Total GULP energy -248009.912138 kJ/mol
# GULP energy per Si atom -12400.495607 kJ/mol
# Density = 1.954323 g / cm^3
# Si number density = 19.587818 Si / 1000 Ang^3
#
#
#
# Elastic Constant Matrix: (Units=GPa)
#
#
# Indices 1 2 3 4 5 6 
#
# 1 78.7619 26.9148 41.0733 0.0000 -5.6318 0.0000
# 2 26.9148 43.0184 40.5069 0.0000 -2.3032 0.0000
# 3 41.0733 40.5069 163.6499 0.0000 -12.2568 0.0000
# 4 0.0000 0.0000 0.0000 33.0557 0.0000 1.5784
# 5 -5.6318 -2.3032 -12.2568 0.0000 36.5567 0.0000
# 6 0.0000 0.0000 0.0000 1.5784 0.0000 38.7122
#
#
#
# Elastic Compliance Matrix: (Units=1/GPa)
#
#
# Indices 1 2 3 4 5 6 
#
# 1 0.016747 -0.008532 -0.001988 0.000000 0.001376 0.000000
# 2 -0.008532 0.034671 -0.006539 0.000000 -0.001323 0.000000
# 3 -0.001988 -0.006539 0.008385 0.000000 0.002093 0.000000
# 4 0.000000 0.000000 0.000000 0.030311 0.000000 -0.001236
# 5 0.001376 -0.001323 0.002093 0.000000 0.028185 0.000000
# 6 0.000000 0.000000 0.000000 -0.001236 0.000000 0.025882
#
#
# Mechanical properties :
#
#
# Convention : Reuss Voigt Hill
#
# Bulk Modulus (GPa) = 38.93564 55.82445 47.38004
# Shear Modulus (GPa) = 26.75761 33.46060 30.10910
#
# Velocity S-wave (km/s) = 3.70000 4.13756 3.92488
# Velocity P-wave (km/s) = 6.17851 7.16850 6.69183
#
# Compressibility (1/GPa) = 0.02568341
#
# Stress axis : x y z
#
# Youngs Moduli (GPa) = 59.71058 28.84260 119.25975
#
# Poissons Ratio (x) = 0.24609 0.23713
# Poissons Ratio (y) = 0.50946 0.77989
# Poissons Ratio (z) = 0.11873 0.18861
#
# Static dielectric constant tensor:
#      x y z
#    x 3.881970 0.000000 -0.112390 
#    y 0.000000 3.282820 0.000000 
#    z -0.112390 0.000000 3.905100 
# 
# 
# High freq. dielectric constant tensor:
#      x y z
#    x 1.773940 0.000000 -0.005760 
#    y 0.000000 1.727300 0.000000 
#    z -0.005760 0.000000 1.777610 
# 
# From -- ./inp_files/92801.got.cif
#   From: 2010.06.25/outbox.cif.g09.slc.cpg/sg12_47_cif.got.tgz:92801.got - 2010.06.28 00:19:55.
