data_PCOD8093123
_publ_section_title
;
Structure prediction by ZEFSAII (Michael W. Deem and Ramdas Pophale) SiO2 
 PCOD8093123
Probable space group: C 2/M
;
_chemical_formula_sum "Si O2"
_cell_formula_units_Z 56
_cell_length_a 28.439570
_cell_length_b 16.671248
_cell_length_c 9.827750
_cell_angle_alpha 90.000000
_cell_angle_beta 140.757510
_cell_angle_gamma 90.000000
_cell_volume 2947.657694
_symmetry_space_group_name_H-M "C 2/M"
_symmetry_group_IT_number 12
_symmetry_cell_setting 'monoclinic'
loop_
_space_group_symop_operation_xyz
x,y,z
-x,y,-z
-x,-y,-z
x,-y,z
1/2+x,1/2+y,z
1/2-x,1/2+y,-z
1/2-x,1/2-y,-z
1/2+x,1/2-y,z
loop_
_atom_site_type_symbol
_atom_site_label
_atom_site_fract_x
_atom_site_fract_y
_atom_site_fract_z
Si Si1 0.711308 0.090053 0.433877
Si Si2 0.487846 0.408535 0.126466
Si Si3 0.088010 0.294700 0.198792
Si Si4 0.612619 0.306923 0.516077
Si Si5 0.847116 0.174995 0.869525
Si Si6 0.326885 0.764991 0.098919
Si Si7 0.739767 0.091252 0.179202
O O1 0.627938 0.118832 0.281396
O O2 0.767880 0.151001 0.632282
O O3 0.725962 0.092461 0.307492
O O4 0.721129 0.000000 0.512458
O O5 0.514024 0.500000 0.189031
O O6 0.537160 0.357921 0.341532
O O7 0.500000 0.374006 0.000000
O O8 0.402306 0.401296 0.980569
O O9 0.118410 0.250461 0.399984
O O10 0.113885 0.246808 0.123872
O O11 0.000000 0.308194 0.000000
O O12 0.609585 0.251837 0.645624
O O13 0.680662 0.369198 0.672262
O O14 0.836497 0.201129 0.000283
O O15 0.250000 0.750000 0.000000
O O16 0.325600 0.856673 0.040362
O O17 0.738010 0.000000 0.119116
#
# Coordination Sequence:
#
# PCOD8093123 Si02
#       7
#     8   8   8   8   8   8   8
#     4  11  22  36  62  90 117 155 203 257 298 343
#     4  11  21  36  61  95 127 156 196 246 307 366
#     4  12  22  39  62  89 121 156 204 245 298 357
#     4  11  20  38  56  90 122 163 193 242 301 363
#     4  12  20  40  61  91 118 155 202 246 300 361
#     4  10  23  37  57  85 120 158 200 247 294 363
#     4  10  19  35  59  87 115 154 205 248 294 350
#
# _framework density 18.998135000000001
#
# number of rings (size 3 to 8) (size 9 to 14) (size 15 to 20)
#    0.000    1.000    5.714    3.000    0.000    3.143 
#    0.000   11.429    0.000    0.000    0.000    3.000 
#    0.000    0.000    0.000    0.000    0.000    0.000 
#
# Total GULP energy -347190.093299 kJ/mol
# GULP energy per Si atom -12399.646189 kJ/mol
# Density = 1.895489 g / cm^3
# Si number density = 18.998135 Si / 1000 Ang^3
#
#
#
# Elastic Constant Matrix: (Units=GPa)
#
#
# Indices 1 2 3 4 5 6 
#
# 1 90.8221 31.7961 39.6549 0.0000 -2.4177 0.0000
# 2 31.7961 89.3889 47.5008 0.0000 1.5667 0.0000
# 3 39.6549 47.5008 111.6727 0.0000 -3.2986 0.0000
# 4 0.0000 0.0000 0.0000 29.1152 0.0000 4.8707
# 5 -2.4177 1.5667 -3.2986 0.0000 37.3594 0.0000
# 6 0.0000 0.0000 0.0000 4.8707 0.0000 29.9579
#
#
#
# Elastic Compliance Matrix: (Units=1/GPa)
#
#
# Indices 1 2 3 4 5 6 
#
# 1 0.013620 -0.002969 -0.003553 0.000000 0.000692 0.000000
# 2 -0.002969 0.015151 -0.005429 0.000000 -0.001307 0.000000
# 3 -0.003553 -0.005429 0.012558 0.000000 0.001107 0.000000
# 4 0.000000 0.000000 0.000000 0.035307 0.000000 -0.005740
# 5 0.000692 -0.001307 0.001107 0.000000 0.026964 0.000000
# 6 0.000000 0.000000 0.000000 -0.005740 0.000000 0.034313
#
#
# Mechanical properties :
#
#
# Convention : Reuss Voigt Hill
#
# Bulk Modulus (GPa) = 57.38081 58.86527 58.12304
# Shear Modulus (GPa) = 29.82868 30.81530 30.32199
#
# Velocity S-wave (km/s) = 3.96673 4.03180 3.99939
# Velocity P-wave (km/s) = 7.15883 7.26126 7.21023
#
# Compressibility (1/GPa) = 0.01742743
#
# Stress axis : x y z
#
# Youngs Moduli (GPa) = 73.42347 66.00291 79.62792
#
# Poissons Ratio (x) = 0.19593 0.28293
# Poissons Ratio (y) = 0.21796 0.43230
# Poissons Ratio (z) = 0.26089 0.35833
#
# Static dielectric constant tensor:
#      x y z
#    x 3.570910 0.000000 -0.185360 
#    y 0.000000 3.787610 0.000000 
#    z -0.185360 0.000000 3.913930 
# 
# 
# High freq. dielectric constant tensor:
#      x y z
#    x 1.731840 0.000000 -0.001040 
#    y 0.000000 1.736780 0.000000 
#    z -0.001040 0.000000 1.734240 
# 
# From -- ./inp_files/106038.got.cif
#   From: 2010.06.25/outbox.cif.g09.slc.cpg/sg12_54_cif.got.tgz:106038.got - 2010.06.28 00:19:55.
