data_PCOD8093302
_publ_section_title
;
Structure prediction by ZEFSAII (Michael W. Deem and Ramdas Pophale) SiO2 
 PCOD8093302
Probable space group: C 2/M
;
_chemical_formula_sum "Si O2"
_cell_formula_units_Z 48
_cell_length_a 20.438859
_cell_length_b 9.040862
_cell_length_c 14.682555
_cell_angle_alpha 90.000000
_cell_angle_beta 71.725455
_cell_angle_gamma 90.000000
_cell_volume 2576.278262
_symmetry_space_group_name_H-M "C 2/M"
_symmetry_group_IT_number 12
_symmetry_cell_setting 'monoclinic'
loop_
_space_group_symop_operation_xyz
x,y,z
-x,y,-z
-x,-y,-z
x,-y,z
1/2+x,1/2+y,z
1/2-x,1/2+y,-z
1/2-x,1/2-y,-z
1/2+x,1/2-y,z
loop_
_atom_site_type_symbol
_atom_site_label
_atom_site_fract_x
_atom_site_fract_y
_atom_site_fract_z
Si Si1 0.071369 0.827885 0.018985
Si Si2 0.315486 0.327938 0.515234
Si Si3 0.334889 0.675150 0.183763
Si Si4 0.576370 0.328347 0.686945
Si Si5 0.561924 0.826629 0.213911
Si Si6 0.183653 0.673967 0.296632
O O1 0.076284 0.734825 0.107881
O O2 0.078026 0.000000 0.040898
O O3 0.133040 0.773296 0.926186
O O4 0.000000 0.795570 0.000000
O O5 0.297951 0.500000 0.533112
O O6 0.250000 0.250000 0.500000
O O7 0.381898 0.302767 0.423571
O O8 0.334635 0.258923 0.603438
O O9 0.336965 0.500000 0.189423
O O10 0.380030 0.738230 0.247659
O O11 0.256801 0.732143 0.226159
O O12 0.559868 0.500000 0.711115
O O13 0.504847 0.242997 0.709970
O O14 0.627053 0.785094 0.247006
O O15 0.550739 0.000000 0.211777
O O16 0.186320 0.500000 0.316949
#
# Coordination Sequence:
#
# PCOD8093302 Si02
#       6
#     8   8   8   8   8   8
#     4  10  19  35  61  86 109 149 200 239 280 345
#     4  11  22  37  62  91 116 150 194 241 287 339
#     4   9  17  35  61  83 108 151 197 234 277 343
#     4  10  20  38  62  84 112 153 197 235 279 346
#     4  11  24  38  56  86 123 154 185 243 301 336
#     4  10  22  41  59  82 121 159 191 233 292 348
#
# _framework density 18.631527999999999
#
# number of rings (size 3 to 8) (size 9 to 14) (size 15 to 20)
#    0.000    1.833    3.333    1.000    0.000    4.333 
#    0.000    4.167    0.000    0.000    0.000    0.000 
#    0.000    0.000    0.000    0.000    0.000    0.000 
#
# Total GULP energy -297670.753917 kJ/mol
# GULP energy per Si atom -12402.948080 kJ/mol
# Density = 1.858912 g / cm^3
# Si number density = 18.631528 Si / 1000 Ang^3
#
#
#
# Elastic Constant Matrix: (Units=GPa)
#
#
# Indices 1 2 3 4 5 6 
#
# 1 140.5330 61.1783 74.9819 0.0000 -11.0703 0.0000
# 2 61.1783 68.8117 59.7421 0.0000 4.9537 0.0000
# 3 74.9819 59.7421 142.3867 0.0000 -5.6544 0.0000
# 4 0.0000 0.0000 0.0000 34.4392 0.0000 2.1207
# 5 -11.0703 4.9537 -5.6544 0.0000 26.9619 0.0000
# 6 0.0000 0.0000 0.0000 2.1207 0.0000 27.4473
#
#
#
# Elastic Compliance Matrix: (Units=1/GPa)
#
#
# Indices 1 2 3 4 5 6 
#
# 1 0.013484 -0.010317 -0.002498 0.000000 0.006908 0.000000
# 2 -0.010317 0.031853 -0.008402 0.000000 -0.011850 0.000000
# 3 -0.002498 -0.008402 0.011984 0.000000 0.003032 0.000000
# 4 0.000000 0.000000 0.000000 0.029176 0.000000 -0.002254
# 5 0.006908 -0.011850 0.003032 0.000000 0.042739 0.000000
# 6 0.000000 0.000000 0.000000 -0.002254 0.000000 0.036608
#
#
# Mechanical properties :
#
#
# Convention : Reuss Voigt Hill
#
# Bulk Modulus (GPa) = 67.17211 82.61512 74.89361
# Shear Modulus (GPa) = 23.44786 28.15827 25.80307
#
# Velocity S-wave (km/s) = 3.55139 3.89179 3.72548
# Velocity P-wave (km/s) = 7.27652 8.03944 7.66747
#
# Compressibility (1/GPa) = 0.01488713
#
# Stress axis : x y z
#
# Youngs Moduli (GPa) = 74.16287 31.39432 83.44316
#
# Poissons Ratio (x) = 0.32389 0.20841
# Poissons Ratio (y) = 0.76513 0.70112
# Poissons Ratio (z) = 0.18523 0.26379
#
# Static dielectric constant tensor:
#      x y z
#    x 3.522410 0.000000 -0.093770 
#    y 0.000000 3.288050 0.000000 
#    z -0.093770 0.000000 3.717280 
# 
# 
# High freq. dielectric constant tensor:
#      x y z
#    x 1.726630 0.000000 -0.007480 
#    y 0.000000 1.705760 0.000000 
#    z -0.007480 0.000000 1.738570 
# 
# From -- ./inp_files/229803.got.cif
#   From: 2010.06.25/outbox.cif.g09.slc.cpg/sg12_115_cif.got.tgz:229803.got - 2010.06.28 00:19:55.
