data_PCOD8093300
_publ_section_title
;
Structure prediction by ZEFSAII (Michael W. Deem and Ramdas Pophale) SiO2 
 PCOD8093300
Probable space group: C 2/M
;
_chemical_formula_sum "Si O2"
_cell_formula_units_Z 60
_cell_length_a 10.415213
_cell_length_b 14.041747
_cell_length_c 23.695303
_cell_angle_alpha 90.000000
_cell_angle_beta 114.943558
_cell_angle_gamma 90.000000
_cell_volume 3142.147142
_symmetry_space_group_name_H-M "C 2/M"
_symmetry_group_IT_number 12
_symmetry_cell_setting 'monoclinic'
loop_
_space_group_symop_operation_xyz
x,y,z
-x,y,-z
-x,-y,-z
x,-y,z
1/2+x,1/2+y,z
1/2-x,1/2+y,-z
1/2-x,1/2-y,-z
1/2+x,1/2-y,z
loop_
_atom_site_type_symbol
_atom_site_label
_atom_site_fract_x
_atom_site_fract_y
_atom_site_fract_z
Si Si1 0.500000 0.748133 0.500000
Si Si2 0.780491 0.105844 0.130809
Si Si3 0.810855 0.744274 0.303435
Si Si4 0.485067 0.259276 0.222230
Si Si5 0.009988 0.390347 0.402937
Si Si6 0.003938 0.392712 0.138557
Si Si7 0.800132 0.109982 0.397548
Si Si8 0.356195 0.168626 0.003018
O O1 0.556025 0.820055 0.462179
O O2 0.376319 0.676597 0.457804
O O3 0.654704 0.150207 0.145996
O O4 0.728619 0.102156 0.056368
O O5 0.923614 0.164066 0.166715
O O6 0.813869 0.000000 0.156827
O O7 0.649696 0.718665 0.260402
O O8 0.869188 0.653208 0.348658
O O9 0.822729 0.842960 0.340545
O O10 0.904027 0.762351 0.265851
O O11 0.455554 0.159175 0.186354
O O12 0.981567 0.500000 0.417787
O O13 0.133983 0.389522 0.379936
O O14 0.023112 0.500000 0.160924
O O15 0.891575 0.388153 0.066659
O O16 0.857028 0.000000 0.408426
O O17 0.500000 0.207740 0.000000
O O18 0.250000 0.250000 0.000000
#
# Coordination Sequence:
#
# PCOD8093300 Si02
#       8
#     4   8   8   8   8   8   8   8
#     4  10  20  36  64  98 124 148 198 246 284 338
#     4  10  21  37  60  87 116 152 197 247 299 358
#     4  11  24  39  61  86 120 155 208 244 287 342
#     4  12  22  39  61  86 116 157 198 254 293 344
#     4  10  21  39  62  89 124 162 194 236 295 345
#     4  10  21  37  61  87 113 154 200 241 299 370
#     4  10  21  39  63  89 121 162 198 237 288 346
#     4  10  19  35  61  85 114 149 192 244 303 364
#
# _framework density 19.095223000000001
#
# number of rings (size 3 to 8) (size 9 to 14) (size 15 to 20)
#    0.000    1.600    4.000    1.200    0.000    3.733 
#    0.000    0.000    0.000    0.800    0.000    0.000 
#    0.000    0.000    0.000    0.000    0.000    0.000 
#
# Total GULP energy -371875.238906 kJ/mol
# GULP energy per Si atom -12395.841297 kJ/mol
# Density = 1.905176 g / cm^3
# Si number density = 19.095223 Si / 1000 Ang^3
#
#
#
# Elastic Constant Matrix: (Units=GPa)
#
#
# Indices 1 2 3 4 5 6 
#
# 1 89.8350 46.3636 47.1571 0.0000 2.3995 0.0000
# 2 46.3636 134.1160 56.8730 0.0000 5.0467 0.0000
# 3 47.1571 56.8730 113.7683 0.0000 5.2689 0.0000
# 4 0.0000 0.0000 0.0000 -8.8047 0.0000 -13.2985
# 5 2.3995 5.0467 5.2689 0.0000 35.9266 0.0000
# 6 0.0000 0.0000 0.0000 -13.2985 0.0000 25.6199
#
#
#
# Elastic Compliance Matrix: (Units=1/GPa)
#
#
# Indices 1 2 3 4 5 6 
#
# 1 0.015297 -0.003302 -0.004696 0.000000 0.000131 0.000000
# 2 -0.003302 0.010189 -0.003694 0.000000 -0.000669 0.000000
# 3 -0.004696 -0.003694 0.012630 0.000000 -0.001020 0.000000
# 4 0.000000 0.000000 0.000000 -0.063664 0.000000 -0.033046
# 5 0.000131 -0.000669 -0.001020 0.000000 0.028069 0.000000
# 6 0.000000 0.000000 0.000000 -0.033046 0.000000 0.021879
#
#
# Mechanical properties :
#
#
# Convention : Reuss Voigt Hill
#
# Bulk Modulus (GPa) = 67.87596 70.94518 69.41057
# Shear Modulus (GPa) = 94.88317 23.03675 58.95996
#
# Velocity S-wave (km/s) = 7.05672 3.47712 5.56272
# Velocity P-wave (km/s) = 10.10048 7.30441 8.81403
#
# Compressibility (1/GPa) = 0.01473276
#
# Stress axis : x y z
#
# Youngs Moduli (GPa) = 65.37143 98.14216 79.17445
#
# Poissons Ratio (x) = 0.32403 0.37182
# Poissons Ratio (y) = 0.21583 0.29248
# Poissons Ratio (z) = 0.30700 0.36255
#
# Static dielectric constant tensor:
#      x y z
#    x 3.475470 0.000000 0.113010 
#    y 0.000000 3.541910 0.000000 
#    z 0.113010 0.000000 4.016780 
# 
# 
# High freq. dielectric constant tensor:
#      x y z
#    x 1.731780 0.000000 0.002590 
#    y 0.000000 1.739780 0.000000 
#    z 0.002590 0.000000 1.756960 
# 
# From -- ./inp_files/332973.got.cif
#   From: 2010.06.25/outbox.cif.g09.slc.cpg/sg12_167_cif.got.tgz:332973.got - 2010.06.28 00:19:55.
