data_PCOD8093269
_publ_section_title
;
Structure prediction by ZEFSAII (Michael W. Deem and Ramdas Pophale) SiO2 
 PCOD8093269
Probable space group: C 2/M
;
_chemical_formula_sum "Si O2"
_cell_formula_units_Z 44
_cell_length_a 17.176224
_cell_length_b 18.876515
_cell_length_c 11.352518
_cell_angle_alpha 90.000000
_cell_angle_beta 143.198595
_cell_angle_gamma 90.000000
_cell_volume 2204.955754
_symmetry_space_group_name_H-M "C 2/M"
_symmetry_group_IT_number 12
_symmetry_cell_setting 'monoclinic'
loop_
_space_group_symop_operation_xyz
x,y,z
-x,y,-z
-x,-y,-z
x,-y,z
1/2+x,1/2+y,z
1/2-x,1/2+y,-z
1/2-x,1/2-y,-z
1/2+x,1/2-y,z
loop_
_atom_site_type_symbol
_atom_site_label
_atom_site_fract_x
_atom_site_fract_y
_atom_site_fract_z
Si Si1 0.247744 0.423261 0.796932
Si Si2 0.229636 0.922679 0.448269
Si Si3 0.888803 0.714484 0.134438
Si Si4 0.989135 0.416467 0.126010
Si Si5 0.500000 0.174150 0.500000
Si Si6 0.488099 0.658832 0.124415
O O1 0.213930 0.500000 0.810211
O O2 0.287509 0.431791 0.710825
O O3 0.126065 0.373444 0.660176
O O4 0.366743 0.390543 0.015415
O O5 0.371577 0.893995 0.652121
O O6 0.116138 0.868611 0.349556
O O7 0.209295 0.000000 0.483936
O O8 0.985571 0.720312 0.364637
O O9 0.960186 0.760769 0.123379
O O10 0.885269 0.634684 0.070274
O O11 0.750000 0.750000 0.000000
O O12 0.956150 0.500000 0.110506
O O13 0.000000 0.401687 0.000000
O O14 0.500000 0.657082 0.000000
#
# Coordination Sequence:
#
# PCOD8093269 Si02
#       6
#     8   8   8   8   4   8
#     4  10  19  35  60  90 118 150 193 244 301 362
#     4   9  18  35  59  89 118 149 198 249 302 362
#     4  12  25  41  57  88 127 159 206 251 309 370
#     4  10  22  41  65  89 118 163 214 259 302 362
#     4  12  23  38  58  84 121 164 200 240 305 358
#     4  10  21  38  60  90 121 156 195 250 314 361
#
# _framework density 19.955048999999999
#
# number of rings (size 3 to 8) (size 9 to 14) (size 15 to 20)
#    0.000    1.636    3.636    1.364    0.000    5.091 
#    0.000    0.000    0.000    0.000    0.000    5.727 
#    0.000    0.000    0.000    0.000    0.000    0.000 
#
# Total GULP energy -272557.984692 kJ/mol
# GULP energy per Si atom -12388.999304 kJ/mol
# Density = 1.990963 g / cm^3
# Si number density = 19.955049 Si / 1000 Ang^3
#
#
#
# Elastic Constant Matrix: (Units=GPa)
#
#
# Indices 1 2 3 4 5 6 
#
# 1 62.6492 39.2821 32.4124 0.0000 13.9339 0.0000
# 2 39.2821 95.8982 45.2293 0.0000 16.3314 0.0000
# 3 32.4124 45.2293 81.1273 0.0000 11.6204 0.0000
# 4 0.0000 0.0000 0.0000 31.9094 0.0000 0.5924
# 5 13.9339 16.3314 11.6204 0.0000 36.7969 0.0000
# 6 0.0000 0.0000 0.0000 0.5924 0.0000 66.9220
#
#
#
# Elastic Compliance Matrix: (Units=1/GPa)
#
#
# Indices 1 2 3 4 5 6 
#
# 1 0.023727 -0.006500 -0.005218 0.000000 -0.004452 0.000000
# 2 -0.006500 0.016504 -0.006187 0.000000 -0.002910 0.000000
# 3 -0.005218 -0.006187 0.017998 0.000000 -0.000962 0.000000
# 4 0.000000 0.000000 0.000000 0.031344 0.000000 -0.000277
# 5 -0.004452 -0.002910 -0.000962 0.000000 0.030457 0.000000
# 6 0.000000 0.000000 0.000000 -0.000277 0.000000 0.014945
#
#
# Mechanical properties :
#
#
# Convention : Reuss Voigt Hill
#
# Bulk Modulus (GPa) = 44.60595 52.61359 48.60977
# Shear Modulus (GPa) = 28.04888 35.30905 31.67896
#
# Velocity S-wave (km/s) = 3.75320 4.21102 3.98869
# Velocity P-wave (km/s) = 6.41746 7.07580 6.75465
#
# Compressibility (1/GPa) = 0.02241853
#
# Stress axis : x y z
#
# Youngs Moduli (GPa) = 42.14540 60.59130 55.56036
#
# Poissons Ratio (x) = 0.39384 0.28992
# Poissons Ratio (y) = 0.27395 0.34378
# Poissons Ratio (z) = 0.21992 0.37491
#
# Static dielectric constant tensor:
#      x y z
#    x 3.058810 0.000000 -0.480240 
#    y 0.000000 -1.000170 0.000000 
#    z -0.480240 0.000000 3.584660 
# 
# 
# High freq. dielectric constant tensor:
#      x y z
#    x 1.759000 0.000000 0.008910 
#    y 0.000000 1.786390 0.000000 
#    z 0.008910 0.000000 1.774460 
# 
# From -- ./inp_files/145804.got.cif
#   From: 2010.06.25/outbox.cif.g09.slc.cpg/sg12_73_cif.got.tgz:145804.got - 2010.06.28 00:19:55.
