data_PCOD8093801
_publ_section_title
;
Structure prediction by ZEFSAII (Michael W. Deem and Ramdas Pophale) SiO2 
 PCOD8093801
Probable space group: C 2/M
;
_chemical_formula_sum "Si O2"
_cell_formula_units_Z 56
_cell_length_a 19.590483
_cell_length_b 9.187152
_cell_length_c 20.839706
_cell_angle_alpha 90.000000
_cell_angle_beta 54.937227
_cell_angle_gamma 90.000000
_cell_volume 3070.072259
_symmetry_space_group_name_H-M "C 2/M"
_symmetry_group_IT_number 12
_symmetry_cell_setting 'monoclinic'
loop_
_space_group_symop_operation_xyz
x,y,z
-x,y,-z
-x,-y,-z
x,-y,z
1/2+x,1/2+y,z
1/2-x,1/2+y,-z
1/2-x,1/2-y,-z
1/2+x,1/2-y,z
loop_
_atom_site_type_symbol
_atom_site_label
_atom_site_fract_x
_atom_site_fract_y
_atom_site_fract_z
Si Si1 0.758425 0.671191 0.862404
Si Si2 0.093617 0.665401 0.441705
Si Si3 0.641878 0.673187 0.295553
Si Si4 0.425768 0.328769 0.993840
Si Si5 0.592127 0.834400 0.126953
Si Si6 0.332924 0.837551 0.458160
Si Si7 0.003767 0.331874 0.695679
O O1 0.769157 0.500000 0.842461
O O2 0.781581 0.760616 0.786341
O O3 0.663992 0.714804 0.929360
O O4 0.820406 0.715716 0.887471
O O5 0.093133 0.500000 0.415247
O O6 0.146651 0.768185 0.365594
O O7 0.134441 0.674390 0.488206
O O8 0.000000 0.724948 0.500000
O O9 0.647407 0.500000 0.291297
O O10 0.555235 0.727549 0.313085
O O11 0.434077 0.500000 0.981248
O O12 0.500000 0.270117 0.000000
O O13 0.433364 0.262455 0.919309
O O14 0.516600 0.816522 0.218226
O O15 0.600774 0.000000 0.098799
O O16 0.250000 0.750000 0.500000
O O17 0.402094 0.780402 0.369925
O O18 0.309639 0.000000 0.451421
O O19 0.990722 0.500000 0.680169
#
# Coordination Sequence:
#
# PCOD8093801 Si02
#       7
#     8   8   8   8   8   8   8
#     4   9  19  37  58  78 108 146 181 216 264 333
#     4  10  19  36  60  79 105 150 190 217 267 335
#     4  11  21  32  54  88 114 135 177 241 280 303
#     4  10  21  37  56  80 111 143 175 218 269 321
#     4   9  18  33  58  83 103 138 181 222 266 317
#     4  10  21  37  57  79 109 149 186 226 269 322
#     4   9  18  37  58  78 109 149 185 217 270 336
#
# _framework density 18.240613
#
# number of rings (size 3 to 8) (size 9 to 14) (size 15 to 20)
#    0.000    2.286    1.429    2.571    0.000    4.571 
#    2.571    0.000    0.000    0.000    0.000    0.000 
#    0.000    0.000    0.000    0.000    0.000    0.000 
#
# Total GULP energy -347170.582597 kJ/mol
# GULP energy per Si atom -12398.949378 kJ/mol
# Density = 1.819910 g / cm^3
# Si number density = 18.240613 Si / 1000 Ang^3
#
#
#
# Elastic Constant Matrix: (Units=GPa)
#
#
# Indices 1 2 3 4 5 6 
#
# 1 91.5452 28.9379 65.5386 0.0000 -15.3239 -0.0004
# 2 28.9379 66.5693 54.8084 0.0000 -1.7831 -0.0006
# 3 65.5386 54.8084 141.3901 0.0000 -11.1169 -0.0001
# 4 0.0000 0.0000 0.0000 29.5917 0.0000 4.1483
# 5 -15.3239 -1.7831 -11.1169 0.0000 26.9087 0.0000
# 6 -0.0004 -0.0006 -0.0001 4.1483 0.0000 25.2375
#
#
#
# Elastic Compliance Matrix: (Units=1/GPa)
#
#
# Indices 1 2 3 4 5 6 
#
# 1 0.017624 -0.001767 -0.006930 0.000000 0.007057 0.000000
# 2 -0.001767 0.022361 -0.008074 0.000000 -0.002860 0.000001
# 3 -0.006930 -0.008074 0.013501 0.000000 0.001096 0.000000
# 4 0.000000 0.000000 0.000000 0.034590 0.000000 -0.005686
# 5 0.007057 -0.002860 0.001096 0.000000 0.041445 0.000000
# 6 0.000000 0.000001 0.000000 -0.005686 0.000000 0.040558
#
#
# Mechanical properties :
#
#
# Convention : Reuss Voigt Hill
#
# Bulk Modulus (GPa) = 50.13772 66.45271 58.29521
# Shear Modulus (GPa) = 23.77918 26.36225 25.07072
#
# Velocity S-wave (km/s) = 3.61451 3.80577 3.71137
# Velocity P-wave (km/s) = 6.70568 7.47142 7.09888
#
# Compressibility (1/GPa) = 0.01994506
#
# Stress axis : x y z
#
# Youngs Moduli (GPa) = 56.73955 44.72113 74.07055
#
# Poissons Ratio (x) = 0.07902 0.51328
# Poissons Ratio (y) = 0.10026 0.59803
# Poissons Ratio (z) = 0.39319 0.36107
#
# Static dielectric constant tensor:
#      x y z
#    x 3.166040 0.000000 -0.073310 
#    y 0.000000 3.302500 0.000000 
#    z -0.073310 0.000000 3.578570 
# 
# 
# High freq. dielectric constant tensor:
#      x y z
#    x 1.688210 0.000000 -0.001330 
#    y 0.000000 1.695540 0.000000 
#    z -0.001330 0.000000 1.722180 
# 
# From -- ./inp_files/319643.got.cif
#   From: 2010.06.25/outbox.cif.g09.slc.cpg/sg12_160_cif.got.tgz:319643.got - 2010.06.28 00:19:55.
