data_PCOD8093564
_publ_section_title
;
Structure prediction by ZEFSAII (Michael W. Deem and Ramdas Pophale) SiO2 
 PCOD8093564
Probable space group: C 2/M
;
_chemical_formula_sum "Si O2"
_cell_formula_units_Z 64
_cell_length_a 23.627632
_cell_length_b 8.795269
_cell_length_c 30.816613
_cell_angle_alpha 90.000000
_cell_angle_beta 149.715481
_cell_angle_gamma 90.000000
_cell_volume 3229.522440
_symmetry_space_group_name_H-M "C 2/M"
_symmetry_group_IT_number 12
_symmetry_cell_setting 'monoclinic'
loop_
_space_group_symop_operation_xyz
x,y,z
-x,y,-z
-x,-y,-z
x,-y,z
1/2+x,1/2+y,z
1/2-x,1/2+y,-z
1/2-x,1/2-y,-z
1/2+x,1/2-y,z
loop_
_atom_site_type_symbol
_atom_site_label
_atom_site_fract_x
_atom_site_fract_y
_atom_site_fract_z
Si Si1 0.811888 0.323356 0.105494
Si Si2 0.580573 0.324767 0.740385
Si Si3 0.902890 0.323132 0.072069
Si Si4 0.139093 0.177850 0.221423
Si Si5 0.181223 0.174077 0.717629
Si Si6 0.226799 0.825697 0.373324
Si Si7 0.650395 0.821923 0.406739
Si Si8 0.985515 0.674280 0.539971
O O1 0.814354 0.500000 0.119242
O O2 0.866995 0.228722 0.180093
O O3 0.883640 0.287734 0.109968
O O4 0.684021 0.271496 0.014445
O O5 0.546100 0.500000 0.721662
O O6 0.672900 0.300328 0.763820
O O7 0.469170 0.231560 0.654224
O O8 0.885609 0.500000 0.050444
O O9 0.026291 0.272299 0.140273
O O10 0.222077 0.218397 0.237129
O O11 0.198408 0.225512 0.305686
O O12 0.111585 0.000000 0.201951
O O13 0.060358 0.214581 0.617996
O O14 0.209752 0.000000 0.725185
O O15 0.157466 0.722767 0.360745
O O16 0.357699 0.802888 0.469667
O O17 0.191407 0.000000 0.357091
O O18 0.750000 0.750000 0.500000
O O19 0.659033 0.000000 0.417956
O O20 0.024972 0.500000 0.572586
O O21 0.000000 0.722298 0.500000
#
# Coordination Sequence:
#
# PCOD8093564 Si02
#       8
#     8   8   8   8   8   8   8   8
#     4  10  21  39  65  95 121 154 195 236 290 353
#     4  11  24  42  62  86 119 159 200 243 295 351
#     4  10  21  38  62  93 126 154 187 239 295 349
#     4  11  22  38  60  87 118 154 195 242 294 348
#     4  11  24  39  57  84 117 156 199 245 295 349
#     4  10  21  37  59  85 116 153 194 243 296 350
#     4  12  25  40  59  85 118 156 198 245 294 348
#     4  10  19  36  57  81 112 152 198 241 290 345
#
# _framework density 19.817170999999998
#
# number of rings (size 3 to 8) (size 9 to 14) (size 15 to 20)
#    0.000    1.375    1.250    4.500    0.000    9.250 
#    0.000    0.625    0.000    3.750    0.000    0.000 
#    0.000    0.000    0.000    0.000    0.000    0.000 
#
# Total GULP energy -397014.925626 kJ/mol
# GULP energy per Si atom -12406.716426 kJ/mol
# Density = 1.977207 g / cm^3
# Si number density = 19.817171 Si / 1000 Ang^3
#
#
#
# Elastic Constant Matrix: (Units=GPa)
#
#
# Indices 1 2 3 4 5 6 
#
# 1 90.6544 41.1078 35.8404 0.0009 5.7602 -0.0007
# 2 41.1078 90.5789 25.3490 0.0031 -2.3142 -0.0025
# 3 35.8404 25.3490 84.6143 0.0014 6.0312 0.0005
# 4 0.0009 0.0031 0.0014 36.7476 -0.0004 2.3405
# 5 5.7602 -2.3142 6.0312 -0.0004 27.7942 0.0000
# 6 -0.0007 -0.0025 0.0005 2.3405 0.0000 32.9939
#
#
#
# Elastic Compliance Matrix: (Units=1/GPa)
#
#
# Indices 1 2 3 4 5 6 
#
# 1 0.015738 -0.005895 -0.004705 0.000000 -0.002731 0.000000
# 2 -0.005895 0.014350 -0.002005 -0.000001 0.002852 0.000001
# 3 -0.004705 -0.002005 0.014580 0.000000 -0.002356 0.000000
# 4 0.000000 -0.000001 0.000000 0.027336 0.000000 -0.001939
# 5 -0.002731 0.002852 -0.002356 0.000000 0.037293 0.000000
# 6 0.000000 0.000001 0.000000 -0.001939 0.000000 0.030446
#
#
# Mechanical properties :
#
#
# Convention : Reuss Voigt Hill
#
# Bulk Modulus (GPa) = 51.39794 52.27133 51.83464
# Shear Modulus (GPa) = 29.16466 30.41050 29.78758
#
# Velocity S-wave (km/s) = 3.84042 3.92159 3.88121
# Velocity P-wave (km/s) = 6.75703 6.85122 6.80429
#
# Compressibility (1/GPa) = 0.01945603
#
# Stress axis : x y z
#
# Youngs Moduli (GPa) = 63.54024 69.68826 68.58726
#
# Poissons Ratio (x) = 0.41084 0.32273
# Poissons Ratio (y) = 0.37460 0.13752
# Poissons Ratio (z) = 0.29898 0.13973
#
# Static dielectric constant tensor:
#      x y z
#    x 3.656130 0.000000 0.017180 
#    y 0.000000 3.612180 0.000000 
#    z 0.017180 0.000000 3.564930 
# 
# 
# High freq. dielectric constant tensor:
#      x y z
#    x 1.776350 0.000000 0.003620 
#    y 0.000000 1.779420 0.000000 
#    z 0.003620 0.000000 1.768160 
# 
# From -- ./inp_files/382481.got.cif
#   From: 2010.06.25/outbox.cif.g09.slc.cpg/sg12_192_cif.got.tgz:382481.got - 2010.06.28 00:19:55.
