data_PCOD8093535
_publ_section_title
;
Structure prediction by ZEFSAII (Michael W. Deem and Ramdas Pophale) SiO2 
 PCOD8093535
Probable space group: C 2/M
;
_chemical_formula_sum "Si O2"
_cell_formula_units_Z 64
_cell_length_a 16.255275
_cell_length_b 11.791246
_cell_length_c 30.181892
_cell_angle_alpha 90.000000
_cell_angle_beta 33.813912
_cell_angle_gamma 90.000000
_cell_volume 3219.315930
_symmetry_space_group_name_H-M "C 2/M"
_symmetry_group_IT_number 12
_symmetry_cell_setting 'monoclinic'
loop_
_space_group_symop_operation_xyz
x,y,z
-x,y,-z
-x,-y,-z
x,-y,z
1/2+x,1/2+y,z
1/2-x,1/2+y,-z
1/2-x,1/2-y,-z
1/2+x,1/2-y,z
loop_
_atom_site_type_symbol
_atom_site_label
_atom_site_fract_x
_atom_site_fract_y
_atom_site_fract_z
Si Si1 0.263561 0.755053 0.924439
Si Si2 0.725942 0.637475 0.478962
Si Si3 0.358612 0.822594 0.326696
Si Si4 0.221309 0.239395 0.771287
Si Si5 0.061835 0.630598 0.078014
Si Si6 0.892462 0.123458 0.627225
Si Si7 0.550915 0.627482 0.773046
Si Si8 0.814372 0.375898 0.817731
O O1 0.331502 0.845215 0.928373
O O2 0.381928 0.659080 0.858644
O O3 0.218445 0.820319 0.899915
O O4 0.116583 0.699972 0.010563
O O5 0.752788 0.500000 0.482893
O O6 0.750000 0.750000 0.500000
O O7 0.834428 0.664188 0.389726
O O8 0.558351 0.648413 0.536542
O O9 0.220408 0.877332 0.363354
O O10 0.376842 0.694434 0.300604
O O11 0.513081 0.883575 0.245275
O O12 0.352882 0.288349 0.682981
O O13 0.140522 0.142709 0.778785
O O14 0.298735 0.193564 0.780015
O O15 0.105204 0.337028 0.835601
O O16 0.068356 0.500000 0.062916
O O17 0.886109 0.000000 0.652259
O O18 0.558686 0.500000 0.753629
O O19 0.749390 0.500000 0.838776
#
# Coordination Sequence:
#
# PCOD8093535 Si02
#       8
#     8   8   8   8   8   8   8   8
#     4   9  20  34  55  83 103 136 187 226 270 329
#     4  11  23  39  60  88 120 151 185 230 283 336
#     4  10  21  36  59  85 108 144 192 231 270 326
#     4  10  21  34  53  82 110 142 182 219 274 337
#     4  10  19  36  57  77 107 141 180 228 273 322
#     4  10  20  37  60  84 111 144 187 232 272 322
#     4   9  18  35  56  79 111 146 182 226 276 329
#     4  11  21  36  55  77 109 141 177 226 276 325
#
# _framework density 19.879999000000002
#
# number of rings (size 3 to 8) (size 9 to 14) (size 15 to 20)
#    0.000    2.000    0.000    4.500    0.000    2.000 
#    0.000   13.125    0.000    3.750    0.000    0.000 
#    0.000    0.000    0.000    0.000    0.000    0.000 
#
# Total GULP energy -396509.105767 kJ/mol
# GULP energy per Si atom -12390.909555 kJ/mol
# Density = 1.983475 g / cm^3
# Si number density = 19.879999 Si / 1000 Ang^3
#
#
#
# Elastic Constant Matrix: (Units=GPa)
#
#
# Indices 1 2 3 4 5 6 
#
# 1 58.3861 23.0837 4.0059 0.0001 16.9727 0.0000
# 2 23.0837 95.6136 21.3784 0.0001 17.0573 0.0000
# 3 4.0059 21.3784 84.1103 -0.0007 16.3625 0.0001
# 4 0.0001 0.0001 -0.0007 15.4891 0.0000 0.2526
# 5 16.9727 17.0573 16.3625 0.0000 34.8267 0.0000
# 6 0.0000 0.0000 0.0001 0.2526 0.0000 11.3993
#
#
#
# Elastic Compliance Matrix: (Units=1/GPa)
#
#
# Indices 1 2 3 4 5 6 
#
# 1 0.021235 -0.003867 0.001779 0.000000 -0.009291 0.000000
# 2 -0.003867 0.012480 -0.002383 0.000000 -0.003108 0.000000
# 3 0.001779 -0.002383 0.013594 0.000001 -0.006087 0.000000
# 4 0.000000 0.000000 0.000001 0.064585 0.000000 -0.001431
# 5 -0.009291 -0.003108 -0.006087 0.000000 0.037623 0.000000
# 6 0.000000 0.000000 0.000000 -0.001431 0.000000 0.087757
#
#
# Mechanical properties :
#
#
# Convention : Reuss Voigt Hill
#
# Bulk Modulus (GPa) = 26.06459 37.22735 31.64597
# Shear Modulus (GPa) = 19.30466 24.98582 22.14524
#
# Velocity S-wave (km/s) = 3.11956 3.54903 3.34120
# Velocity P-wave (km/s) = 5.11028 5.96329 5.55319
#
# Compressibility (1/GPa) = 0.03836623
#
# Stress axis : x y z
#
# Youngs Moduli (GPa) = 47.09217 80.13025 73.56068
#
# Poissons Ratio (x) = 0.30986 -0.13085
# Poissons Ratio (y) = 0.18211 0.17531
# Poissons Ratio (z) = -0.08377 0.19097
#
# Static dielectric constant tensor:
#      x y z
#    x 3.480750 0.000000 0.024900 
#    y 0.000000 3.797980 0.000000 
#    z 0.024900 0.000000 3.665270 
# 
# 
# High freq. dielectric constant tensor:
#      x y z
#    x 1.758710 0.000000 0.001390 
#    y 0.000000 1.775780 0.000000 
#    z 0.001390 0.000000 1.783500 
# 
# From -- ./inp_files/361040.got.cif
#   From: 2010.06.25/outbox.cif.g09.slc.cpg/sg12_181_cif.got.tgz:361040.got - 2010.06.28 00:19:55.
