data_PCOD8093763
_publ_section_title
;
Structure prediction by ZEFSAII (Michael W. Deem and Ramdas Pophale) SiO2 
 PCOD8093763
Probable space group: C 2/M
;
_chemical_formula_sum "Si O2"
_cell_formula_units_Z 64
_cell_length_a 15.009665
_cell_length_b 9.052718
_cell_length_c 25.529790
_cell_angle_alpha 90.000000
_cell_angle_beta 72.974327
_cell_angle_gamma 90.000000
_cell_volume 3316.912440
_symmetry_space_group_name_H-M "C 2/M"
_symmetry_group_IT_number 12
_symmetry_cell_setting 'monoclinic'
loop_
_space_group_symop_operation_xyz
x,y,z
-x,y,-z
-x,-y,-z
x,-y,z
1/2+x,1/2+y,z
1/2-x,1/2+y,-z
1/2-x,1/2-y,-z
1/2+x,1/2-y,z
loop_
_atom_site_type_symbol
_atom_site_label
_atom_site_fract_x
_atom_site_fract_y
_atom_site_fract_z
Si Si1 0.816501 0.325098 0.835949
Si Si2 0.007009 0.825817 0.241627
Si Si3 0.111721 0.829057 0.836739
Si Si4 0.946900 0.663146 0.057972
Si Si5 0.246448 0.324329 0.444362
Si Si6 0.559521 0.325329 0.634638
Si Si7 0.260178 0.664624 0.944356
Si Si8 0.434534 0.672305 0.560672
O O1 0.826835 0.500000 0.839315
O O2 0.898462 0.260305 0.786632
O O3 0.719340 0.279813 0.824341
O O4 0.824692 0.255223 0.892789
O O5 0.925240 0.787943 0.214420
O O6 0.970907 0.765300 0.303511
O O7 0.028671 0.000000 0.238608
O O8 0.041832 0.753367 0.890481
O O9 0.103165 0.000000 0.850332
O O10 0.990729 0.500000 0.058843
O O11 0.839224 0.651349 0.064614
O O12 0.000000 0.741420 0.000000
O O13 0.244094 0.500000 0.451946
O O14 0.250000 0.250000 0.500000
O O15 0.336799 0.270319 0.396622
O O16 0.157721 0.269775 0.427355
O O17 0.559336 0.500000 0.634852
O O18 0.487310 0.269711 0.603182
O O19 0.301829 0.500000 0.946549
O O20 0.250000 0.750000 0.000000
O O21 0.500000 0.702170 0.500000
O O22 0.407551 0.500000 0.568662
#
# Coordination Sequence:
#
# PCOD8093763 Si02
#       8
#     8   8   8   8   8   8   8   8
#     4  10  21  38  57  80 112 148 186 237 292 336
#     4  10  21  39  61  83 109 151 198 232 278 344
#     4   9  20  37  56  79 108 144 184 230 280 334
#     4   9  19  34  52  77 107 139 174 221 279 334
#     4  11  21  36  59  88 119 157 195 239 291 344
#     4   9  20  38  58  82 117 156 191 231 288 348
#     4  10  20  34  53  80 112 144 180 227 283 345
#     4  10  19  36  59  84 118 159 195 236 291 344
#
# _framework density 19.295051000000001
#
# number of rings (size 3 to 8) (size 9 to 14) (size 15 to 20)
#    0.000    2.250    1.250    1.125    1.750    3.000 
#    0.000    3.125    0.000    0.000    0.000    0.000 
#    0.000    0.000    0.000    0.000    0.000    0.000 
#
# Total GULP energy -396784.980342 kJ/mol
# GULP energy per Si atom -12399.530636 kJ/mol
# Density = 1.925113 g / cm^3
# Si number density = 19.295051 Si / 1000 Ang^3
#
#
#
# Elastic Constant Matrix: (Units=GPa)
#
#
# Indices 1 2 3 4 5 6 
#
# 1 115.0042 49.7374 76.7303 0.0000 -5.1280 0.0000
# 2 49.7374 76.4212 60.3415 0.0000 -3.0542 0.0000
# 3 76.7303 60.3415 188.5122 0.0000 -4.0305 0.0000
# 4 0.0000 0.0000 0.0000 23.4152 0.0000 -5.2907
# 5 -5.1280 -3.0542 -4.0305 0.0000 35.2393 0.0000
# 6 0.0000 0.0000 0.0000 -5.2907 0.0000 27.3381
#
#
#
# Elastic Compliance Matrix: (Units=1/GPa)
#
#
# Indices 1 2 3 4 5 6 
#
# 1 0.013800 -0.006051 -0.003657 0.000000 0.001065 0.000000
# 2 -0.006051 0.020192 -0.003991 0.000000 0.000413 0.000000
# 3 -0.003657 -0.003991 0.008072 0.000000 0.000045 0.000000
# 4 0.000000 0.000000 0.000000 0.044660 0.000000 0.008643
# 5 0.001065 0.000413 0.000045 0.000000 0.028573 0.000000
# 6 0.000000 0.000000 0.000000 0.008643 0.000000 0.038252
#
#
# Mechanical properties :
#
#
# Convention : Reuss Voigt Hill
#
# Bulk Modulus (GPa) = 68.19447 83.72843 75.96145
# Shear Modulus (GPa) = 26.90535 30.07375 28.48955
#
# Velocity S-wave (km/s) = 3.73824 3.95223 3.84672
# Velocity P-wave (km/s) = 7.35203 8.01965 7.69308
#
# Compressibility (1/GPa) = 0.01466395
#
# Stress axis : x y z
#
# Youngs Moduli (GPa) = 72.46382 49.52523 123.88605
#
# Poissons Ratio (x) = 0.29968 0.45309
# Poissons Ratio (y) = 0.43849 0.49448
# Poissons Ratio (z) = 0.26502 0.19768
#
# Static dielectric constant tensor:
#      x y z
#    x 3.847250 0.000000 0.014920 
#    y 0.000000 3.596640 0.000000 
#    z 0.014920 0.000000 3.745090 
# 
# 
# High freq. dielectric constant tensor:
#      x y z
#    x 1.754750 0.000000 -0.000120 
#    y 0.000000 1.737690 0.000000 
#    z -0.000120 0.000000 1.752980 
# 
# From -- ./inp_files/359800.got.cif
#   From: 2010.06.25/outbox.cif.g09.slc.cpg/sg12_180_cif.got.tgz:359800.got - 2010.06.28 00:19:55.
