data_PCOD8093474
_publ_section_title
;
Structure prediction by ZEFSAII (Michael W. Deem and Ramdas Pophale) SiO2 
 PCOD8093474
Probable space group: C 2/M
;
_chemical_formula_sum "Si O2"
_cell_formula_units_Z 60
_cell_length_a 14.297484
_cell_length_b 16.825986
_cell_length_c 14.460030
_cell_angle_alpha 90.000000
_cell_angle_beta 65.239422
_cell_angle_gamma 90.000000
_cell_volume 3158.833149
_symmetry_space_group_name_H-M "C 2/M"
_symmetry_group_IT_number 12
_symmetry_cell_setting 'monoclinic'
loop_
_space_group_symop_operation_xyz
x,y,z
-x,y,-z
-x,-y,-z
x,-y,z
1/2+x,1/2+y,z
1/2-x,1/2+y,-z
1/2-x,1/2-y,-z
1/2+x,1/2-y,z
loop_
_atom_site_type_symbol
_atom_site_label
_atom_site_fract_x
_atom_site_fract_y
_atom_site_fract_z
Si Si1 0.716784 0.204081 0.307592
Si Si2 0.218676 0.732622 0.909704
Si Si3 0.113413 0.712162 0.639344
Si Si4 0.500000 0.832934 0.000000
Si Si5 0.210705 0.086990 0.217662
Si Si6 0.066264 0.411700 0.794143
Si Si7 0.120358 0.408312 0.473616
Si Si8 0.039928 0.823033 0.386568
O O1 0.746486 0.205064 0.185485
O O2 0.795945 0.257392 0.332543
O O3 0.695327 0.114983 0.355313
O O4 0.607515 0.244742 0.371364
O O5 0.274472 0.648647 0.870804
O O6 0.096189 0.725983 0.956710
O O7 0.250000 0.750000 0.000000
O O8 0.037653 0.653800 0.729126
O O9 0.152877 0.656099 0.538898
O O10 0.056537 0.793303 0.634218
O O11 0.499112 0.891606 0.087747
O O12 0.310173 0.091925 0.242842
O O13 0.104860 0.105907 0.314495
O O14 0.200530 0.000000 0.177808
O O15 0.034246 0.500000 0.773974
O O16 0.145055 0.500000 0.491840
O O17 0.000000 0.399893 0.500000
O O18 0.000000 0.856718 0.500000
#
# Coordination Sequence:
#
# PCOD8093474 Si02
#       8
#     8   8   8   4   8   8   8   8
#     4  11  21  40  57  86 116 155 196 241 284 346
#     4  10  22  36  62  84 112 151 197 241 292 348
#     4  12  20  36  61  86 117 158 195 232 287 345
#     4  10  19  36  54  86 111 142 188 240 291 342
#     4   9  20  39  56  81 120 146 182 241 290 335
#     4  10  20  34  56  86 116 146 183 238 301 343
#     4  11  23  38  59  89 124 156 191 236 293 351
#     4  11  21  35  57  85 114 155 196 228 273 346
#
# _framework density 18.994354999999999
#
# number of rings (size 3 to 8) (size 9 to 14) (size 15 to 20)
#    0.000    1.467    6.667    1.000    3.733    0.800 
#    0.000    1.333    0.000    0.000    0.000    1.867 
#    0.000    0.000    0.000    0.000    0.000    0.000 
#
# Total GULP energy -371733.081864 kJ/mol
# GULP energy per Si atom -12391.102729 kJ/mol
# Density = 1.895112 g / cm^3
# Si number density = 18.994355 Si / 1000 Ang^3
#
#
#
# Elastic Constant Matrix: (Units=GPa)
#
#
# Indices 1 2 3 4 5 6 
#
# 1 32.1217 7.1282 36.2241 0.0000 0.5327 0.0000
# 2 7.1282 73.1633 44.9088 0.0000 -2.2513 0.0000
# 3 36.2241 44.9088 143.0926 0.0000 -2.5886 0.0000
# 4 0.0000 0.0000 0.0000 19.4457 0.0000 -5.8851
# 5 0.5327 -2.2513 -2.5886 0.0000 31.8235 0.0000
# 6 0.0000 0.0000 0.0000 -5.8851 0.0000 12.0883
#
#
#
# Elastic Compliance Matrix: (Units=1/GPa)
#
#
# Indices 1 2 3 4 5 6 
#
# 1 0.044228 0.003138 -0.012209 0.000000 -0.001511 0.000000
# 2 0.003138 0.017171 -0.006171 0.000000 0.000660 0.000000
# 3 -0.012209 -0.006171 0.012030 0.000000 0.000746 0.000000
# 4 0.000000 0.000000 0.000000 0.060311 0.000000 0.029362
# 5 -0.001511 0.000660 0.000746 0.000000 0.031556 0.000000
# 6 0.000000 0.000000 0.000000 0.029362 0.000000 0.097019
#
#
# Mechanical properties :
#
#
# Convention : Reuss Voigt Hill
#
# Bulk Modulus (GPa) = 23.28574 47.21109 35.24842
# Shear Modulus (GPa) = 16.28062 23.34595 19.81328
#
# Velocity S-wave (km/s) = 2.93085 3.50965 3.23323
# Velocity P-wave (km/s) = 4.87228 6.42906 5.70403
#
# Compressibility (1/GPa) = 0.04294474
#
# Stress axis : x y z
#
# Youngs Moduli (GPa) = 22.61000 58.23860 83.12884
#
# Poissons Ratio (x) = -0.18277 1.01490
# Poissons Ratio (y) = -0.07096 0.51303
# Poissons Ratio (z) = 0.27604 0.35942
#
# Static dielectric constant tensor:
#      x y z
#    x 3.352490 0.000000 0.000560 
#    y 0.000000 3.554220 0.000000 
#    z 0.000560 0.000000 3.775270 
# 
# 
# High freq. dielectric constant tensor:
#      x y z
#    x 1.721440 0.000000 -0.004590 
#    y 0.000000 1.724390 0.000000 
#    z -0.004590 0.000000 1.744960 
# 
# From -- ./inp_files/206648.got.cif
#   From: 2010.06.25/outbox.cif.g09.slc.cpg/sg12_104_cif.got.tgz:206648.got - 2010.06.28 00:19:55.
