data_PCOD8093256
_publ_section_title
;
Structure prediction by ZEFSAII (Michael W. Deem and Ramdas Pophale) SiO2 
 PCOD8093256
Probable space group: C 2/M
;
_chemical_formula_sum "Si O2"
_cell_formula_units_Z 48
_cell_length_a 18.454175
_cell_length_b 29.265872
_cell_length_c 8.594425
_cell_angle_alpha 90.000000
_cell_angle_beta 32.057658
_cell_angle_gamma 90.000000
_cell_volume 2463.662797
_symmetry_space_group_name_H-M "C 2/M"
_symmetry_group_IT_number 12
_symmetry_cell_setting 'monoclinic'
loop_
_space_group_symop_operation_xyz
x,y,z
-x,y,-z
-x,-y,-z
x,-y,z
1/2+x,1/2+y,z
1/2-x,1/2+y,-z
1/2-x,1/2-y,-z
1/2+x,1/2-y,z
loop_
_atom_site_type_symbol
_atom_site_label
_atom_site_fract_x
_atom_site_fract_y
_atom_site_fract_z
Si Si1 0.708689 0.881770 0.233402
Si Si2 0.258751 0.776564 0.819220
Si Si3 0.914806 0.378320 0.868957
Si Si4 0.028839 0.718556 0.127575
Si Si5 0.151538 0.548716 0.781179
Si Si6 0.625050 0.551746 0.878396
O O1 0.763650 0.830392 0.120625
O O2 0.578754 0.886614 0.586544
O O3 0.647494 0.895225 0.179060
O O4 0.836580 0.914378 0.048413
O O5 0.399113 0.767742 0.469765
O O6 0.250000 0.750000 0.000000
O O7 0.134052 0.760317 0.938907
O O8 0.892816 0.324628 0.938537
O O9 0.826947 0.407821 0.149156
O O10 0.000000 0.707264 0.000000
O O11 0.185504 0.500000 0.804475
O O12 0.242516 0.553367 0.465760
O O13 0.000000 0.547326 0.000000
O O14 0.593932 0.500000 0.995882
O O15 0.500000 0.570003 0.000000
#
# Coordination Sequence:
#
# PCOD8093256 Si02
#       6
#     8   8   8   8   8   8
#     4  10  21  37  61  88 118 162 201 246 311 367
#     4  11  22  42  60  87 126 162 205 256 312 367
#     4  10  20  36  60  90 120 150 199 258 304 351
#     4  11  23  39  62  89 121 162 204 258 309 368
#     4  10  19  35  60  89 118 153 197 244 295 358
#     4  10  22  41  61  87 126 162 196 250 312 367
#
# _framework density 19.483186
#
# number of rings (size 3 to 8) (size 9 to 14) (size 15 to 20)
#    0.000    1.667    3.333    1.500    2.333    1.333 
#    3.000    2.500    0.000    3.000    0.000    0.000 
#    0.000    0.000    0.000    0.000    0.000    0.000 
#
# Total GULP energy -297398.229291 kJ/mol
# GULP energy per Si atom -12391.592887 kJ/mol
# Density = 1.943884 g / cm^3
# Si number density = 19.483186 Si / 1000 Ang^3
#
#
#
# Elastic Constant Matrix: (Units=GPa)
#
#
# Indices 1 2 3 4 5 6 
#
# 1 97.5631 48.1985 26.2480 -0.0001 -12.3922 0.0001
# 2 48.1985 111.2886 34.0636 0.0000 -7.7885 0.0001
# 3 26.2480 34.0636 69.7905 -0.0003 0.4634 0.0004
# 4 -0.0001 0.0000 -0.0003 27.3831 0.0001 1.6863
# 5 -12.3922 -7.7885 0.4634 0.0001 34.2947 -0.0001
# 6 0.0001 0.0001 0.0004 1.6863 -0.0001 40.4671
#
#
#
# Elastic Compliance Matrix: (Units=1/GPa)
#
#
# Indices 1 2 3 4 5 6 
#
# 1 0.013940 -0.004875 -0.002890 0.000000 0.003969 0.000000
# 2 -0.004875 0.012482 -0.004266 0.000000 0.001131 0.000000
# 3 -0.002890 -0.004266 0.017513 0.000000 -0.002250 0.000000
# 4 0.000000 0.000000 0.000000 0.036613 0.000000 -0.001526
# 5 0.003969 0.001131 -0.002250 0.000000 0.030880 0.000000
# 6 0.000000 0.000000 0.000000 -0.001526 0.000000 0.024775
#
#
# Mechanical properties :
#
#
# Convention : Reuss Voigt Hill
#
# Bulk Modulus (GPa) = 50.32083 55.07359 52.69721
# Shear Modulus (GPa) = 29.96014 31.77112 30.86563
#
# Velocity S-wave (km/s) = 3.92566 4.04257 3.98454
# Velocity P-wave (km/s) = 6.81408 7.07944 6.94802
#
# Compressibility (1/GPa) = 0.01987249
#
# Stress axis : x y z
#
# Youngs Moduli (GPa) = 71.73776 80.11566 57.10163
#
# Poissons Ratio (x) = 0.39056 0.16500
# Poissons Ratio (y) = 0.34972 0.24361
# Poissons Ratio (z) = 0.20729 0.34180
#
# Static dielectric constant tensor:
#      x y z
#    x 3.465340 0.000000 -0.030250 
#    y 0.000000 3.904000 0.000000 
#    z -0.030250 0.000000 3.379000 
# 
# 
# High freq. dielectric constant tensor:
#      x y z
#    x 1.753670 0.000000 -0.001700 
#    y 0.000000 1.765280 0.000000 
#    z -0.001700 0.000000 1.745860 
# 
# From -- ./inp_files/80618.got.cif
#   From: 2010.06.25/outbox.cif.g09.slc.cpg/sg12_41_cif.got.tgz:80618.got - 2010.06.28 00:19:55.
