data_PCOD8093476
_publ_section_title
;
Structure prediction by ZEFSAII (Michael W. Deem and Ramdas Pophale) SiO2 
 PCOD8093476
Probable space group: C 2/M
;
_chemical_formula_sum "Si O2"
_cell_formula_units_Z 60
_cell_length_a 22.718342
_cell_length_b 16.817399
_cell_length_c 10.013928
_cell_angle_alpha 90.000000
_cell_angle_beta 117.471196
_cell_angle_gamma 90.000000
_cell_volume 3394.551764
_symmetry_space_group_name_H-M "C 2/M"
_symmetry_group_IT_number 12
_symmetry_cell_setting 'monoclinic'
loop_
_space_group_symop_operation_xyz
x,y,z
-x,y,-z
-x,-y,-z
x,-y,z
1/2+x,1/2+y,z
1/2-x,1/2+y,-z
1/2-x,1/2-y,-z
1/2+x,1/2-y,z
loop_
_atom_site_type_symbol
_atom_site_label
_atom_site_fract_x
_atom_site_fract_y
_atom_site_fract_z
Si Si1 0.971989 0.588874 0.200581
Si Si2 0.301412 0.170024 0.290343
Si Si3 0.000000 0.288084 0.000000
Si Si4 0.613210 0.275196 0.274371
Si Si5 0.773977 0.672545 0.726677
Si Si6 0.213235 0.092044 0.417444
Si Si7 0.681757 0.089606 0.957099
Si Si8 0.055437 0.305670 0.464471
O O1 0.993032 0.500000 0.175468
O O2 0.981049 0.654544 0.098730
O O3 0.020136 0.614369 0.371631
O O4 0.895469 0.589103 0.160854
O O5 0.275877 0.259923 0.274787
O O6 0.270451 0.115045 0.372876
O O7 0.281042 0.136731 0.122959
O O8 0.380660 0.168106 0.385058
O O9 0.939194 0.229815 0.901057
O O10 0.669621 0.209260 0.309314
O O11 0.645319 0.362136 0.310642
O O12 0.576507 0.257415 0.374435
O O13 0.734830 0.611116 0.591772
O O14 0.805594 0.628936 0.886164
O O15 0.197016 0.000000 0.388491
O O16 0.709701 0.000000 0.991410
O O17 0.000000 0.263106 0.500000
#
# Coordination Sequence:
#
# PCOD8093476 Si02
#       8
#     8   8   4   8   8   8   8   8
#     4  10  21  31  48  76 111 145 176 218 269 333
#     4  11  21  38  57  82 113 154 192 230 280 339
#     4  10  19  36  55  74 106 142 186 228 275 322
#     4  10  20  38  58  84 107 145 197 234 272 344
#     4  11  20  39  58  81 111 151 198 233 270 339
#     4  11  22  38  61  84 112 147 191 244 287 324
#     4  11  22  35  50  83 121 146 182 229 286 333
#     4  11  20  35  55  79 113 149 189 224 277 338
#
# _framework density 17.675381999999999
#
# number of rings (size 3 to 8) (size 9 to 14) (size 15 to 20)
#    0.000    1.333    5.333    2.200    0.000    1.333 
#    0.000    0.333    0.000    0.400    0.000    0.000 
#    0.000    0.000    0.000    0.000    0.000    0.000 
#
# Total GULP energy -371980.689688 kJ/mol
# GULP energy per Si atom -12399.356323 kJ/mol
# Density = 1.763515 g / cm^3
# Si number density = 17.675382 Si / 1000 Ang^3
#
#
#
# Elastic Constant Matrix: (Units=GPa)
#
#
# Indices 1 2 3 4 5 6 
#
# 1 100.4171 48.0251 40.4237 0.0000 -1.4641 0.0000
# 2 48.0251 106.4389 34.1382 0.0000 5.3078 0.0000
# 3 40.4237 34.1382 69.7588 0.0000 5.6120 0.0000
# 4 0.0000 0.0000 0.0000 -10.9707 0.0000 8.8401
# 5 -1.4641 5.3078 5.6120 0.0000 34.5966 0.0000
# 6 0.0000 0.0000 0.0000 8.8401 0.0000 15.8877
#
#
#
# Elastic Compliance Matrix: (Units=1/GPa)
#
#
# Indices 1 2 3 4 5 6 
#
# 1 0.014879 -0.004752 -0.006491 0.000000 0.002412 0.000000
# 2 -0.004752 0.012686 -0.003325 0.000000 -0.001608 0.000000
# 3 -0.006491 -0.003325 0.019965 0.000000 -0.003003 0.000000
# 4 0.000000 0.000000 0.000000 -0.062935 0.000000 0.035018
# 5 0.002412 -0.001608 -0.003003 0.000000 0.029740 0.000000
# 6 0.000000 0.000000 0.000000 0.035018 0.000000 0.043457
#
#
# Mechanical properties :
#
#
# Convention : Reuss Voigt Hill
#
# Bulk Modulus (GPa) = 54.36366 57.97653 56.17010
# Shear Modulus (GPa) = 53.72873 18.17124 35.94999
#
# Velocity S-wave (km/s) = 5.51937 3.20981 4.51477
# Velocity P-wave (km/s) = 8.45231 6.82708 7.68279
#
# Compressibility (1/GPa) = 0.01839464
#
# Stress axis : x y z
#
# Youngs Moduli (GPa) = 67.20811 78.82842 50.08733
#
# Poissons Ratio (x) = 0.37459 0.32510
# Poissons Ratio (y) = 0.31937 0.16654
# Poissons Ratio (z) = 0.43623 0.26211
#
# Static dielectric constant tensor:
#      x y z
#    x 3.314030 0.000000 0.019430 
#    y 0.000000 3.174140 0.000000 
#    z 0.019430 0.000000 3.495960 
# 
# 
# High freq. dielectric constant tensor:
#      x y z
#    x 1.682010 0.000000 -0.005400 
#    y 0.000000 1.662940 0.000000 
#    z -0.005400 0.000000 1.696800 
# 
# From -- ./inp_files/98142.got.cif
#   From: 2010.06.25/outbox.cif.g09.slc.cpg/sg12_50_cif.got.tgz:98142.got - 2010.06.28 00:19:55.
