data_PCOD8093460
_publ_section_title
;
Structure prediction by ZEFSAII (Michael W. Deem and Ramdas Pophale) SiO2 
 PCOD8093460
Probable space group: C 2/M
;
_chemical_formula_sum "Si O2"
_cell_formula_units_Z 56
_cell_length_a 23.924085
_cell_length_b 17.822432
_cell_length_c 20.169524
_cell_angle_alpha 90.000000
_cell_angle_beta 159.067032
_cell_angle_gamma 90.000000
_cell_volume 3072.565611
_symmetry_space_group_name_H-M "C 2/M"
_symmetry_group_IT_number 12
_symmetry_cell_setting 'monoclinic'
loop_
_space_group_symop_operation_xyz
x,y,z
-x,y,-z
-x,-y,-z
x,-y,z
1/2+x,1/2+y,z
1/2-x,1/2+y,-z
1/2-x,1/2-y,-z
1/2+x,1/2-y,z
loop_
_atom_site_type_symbol
_atom_site_label
_atom_site_fract_x
_atom_site_fract_y
_atom_site_fract_z
Si Si1 0.317625 0.085434 0.785368
Si Si2 0.001401 0.753554 0.761674
Si Si3 0.796062 0.301379 0.644791
Si Si4 0.029856 0.582044 0.456651
Si Si5 0.308101 0.199042 0.146219
Si Si6 0.675255 0.707157 0.714775
Si Si7 0.170152 0.821343 0.208823
O O1 0.286144 0.125568 0.680231
O O2 0.229516 0.125007 0.749919
O O3 0.256860 0.000000 0.713867
O O4 0.500000 0.089105 0.000000
O O5 0.932331 0.696356 0.740453
O O6 0.868090 0.798244 0.575168
O O7 0.099712 0.702838 0.820371
O O8 0.122860 0.814132 0.927900
O O9 0.833171 0.227620 0.728337
O O10 0.024782 0.500000 0.416780
O O11 0.202797 0.614799 0.635897
O O12 0.000000 0.573252 0.500000
O O13 0.885205 0.631076 0.270806
O O14 0.318624 0.278221 0.199359
O O15 0.500000 0.723519 0.500000
O O16 0.784880 0.768861 0.802646
O O17 0.000000 0.855158 0.000000
#
# Coordination Sequence:
#
# PCOD8093460 Si02
#       7
#     8   8   8   8   8   8   8
#     4  10  21  36  56  84 115 145 177 230 299 343
#     4  10  21  31  59  79 107 144 198 220 262 313
#     4  10  19  36  53  84 109 145 186 236 263 327
#     4  11  22  37  56  82 115 144 178 233 293 335
#     4  11  18  36  54  84 107 146 186 232 261 330
#     4  11  18  33  59  84 110 139 180 235 287 322
#     4  11  19  33  59  83 109 143 184 233 286 330
#
# _framework density 18.225812000000001
#
# number of rings (size 3 to 8) (size 9 to 14) (size 15 to 20)
#    0.000    1.429    4.286    4.286    0.000    0.571 
#    0.000    1.429    0.000    3.429    0.000    0.000 
#    0.000    0.000    0.000    0.000    0.000    0.000 
#
# Total GULP energy -347032.832729 kJ/mol
# GULP energy per Si atom -12394.029740 kJ/mol
# Density = 1.818433 g / cm^3
# Si number density = 18.225812 Si / 1000 Ang^3
#
#
#
# Elastic Constant Matrix: (Units=GPa)
#
#
# Indices 1 2 3 4 5 6 
#
# 1 96.7809 41.9965 33.1754 0.0006 0.9053 -0.0001
# 2 41.9965 113.8566 45.5165 -0.0012 -6.5771 0.0048
# 3 33.1754 45.5165 142.4689 -0.0053 -2.4578 0.0055
# 4 0.0006 -0.0012 -0.0053 25.5281 -0.0021 -12.4553
# 5 0.9053 -6.5771 -2.4578 -0.0021 27.0336 0.0030
# 6 -0.0001 0.0048 0.0055 -12.4553 0.0030 37.9348
#
#
#
# Elastic Compliance Matrix: (Units=1/GPa)
#
#
# Indices 1 2 3 4 5 6 
#
# 1 0.012703 -0.004108 -0.001673 -0.000001 -0.001577 0.000001
# 2 -0.004108 0.011525 -0.002679 0.000000 0.002698 -0.000001
# 3 -0.001673 -0.002679 0.008267 0.000001 0.000156 0.000000
# 4 -0.000001 0.000000 0.000001 0.046645 0.000002 0.015315
# 5 -0.001577 0.002698 0.000156 0.000002 0.037714 -0.000003
# 6 0.000001 -0.000001 0.000000 0.015315 -0.000003 0.031390
#
#
# Mechanical properties :
#
#
# Convention : Reuss Voigt Hill
#
# Bulk Modulus (GPa) = 64.20143 66.05370 65.12756
# Shear Modulus (GPa) = 29.35030 33.59383 31.47206
#
# Velocity S-wave (km/s) = 4.01729 4.29791 4.15997
# Velocity P-wave (km/s) = 7.53792 7.80704 7.67366
#
# Compressibility (1/GPa) = 0.01557598
#
# Stress axis : x y z
#
# Youngs Moduli (GPa) = 78.71885 86.76749 120.96017
#
# Poissons Ratio (x) = 0.35644 0.20235
# Poissons Ratio (y) = 0.32338 0.32404
# Poissons Ratio (z) = 0.13169 0.23244
#
# Static dielectric constant tensor:
#      x y z
#    x 4.297870 0.000010 -0.019730 
#    y 0.000010 3.404270 -0.000010 
#    z -0.019730 -0.000010 3.696670 
# 
# 
# High freq. dielectric constant tensor:
#      x y z
#    x 1.716990 0.000000 0.003440 
#    y 0.000000 1.661640 0.000000 
#    z 0.003440 0.000000 1.727580 
# 
# From -- ./inp_files/105558.got.cif
#   From: 2010.06.25/outbox.cif.g09.slc.cpg/sg12_53_cif.got.tgz:105558.got - 2010.06.28 00:19:55.
