data_PCOD8093369
_publ_section_title
;
Structure prediction by ZEFSAII (Michael W. Deem and Ramdas Pophale) SiO2 
 PCOD8093369
Probable space group: C 2/M
;
_chemical_formula_sum "Si O2"
_cell_formula_units_Z 44
_cell_length_a 10.536342
_cell_length_b 14.021693
_cell_length_c 14.664689
_cell_angle_alpha 90.000000
_cell_angle_beta 91.163420
_cell_angle_gamma 90.000000
_cell_volume 2166.075705
_symmetry_space_group_name_H-M "C 2/M"
_symmetry_group_IT_number 12
_symmetry_cell_setting 'monoclinic'
loop_
_space_group_symop_operation_xyz
x,y,z
-x,y,-z
-x,-y,-z
x,-y,z
1/2+x,1/2+y,z
1/2-x,1/2+y,-z
1/2-x,1/2-y,-z
1/2+x,1/2-y,z
loop_
_atom_site_type_symbol
_atom_site_label
_atom_site_fract_x
_atom_site_fract_y
_atom_site_fract_z
Si Si1 0.277442 0.500000 0.881002
Si Si2 0.877821 0.639567 0.441881
Si Si3 0.604135 0.000000 0.151025
Si Si4 0.667374 0.500000 0.709574
Si Si5 0.762534 0.361558 0.976341
Si Si6 0.434517 0.500000 0.105573
Si Si7 0.629581 0.637279 0.549026
Si Si8 0.874792 0.500000 0.281362
O O1 0.420839 0.500000 0.922878
O O2 0.262757 0.500000 0.771171
O O3 0.212504 0.406622 0.923853
O O4 0.747880 0.605972 0.487718
O O5 0.877791 0.751718 0.431770
O O6 0.888269 0.594316 0.342050
O O7 0.000000 0.603917 0.500000
O O8 0.696560 0.000000 0.239825
O O9 0.626546 0.902541 0.090670
O O10 0.466305 0.000000 0.194397
O O11 0.559349 0.500000 0.784578
O O12 0.649724 0.593059 0.647856
O O13 0.633851 0.403007 0.929312
O O14 0.750000 0.250000 0.000000
O O15 0.500000 0.600637 0.500000
#
# Coordination Sequence:
#
# PCOD8093369 Si02
#       8
#     4   8   4   4   8   4   8   4
#     4  10  23  40  56  93 127 149 206 250 299 384
#     4  10  22  39  57  82 124 161 207 246 307 372
#     4   9  22  40  58  93 122 150 207 248 302 382
#     4  10  19  35  62  81 120 146 192 250 309 342
#     4   9  19  42  67  85 116 162 197 241 312 373
#     4   9  21  39  61  92 122 152 199 256 301 369
#     4  10  21  36  58  87 113 160 208 251 298 372
#     4  12  23  37  60  87 122 161 195 259 312 352
#
# _framework density 20.313231999999999
#
# number of rings (size 3 to 8) (size 9 to 14) (size 15 to 20)
#    0.000    2.545    0.000    3.273    2.545    4.364 
#    9.818    0.000    0.000    0.000    0.000    0.000 
#    0.000    0.000    0.000    0.000    0.000    0.000 
#
# Total GULP energy -272539.695339 kJ/mol
# GULP energy per Si atom -12388.167970 kJ/mol
# Density = 2.026700 g / cm^3
# Si number density = 20.313232 Si / 1000 Ang^3
#
#
#
# Elastic Constant Matrix: (Units=GPa)
#
#
# Indices 1 2 3 4 5 6 
#
# 1 114.1953 30.5707 46.5375 0.0000 -4.4284 0.0000
# 2 30.5707 147.4670 61.7496 0.0000 -2.6771 0.0000
# 3 46.5375 61.7496 146.6241 0.0000 1.3945 0.0000
# 4 0.0000 0.0000 0.0000 12.0629 0.0000 -1.2150
# 5 -4.4284 -2.6771 1.3945 0.0000 42.9927 0.0000
# 6 0.0000 0.0000 0.0000 -1.2150 0.0000 0.9581
#
#
#
# Elastic Compliance Matrix: (Units=1/GPa)
#
#
# Indices 1 2 3 4 5 6 
#
# 1 0.010210 -0.000893 -0.002875 0.000000 0.001089 0.000000
# 2 -0.000893 0.008328 -0.003229 0.000000 0.000531 0.000000
# 3 -0.002875 -0.003229 0.009100 0.000000 -0.000792 0.000000
# 4 0.000000 0.000000 0.000000 0.095038 0.000000 0.120527
# 5 0.001089 0.000531 -0.000792 0.000000 0.023431 0.000000
# 6 0.000000 0.000000 0.000000 0.120527 0.000000 1.196626
#
#
# Mechanical properties :
#
#
# Convention : Reuss Voigt Hill
#
# Bulk Modulus (GPa) = 73.29027 76.22243 74.75635
# Shear Modulus (GPa) = 3.67303 29.16464 16.41884
#
# Velocity S-wave (km/s) = 1.34615 3.79323 2.84612
# Velocity P-wave (km/s) = 6.21084 7.53590 6.90523
#
# Compressibility (1/GPa) = 0.01364438
#
# Stress axis : x y z
#
# Youngs Moduli (GPa) = 97.94530 120.07691 109.89054
#
# Poissons Ratio (x) = 0.10723 0.31591
# Poissons Ratio (y) = 0.08746 0.35483
# Poissons Ratio (z) = 0.28157 0.38772
#
# Static dielectric constant tensor:
#      x y z
#    x 3.884420 0.000000 -0.055670 
#    y 0.000000 3.499780 0.000000 
#    z -0.055670 0.000000 3.738100 
# 
# 
# High freq. dielectric constant tensor:
#      x y z
#    x 1.797220 0.000000 0.001690 
#    y 0.000000 1.785000 0.000000 
#    z 0.001690 0.000000 1.807060 
# 
# From -- ./inp_files/203930.got.cif
#   From: 2010.06.25/outbox.cif.g09.slc.cpg/sg12_102_cif.got.tgz:203930.got - 2010.06.28 00:19:55.
