data_PCOD8093715
_publ_section_title
;
Structure prediction by ZEFSAII (Michael W. Deem and Ramdas Pophale) SiO2 
 PCOD8093715
Probable space group: C 2/M
;
_chemical_formula_sum "Si O2"
_cell_formula_units_Z 44
_cell_length_a 9.433369
_cell_length_b 28.244844
_cell_length_c 8.370527
_cell_angle_alpha 90.000000
_cell_angle_beta 60.113516
_cell_angle_gamma 90.000000
_cell_volume 1933.682087
_symmetry_space_group_name_H-M "C 2/M"
_symmetry_group_IT_number 12
_symmetry_cell_setting 'monoclinic'
loop_
_space_group_symop_operation_xyz
x,y,z
-x,y,-z
-x,-y,-z
x,-y,z
1/2+x,1/2+y,z
1/2-x,1/2+y,-z
1/2-x,1/2-y,-z
1/2+x,1/2-y,z
loop_
_atom_site_type_symbol
_atom_site_label
_atom_site_fract_x
_atom_site_fract_y
_atom_site_fract_z
Si Si1 0.604433 0.304684 0.787418
Si Si2 0.937111 0.500000 0.271044
Si Si3 0.747799 0.000000 0.290452
Si Si4 0.255269 0.086758 0.264200
Si Si5 0.000000 0.659169 0.000000
Si Si6 0.911344 0.089881 0.313234
Si Si7 0.388300 0.769681 0.809126
O O1 0.581532 0.360327 0.779616
O O2 0.520531 0.272329 0.694072
O O3 0.796667 0.290456 0.702320
O O4 0.500000 0.289282 0.000000
O O5 0.842117 0.500000 0.490322
O O6 0.887589 0.544739 0.191689
O O7 0.129751 0.500000 0.202703
O O8 0.851849 0.048571 0.226168
O O9 0.335318 0.129498 0.121767
O O10 0.211791 0.099451 0.471138
O O11 0.088817 0.072147 0.269594
O O12 0.018589 0.688332 0.152143
O O13 0.250000 0.750000 0.000000
#
# Coordination Sequence:
#
# PCOD8093715 Si02
#       7
#     8   4   4   8   4   8   8
#     4  10  20  36  62  84 118 161 199 239 296 357
#     4   9  19  38  58  89 121 158 192 244 305 352
#     4   9  19  37  61  87 125 155 195 242 301 362
#     4  10  22  38  64  86 120 157 201 245 296 360
#     4  12  22  37  64  88 116 155 202 250 300 352
#     4  10  21  40  63  90 119 159 202 242 298 355
#     4  10  19  36  59  81 117 159 197 236 298 354
#
# _framework density 22.754517
#
# number of rings (size 3 to 8) (size 9 to 14) (size 15 to 20)
#    0.000    2.000    2.727    2.727    2.545    2.545 
#    0.000    1.364    4.000    0.000    0.000    0.000 
#    0.000    0.000    0.000    0.000    0.000    0.000 
#
# Total GULP energy -272677.655290 kJ/mol
# GULP energy per Si atom -12394.438877 kJ/mol
# Density = 2.270273 g / cm^3
# Si number density = 22.754517 Si / 1000 Ang^3
#
#
#
# Elastic Constant Matrix: (Units=GPa)
#
#
# Indices 1 2 3 4 5 6 
#
# 1 178.3966 91.4414 9.6286 0.0000 -13.6514 0.0000
# 2 91.4414 170.6368 10.6163 0.0000 -10.9081 0.0000
# 3 9.6286 10.6163 24.0738 0.0000 -10.6185 0.0000
# 4 0.0000 0.0000 0.0000 -274.4734 0.0000 214.2426
# 5 -13.6514 -10.9081 -10.6185 0.0000 19.5453 0.0000
# 6 0.0000 0.0000 0.0000 214.2426 0.0000 -121.2173
#
#
#
# Elastic Compliance Matrix: (Units=1/GPa)
#
#
# Indices 1 2 3 4 5 6 
#
# 1 0.007926 -0.004040 0.000077 0.000000 0.003323 0.000000
# 2 -0.004040 0.008181 -0.001608 0.000000 0.000870 0.000000
# 3 0.000077 -0.001608 0.055032 0.000000 0.029054 0.000000
# 4 0.000000 0.000000 0.000000 0.009598 0.000000 0.016964
# 5 0.003323 0.000870 0.029054 0.000000 0.069755 0.000000
# 6 0.000000 0.000000 0.000000 0.016964 0.000000 0.021734
#
#
# Mechanical properties :
#
#
# Convention : Reuss Voigt Hill
#
# Bulk Modulus (GPa) = 16.66708 66.27554 41.47131
# Shear Modulus (GPa) = 24.58601 -57.80102 -16.60750
#
# Velocity S-wave (km/s) = 3.29065 -5.04551 -2.70451
# Velocity P-wave (km/s) = 4.66674 2.18021 2.91763
#
# Compressibility (1/GPa) = 0.05999850
#
# Stress axis : x y z
#
# Youngs Moduli (GPa) = 126.16011 122.23359 18.17111
#
# Poissons Ratio (x) = 0.49382 -0.00140
# Poissons Ratio (y) = 0.50969 0.02922
# Poissons Ratio (z) = -0.00975 0.19655
#
# Static dielectric constant tensor:
#      x y z
#    x 4.647870 0.000000 -0.190380 
#    y 0.000000 4.487590 0.000000 
#    z -0.190380 0.000000 3.568630 
# 
# 
# High freq. dielectric constant tensor:
#      x y z
#    x 1.913130 0.000000 -0.014400 
#    y 0.000000 1.907260 0.000000 
#    z -0.014400 0.000000 1.856570 
# 
# From -- ./inp_files/122384.got.cif
#   From: 2010.06.25/outbox.cif.g09.slc.cpg/sg12_62_cif.got.tgz:122384.got - 2010.06.28 00:19:55.
