data_PCOD8093463
_publ_section_title
;
Structure prediction by ZEFSAII (Michael W. Deem and Ramdas Pophale) SiO2 
 PCOD8093463
Probable space group: C 2/M
;
_chemical_formula_sum "Si O2"
_cell_formula_units_Z 40
_cell_length_a 17.513434
_cell_length_b 21.188214
_cell_length_c 11.402040
_cell_angle_alpha 90.000000
_cell_angle_beta 30.122256
_cell_angle_gamma 90.000000
_cell_volume 2123.339040
_symmetry_space_group_name_H-M "C 2/M"
_symmetry_group_IT_number 12
_symmetry_cell_setting 'monoclinic'
loop_
_space_group_symop_operation_xyz
x,y,z
-x,y,-z
-x,-y,-z
x,-y,z
1/2+x,1/2+y,z
1/2-x,1/2+y,-z
1/2-x,1/2-y,-z
1/2+x,1/2-y,z
loop_
_atom_site_type_symbol
_atom_site_label
_atom_site_fract_x
_atom_site_fract_y
_atom_site_fract_z
Si Si1 0.148601 0.071316 0.727554
Si Si2 0.679025 0.675563 0.021922
Si Si3 0.323872 0.286978 0.724904
Si Si4 0.669824 0.308799 0.540244
Si Si5 0.165990 0.429672 0.297781
O O1 0.189323 0.123146 0.575127
O O2 0.294618 0.071007 0.617509
O O3 0.125077 0.000000 0.706219
O O4 0.000000 0.091514 0.000000
O O5 0.746827 0.680386 0.064322
O O6 0.510024 0.703991 0.233074
O O7 0.784605 0.713143 0.788662
O O8 0.698574 0.603603 0.955933
O O9 0.500000 0.301007 0.500000
O O10 0.260326 0.313008 0.684817
O O11 0.750000 0.250000 0.500000
O O12 0.162472 0.500000 0.251153
O O13 0.000000 0.398014 0.500000
#
# Coordination Sequence:
#
# PCOD8093463 Si02
#       5
#     8   8   8   8   8
#     4  10  20  36  57  80 111 148 184 230 283 329
#     4  10  19  36  54  73 112 145 180 231 284 330
#     4   9  20  34  50  76 104 143 180 225 280 335
#     4  11  22  33  54  83 111 141 192 235 278 334
#     4  10  20  34  57  84 107 142 190 231 273 332
#
# _framework density 18.838255
#
# number of rings (size 3 to 8) (size 9 to 14) (size 15 to 20)
#    0.000    2.000    2.000    1.800    0.000    3.200 
#    0.000    1.000    0.000    3.600    0.000    7.000 
#    0.000    0.000    0.000    0.000    0.000    0.200 
#
# Total GULP energy -247786.048370 kJ/mol
# GULP energy per Si atom -12389.302419 kJ/mol
# Density = 1.879538 g / cm^3
# Si number density = 18.838255 Si / 1000 Ang^3
#
#
#
# Elastic Constant Matrix: (Units=GPa)
#
#
# Indices 1 2 3 4 5 6 
#
# 1 124.9563 59.4300 42.6374 -0.0041 16.3428 0.0040
# 2 59.4300 117.2412 41.9537 -0.0067 21.1089 0.0034
# 3 42.6374 41.9537 55.8979 -0.0110 13.7725 0.0029
# 4 -0.0041 -0.0067 -0.0110 30.8819 0.0032 1.6120
# 5 16.3428 21.1089 13.7725 0.0032 33.3286 -0.0031
# 6 0.0040 0.0034 0.0029 1.6120 -0.0031 28.9860
#
#
#
# Elastic Compliance Matrix: (Units=1/GPa)
#
#
# Indices 1 2 3 4 5 6 
#
# 1 0.011982 -0.003706 -0.006110 -0.000001 -0.001003 -0.000001
# 2 -0.003706 0.013360 -0.006194 0.000001 -0.004085 -0.000001
# 3 -0.006110 -0.006194 0.028384 0.000009 -0.004810 -0.000002
# 4 -0.000001 0.000001 0.000009 0.032476 -0.000007 -0.001806
# 5 -0.001003 -0.004085 -0.004810 -0.000007 0.035071 0.000005
# 6 -0.000001 -0.000001 -0.000002 -0.001806 0.000005 0.034600
#
#
# Mechanical properties :
#
#
# Convention : Reuss Voigt Hill
#
# Bulk Modulus (GPa) = 46.07203 65.12640 55.59922
# Shear Modulus (GPa) = 25.62409 28.91091 27.26750
#
# Velocity S-wave (km/s) = 3.69211 3.92176 3.80867
# Velocity P-wave (km/s) = 6.53340 7.42653 6.99424
#
# Compressibility (1/GPa) = 0.02170514
#
# Stress axis : x y z
#
# Youngs Moduli (GPa) = 83.46015 74.85005 35.23057
#
# Poissons Ratio (x) = 0.27743 0.21527
# Poissons Ratio (y) = 0.30934 0.21821
# Poissons Ratio (z) = 0.50998 0.46359
#
# Static dielectric constant tensor:
#      x y z
#    x 3.792500 -0.000010 0.063130 
#    y -0.000010 3.443070 0.000010 
#    z 0.063130 0.000010 3.411450 
# 
# 
# High freq. dielectric constant tensor:
#      x y z
#    x 1.740800 0.000000 -0.007480 
#    y 0.000000 1.724030 0.000000 
#    z -0.007480 0.000000 1.710350 
# 
# From -- ./inp_files/50398.got.cif
#   From: 2010.06.25/outbox.cif.g09.slc.cpg/sg12_26_cif.got.tgz:50398.got - 2010.06.28 00:19:55.
