data_PCOD8093259
_publ_section_title
;
Structure prediction by ZEFSAII (Michael W. Deem and Ramdas Pophale) SiO2 
 PCOD8093259
Probable space group: C 2/M
;
_chemical_formula_sum "Si O2"
_cell_formula_units_Z 56
_cell_length_a 26.997509
_cell_length_b 8.918971
_cell_length_c 12.622778
_cell_angle_alpha 90.000000
_cell_angle_beta 67.739936
_cell_angle_gamma 90.000000
_cell_volume 2812.921443
_symmetry_space_group_name_H-M "C 2/M"
_symmetry_group_IT_number 12
_symmetry_cell_setting 'monoclinic'
loop_
_space_group_symop_operation_xyz
x,y,z
-x,y,-z
-x,-y,-z
x,-y,z
1/2+x,1/2+y,z
1/2-x,1/2+y,-z
1/2-x,1/2-y,-z
1/2+x,1/2-y,z
loop_
_atom_site_type_symbol
_atom_site_label
_atom_site_fract_x
_atom_site_fract_y
_atom_site_fract_z
Si Si1 0.962118 0.678118 0.620963
Si Si2 0.493427 0.822570 0.826260
Si Si3 0.198455 0.176802 0.091990
Si Si4 0.156846 0.677211 0.327295
Si Si5 0.614030 0.177207 0.780244
Si Si6 0.306962 0.823225 0.469631
Si Si7 0.392081 0.676737 0.000110
O O1 0.964944 0.500000 0.615242
O O2 0.982057 0.737518 0.717631
O O3 0.902705 0.734967 0.647072
O O4 0.000000 0.747480 0.500000
O O5 0.553225 0.773193 0.806537
O O6 0.451037 0.746747 0.939197
O O7 0.485892 0.000000 0.841778
O O8 0.195030 0.238899 0.213864
O O9 0.146068 0.223356 0.066668
O O10 0.206012 0.000000 0.088330
O O11 0.250000 0.250000 0.000000
O O12 0.162825 0.500000 0.306081
O O13 0.171141 0.726926 0.434129
O O14 0.651578 0.232456 0.653596
O O15 0.618386 0.000000 0.791682
O O16 0.633681 0.258007 0.871308
O O17 0.250000 0.750000 0.500000
O O18 0.300382 0.000000 0.468999
O O19 0.397109 0.500000 0.006181
#
# Coordination Sequence:
#
# PCOD8093259 Si02
#       7
#     8   8   8   8   8   8   8
#     4   9  16  29  56  89 117 149 190 236 285 340
#     4  10  19  35  60  89 119 154 197 241 290 348
#     4  11  25  42  62  88 119 155 199 248 300 354
#     4  10  20  38  63  90 120 152 192 243 296 350
#     4  10  22  39  60  88 121 158 201 244 288 347
#     4  10  23  41  61  88 120 155 198 246 295 351
#     4  11  24  40  59  87 122 157 195 243 298 354
#
# _framework density 19.908128000000001
#
# number of rings (size 3 to 8) (size 9 to 14) (size 15 to 20)
#    0.000    1.857    1.429    2.143    2.000    8.571 
#    0.000    0.000    0.000    3.429    0.000    0.000 
#    0.000    0.000    0.000    0.000    0.000    0.000 
#
# Total GULP energy -347303.508036 kJ/mol
# GULP energy per Si atom -12403.696716 kJ/mol
# Density = 1.986282 g / cm^3
# Si number density = 19.908128 Si / 1000 Ang^3
#
#
#
# Elastic Constant Matrix: (Units=GPa)
#
#
# Indices 1 2 3 4 5 6 
#
# 1 87.1109 34.3190 51.1076 0.0000 -7.4152 0.0000
# 2 34.3190 41.8596 42.9755 0.0000 -1.8938 0.0000
# 3 51.1076 42.9755 177.0423 0.0000 -4.5226 0.0000
# 4 0.0000 0.0000 0.0000 28.1710 0.0000 0.9173
# 5 -7.4152 -1.8938 -4.5226 0.0000 41.5782 0.0000
# 6 0.0000 0.0000 0.0000 0.9173 0.0000 28.7717
#
#
#
# Elastic Compliance Matrix: (Units=1/GPa)
#
#
# Indices 1 2 3 4 5 6 
#
# 1 0.017751 -0.012317 -0.002074 0.000000 0.002379 0.000000
# 2 -0.012317 0.040381 -0.006273 0.000000 -0.001040 0.000000
# 3 -0.002074 -0.006273 0.007775 0.000000 0.000190 0.000000
# 4 0.000000 0.000000 0.000000 0.035534 0.000000 -0.001133
# 5 0.002379 -0.001040 0.000190 0.000000 0.024449 0.000000
# 6 0.000000 0.000000 0.000000 -0.001133 0.000000 0.034793
#
#
# Mechanical properties :
#
#
# Convention : Reuss Voigt Hill
#
# Bulk Modulus (GPa) = 40.68479 62.53522 51.61001
# Shear Modulus (GPa) = 23.78656 31.54490 27.66573
#
# Velocity S-wave (km/s) = 3.46036 3.98493 3.73187
# Velocity P-wave (km/s) = 6.03706 7.25623 6.67454
#
# Compressibility (1/GPa) = 0.02457921
#
# Stress axis : x y z
#
# Youngs Moduli (GPa) = 56.33390 24.76426 128.62405
#
# Poissons Ratio (x) = 0.30502 0.26673
# Poissons Ratio (y) = 0.69386 0.80687
# Poissons Ratio (z) = 0.11682 0.15535
#
# Static dielectric constant tensor:
#      x y z
#    x 3.694500 0.000000 0.067040 
#    y 0.000000 3.291800 0.000000 
#    z 0.067040 0.000000 3.921880 
# 
# 
# High freq. dielectric constant tensor:
#      x y z
#    x 1.783740 0.000000 0.001670 
#    y 0.000000 1.748640 0.000000 
#    z 0.001670 0.000000 1.797470 
# 
# From -- ./inp_files/180697.got.cif
#   From: 2010.06.25/outbox.cif.g09.slc.cpg/sg12_91_cif.got.tgz:180697.got - 2010.06.28 00:19:55.
