data_PCOD8093990
_publ_section_title
;
Structure prediction by ZEFSAII (Michael W. Deem and Ramdas Pophale) SiO2 
 PCOD8093990
Probable space group: C 2/M
;
_chemical_formula_sum "Si O2"
_cell_formula_units_Z 56
_cell_length_a 13.813021
_cell_length_b 16.706684
_cell_length_c 12.712282
_cell_angle_alpha 90.000000
_cell_angle_beta 64.201480
_cell_angle_gamma 90.000000
_cell_volume 2641.217564
_symmetry_space_group_name_H-M "C 2/M"
_symmetry_group_IT_number 12
_symmetry_cell_setting 'monoclinic'
loop_
_space_group_symop_operation_xyz
x,y,z
-x,y,-z
-x,-y,-z
x,-y,z
1/2+x,1/2+y,z
1/2-x,1/2+y,-z
1/2-x,1/2-y,-z
1/2+x,1/2-y,z
loop_
_atom_site_type_symbol
_atom_site_label
_atom_site_fract_x
_atom_site_fract_y
_atom_site_fract_z
Si Si1 0.951824 0.278936 0.133168
Si Si2 0.591272 0.092510 0.690284
Si Si3 0.369659 0.310224 0.846969
Si Si4 0.706049 0.675675 0.896261
Si Si5 0.240944 0.907600 0.562807
Si Si6 0.372729 0.907904 0.691679
Si Si7 0.993695 0.904633 0.381011
O O1 0.891144 0.354650 0.213472
O O2 0.885941 0.195711 0.146273
O O3 0.043036 0.258389 0.174388
O O4 0.000000 0.309379 0.000000
O O5 0.702032 0.102623 0.575845
O O6 0.491053 0.124383 0.665593
O O7 0.571232 0.000000 0.732146
O O8 0.260396 0.263974 0.871290
O O9 0.408684 0.368402 0.734718
O O10 0.346277 0.354741 0.969387
O O11 0.788336 0.606134 0.825814
O O12 0.317236 0.865675 0.615535
O O13 0.120324 0.871936 0.611445
O O14 0.228521 0.000000 0.599626
O O15 0.387439 0.000000 0.659110
O O16 0.000000 0.877331 0.500000
O O17 0.002518 0.000000 0.369412
#
# Coordination Sequence:
#
# PCOD8093990 Si02
#       7
#     8   8   8   8   8   8   8
#     4  10  21  38  58  82 117 155 193 246 300 348
#     4  10  20  36  59  86 116 154 197 242 297 351
#     4  10  21  40  57  81 118 154 191 238 296 349
#     4  10  21  37  60  83 116 155 190 239 295 349
#     4   9  19  36  57  82 114 150 187 238 295 339
#     4  10  19  36  61  88 116 147 193 245 290 345
#     4  10  22  40  60  85 119 157 200 246 290 348
#
# _framework density 21.202342999999999
#
# number of rings (size 3 to 8) (size 9 to 14) (size 15 to 20)
#    0.000    2.143    1.429    1.286    2.000    2.571 
#    2.571    1.429    0.000    5.143    0.000    0.000 
#    0.000    0.000    0.000    0.000    0.000    0.000 
#
# Total GULP energy -346911.716983 kJ/mol
# GULP energy per Si atom -12389.704178 kJ/mol
# Density = 2.115409 g / cm^3
# Si number density = 21.202343 Si / 1000 Ang^3
#
#
#
# Elastic Constant Matrix: (Units=GPa)
#
#
# Indices 1 2 3 4 5 6 
#
# 1 61.7651 2.4836 23.0278 0.0000 -3.9209 0.0000
# 2 2.4836 18.3271 23.6763 0.0000 4.2072 0.0000
# 3 23.0278 23.6763 108.8495 0.0000 -4.1825 0.0000
# 4 0.0000 0.0000 0.0000 31.1432 0.0000 -9.1510
# 5 -3.9209 4.2072 -4.1825 0.0000 32.7758 0.0000
# 6 0.0000 0.0000 0.0000 -9.1510 0.0000 21.6210
#
#
#
# Elastic Compliance Matrix: (Units=1/GPa)
#
#
# Indices 1 2 3 4 5 6 
#
# 1 0.017771 0.002943 -0.004354 0.000000 0.001193 0.000000
# 2 0.002943 0.081299 -0.018786 0.000000 -0.012481 0.000000
# 3 -0.004354 -0.018786 0.014337 0.000000 0.003720 0.000000
# 4 0.000000 0.000000 0.000000 0.036670 0.000000 0.015520
# 5 0.001193 -0.012481 0.003720 0.000000 0.032730 0.000000
# 6 0.000000 0.000000 0.000000 0.015520 0.000000 0.052820
#
#
# Mechanical properties :
#
#
# Convention : Reuss Voigt Hill
#
# Bulk Modulus (GPa) = 13.69613 31.92414 22.81014
# Shear Modulus (GPa) = 16.64669 26.42493 21.53581
#
# Velocity S-wave (km/s) = 2.80506 3.53416 3.19051
# Velocity P-wave (km/s) = 4.11885 5.63412 4.93499
#
# Compressibility (1/GPa) = 0.07301333
#
# Stress axis : x y z
#
# Youngs Moduli (GPa) = 56.27151 12.30020 69.74858
#
# Poissons Ratio (x) = -0.03619 0.30367
# Poissons Ratio (y) = -0.16558 1.31029
# Poissons Ratio (z) = 0.24499 0.23107
#
# Static dielectric constant tensor:
#      x y z
#    x 4.094760 0.000000 -0.005770 
#    y 0.000000 3.351940 0.000000 
#    z -0.005770 0.000000 3.826100 
# 
# 
# High freq. dielectric constant tensor:
#      x y z
#    x 1.846500 0.000000 -0.003810 
#    y 0.000000 1.784560 0.000000 
#    z -0.003810 0.000000 1.835880 
# 
# From -- ./inp_files/146018.got.cif
#   From: 2010.06.25/outbox.cif.g09.slc.cpg/sg12_74_cif.got.tgz:146018.got - 2010.06.28 00:19:55.
