data_PCOD8093582
_publ_section_title
;
Structure prediction by ZEFSAII (Michael W. Deem and Ramdas Pophale) SiO2 
 PCOD8093582
Probable space group: C 2/M
;
_chemical_formula_sum "Si O2"
_cell_formula_units_Z 48
_cell_length_a 24.054751
_cell_length_b 12.308946
_cell_length_c 24.099034
_cell_angle_alpha 90.000000
_cell_angle_beta 22.261080
_cell_angle_gamma 90.000000
_cell_volume 2703.105348
_symmetry_space_group_name_H-M "C 2/M"
_symmetry_group_IT_number 12
_symmetry_cell_setting 'monoclinic'
loop_
_space_group_symop_operation_xyz
x,y,z
-x,y,-z
-x,-y,-z
x,-y,z
1/2+x,1/2+y,z
1/2-x,1/2+y,-z
1/2-x,1/2-y,-z
1/2+x,1/2-y,z
loop_
_atom_site_type_symbol
_atom_site_label
_atom_site_fract_x
_atom_site_fract_y
_atom_site_fract_z
Si Si1 0.097108 0.624360 0.857479
Si Si2 0.171441 0.304201 0.348079
Si Si3 0.670961 0.881808 0.965802
Si Si4 0.081131 0.000000 0.062584
Si Si5 0.011856 0.500000 0.324015
Si Si6 0.270569 0.834748 0.829144
Si Si7 0.185259 0.500000 0.058926
Si Si8 0.742008 0.000000 0.364171
O O1 0.147152 0.500000 0.818174
O O2 0.243693 0.694468 0.714331
O O3 0.997288 0.643048 0.895268
O O4 0.000000 0.662573 0.000000
O O5 0.235816 0.347435 0.230788
O O6 0.198702 0.394578 0.369204
O O7 0.000000 0.277399 0.500000
O O8 0.715578 0.000000 0.898071
O O9 0.681417 0.892088 0.023320
O O10 0.778138 0.790116 0.842517
O O11 0.125543 0.107607 0.987429
O O12 0.165232 0.000000 0.043775
O O13 0.908768 0.000000 0.229771
O O14 0.084679 0.392246 0.281988
O O15 0.039663 0.500000 0.232141
O O16 0.843141 0.500000 0.498167
#
# Coordination Sequence:
#
# PCOD8093582 Si02
#       8
#     8   8   8   4   4   8   4   4
#     4  10  20  35  58  86 115 145 187 233 281 337
#     4  12  23  35  57  85 123 157 178 224 294 354
#     4   9  18  35  62  86 108 142 193 244 279 324
#     4  10  23  34  58  87 108 146 198 244 272 322
#     4  10  21  37  57  78 115 160 186 230 284 334
#     4  10  19  36  57  86 113 147 192 228 282 345
#     4   8  20  39  62  84 102 155 195 238 290 313
#     4  12  23  37  56  85 124 148 190 228 284 349
#
# _framework density 17.757353999999999
#
# number of rings (size 3 to 8) (size 9 to 14) (size 15 to 20)
#    0.500    1.500    3.333    2.250    0.000    3.667 
#    0.000    0.000    3.667    3.000    0.000    0.000 
#    0.000    0.000    0.000    0.000    0.000    0.000 
#
# Total GULP energy -297471.256441 kJ/mol
# GULP energy per Si atom -12394.635685 kJ/mol
# Density = 1.771694 g / cm^3
# Si number density = 17.757354 Si / 1000 Ang^3
#
#
#
# Elastic Constant Matrix: (Units=GPa)
#
#
# Indices 1 2 3 4 5 6 
#
# 1 102.3977 26.2548 50.0080 0.0070 -1.0951 -0.0041
# 2 26.2548 109.1471 48.9595 0.0200 -6.9418 -0.0072
# 3 50.0080 48.9595 128.9897 0.0294 -12.8895 -0.0153
# 4 0.0070 0.0200 0.0294 13.6208 -0.0033 0.4899
# 5 -1.0951 -6.9418 -12.8895 -0.0033 28.6493 -0.0016
# 6 -0.0041 -0.0072 -0.0153 0.4899 -0.0016 17.9575
#
#
#
# Elastic Compliance Matrix: (Units=1/GPa)
#
#
# Indices 1 2 3 4 5 6 
#
# 1 0.012222 -0.001023 -0.004532 0.000005 -0.001820 -0.000002
# 2 -0.001023 0.011146 -0.003736 -0.000008 0.000981 0.000001
# 3 -0.004532 -0.003736 0.011329 -0.000016 0.004019 0.000008
# 4 0.000005 -0.000008 -0.000016 0.073489 0.000000 -0.002005
# 5 -0.001820 0.000981 0.004019 0.000000 0.036881 0.000007
# 6 -0.000002 0.000001 0.000008 -0.002005 0.000007 0.055742
#
#
# Mechanical properties :
#
#
# Convention : Reuss Voigt Hill
#
# Bulk Modulus (GPa) = 62.05162 65.66435 63.85799
# Shear Modulus (GPa) = 22.24566 26.39965 24.32265
#
# Velocity S-wave (km/s) = 3.54327 3.85994 3.70499
# Velocity P-wave (km/s) = 7.19442 7.54483 7.37171
#
# Compressibility (1/GPa) = 0.01611561
#
# Stress axis : x y z
#
# Youngs Moduli (GPa) = 81.82046 89.71618 88.26746
#
# Poissons Ratio (x) = 0.09176 0.40002
# Poissons Ratio (y) = 0.08369 0.32978
# Poissons Ratio (z) = 0.37080 0.33519
#
# Static dielectric constant tensor:
#      x y z
#    x 3.286910 0.000000 0.049760 
#    y 0.000000 3.365290 0.000010 
#    z 0.049760 0.000010 3.132650 
# 
# 
# High freq. dielectric constant tensor:
#      x y z
#    x 1.682920 0.000000 0.001040 
#    y 0.000000 1.693450 0.000000 
#    z 0.001040 0.000000 1.663980 
# 
# From -- ./inp_files/369287.got.cif
#   From: 2010.06.25/outbox.cif.g09.slc.cpg/sg12_185_cif.got.tgz:369287.got - 2010.06.28 00:19:55.
