data_PCOD8093221
_publ_section_title
;
Structure prediction by ZEFSAII (Michael W. Deem and Ramdas Pophale) SiO2 
 PCOD8093221
Probable space group: C 2/M
;
_chemical_formula_sum "Si O2"
_cell_formula_units_Z 56
_cell_length_a 15.179561
_cell_length_b 18.348485
_cell_length_c 12.334690
_cell_angle_alpha 90.000000
_cell_angle_beta 126.678907
_cell_angle_gamma 90.000000
_cell_volume 2755.241354
_symmetry_space_group_name_H-M "C 2/M"
_symmetry_group_IT_number 12
_symmetry_cell_setting 'monoclinic'
loop_
_space_group_symop_operation_xyz
x,y,z
-x,y,-z
-x,-y,-z
x,-y,z
1/2+x,1/2+y,z
1/2-x,1/2+y,-z
1/2-x,1/2-y,-z
1/2+x,1/2-y,z
loop_
_atom_site_type_symbol
_atom_site_label
_atom_site_fract_x
_atom_site_fract_y
_atom_site_fract_z
Si Si1 0.481035 0.268656 0.251611
Si Si2 0.399644 0.175054 0.493890
Si Si3 0.264788 0.213582 0.193102
Si Si4 0.204174 0.583486 0.400311
Si Si5 0.576412 0.418824 0.325141
Si Si6 0.908361 0.682379 0.855567
Si Si7 0.375945 0.581755 0.882623
O O1 0.559694 0.243363 0.406242
O O2 0.358986 0.235726 0.176696
O O3 0.481453 0.357174 0.257818
O O4 0.531462 0.241668 0.176042
O O5 0.500000 0.140466 0.500000
O O6 0.307734 0.207549 0.347638
O O7 0.357409 0.111060 0.538475
O O8 0.173374 0.275739 0.124008
O O9 0.209195 0.136120 0.119718
O O10 0.173467 0.500000 0.362280
O O11 0.334918 0.594476 0.513732
O O12 0.161037 0.623615 0.261780
O O13 0.523092 0.500000 0.298240
O O14 0.642085 0.414659 0.259884
O O15 0.000000 0.644353 0.000000
O O16 0.353290 0.500000 0.909909
O O17 0.500000 0.605754 0.000000
#
# Coordination Sequence:
#
# PCOD8093221 Si02
#       7
#     8   8   8   8   8   8   8
#     4  10  21  36  57  90 119 149 199 242 295 358
#     4   9  18  32  54  87 118 143 184 248 301 351
#     4  11  20  35  61  87 118 155 192 238 301 355
#     4  10  20  36  59  82 109 157 202 240 295 351
#     4  10  19  35  60  86 117 152 190 244 298 349
#     4  11  23  39  56  80 117 157 201 251 293 343
#     4  10  20  35  57  88 124 153 185 239 304 354
#
# _framework density 20.324897
#
# number of rings (size 3 to 8) (size 9 to 14) (size 15 to 20)
#    0.000    1.857    2.857    1.286    0.000    3.429 
#    0.000    6.429    0.000    5.571    0.000    0.000 
#    0.000    0.000    0.000    0.000    0.000    0.000 
#
# Total GULP energy -347140.416425 kJ/mol
# GULP energy per Si atom -12397.872015 kJ/mol
# Density = 2.027864 g / cm^3
# Si number density = 20.324897 Si / 1000 Ang^3
#
#
#
# Elastic Constant Matrix: (Units=GPa)
#
#
# Indices 1 2 3 4 5 6 
#
# 1 74.2116 49.1507 3.2189 0.0000 11.7443 0.0000
# 2 49.1507 141.9707 18.9893 0.0000 14.4871 0.0000
# 3 3.2189 18.9893 74.3989 0.0000 17.3726 0.0000
# 4 0.0000 0.0000 0.0000 14.9675 0.0000 12.5450
# 5 11.7443 14.4871 17.3726 0.0000 23.4798 0.0000
# 6 0.0000 0.0000 0.0000 12.5450 0.0000 31.6679
#
#
#
# Elastic Compliance Matrix: (Units=1/GPa)
#
#
# Indices 1 2 3 4 5 6 
#
# 1 0.018495 -0.005978 0.002447 0.000000 -0.007373 0.000000
# 2 -0.005978 0.009513 -0.001810 0.000000 -0.001540 0.000000
# 3 0.002447 -0.001810 0.016709 0.000000 -0.012470 0.000000
# 4 0.000000 0.000000 0.000000 0.100022 0.000000 -0.039623
# 5 -0.007373 -0.001540 -0.012470 0.000000 0.056455 0.000000
# 6 0.000000 0.000000 0.000000 -0.039623 0.000000 0.047274
#
#
# Mechanical properties :
#
#
# Convention : Reuss Voigt Hill
#
# Bulk Modulus (GPa) = 29.38083 48.14435 38.76259
# Shear Modulus (GPa) = 18.48478 28.63784 23.56131
#
# Velocity S-wave (km/s) = 3.01900 3.75774 3.40845
# Velocity P-wave (km/s) = 5.16135 6.52428 5.88242
#
# Compressibility (1/GPa) = 0.03403579
#
# Stress axis : x y z
#
# Youngs Moduli (GPa) = 54.06897 105.12473 59.84794
#
# Poissons Ratio (x) = 0.62843 -0.14647
# Poissons Ratio (y) = 0.32322 0.10830
# Poissons Ratio (z) = -0.13232 0.19024
#
# Static dielectric constant tensor:
#      x y z
#    x 3.446130 0.000000 0.129090 
#    y 0.000000 3.648020 0.000000 
#    z 0.129090 0.000000 3.865380 
# 
# 
# High freq. dielectric constant tensor:
#      x y z
#    x 1.764760 0.000000 0.012800 
#    y 0.000000 1.788320 0.000000 
#    z 0.012800 0.000000 1.804880 
# 
# From -- ./inp_files/146259.got.cif
#   From: 2010.06.25/outbox.cif.g09.slc.cpg/sg12_74_cif.got.tgz:146259.got - 2010.06.28 00:19:55.
