data_PCOD8093802
_publ_section_title
;
Structure prediction by ZEFSAII (Michael W. Deem and Ramdas Pophale) SiO2 
 PCOD8093802
Probable space group: C 2/M
;
_chemical_formula_sum "Si O2"
_cell_formula_units_Z 44
_cell_length_a 11.773926
_cell_length_b 18.681138
_cell_length_c 15.087931
_cell_angle_alpha 90.000000
_cell_angle_beta 41.066731
_cell_angle_gamma 90.000000
_cell_volume 2180.110082
_symmetry_space_group_name_H-M "C 2/M"
_symmetry_group_IT_number 12
_symmetry_cell_setting 'monoclinic'
loop_
_space_group_symop_operation_xyz
x,y,z
-x,y,-z
-x,-y,-z
x,-y,z
1/2+x,1/2+y,z
1/2-x,1/2+y,-z
1/2-x,1/2-y,-z
1/2+x,1/2-y,z
loop_
_atom_site_type_symbol
_atom_site_label
_atom_site_fract_x
_atom_site_fract_y
_atom_site_fract_z
Si Si1 0.080883 0.642651 0.091958
Si Si2 0.163948 0.343413 0.468589
Si Si3 0.723940 0.359779 0.200191
Si Si4 0.377245 0.000000 0.490004
Si Si5 0.525409 0.753563 0.704895
Si Si6 0.142692 0.000000 0.340655
Si Si7 0.007033 0.500000 0.221830
O O1 0.892390 0.648871 0.160005
O O2 0.094481 0.711225 0.148491
O O3 0.109155 0.570211 0.130595
O O4 0.229751 0.640588 0.931064
O O5 0.231154 0.425770 0.441328
O O6 0.324486 0.295955 0.339150
O O7 0.112001 0.316625 0.597071
O O8 0.000000 0.337654 0.500000
O O9 0.593196 0.293798 0.291061
O O10 0.624644 0.431683 0.287154
O O11 0.500000 0.000000 0.500000
O O12 0.496985 0.000000 0.333015
O O13 0.000000 0.000000 0.500000
O O14 0.321727 0.000000 0.285761
#
# Coordination Sequence:
#
# PCOD8093802 Si02
#       7
#     8   8   8   4   8   4   4
#     4  10  20  38  56  80 113 151 190 231 271 337
#     4  10  22  36  54  83 111 144 187 229 281 330
#     4  10  22  36  56  84 113 147 190 229 280 334
#     4  10  20  37  56  78 107 146 186 228 264 337
#     4  11  21  34  58  81 115 146 182 231 285 336
#     4  10  23  35  58  85 116 143 179 244 288 330
#     4  10  19  36  60  79 107 149 192 220 285 332
#
# _framework density 20.182466000000002
#
# number of rings (size 3 to 8) (size 9 to 14) (size 15 to 20)
#    0.000    1.818    1.818    2.182    2.545    4.364 
#    0.000    0.000    0.000    0.000    0.000    2.545 
#    0.000    0.000    0.000    0.000    0.000    0.000 
#
# Total GULP energy -272741.029291 kJ/mol
# GULP energy per Si atom -12397.319513 kJ/mol
# Density = 2.013653 g / cm^3
# Si number density = 20.182466 Si / 1000 Ang^3
#
#
#
# Elastic Constant Matrix: (Units=GPa)
#
#
# Indices 1 2 3 4 5 6 
#
# 1 50.3653 34.1559 11.2576 0.0010 9.4709 0.0044
# 2 34.1559 167.8410 50.8005 0.0019 8.5869 -0.0002
# 3 11.2576 50.8005 91.2416 0.0021 13.4789 0.0002
# 4 0.0010 0.0019 0.0021 26.6120 -0.0006 7.6268
# 5 9.4709 8.5869 13.4789 -0.0006 29.2478 0.0002
# 6 0.0044 -0.0002 0.0002 7.6268 0.0002 25.2306
#
#
#
# Elastic Compliance Matrix: (Units=1/GPa)
#
#
# Indices 1 2 3 4 5 6 
#
# 1 0.024220 -0.004788 0.000674 0.000001 -0.006748 -0.000004
# 2 -0.004788 0.008114 -0.004082 0.000000 0.001049 0.000001
# 3 0.000674 -0.004082 0.013955 -0.000001 -0.005451 0.000000
# 4 0.000001 0.000000 -0.000001 0.041141 0.000001 -0.012436
# 5 -0.006748 0.001049 -0.005451 0.000001 0.038580 0.000001
# 6 -0.000004 0.000001 0.000000 -0.012436 0.000001 0.043394
#
#
# Mechanical properties :
#
#
# Convention : Reuss Voigt Hill
#
# Bulk Modulus (GPa) = 33.44722 55.76397 44.60560
# Shear Modulus (GPa) = 25.54143 30.43367 27.98755
#
# Velocity S-wave (km/s) = 3.56128 3.88742 3.72792
# Velocity P-wave (km/s) = 5.78953 6.91659 6.37801
#
# Compressibility (1/GPa) = 0.02989785
#
# Stress axis : x y z
#
# Youngs Moduli (GPa) = 41.28827 123.24182 71.66034
#
# Poissons Ratio (x) = 0.59003 -0.04831
# Poissons Ratio (y) = 0.19767 0.29252
# Poissons Ratio (z) = -0.02783 0.50307
#
# Static dielectric constant tensor:
#      x y z
#    x 3.334870 -0.000010 0.211570 
#    y -0.000010 4.159540 0.000010 
#    z 0.211570 0.000010 3.456920 
# 
# 
# High freq. dielectric constant tensor:
#      x y z
#    x 1.767360 0.000000 0.014390 
#    y 0.000000 1.810930 0.000000 
#    z 0.014390 0.000000 1.778460 
# 
# From -- ./inp_files/61100.got.cif
#   From: 2010.06.25/outbox.cif.g09.slc.cpg/sg12_31_cif.got.tgz:61100.got - 2010.06.28 00:19:55.
