data_PCOD8093919
_publ_section_title
;
Structure prediction by ZEFSAII (Michael W. Deem and Ramdas Pophale) SiO2 
 PCOD8093919
Probable space group: C 2/M
;
_chemical_formula_sum "Si O2"
_cell_formula_units_Z 56
_cell_length_a 17.605466
_cell_length_b 28.108300
_cell_length_c 9.530223
_cell_angle_alpha 90.000000
_cell_angle_beta 140.542953
_cell_angle_gamma 90.000000
_cell_volume 2997.094479
_symmetry_space_group_name_H-M "C 2/M"
_symmetry_group_IT_number 12
_symmetry_cell_setting 'monoclinic'
loop_
_space_group_symop_operation_xyz
x,y,z
-x,y,-z
-x,-y,-z
x,-y,z
1/2+x,1/2+y,z
1/2-x,1/2+y,-z
1/2-x,1/2-y,-z
1/2+x,1/2-y,z
loop_
_atom_site_type_symbol
_atom_site_label
_atom_site_fract_x
_atom_site_fract_y
_atom_site_fract_z
Si Si1 0.479298 0.947618 0.310562
Si Si2 0.896804 0.646642 0.118702
Si Si3 0.875722 0.553168 0.743118
Si Si4 0.261461 0.849707 0.650883
Si Si5 0.526515 0.700714 0.375407
Si Si6 0.267985 0.296631 0.930967
Si Si7 0.866449 0.297401 0.542508
O O1 0.500000 0.932030 0.500000
O O2 0.388547 0.910646 0.109342
O O3 0.601020 0.946930 0.391758
O O4 0.420401 0.000000 0.221079
O O5 0.816223 0.662647 0.131298
O O6 0.033400 0.662364 0.340616
O O7 0.848288 0.665658 0.901659
O O8 0.829946 0.500000 0.722860
O O9 0.779170 0.594590 0.637095
O O10 0.000000 0.565019 0.000000
O O11 0.123867 0.841508 0.500815
O O12 0.291959 0.812620 0.572079
O O13 0.500000 0.713688 0.500000
O O14 0.566896 0.747193 0.346364
O O15 0.403507 0.684434 0.127851
O O16 0.229475 0.289088 0.716758
O O17 0.250000 0.250000 0.000000
#
# Coordination Sequence:
#
# PCOD8093919 Si02
#       7
#     8   8   8   8   8   8   8
#     4  10  20  34  57  92 127 157 194 247 311 370
#     4  12  21  37  63  87 124 158 197 249 307 363
#     4  10  19  36  60  90 126 157 195 253 314 358
#     4  12  24  39  60  92 124 158 202 254 305 365
#     4  12  24  42  59  82 121 168 207 243 303 369
#     4  12  23  40  61  82 117 166 203 247 299 366
#     4  12  23  39  61  89 116 154 205 254 305 353
#
# _framework density 18.684763
#
# number of rings (size 3 to 8) (size 9 to 14) (size 15 to 20)
#    0.000    0.571    7.143    2.143    0.000    0.571 
#    2.571    0.000    0.000    1.286    0.000    1.000 
#    0.000    0.000    0.000    0.000    0.000    0.000 
#
# Total GULP energy -347115.512078 kJ/mol
# GULP energy per Si atom -12396.982574 kJ/mol
# Density = 1.864224 g / cm^3
# Si number density = 18.684763 Si / 1000 Ang^3
#
#
#
# Elastic Constant Matrix: (Units=GPa)
#
#
# Indices 1 2 3 4 5 6 
#
# 1 83.4404 29.6535 31.9514 0.0000 0.3879 0.0000
# 2 29.6535 82.4375 6.1432 0.0000 7.6140 0.0000
# 3 31.9514 6.1432 101.2400 0.0000 -0.9644 0.0000
# 4 0.0000 0.0000 0.0000 17.3208 0.0000 -4.8872
# 5 0.3879 7.6140 -0.9644 0.0000 35.6674 0.0000
# 6 0.0000 0.0000 0.0000 -4.8872 0.0000 28.1097
#
#
#
# Elastic Compliance Matrix: (Units=1/GPa)
#
#
# Indices 1 2 3 4 5 6 
#
# 1 0.015651 -0.005365 -0.004606 0.000000 0.000851 0.000000
# 2 -0.005365 0.014275 0.000799 0.000000 -0.002967 0.000000
# 3 -0.004606 0.000799 0.011284 0.000000 0.000185 0.000000
# 4 0.000000 0.000000 0.000000 0.060712 0.000000 0.010556
# 5 0.000851 -0.002967 0.000185 0.000000 0.028666 0.000000
# 6 0.000000 0.000000 0.000000 0.010556 0.000000 0.037410
#
#
# Mechanical properties :
#
#
# Convention : Reuss Voigt Hill
#
# Bulk Modulus (GPa) = 43.73323 44.73491 44.23407
# Shear Modulus (GPa) = 25.77786 29.51091 27.64439
#
# Velocity S-wave (km/s) = 3.71835 3.97849 3.85062
# Velocity P-wave (km/s) = 6.47236 6.71554 6.59507
#
# Compressibility (1/GPa) = 0.02286591
#
# Stress axis : x y z
#
# Youngs Moduli (GPa) = 63.89359 70.05341 88.61779
#
# Poissons Ratio (x) = 0.37585 0.40816
# Poissons Ratio (y) = 0.34280 -0.07079
# Poissons Ratio (z) = 0.29428 -0.05596
#
# Static dielectric constant tensor:
#      x y z
#    x 3.608980 0.000000 -0.165990 
#    y 0.000000 3.575230 0.000000 
#    z -0.165990 0.000000 3.468140 
# 
# 
# High freq. dielectric constant tensor:
#      x y z
#    x 1.723220 0.000000 -0.024830 
#    y 0.000000 1.726100 0.000000 
#    z -0.024830 0.000000 1.710450 
# 
# From -- ./inp_files/53179.got.cif
#   From: 2010.06.25/outbox.cif.g09.slc.cpg/sg12_27_cif.got.tgz:53179.got - 2010.06.28 00:19:55.
