data_PCOD8093354
_publ_section_title
;
Structure prediction by ZEFSAII (Michael W. Deem and Ramdas Pophale) SiO2 
 PCOD8093354
Probable space group: C 2/M
;
_chemical_formula_sum "Si O2"
_cell_formula_units_Z 56
_cell_length_a 12.776971
_cell_length_b 25.780141
_cell_length_c 8.263852
_cell_angle_alpha 90.000000
_cell_angle_beta 95.680633
_cell_angle_gamma 90.000000
_cell_volume 2708.679935
_symmetry_space_group_name_H-M "C 2/M"
_symmetry_group_IT_number 12
_symmetry_cell_setting 'monoclinic'
loop_
_space_group_symop_operation_xyz
x,y,z
-x,y,-z
-x,-y,-z
x,-y,z
1/2+x,1/2+y,z
1/2-x,1/2+y,-z
1/2-x,1/2-y,-z
1/2+x,1/2-y,z
loop_
_atom_site_type_symbol
_atom_site_label
_atom_site_fract_x
_atom_site_fract_y
_atom_site_fract_z
Si Si1 0.600269 0.643801 0.607683
Si Si2 0.278582 0.405572 0.654154
Si Si3 0.677986 0.179731 0.855242
Si Si4 0.542712 0.163388 0.325488
Si Si5 0.234752 0.288251 0.214791
Si Si6 0.602589 0.945000 0.412338
Si Si7 0.994626 0.940838 0.814438
O O1 0.500000 0.667777 0.500000
O O2 0.685644 0.630929 0.486348
O O3 0.652288 0.686937 0.727877
O O4 0.567761 0.593941 0.710180
O O5 0.227929 0.372348 0.791321
O O6 0.193712 0.442677 0.560965
O O7 0.374295 0.438833 0.738982
O O8 0.552532 0.179895 0.805773
O O9 0.743160 0.227472 0.790250
O O10 0.692126 0.183301 0.048555
O O11 0.500000 0.164530 0.500000
O O12 0.640214 0.203481 0.328577
O O13 0.591119 0.105583 0.294394
O O14 0.500000 0.949549 0.500000
O O15 0.618578 0.000000 0.317249
O O16 0.035309 0.000000 0.807678
O O17 0.000000 0.920737 0.000000
#
# Coordination Sequence:
#
# PCOD8093354 Si02
#       7
#     8   8   8   8   8   8   8
#     4  10  22  38  59  88 118 155 205 251 299 356
#     4  11  20  38  61  89 117 162 199 254 299 358
#     4  11  24  40  63  89 125 161 203 245 313 363
#     4  11  21  41  63  92 120 161 203 255 298 361
#     4  11  24  42  61  90 123 165 198 251 308 369
#     4  10  19  35  61  91 120 153 197 246 301 352
#     4  10  22  39  60  88 124 163 203 253 309 363
#
# _framework density 20.674278000000001
#
# number of rings (size 3 to 8) (size 9 to 14) (size 15 to 20)
#    0.000    1.429    4.286    1.714    0.000    8.286 
#    0.000    2.857    0.000    2.571    0.000    0.000 
#    0.000    0.000    0.000    0.000    0.000    0.000 
#
# Total GULP energy -347057.980034 kJ/mol
# GULP energy per Si atom -12394.927858 kJ/mol
# Density = 2.062722 g / cm^3
# Si number density = 20.674278 Si / 1000 Ang^3
#
#
#
# Elastic Constant Matrix: (Units=GPa)
#
#
# Indices 1 2 3 4 5 6 
#
# 1 90.9504 19.0038 25.1644 0.0000 12.6976 0.0000
# 2 19.0038 56.5842 13.0927 0.0000 1.3270 0.0000
# 3 25.1644 13.0927 85.2623 0.0000 24.3355 0.0000
# 4 0.0000 0.0000 0.0000 28.2467 0.0000 4.4278
# 5 12.6976 1.3270 24.3355 0.0000 33.3846 0.0000
# 6 0.0000 0.0000 0.0000 4.4278 0.0000 21.5448
#
#
#
# Elastic Compliance Matrix: (Units=1/GPa)
#
#
# Indices 1 2 3 4 5 6 
#
# 1 0.012842 -0.003696 -0.002362 0.000000 -0.003016 0.000000
# 2 -0.003696 0.019461 -0.002624 0.000000 0.002545 0.000000
# 3 -0.002362 -0.002624 0.015837 0.000000 -0.010542 0.000000
# 4 0.000000 0.000000 0.000000 0.036581 0.000000 -0.007518
# 5 -0.003016 0.002545 -0.010542 0.000000 0.038684 0.000000
# 6 0.000000 0.000000 0.000000 -0.007518 0.000000 0.047960
#
#
# Mechanical properties :
#
#
# Convention : Reuss Voigt Hill
#
# Bulk Modulus (GPa) = 32.49142 38.59098 35.54120
# Shear Modulus (GPa) = 25.12711 28.33759 26.73235
#
# Velocity S-wave (km/s) = 3.49001 3.70627 3.59977
# Velocity P-wave (km/s) = 5.65599 6.08457 5.87419
#
# Compressibility (1/GPa) = 0.03077736
#
# Stress axis : x y z
#
# Youngs Moduli (GPa) = 77.87125 51.38365 63.14145
#
# Poissons Ratio (x) = 0.18990 0.14913
# Poissons Ratio (y) = 0.28779 0.16569
# Poissons Ratio (z) = 0.18392 0.13483
#
# Static dielectric constant tensor:
#      x y z
#    x 3.718390 0.000000 0.171050 
#    y 0.000000 4.273630 0.000000 
#    z 0.171050 0.000000 3.740610 
# 
# 
# High freq. dielectric constant tensor:
#      x y z
#    x 1.822190 0.000000 0.017600 
#    y 0.000000 1.805900 0.000000 
#    z 0.017600 0.000000 1.800990 
# 
# From -- ./inp_files/53302.got.cif
#   From: 2010.06.25/outbox.cif.g09.slc.cpg/sg12_27_cif.got.tgz:53302.got - 2010.06.28 00:19:55.
