data_PCOD8093208
_publ_section_title
;
Structure prediction by ZEFSAII (Michael W. Deem and Ramdas Pophale) SiO2 
 PCOD8093208
Probable space group: C 2/M
;
_chemical_formula_sum "Si O2"
_cell_formula_units_Z 56
_cell_length_a 24.948516
_cell_length_b 9.042029
_cell_length_c 17.229242
_cell_angle_alpha 90.000000
_cell_angle_beta 46.597579
_cell_angle_gamma 90.000000
_cell_volume 2823.837388
_symmetry_space_group_name_H-M "C 2/M"
_symmetry_group_IT_number 12
_symmetry_cell_setting 'monoclinic'
loop_
_space_group_symop_operation_xyz
x,y,z
-x,y,-z
-x,-y,-z
x,-y,z
1/2+x,1/2+y,z
1/2-x,1/2+y,-z
1/2-x,1/2-y,-z
1/2+x,1/2-y,z
loop_
_atom_site_type_symbol
_atom_site_label
_atom_site_fract_x
_atom_site_fract_y
_atom_site_fract_z
Si Si1 0.059103 0.829458 0.268577
Si Si2 0.338355 0.669766 0.694725
Si Si3 0.909670 0.172431 0.213512
Si Si4 0.573546 0.672952 0.081141
Si Si5 0.077713 0.330756 0.519326
Si Si6 0.182129 0.823920 0.844265
Si Si7 0.826584 0.668343 0.428629
O O1 0.133609 0.816569 0.244763
O O2 0.075936 0.762680 0.166256
O O3 0.995590 0.733909 0.370391
O O4 0.032358 0.000000 0.289817
O O5 0.326088 0.500000 0.683093
O O6 0.401340 0.738700 0.577583
O O7 0.262667 0.756323 0.760511
O O8 0.863978 0.227989 0.184907
O O9 0.885934 0.258204 0.313664
O O10 0.996118 0.206596 0.115381
O O11 0.895754 0.000000 0.242297
O O12 0.586792 0.500000 0.073763
O O13 0.639169 0.738908 0.962746
O O14 0.062737 0.500000 0.510448
O O15 0.145418 0.319986 0.511483
O O16 0.188973 0.000000 0.839066
O O17 0.815138 0.500000 0.414312
O O18 0.750000 0.750000 0.500000
#
# Coordination Sequence:
#
# PCOD8093208 Si02
#       7
#     8   8   8   8   8   8   8
#     4  10  21  39  62  86 113 151 195 234 283 344
#     4  11  24  39  57  84 117 154 194 235 285 343
#     4  10  19  35  60  86 113 148 191 234 281 338
#     4   9  18  36  62  87 114 149 191 238 284 335
#     4  11  23  39  59  85 115 148 191 239 288 341
#     4  10  21  37  59  88 117 150 194 237 281 337
#     4  11  23  36  54  83 117 151 188 230 282 342
#
# _framework density 19.831171000000001
#
# number of rings (size 3 to 8) (size 9 to 14) (size 15 to 20)
#    0.000    1.714    1.429    3.000    0.000   10.857 
#    0.000    1.429    0.000    1.714    0.000    0.000 
#    0.000    0.000    0.000    0.000    0.000    0.000 
#
# Total GULP energy -347273.403596 kJ/mol
# GULP energy per Si atom -12402.621557 kJ/mol
# Density = 1.978603 g / cm^3
# Si number density = 19.831171 Si / 1000 Ang^3
#
#
#
# Elastic Constant Matrix: (Units=GPa)
#
#
# Indices 1 2 3 4 5 6 
#
# 1 93.8425 23.7220 20.2361 -0.0034 13.5504 0.0043
# 2 23.7220 53.9204 19.8753 -0.0070 0.8184 0.0039
# 3 20.2361 19.8753 92.0575 -0.0137 12.0263 0.0084
# 4 -0.0034 -0.0070 -0.0137 27.1852 0.0040 -4.7815
# 5 13.5504 0.8184 12.0263 0.0040 24.9264 -0.0033
# 6 0.0043 0.0039 0.0084 -4.7815 -0.0033 26.1248
#
#
#
# Elastic Compliance Matrix: (Units=1/GPa)
#
#
# Indices 1 2 3 4 5 6 
#
# 1 0.013146 -0.005361 -0.000877 0.000000 -0.006547 -0.000002
# 2 -0.005361 0.022391 -0.004206 0.000002 0.004208 0.000000
# 3 -0.000877 -0.004206 0.012683 0.000005 -0.005504 -0.000003
# 4 0.000000 0.000002 0.000005 0.038008 -0.000008 0.006956
# 5 -0.006547 0.004208 -0.005504 -0.000008 0.046195 0.000006
# 6 -0.000002 0.000000 -0.000003 0.006956 0.000006 0.039551
#
#
# Mechanical properties :
#
#
# Convention : Reuss Voigt Hill
#
# Bulk Modulus (GPa) = 36.58660 40.83192 38.70926
# Shear Modulus (GPa) = 24.75612 27.37975 26.06794
#
# Velocity S-wave (km/s) = 3.53702 3.71973 3.62953
# Velocity P-wave (km/s) = 5.93041 6.25164 6.09314
#
# Compressibility (1/GPa) = 0.02733241
#
# Stress axis : x y z
#
# Youngs Moduli (GPa) = 76.07013 44.66161 78.84828
#
# Poissons Ratio (x) = 0.23942 0.06915
# Poissons Ratio (y) = 0.40780 0.33160
# Poissons Ratio (z) = 0.06671 0.18782
#
# Static dielectric constant tensor:
#      x y z
#    x 3.782150 0.000000 0.209430 
#    y 0.000000 3.577520 0.000000 
#    z 0.209430 0.000000 3.718590 
# 
# 
# High freq. dielectric constant tensor:
#      x y z
#    x 1.786620 0.000000 0.003920 
#    y 0.000000 1.755760 0.000000 
#    z 0.003920 0.000000 1.778610 
# 
# From -- ./inp_files/288380.got.cif
#   From: 2010.06.25/outbox.cif.g09.slc.cpg/sg12_145_cif.got.tgz:288380.got - 2010.06.28 00:19:55.
