data_PCOD8093890
_publ_section_title
;
Structure prediction by ZEFSAII (Michael W. Deem and Ramdas Pophale) SiO2 
 PCOD8093890
Probable space group: C 2/M
;
_chemical_formula_sum "Si O2"
_cell_formula_units_Z 64
_cell_length_a 14.724502
_cell_length_b 14.526498
_cell_length_c 16.650231
_cell_angle_alpha 90.000000
_cell_angle_beta 121.155669
_cell_angle_gamma 90.000000
_cell_volume 3047.728193
_symmetry_space_group_name_H-M "C 2/M"
_symmetry_group_IT_number 12
_symmetry_cell_setting 'monoclinic'
loop_
_space_group_symop_operation_xyz
x,y,z
-x,y,-z
-x,-y,-z
x,-y,z
1/2+x,1/2+y,z
1/2-x,1/2+y,-z
1/2-x,1/2-y,-z
1/2+x,1/2-y,z
loop_
_atom_site_type_symbol
_atom_site_label
_atom_site_fract_x
_atom_site_fract_y
_atom_site_fract_z
Si Si1 0.742551 0.387737 0.795118
Si Si2 0.170176 0.603010 0.758362
Si Si3 0.567625 0.786660 0.196627
Si Si4 0.564431 0.898178 0.347119
Si Si5 0.653488 0.600893 0.281412
Si Si6 0.675135 0.753670 0.889952
Si Si7 0.262476 0.356941 0.511787
Si Si8 0.891771 0.102987 0.418483
O O1 0.752986 0.500000 0.806392
O O2 0.861010 0.340568 0.838103
O O3 0.684336 0.345415 0.847880
O O4 0.666230 0.354308 0.686523
O O5 0.175824 0.500000 0.796709
O O6 0.229792 0.609805 0.701574
O O7 0.219181 0.670426 0.847669
O O8 0.051973 0.633926 0.680007
O O9 0.607543 0.829634 0.298544
O O10 0.583349 0.676909 0.205549
O O11 0.439663 0.790889 0.130306
O O12 0.642133 0.896293 0.459969
O O13 0.559416 0.000000 0.306832
O O14 0.603382 0.500000 0.241180
O O15 0.663963 0.613176 0.381353
O O16 0.750000 0.750000 0.000000
O O17 0.250000 0.250000 0.500000
O O18 0.309820 0.399736 0.453240
O O19 0.000000 0.154313 0.500000
O O20 0.923950 0.000000 0.407659
#
# Coordination Sequence:
#
# PCOD8093890 Si02
#       8
#     8   8   8   8   8   8   8   8
#     4  11  23  44  72 102 135 178 229 278 335 405
#     4   9  21  41  64  87 121 165 208 257 321 393
#     4  11  22  42  66  93 128 167 214 272 336 393
#     4  10  19  36  60  86 120 166 211 262 316 366
#     4  11  22  38  60  90 128 171 213 253 312 392
#     4  11  26  45  69  98 129 163 213 284 351 407
#     4  12  22  35  53  89 127 164 214 263 308 376
#     4  10  22  38  58  86 127 172 213 258 310 377
#
# _framework density 20.999248000000001
#
# number of rings (size 3 to 8) (size 9 to 14) (size 15 to 20)
#    0.000    1.375    3.750    1.500    1.750    2.500 
#    0.000    2.500    0.000    1.500    0.000    0.000 
#    0.000    0.000    0.000    0.000    0.000    0.000 
#
# Total GULP energy -396446.739590 kJ/mol
# GULP energy per Si atom -12388.960612 kJ/mol
# Density = 2.095145 g / cm^3
# Si number density = 20.999248 Si / 1000 Ang^3
#
#
#
# Elastic Constant Matrix: (Units=GPa)
#
#
# Indices 1 2 3 4 5 6 
#
# 1 69.8088 23.5123 34.2116 0.0000 4.5281 0.0000
# 2 23.5123 110.0898 20.8264 0.0000 1.4357 0.0000
# 3 34.2116 20.8264 104.6078 0.0000 4.6233 0.0000
# 4 0.0000 0.0000 0.0000 19.7217 0.0000 -0.8930
# 5 4.5281 1.4357 4.6233 0.0000 23.8807 0.0000
# 6 0.0000 0.0000 0.0000 -0.8930 0.0000 32.5360
#
#
#
# Elastic Compliance Matrix: (Units=1/GPa)
#
#
# Indices 1 2 3 4 5 6 
#
# 1 0.017978 -0.002823 -0.005219 0.000000 -0.002229 0.000000
# 2 -0.002823 0.009883 -0.001051 0.000000 0.000145 0.000000
# 3 -0.005219 -0.001051 0.011528 0.000000 -0.001179 0.000000
# 4 0.000000 0.000000 0.000000 0.050769 0.000000 0.001393
# 5 -0.002229 0.000145 -0.001179 0.000000 0.042517 0.000000
# 6 0.000000 0.000000 0.000000 0.001393 0.000000 0.030773
#
#
# Mechanical properties :
#
#
# Convention : Reuss Voigt Hill
#
# Bulk Modulus (GPa) = 47.16319 49.06746 48.11532
# Shear Modulus (GPa) = 26.49682 28.95807 27.72744
#
# Velocity S-wave (km/s) = 3.55603 3.71752 3.63768
# Velocity P-wave (km/s) = 6.27445 6.46867 6.37230
#
# Compressibility (1/GPa) = 0.02120298
#
# Stress axis : x y z
#
# Youngs Moduli (GPa) = 55.62339 101.18018 86.74761
#
# Poissons Ratio (x) = 0.28566 0.45274
# Poissons Ratio (y) = 0.15704 0.09115
# Poissons Ratio (z) = 0.29030 0.10631
#
# Static dielectric constant tensor:
#      x y z
#    x 3.825330 0.000000 0.055540 
#    y 0.000000 3.998410 0.000000 
#    z 0.055540 0.000000 3.516920 
# 
# 
# High freq. dielectric constant tensor:
#      x y z
#    x 1.824300 0.000000 0.011560 
#    y 0.000000 1.834070 0.000000 
#    z 0.011560 0.000000 1.785640 
# 
# From -- ./inp_files/270691.got.cif
#   From: 2010.06.25/outbox.cif.g09.slc.cpg/sg12_136_cif.got.tgz:270691.got - 2010.06.28 00:19:55.
