data_PCOD8093191
_publ_section_title
;
Structure prediction by ZEFSAII (Michael W. Deem and Ramdas Pophale) SiO2 
 PCOD8093191
Probable space group: C 2/M
;
_chemical_formula_sum "Si O2"
_cell_formula_units_Z 56
_cell_length_a 18.465041
_cell_length_b 12.349378
_cell_length_c 14.838188
_cell_angle_alpha 90.000000
_cell_angle_beta 114.962367
_cell_angle_gamma 90.000000
_cell_volume 3067.501918
_symmetry_space_group_name_H-M "C 2/M"
_symmetry_group_IT_number 12
_symmetry_cell_setting 'monoclinic'
loop_
_space_group_symop_operation_xyz
x,y,z
-x,y,-z
-x,-y,-z
x,-y,z
1/2+x,1/2+y,z
1/2-x,1/2+y,-z
1/2-x,1/2-y,-z
1/2+x,1/2-y,z
loop_
_atom_site_type_symbol
_atom_site_label
_atom_site_fract_x
_atom_site_fract_y
_atom_site_fract_z
Si Si1 0.929511 0.375702 0.292689
Si Si2 0.210750 0.373708 0.079517
Si Si3 0.817113 0.624307 0.396050
Si Si4 0.130606 0.233167 0.893448
Si Si5 0.108481 0.627471 0.383192
Si Si6 0.522734 0.623699 0.115397
Si Si7 0.825225 0.264266 0.755234
O O1 0.929432 0.500000 0.260205
O O2 0.895071 0.364357 0.374688
O O3 0.873409 0.310483 0.195034
O O4 0.018549 0.325891 0.338682
O O5 0.190887 0.500000 0.060749
O O6 0.297969 0.351820 0.083547
O O7 0.206769 0.338841 0.181227
O O8 0.145069 0.306488 0.989228
O O9 0.789955 0.500000 0.389921
O O10 0.840632 0.673956 0.505867
O O11 0.744263 0.687635 0.315351
O O12 0.049185 0.167229 0.861336
O O13 0.103599 0.500000 0.392613
O O14 0.149698 0.656499 0.311557
O O15 0.539716 0.500000 0.151426
O O16 0.601660 0.691730 0.174325
O O17 0.500000 0.634204 0.000000
#
# Coordination Sequence:
#
# PCOD8093191 Si02
#       7
#     8   8   8   8   8   8   8
#     4  10  19  35  60  85 112 145 189 235 279 332
#     4  11  24  38  58  86 115 149 187 228 280 338
#     4  10  21  37  57  84 111 147 193 239 279 326
#     4  11  21  41  58  83 115 150 188 225 280 335
#     4  10  21  36  58  84 113 146 188 237 288 332
#     4  11  23  39  59  84 114 152 192 230 274 334
#     4  12  21  38  57  84 117 151 185 231 283 339
#
# _framework density 18.255897000000001
#
# number of rings (size 3 to 8) (size 9 to 14) (size 15 to 20)
#    0.000    1.286    4.286    2.571    0.000    1.714 
#    0.000    0.714    0.000    0.000    0.000    2.000 
#    0.000    0.000    0.000    0.000    0.000    0.000 
#
# Total GULP energy -347309.716465 kJ/mol
# GULP energy per Si atom -12403.918445 kJ/mol
# Density = 1.821435 g / cm^3
# Si number density = 18.255897 Si / 1000 Ang^3
#
#
#
# Elastic Constant Matrix: (Units=GPa)
#
#
# Indices 1 2 3 4 5 6 
#
# 1 69.8769 25.8153 26.3674 0.0000 25.9198 0.0000
# 2 25.8153 52.3219 22.1217 0.0000 -12.4936 0.0000
# 3 26.3674 22.1217 94.0291 0.0000 -20.0345 0.0000
# 4 0.0000 0.0000 0.0000 30.2748 0.0000 -1.6882
# 5 25.9198 -12.4936 -20.0345 0.0000 -22.8587 0.0000
# 6 0.0000 0.0000 0.0000 -1.6882 0.0000 8.8361
#
#
#
# Elastic Compliance Matrix: (Units=1/GPa)
#
#
# Indices 1 2 3 4 5 6 
#
# 1 0.010321 -0.002210 0.000317 0.000000 0.012633 0.000000
# 2 -0.002210 0.020737 -0.006074 0.000000 -0.008517 0.000000
# 3 0.000317 -0.006074 0.010751 0.000000 -0.005743 0.000000
# 4 0.000000 0.000000 0.000000 0.033386 0.000000 0.006379
# 5 0.012633 -0.008517 -0.005743 0.000000 -0.019733 0.000000
# 6 0.000000 0.000000 0.000000 0.006379 0.000000 0.114391
#
#
# Mechanical properties :
#
#
# Convention : Reuss Voigt Hill
#
# Bulk Modulus (GPa) = 38.64417 40.53743 39.59080
# Shear Modulus (GPa) = 25.71853 12.71201 19.21527
#
# Velocity S-wave (km/s) = 3.75744 2.64166 3.24782
# Velocity P-wave (km/s) = 6.32760 5.61763 5.98315
#
# Compressibility (1/GPa) = 0.02587713
#
# Stress axis : x y z
#
# Youngs Moduli (GPa) = 96.88567 48.22259 93.01302
#
# Poissons Ratio (x) = 0.10658 -0.02952
# Poissons Ratio (y) = 0.21413 0.56493
# Poissons Ratio (z) = -0.03075 0.29289
#
# Static dielectric constant tensor:
#      x y z
#    x 3.413930 0.000000 -0.005960 
#    y 0.000000 3.277150 0.000000 
#    z -0.005960 0.000000 3.508190 
# 
# 
# High freq. dielectric constant tensor:
#      x y z
#    x 1.717030 0.000000 -0.001260 
#    y 0.000000 1.697370 0.000000 
#    z -0.001260 0.000000 1.718730 
# 
# From -- ./inp_files/223116.got.cif
#   From: 2010.06.25/outbox.cif.g09.slc.cpg/sg12_112_cif.got.tgz:223116.got - 2010.06.28 00:19:55.
