data_PCOD8094450
_publ_section_title
;
Structure prediction by ZEFSAII (Michael W. Deem and Ramdas Pophale) SiO2 
 PCOD8094450
Probable space group: C 2/M
;
_chemical_formula_sum "Si O2"
_cell_formula_units_Z 44
_cell_length_a 13.262329
_cell_length_b 24.240590
_cell_length_c 9.474948
_cell_angle_alpha 90.000000
_cell_angle_beta 131.988180
_cell_angle_gamma 90.000000
_cell_volume 2264.091273
_symmetry_space_group_name_H-M "C 2/M"
_symmetry_group_IT_number 12
_symmetry_cell_setting 'monoclinic'
loop_
_space_group_symop_operation_xyz
x,y,z
-x,y,-z
-x,-y,-z
x,-y,z
1/2+x,1/2+y,z
1/2-x,1/2+y,-z
1/2-x,1/2-y,-z
1/2+x,1/2-y,z
loop_
_atom_site_type_symbol
_atom_site_label
_atom_site_fract_x
_atom_site_fract_y
_atom_site_fract_z
Si Si1 0.706540 0.586021 0.492678
Si Si2 0.183582 0.500000 0.906950
Si Si3 0.385601 0.699145 0.511367
Si Si4 0.656293 0.500000 0.669749
Si Si5 0.500209 0.097594 0.839131
Si Si6 0.143740 0.000000 0.204358
Si Si7 0.926618 0.717962 0.799360
O O1 0.611702 0.639681 0.411288
O O2 0.711080 0.554691 0.646641
O O3 0.864356 0.596931 0.618174
O O4 0.650792 0.553379 0.308104
O O5 0.236934 0.500000 0.798147
O O6 0.102215 0.557359 0.851423
O O7 0.308942 0.500000 0.132985
O O8 0.500000 0.701161 0.500000
O O9 0.231592 0.706216 0.308491
O O10 0.429290 0.745395 0.662883
O O11 0.500000 0.500000 0.500000
O O12 0.524271 0.163851 0.866124
O O13 0.500000 0.074782 0.000000
O O14 0.000000 0.000000 0.000000
O O15 0.000000 0.748865 0.000000
#
# Coordination Sequence:
#
# PCOD8094450 Si02
#       7
#     8   4   8   4   8   4   8
#     4  10  21  39  58  81 123 157 198 252 296 353
#     4  12  21  36  64  93 119 162 203 243 319 370
#     4  10  21  40  65  89 117 167 211 246 308 371
#     4  11  20  33  58  88 114 157 204 242 288 364
#     4  10  19  37  63  91 118 148 201 259 299 359
#     4  11  26  42  50  87 135 159 195 249 304 373
#     4   9  21  41  59  91 129 152 202 269 302 351
#
# _framework density 19.433845000000002
#
# number of rings (size 3 to 8) (size 9 to 14) (size 15 to 20)
#    0.000    1.818    1.818    3.000    0.000    2.909 
#    9.818    0.000    0.000    0.000    0.000    0.000 
#    0.000    0.000    0.000    0.000    0.000    0.000 
#
# Total GULP energy -272569.792450 kJ/mol
# GULP energy per Si atom -12389.536020 kJ/mol
# Density = 1.938961 g / cm^3
# Si number density = 19.433845 Si / 1000 Ang^3
#
#
#
# Elastic Constant Matrix: (Units=GPa)
#
#
# Indices 1 2 3 4 5 6 
#
# 1 126.0426 58.4218 46.4662 0.0000 -3.8135 0.0000
# 2 58.4218 110.8837 47.5484 0.0000 -3.4404 0.0000
# 3 46.4662 47.5484 123.4650 0.0000 -5.6013 0.0000
# 4 0.0000 0.0000 0.0000 37.6559 0.0000 -41.4244
# 5 -3.8135 -3.4404 -5.6013 0.0000 22.0310 0.0000
# 6 0.0000 0.0000 0.0000 -41.4244 0.0000 129.3527
#
#
#
# Elastic Compliance Matrix: (Units=1/GPa)
#
#
# Indices 1 2 3 4 5 6 
#
# 1 0.011019 -0.004816 -0.002266 0.000000 0.000579 0.000000
# 2 -0.004816 0.012916 -0.003144 0.000000 0.000384 0.000000
# 3 -0.002266 -0.003144 0.010241 0.000000 0.001721 0.000000
# 4 0.000000 0.000000 0.000000 0.041000 0.000000 0.013130
# 5 0.000579 0.000384 0.001721 0.000000 0.045988 0.000000
# 6 0.000000 0.000000 0.000000 0.013130 0.000000 0.011936
#
#
# Mechanical properties :
#
#
# Convention : Reuss Voigt Hill
#
# Bulk Modulus (GPa) = 72.86619 73.91823 73.39221
# Shear Modulus (GPa) = 31.62001 51.67159 41.64580
#
# Velocity S-wave (km/s) = 4.03806 5.16199 4.63423
# Velocity P-wave (km/s) = 7.70176 8.58176 8.15364
#
# Compressibility (1/GPa) = 0.01372379
#
# Stress axis : x y z
#
# Youngs Moduli (GPa) = 90.75269 77.42285 97.64429
#
# Poissons Ratio (x) = 0.37286 0.22126
# Poissons Ratio (y) = 0.43706 0.30702
# Poissons Ratio (z) = 0.20565 0.24344
#
# Static dielectric constant tensor:
#      x y z
#    x 3.303820 0.000000 -0.039100 
#    y 0.000000 3.694330 0.000000 
#    z -0.039100 0.000000 3.598380 
# 
# 
# High freq. dielectric constant tensor:
#      x y z
#    x 1.736070 0.000000 0.008470 
#    y 0.000000 1.761580 0.000000 
#    z 0.008470 0.000000 1.768710 
# 
# From -- ./inp_files/53041.got.cif
#   From: 2010.06.25/outbox.cif.g09.slc.cpg/sg12_27_cif.got.tgz:53041.got - 2010.06.28 00:19:55.
