data_PCOD8094082
_publ_section_title
;
Structure prediction by ZEFSAII (Michael W. Deem and Ramdas Pophale) SiO2 
 PCOD8094082
Probable space group: C 2/M
;
_chemical_formula_sum "Si O2"
_cell_formula_units_Z 48
_cell_length_a 20.422563
_cell_length_b 8.855480
_cell_length_c 20.979054
_cell_angle_alpha 90.000000
_cell_angle_beta 138.236612
_cell_angle_gamma 90.000000
_cell_volume 2527.079941
_symmetry_space_group_name_H-M "C 2/M"
_symmetry_group_IT_number 12
_symmetry_cell_setting 'monoclinic'
loop_
_space_group_symop_operation_xyz
x,y,z
-x,y,-z
-x,-y,-z
x,-y,z
1/2+x,1/2+y,z
1/2-x,1/2+y,-z
1/2-x,1/2-y,-z
1/2+x,1/2-y,z
loop_
_atom_site_type_symbol
_atom_site_label
_atom_site_fract_x
_atom_site_fract_y
_atom_site_fract_z
Si Si1 0.036557 0.325052 0.231435
Si Si2 0.796859 0.678676 0.742212
Si Si3 0.888716 0.675629 0.939231
Si Si4 0.902140 0.820880 0.464540
Si Si5 0.352841 0.825572 0.558807
Si Si6 0.153000 0.822069 0.957884
O O1 0.015174 0.500000 0.199896
O O2 0.118940 0.257931 0.243505
O O3 0.071798 0.302910 0.328887
O O4 0.937851 0.230998 0.151006
O O5 0.798175 0.500000 0.736993
O O6 0.817974 0.727595 0.830053
O O7 0.691042 0.740946 0.643310
O O8 0.874162 0.500000 0.945574
O O9 0.860408 0.774651 0.978849
O O10 0.000000 0.708050 0.000000
O O11 0.903534 0.749971 0.535180
O O12 0.000000 0.767001 0.500000
O O13 0.897896 0.000000 0.468835
O O14 0.250000 0.750000 0.500000
O O15 0.332312 0.000000 0.530356
O O16 0.162418 0.000000 0.960657
O O17 0.250000 0.750000 0.000000
#
# Coordination Sequence:
#
# PCOD8094082 Si02
#       6
#     8   8   8   8   8   8
#     4  10  20  39  63  87 119 160 204 248 300 356
#     4   9  17  34  60  87 117 158 199 239 292 355
#     4  10  19  36  63  88 115 157 202 241 294 359
#     4  10  21  38  59  87 124 161 201 247 297 356
#     4  11  22  37  62  91 123 159 202 251 300 356
#     4  12  26  42  61  89 125 158 198 250 305 360
#
# _framework density 18.994256
#
# number of rings (size 3 to 8) (size 9 to 14) (size 15 to 20)
#    0.000    1.667    3.333    2.000    0.000    3.333 
#    0.000    2.500    0.000    0.000    0.000    0.000 
#    0.000    0.000    0.000    0.000    0.000    0.000 
#
# Total GULP energy -297677.059726 kJ/mol
# GULP energy per Si atom -12403.210822 kJ/mol
# Density = 1.895102 g / cm^3
# Si number density = 18.994256 Si / 1000 Ang^3
#
#
#
# Elastic Constant Matrix: (Units=GPa)
#
#
# Indices 1 2 3 4 5 6 
#
# 1 147.2492 66.0175 75.7138 0.0000 8.1764 0.0000
# 2 66.0175 84.1569 48.1839 0.0000 5.8769 0.0000
# 3 75.7138 48.1839 135.2232 0.0000 8.1331 0.0000
# 4 0.0000 0.0000 0.0000 29.1546 0.0000 -4.2485
# 5 8.1764 5.8769 8.1331 0.0000 35.2632 0.0000
# 6 0.0000 0.0000 0.0000 -4.2485 0.0000 31.3056
#
#
#
# Elastic Compliance Matrix: (Units=1/GPa)
#
#
# Indices 1 2 3 4 5 6 
#
# 1 0.012195 -0.007077 -0.004266 0.000000 -0.000664 0.000000
# 2 -0.007077 0.019093 -0.002787 0.000000 -0.000898 0.000000
# 3 -0.004266 -0.002787 0.010840 0.000000 -0.001046 0.000000
# 4 0.000000 0.000000 0.000000 0.034992 0.000000 0.004749
# 5 -0.000664 -0.000898 -0.001046 0.000000 0.028903 0.000000
# 6 0.000000 0.000000 0.000000 0.004749 0.000000 0.032588
#
#
# Mechanical properties :
#
#
# Convention : Reuss Voigt Hill
#
# Bulk Modulus (GPa) = 72.11370 82.93997 77.52684
# Shear Modulus (GPa) = 29.15585 30.92563 30.04074
#
# Velocity S-wave (km/s) = 3.92214 4.03942 3.98121
# Velocity P-wave (km/s) = 7.65241 8.09423 7.87642
#
# Compressibility (1/GPa) = 0.01386699
#
# Stress axis : x y z
#
# Youngs Moduli (GPa) = 82.00242 52.37657 92.25258
#
# Poissons Ratio (x) = 0.37068 0.39358
# Poissons Ratio (y) = 0.58035 0.25706
# Poissons Ratio (z) = 0.34985 0.14595
#
# Static dielectric constant tensor:
#      x y z
#    x 3.836860 0.000000 -0.143080 
#    y 0.000000 3.305770 0.000000 
#    z -0.143080 0.000000 3.811290 
# 
# 
# High freq. dielectric constant tensor:
#      x y z
#    x 1.742140 0.000000 -0.004330 
#    y 0.000000 1.717240 0.000000 
#    z -0.004330 0.000000 1.755690 
# 
# From -- ./inp_files/319567.got.cif
#   From: 2010.06.25/outbox.cif.g09.slc.cpg/sg12_160_cif.got.tgz:319567.got - 2010.06.28 00:19:55.
