data_PCOD8094700
_publ_section_title
;
Structure prediction by ZEFSAII (Michael W. Deem and Ramdas Pophale) SiO2 
 PCOD8094700
Probable space group: C 2/M
;
_chemical_formula_sum "Si O2"
_cell_formula_units_Z 48
_cell_length_a 29.977887
_cell_length_b 8.814949
_cell_length_c 18.771133
_cell_angle_alpha 90.000000
_cell_angle_beta 29.246396
_cell_angle_gamma 90.000000
_cell_volume 2423.454491
_symmetry_space_group_name_H-M "C 2/M"
_symmetry_group_IT_number 12
_symmetry_cell_setting 'monoclinic'
loop_
_space_group_symop_operation_xyz
x,y,z
-x,y,-z
-x,-y,-z
x,-y,z
1/2+x,1/2+y,z
1/2-x,1/2+y,-z
1/2-x,1/2-y,-z
1/2+x,1/2-y,z
loop_
_atom_site_type_symbol
_atom_site_label
_atom_site_fract_x
_atom_site_fract_y
_atom_site_fract_z
Si Si1 0.844714 0.819958 0.891817
Si Si2 0.464914 0.333033 0.126970
Si Si3 0.637680 0.679976 0.971900
Si Si4 0.779812 0.676760 0.385678
Si Si5 0.796580 0.320823 0.647863
Si Si6 0.503380 0.822173 0.577675
O O1 0.926330 0.767645 0.727515
O O2 0.837488 0.000000 0.899431
O O3 0.750000 0.750000 0.000000
O O4 0.861799 0.760169 0.948160
O O5 0.432160 0.500000 0.201586
O O6 0.386498 0.209310 0.230356
O O7 0.500000 0.361705 0.000000
O O8 0.544153 0.262963 0.066200
O O9 0.641254 0.500000 0.964484
O O10 0.725184 0.742781 0.806235
O O11 0.760801 0.500000 0.412966
O O12 0.750000 0.750000 0.500000
O O13 0.721962 0.747235 0.402316
O O14 0.785576 0.500000 0.655110
O O15 0.898029 0.275083 0.529946
O O16 0.500000 0.774556 0.500000
O O17 0.484097 0.000000 0.613581
#
# Coordination Sequence:
#
# PCOD8094700 Si02
#       6
#     8   8   8   8   8   8
#     4  11  23  40  63  92 125 159 202 250 302 361
#     4  10  19  38  66  90 118 159 203 246 300 361
#     4   9  19  37  63  90 119 158 200 245 301 363
#     4  12  26  41  59  87 125 164 207 255 304 357
#     4  10  20  40  65  89 119 161 206 247 303 366
#     4  10  22  41  66  92 123 161 202 250 304 363
#
# _framework density 19.806436999999999
#
# number of rings (size 3 to 8) (size 9 to 14) (size 15 to 20)
#    0.000    1.667    1.667    3.000    2.333    4.000 
#    0.000    4.167    0.000    0.000    0.000    0.000 
#    0.000    0.000    0.000    0.000    0.000    0.000 
#
# Total GULP energy -297620.703995 kJ/mol
# GULP energy per Si atom -12400.862666 kJ/mol
# Density = 1.976136 g / cm^3
# Si number density = 19.806437 Si / 1000 Ang^3
#
#
#
# Elastic Constant Matrix: (Units=GPa)
#
#
# Indices 1 2 3 4 5 6 
#
# 1 205.4488 54.2737 88.2749 -0.0007 -2.7397 0.0014
# 2 54.2737 58.8853 48.5444 0.0105 -3.2798 -0.0066
# 3 88.2749 48.5444 125.1996 0.0212 0.9337 -0.0093
# 4 -0.0007 0.0105 0.0212 -64.9471 0.0005 83.4912
# 5 -2.7397 -3.2798 0.9337 0.0005 41.8157 -0.0031
# 6 0.0014 -0.0066 -0.0093 83.4912 -0.0031 -42.7747
#
#
#
# Elastic Compliance Matrix: (Units=1/GPa)
#
#
# Indices 1 2 3 4 5 6 
#
# 1 0.007512 -0.003733 -0.003851 0.000000 0.000285 0.000001
# 2 -0.003733 0.027015 -0.007858 0.000001 0.002050 -0.000001
# 3 -0.003851 -0.007858 0.013758 -0.000001 -0.001176 -0.000003
# 4 0.000000 0.000001 -0.000001 0.010202 0.000001 0.019914
# 5 0.000285 0.002050 -0.001176 0.000001 0.024120 0.000001
# 6 0.000001 -0.000001 -0.000003 0.019914 0.000001 0.015491
#
#
# Mechanical properties :
#
#
# Convention : Reuss Voigt Hill
#
# Bulk Modulus (GPa) = 57.46824 85.74664 71.60744
# Shear Modulus (GPa) = 37.09664 0.04817 18.57240
#
# Velocity S-wave (km/s) = 4.33246 0.15612 3.06550
# Velocity P-wave (km/s) = 7.35560 6.58929 6.98297
#
# Compressibility (1/GPa) = 0.01740092
#
# Stress axis : x y z
#
# Youngs Moduli (GPa) = 133.11797 37.01655 72.68328
#
# Poissons Ratio (x) = 0.13818 0.27993
# Poissons Ratio (y) = 0.49692 0.57114
# Poissons Ratio (z) = 0.51268 0.29087
#
# Static dielectric constant tensor:
#      x y z
#    x 3.963150 0.000120 0.065650 
#    y 0.000120 2.492590 0.000070 
#    z 0.065650 0.000070 3.733220 
# 
# 
# High freq. dielectric constant tensor:
#      x y z
#    x 1.793000 0.000000 -0.001170 
#    y 0.000000 1.748690 0.000000 
#    z -0.001170 0.000000 1.782970 
# 
# From -- ./inp_files/244893.got.cif
#   From: 2010.06.25/outbox.cif.g09.slc.cpg/sg12_123_cif.got.tgz:244893.got - 2010.06.28 00:19:55.
