data_PCOD8094899
_publ_section_title
;
Structure prediction by ZEFSAII (Michael W. Deem and Ramdas Pophale) SiO2 
 PCOD8094899
Probable space group: C 2/M
;
_chemical_formula_sum "Si O2"
_cell_formula_units_Z 64
_cell_length_a 13.846713
_cell_length_b 18.093326
_cell_length_c 19.960308
_cell_angle_alpha 90.000000
_cell_angle_beta 131.692204
_cell_angle_gamma 90.000000
_cell_volume 3734.179370
_symmetry_space_group_name_H-M "C 2/M"
_symmetry_group_IT_number 12
_symmetry_cell_setting 'monoclinic'
loop_
_space_group_symop_operation_xyz
x,y,z
-x,y,-z
-x,-y,-z
x,-y,z
1/2+x,1/2+y,z
1/2-x,1/2+y,-z
1/2-x,1/2-y,-z
1/2+x,1/2-y,z
loop_
_atom_site_type_symbol
_atom_site_label
_atom_site_fract_x
_atom_site_fract_y
_atom_site_fract_z
Si Si1 0.607873 0.414395 0.097317
Si Si2 0.665100 0.082981 0.484732
Si Si3 0.840448 0.581767 0.676101
Si Si4 0.410095 0.158696 0.378205
Si Si5 0.150680 0.085424 0.263988
Si Si6 0.595608 0.331614 0.603623
Si Si7 0.448205 0.585614 0.644823
Si Si8 0.391395 0.914955 0.229627
O O1 0.571034 0.500000 0.086752
O O2 0.605427 0.379995 0.171898
O O3 0.750588 0.402985 0.130330
O O4 0.500000 0.375482 0.000000
O O5 0.641852 0.083444 0.395117
O O6 0.551492 0.130128 0.469253
O O7 0.806980 0.117132 0.560619
O O8 0.661310 0.000000 0.512378
O O9 0.794772 0.500000 0.678923
O O10 0.741558 0.642502 0.656731
O O11 0.989764 0.598964 0.768275
O O12 0.285003 0.120412 0.354841
O O13 0.404580 0.244801 0.389982
O O14 0.399272 0.141983 0.294543
O O15 0.038758 0.096232 0.268503
O O16 0.182852 0.000000 0.267700
O O17 0.500000 0.358598 0.500000
O O18 0.554608 0.367194 0.655248
O O19 0.462919 0.500000 0.630514
O O20 0.399568 0.000000 0.260300
#
# Coordination Sequence:
#
# PCOD8094899 Si02
#       8
#     8   8   8   8   8   8   8   8
#     4   8  13  25  50  82 106 115 131 179 239 287
#     4   9  17  31  49  62  79 118 162 197 234 272
#     4   9  17  32  50  63  83 121 167 206 230 261
#     4  10  20  30  44  65  94 123 150 192 241 277
#     4   9  18  32  48  69  96 122 150 180 224 292
#     4  12  24  32  42  63  90 125 169 212 239 256
#     4  10  21  34  47  62  85 123 164 199 233 274
#     4   8  15  31  52  72  93 120 154 185 224 285
#
# _framework density 17.138973
#
# number of rings (size 3 to 8) (size 9 to 14) (size 15 to 20)
#    0.000    2.625    1.250    3.000    1.750    3.000 
#    0.000    1.875    0.000    0.000    0.000   14.875 
#    0.000    6.000    0.000    0.000    0.000    0.000 
#
# Total GULP energy -396497.370088 kJ/mol
# GULP energy per Si atom -12390.542815 kJ/mol
# Density = 1.709996 g / cm^3
# Si number density = 17.138973 Si / 1000 Ang^3
#
#
#
# Elastic Constant Matrix: (Units=GPa)
#
#
# Indices 1 2 3 4 5 6 
#
# 1 101.9875 37.7916 27.2538 0.0000 17.7103 0.0000
# 2 37.7916 61.8529 7.7917 0.0000 9.2011 0.0000
# 3 27.2538 7.7917 73.3432 0.0000 13.2762 0.0000
# 4 0.0000 0.0000 0.0000 8.2651 0.0000 0.6729
# 5 17.7103 9.2011 13.2762 0.0000 20.5187 0.0000
# 6 0.0000 0.0000 0.0000 0.6729 0.0000 24.4690
#
#
#
# Elastic Compliance Matrix: (Units=1/GPa)
#
#
# Indices 1 2 3 4 5 6 
#
# 1 0.014736 -0.007512 -0.003381 0.000000 -0.007163 0.000000
# 2 -0.007512 0.021168 0.001231 0.000000 -0.003805 0.000000
# 3 -0.003381 0.001231 0.016233 0.000000 -0.008137 0.000000
# 4 0.000000 0.000000 0.000000 0.121262 0.000000 -0.003335
# 5 -0.007163 -0.003805 -0.008137 0.000000 0.061890 0.000000
# 6 0.000000 0.000000 0.000000 -0.003335 0.000000 0.040960
#
#
# Mechanical properties :
#
#
# Convention : Reuss Voigt Hill
#
# Bulk Modulus (GPa) = 30.47525 42.53975 36.50750
# Shear Modulus (GPa) = 16.31265 21.60700 18.95982
#
# Velocity S-wave (km/s) = 3.08845 3.55448 3.32963
# Velocity P-wave (km/s) = 5.52611 6.45911 6.01074
#
# Compressibility (1/GPa) = 0.03281351
#
# Stress axis : x y z
#
# Youngs Moduli (GPa) = 67.86015 47.24061 61.60262
#
# Poissons Ratio (x) = 0.35488 0.20829
# Poissons Ratio (y) = 0.50978 -0.07586
# Poissons Ratio (z) = 0.22945 -0.05817
#
# Static dielectric constant tensor:
#      x y z
#    x 3.277840 0.000000 0.166890 
#    y 0.000000 2.902150 0.000000 
#    z 0.166890 0.000000 3.265410 
# 
# 
# High freq. dielectric constant tensor:
#      x y z
#    x 1.663510 0.000000 0.016120 
#    y 0.000000 1.629430 0.000000 
#    z 0.016120 0.000000 1.628280 
# 
# From -- ./inp_files/340177.got.cif
#   From: 2010.06.25/outbox.cif.g09.slc.cpg/sg12_171_cif.got.tgz:340177.got - 2010.06.28 00:19:55.
