data_PCOD8094438
_publ_section_title
;
Structure prediction by ZEFSAII (Michael W. Deem and Ramdas Pophale) SiO2 
 PCOD8094438
Probable space group: C 2/M
;
_chemical_formula_sum "Si O2"
_cell_formula_units_Z 64
_cell_length_a 24.041734
_cell_length_b 13.614288
_cell_length_c 12.000135
_cell_angle_alpha 90.000000
_cell_angle_beta 135.171268
_cell_angle_gamma 90.000000
_cell_volume 2769.043499
_symmetry_space_group_name_H-M "C 2/M"
_symmetry_group_IT_number 12
_symmetry_cell_setting 'monoclinic'
loop_
_space_group_symop_operation_xyz
x,y,z
-x,y,-z
-x,-y,-z
x,-y,z
1/2+x,1/2+y,z
1/2-x,1/2+y,-z
1/2-x,1/2-y,-z
1/2+x,1/2-y,z
loop_
_atom_site_type_symbol
_atom_site_label
_atom_site_fract_x
_atom_site_fract_y
_atom_site_fract_z
Si Si1 0.717811 0.155192 0.897032
Si Si2 0.143080 0.249337 0.606128
Si Si3 0.714004 0.106835 0.130577
Si Si4 0.685778 0.116561 0.463367
Si Si5 0.970148 0.883901 0.676621
Si Si6 0.637194 0.614972 0.268371
Si Si7 0.586731 0.883623 0.114862
Si Si8 0.624919 0.388328 0.006539
O O1 0.639494 0.181704 0.712611
O O2 0.750000 0.250000 0.000000
O O3 0.700390 0.087286 0.978721
O O4 0.786093 0.114130 0.912901
O O5 0.219136 0.181117 0.735124
O O6 0.152555 0.325248 0.520476
O O7 0.066875 0.179495 0.478329
O O8 0.630441 0.144762 0.061288
O O9 0.735472 0.000000 0.213144
O O10 0.776080 0.144949 0.567123
O O11 0.638357 0.157707 0.290092
O O12 0.674645 0.000000 0.468167
O O13 0.923967 0.854744 0.723626
O O14 0.060486 0.847633 0.825722
O O15 0.962826 0.000000 0.636589
O O16 0.634580 0.500000 0.243990
O O17 0.619024 0.664179 0.120556
O O18 0.579853 0.000000 0.116904
O O19 0.500000 0.835663 0.000000
O O20 0.598557 0.500000 0.986003
#
# Coordination Sequence:
#
# PCOD8094438 Si02
#       8
#     8   8   8   8   8   8   8   8
#     4  10  22  40  59  82 119 163 216 261 289 358
#     4  11  22  39  60  92 129 163 206 257 306 377
#     4  10  21  39  66  91 119 161 208 257 308 368
#     4  10  20  36  60  89 124 165 204 251 311 373
#     4  10  21  36  59  94 133 165 200 257 326 381
#     4   9  17  32  58  91 127 163 203 251 311 383
#     4   9  19  38  62  90 122 157 203 257 314 373
#     4  10  19  37  63  88 121 167 212 256 316 380
#
# _framework density 23.112673999999998
#
# number of rings (size 3 to 8) (size 9 to 14) (size 15 to 20)
#    0.000    2.125    1.250    1.875    0.000    6.000 
#    4.500    2.500    0.000    6.750    0.000    3.500 
#    0.000    0.000    0.000    0.000    0.000    0.000 
#
# Total GULP energy -396489.017622 kJ/mol
# GULP energy per Si atom -12390.281801 kJ/mol
# Density = 2.306007 g / cm^3
# Si number density = 23.112674 Si / 1000 Ang^3
#
#
#
# Elastic Constant Matrix: (Units=GPa)
#
#
# Indices 1 2 3 4 5 6 
#
# 1 57.8962 6.9310 51.4252 0.0000 -7.5422 0.0000
# 2 6.9310 39.7837 26.8779 0.0000 4.3595 0.0000
# 3 51.4252 26.8779 182.4998 0.0000 2.0069 0.0000
# 4 0.0000 0.0000 0.0000 32.3073 0.0000 -0.4457
# 5 -7.5422 4.3595 2.0069 0.0000 31.5685 0.0000
# 6 0.0000 0.0000 0.0000 -0.4457 0.0000 8.5910
#
#
#
# Elastic Compliance Matrix: (Units=1/GPa)
#
#
# Indices 1 2 3 4 5 6 
#
# 1 0.024203 -0.000275 -0.006848 0.000000 0.006256 0.000000
# 2 -0.000275 0.028330 -0.004054 0.000000 -0.003720 0.000000
# 3 -0.006848 -0.004054 0.008024 0.000000 -0.001586 0.000000
# 4 0.000000 0.000000 0.000000 0.030975 0.000000 0.001607
# 5 0.006256 -0.003720 -0.001586 0.000000 0.033786 0.000000
# 6 0.000000 0.000000 0.000000 0.001607 0.000000 0.116484
#
#
# Mechanical properties :
#
#
# Convention : Reuss Voigt Hill
#
# Bulk Modulus (GPa) = 26.17662 50.07198 38.12430
# Shear Modulus (GPa) = 18.05762 27.48973 22.77367
#
# Velocity S-wave (km/s) = 2.79818 3.45248 3.14241
# Velocity P-wave (km/s) = 4.66798 6.13222 5.44950
#
# Compressibility (1/GPa) = 0.03820204
#
# Stress axis : x y z
#
# Youngs Moduli (GPa) = 41.31719 35.29774 124.63163
#
# Poissons Ratio (x) = 0.00972 0.85350
# Poissons Ratio (y) = 0.01138 0.50524
# Poissons Ratio (z) = 0.28295 0.14309
#
# Static dielectric constant tensor:
#      x y z
#    x 3.826870 0.000000 -0.309580 
#    y 0.000000 4.540510 0.000000 
#    z -0.309580 0.000000 4.907040 
# 
# 
# High freq. dielectric constant tensor:
#      x y z
#    x 1.884470 0.000000 -0.013020 
#    y 0.000000 1.922680 0.000000 
#    z -0.013020 0.000000 1.916980 
# 
# From -- ./inp_files/183851.got.cif
#   From: 2010.06.25/outbox.cif.g09.slc.cpg/sg12_92_cif.got.tgz:183851.got - 2010.06.28 00:19:55.
