data_PCOD8094269
_publ_section_title
;
Structure prediction by ZEFSAII (Michael W. Deem and Ramdas Pophale) SiO2 
 PCOD8094269
Probable space group: C 2/M
;
_chemical_formula_sum "Si O2"
_cell_formula_units_Z 64
_cell_length_a 23.982148
_cell_length_b 8.872037
_cell_length_c 15.461209
_cell_angle_alpha 90.000000
_cell_angle_beta 90.220387
_cell_angle_gamma 90.000000
_cell_volume 3289.664901
_symmetry_space_group_name_H-M "C 2/M"
_symmetry_group_IT_number 12
_symmetry_cell_setting 'monoclinic'
loop_
_space_group_symop_operation_xyz
x,y,z
-x,y,-z
-x,-y,-z
x,-y,z
1/2+x,1/2+y,z
1/2-x,1/2+y,-z
1/2-x,1/2-y,-z
1/2+x,1/2-y,z
loop_
_atom_site_type_symbol
_atom_site_label
_atom_site_fract_x
_atom_site_fract_y
_atom_site_fract_z
Si Si1 0.189898 0.321222 0.999093
Si Si2 0.004790 0.173597 0.601840
Si Si3 0.115668 0.323090 0.842297
Si Si4 0.618605 0.821747 0.163269
Si Si5 0.189543 0.821544 0.501887
Si Si6 0.382231 0.176110 0.351714
Si Si7 0.616666 0.322152 0.340065
Si Si8 0.498789 0.820462 0.902606
O O1 0.194977 0.500000 0.995029
O O2 0.157513 0.256776 0.914579
O O3 0.250000 0.250000 0.000000
O O4 0.157901 0.268844 0.085167
O O5 0.947048 0.228309 0.644177
O O6 0.000000 0.194963 0.500000
O O7 0.053286 0.279377 0.638169
O O8 0.018271 0.000000 0.624374
O O9 0.111108 0.500000 0.858256
O O10 0.137243 0.286584 0.746276
O O11 0.053338 0.256358 0.854200
O O12 0.640358 0.750058 0.252499
O O13 0.556317 0.759442 0.145396
O O14 0.619693 0.000000 0.172670
O O15 0.250000 0.750000 0.500000
O O16 0.157389 0.772379 0.587558
O O17 0.154885 0.763723 0.418948
O O18 0.195114 0.000000 0.502202
O O19 0.375610 0.000000 0.372742
O O20 0.620964 0.500000 0.333372
O O21 0.496714 0.000000 0.903578
O O22 0.500000 0.758409 0.000000
#
# Coordination Sequence:
#
# PCOD8094269 Si02
#       8
#     8   8   8   8   8   8   8   8
#     4  10  21  38  57  79 110 150 189 229 276 332
#     4  10  19  37  60  83 117 159 191 225 285 352
#     4   9  18  33  54  82 115 147 181 224 281 339
#     4  10  20  34  58  88 113 140 186 238 280 329
#     4  11  24  44  63  82 111 153 197 240 290 344
#     4  11  22  36  59  92 120 148 191 240 286 338
#     4  10  22  39  60  83 115 155 188 226 291 353
#     4   9  14  27  54  84 112 143 177 224 280 328
#
# _framework density 19.454868999999999
#
# number of rings (size 3 to 8) (size 9 to 14) (size 15 to 20)
#    0.000    2.000    2.500    1.500    0.000    4.250 
#    0.000    5.000    0.000    1.125    0.000    0.000 
#    0.000    0.000    0.000    0.000    0.000    0.000 
#
# Total GULP energy -396830.724135 kJ/mol
# GULP energy per Si atom -12400.960129 kJ/mol
# Density = 1.941059 g / cm^3
# Si number density = 19.454869 Si / 1000 Ang^3
#
#
#
# Elastic Constant Matrix: (Units=GPa)
#
#
# Indices 1 2 3 4 5 6 
#
# 1 154.5974 32.0438 76.1083 0.0000 -2.6080 0.0000
# 2 32.0438 32.2645 34.2623 0.0000 -0.7460 0.0000
# 3 76.1083 34.2623 154.6417 0.0000 -3.8087 0.0000
# 4 0.0000 0.0000 0.0000 23.7286 0.0000 -1.1352
# 5 -2.6080 -0.7460 -3.8087 0.0000 13.6731 0.0000
# 6 0.0000 0.0000 0.0000 -1.1352 0.0000 33.1959
#
#
#
# Elastic Compliance Matrix: (Units=1/GPa)
#
#
# Indices 1 2 3 4 5 6 
#
# 1 0.009281 -0.005712 -0.003289 0.000000 0.000543 0.000000
# 2 -0.005712 0.044047 -0.006963 0.000000 -0.000626 0.000000
# 3 -0.003289 -0.006963 0.009669 0.000000 0.001686 0.000000
# 4 0.000000 0.000000 0.000000 0.042212 0.000000 0.001444
# 5 0.000543 -0.000626 0.001686 0.000000 0.073676 0.000000
# 6 0.000000 0.000000 0.000000 0.001444 0.000000 0.030174
#
#
# Mechanical properties :
#
#
# Convention : Reuss Voigt Hill
#
# Bulk Modulus (GPa) = 32.18662 69.59250 50.88956
# Shear Modulus (GPa) = 19.89322 27.39211 23.64266
#
# Velocity S-wave (km/s) = 3.20117 3.75638 3.48984
# Velocity P-wave (km/s) = 5.49941 7.39343 6.51561
#
# Compressibility (1/GPa) = 0.03106881
#
# Stress axis : x y z
#
# Youngs Moduli (GPa) = 107.75262 22.70317 103.42044
#
# Poissons Ratio (x) = 0.12969 0.34010
# Poissons Ratio (y) = 0.61552 0.72011
# Poissons Ratio (z) = 0.35434 0.15808
#
# Static dielectric constant tensor:
#      x y z
#    x 3.794300 0.000000 0.102670 
#    y 0.000000 3.186300 0.000000 
#    z 0.102670 0.000000 3.899440 
# 
# 
# High freq. dielectric constant tensor:
#      x y z
#    x 1.760000 0.000000 -0.000770 
#    y 0.000000 1.724500 0.000000 
#    z -0.000770 0.000000 1.774450 
# 
# From -- ./inp_files/238598.got.cif
#   From: 2010.06.25/outbox.cif.g09.slc.cpg/sg12_120_cif.got.tgz:238598.got - 2010.06.28 00:19:55.
