data_PCOD8094062
_publ_section_title
;
Structure prediction by ZEFSAII (Michael W. Deem and Ramdas Pophale) SiO2 
 PCOD8094062
Probable space group: C 2/M
;
_chemical_formula_sum "Si O2"
_cell_formula_units_Z 64
_cell_length_a 15.411588
_cell_length_b 8.556585
_cell_length_c 23.692606
_cell_angle_alpha 90.000000
_cell_angle_beta 88.707944
_cell_angle_gamma 90.000000
_cell_volume 3123.562903
_symmetry_space_group_name_H-M "C 2/M"
_symmetry_group_IT_number 12
_symmetry_cell_setting 'monoclinic'
loop_
_space_group_symop_operation_xyz
x,y,z
-x,y,-z
-x,-y,-z
x,-y,z
1/2+x,1/2+y,z
1/2-x,1/2+y,-z
1/2-x,1/2-y,-z
1/2+x,1/2-y,z
loop_
_atom_site_type_symbol
_atom_site_label
_atom_site_fract_x
_atom_site_fract_y
_atom_site_fract_z
Si Si1 0.269563 0.183636 0.560751
Si Si2 0.611106 0.180520 0.628766
Si Si3 0.356393 0.685226 0.742066
Si Si4 0.929611 0.814651 0.623831
Si Si5 0.246249 0.817438 0.061955
Si Si6 0.103733 0.181059 0.867616
Si Si7 0.910585 0.184833 0.861585
Si Si8 0.659276 0.180312 0.752800
O O1 0.250000 0.250000 0.500000
O O2 0.189734 0.219373 0.603107
O O3 0.356822 0.266378 0.580486
O O4 0.285525 0.000000 0.557758
O O5 0.520550 0.238148 0.603777
O O6 0.606233 0.205772 0.696172
O O7 0.627643 0.000000 0.613239
O O8 0.362102 0.500000 0.740101
O O9 0.404345 0.752102 0.686147
O O10 0.399631 0.754067 0.798472
O O11 0.256906 0.739108 0.741671
O O12 0.939620 0.000000 0.623658
O O13 0.333876 0.782872 0.094491
O O14 0.163684 0.744553 0.096488
O O15 0.233956 0.000000 0.056619
O O16 0.250000 0.750000 0.000000
O O17 0.116459 0.213712 0.801364
O O18 0.004917 0.228005 0.884765
O O19 0.121303 0.000000 0.879855
O O20 0.898392 0.000000 0.857602
O O21 0.658119 0.000000 0.772584
#
# Coordination Sequence:
#
# PCOD8094062 Si02
#       8
#     8   8   8   8   8   8   8   8
#     4  12  26  45  67  92 123 164 213 264 315 371
#     4  11  23  41  64  95 131 168 208 255 310 372
#     4   9  16  33  61  89 120 161 199 237 297 365
#     4  11  22  40  66  96 128 165 207 256 311 374
#     4  11  23  42  63  83 114 157 201 249 303 361
#     4  11  22  37  60  92 120 152 201 250 295 360
#     4   9  19  36  60  85 117 159 197 233 292 362
#     4  10  19  36  62  90 125 165 199 242 303 361
#
# _framework density 20.489422000000001
#
# number of rings (size 3 to 8) (size 9 to 14) (size 15 to 20)
#    0.000    1.500    2.500    3.375    0.000    3.000 
#    0.000    7.500    0.000    0.000    0.000    0.000 
#    0.000    0.000    0.000    0.000    0.000    0.000 
#
# Total GULP energy -396895.923476 kJ/mol
# GULP energy per Si atom -12402.997609 kJ/mol
# Density = 2.044279 g / cm^3
# Si number density = 20.489422 Si / 1000 Ang^3
#
#
#
# Elastic Constant Matrix: (Units=GPa)
#
#
# Indices 1 2 3 4 5 6 
#
# 1 125.1602 15.0303 27.0223 0.0000 13.8642 0.0000
# 2 15.0303 41.4472 20.7185 0.0000 -4.6793 0.0000
# 3 27.0223 20.7185 97.7103 0.0000 13.8228 0.0000
# 4 0.0000 0.0000 0.0000 32.7722 0.0000 1.7312
# 5 13.8642 -4.6793 13.8228 0.0000 15.0475 0.0000
# 6 0.0000 0.0000 0.0000 1.7312 0.0000 30.3311
#
#
#
# Elastic Compliance Matrix: (Units=1/GPa)
#
#
# Indices 1 2 3 4 5 6 
#
# 1 0.009712 -0.004506 -0.000306 0.000000 -0.010068 0.000000
# 2 -0.004506 0.032737 -0.008876 0.000000 0.022485 0.000000
# 3 -0.000306 -0.008876 0.014427 0.000000 -0.015731 0.000000
# 4 0.000000 0.000000 0.000000 0.030606 0.000000 -0.001747
# 5 -0.010068 0.022485 -0.015731 0.000000 0.097176 0.000000
# 6 0.000000 0.000000 0.000000 -0.001747 0.000000 0.033069
#
#
# Mechanical properties :
#
#
# Convention : Reuss Voigt Hill
#
# Bulk Modulus (GPa) = 33.89958 43.31779 38.60868
# Shear Modulus (GPa) = 19.61278 29.06658 24.33968
#
# Velocity S-wave (km/s) = 3.09725 3.77054 3.45035
# Velocity P-wave (km/s) = 5.41954 6.33588 5.89554
#
# Compressibility (1/GPa) = 0.02949889
#
# Stress axis : x y z
#
# Youngs Moduli (GPa) = 102.96285 30.54679 69.31658
#
# Poissons Ratio (x) = 0.13763 0.02123
# Poissons Ratio (y) = 0.46391 0.61528
# Poissons Ratio (z) = 0.03153 0.27115
#
# Static dielectric constant tensor:
#      x y z
#    x 4.758510 0.000000 0.127790 
#    y 0.000000 3.491410 0.000000 
#    z 0.127790 0.000000 3.845330 
# 
# 
# High freq. dielectric constant tensor:
#      x y z
#    x 1.816200 0.000000 0.003040 
#    y 0.000000 1.780580 0.000000 
#    z 0.003040 0.000000 1.800830 
# 
# From -- ./inp_files/338843.got.cif
#   From: 2010.06.25/outbox.cif.g09.slc.cpg/sg12_170_cif.got.tgz:338843.got - 2010.06.28 00:19:55.
