data_PCOD8094193
_publ_section_title
;
Structure prediction by ZEFSAII (Michael W. Deem and Ramdas Pophale) SiO2 
 PCOD8094193
Probable space group: C 2/M
;
_chemical_formula_sum "Si O2"
_cell_formula_units_Z 56
_cell_length_a 9.659239
_cell_length_b 26.241575
_cell_length_c 16.679258
_cell_angle_alpha 90.000000
_cell_angle_beta 136.661521
_cell_angle_gamma 90.000000
_cell_volume 2901.535838
_symmetry_space_group_name_H-M "C 2/M"
_symmetry_group_IT_number 12
_symmetry_cell_setting 'monoclinic'
loop_
_space_group_symop_operation_xyz
x,y,z
-x,y,-z
-x,-y,-z
x,-y,z
1/2+x,1/2+y,z
1/2-x,1/2+y,-z
1/2-x,1/2-y,-z
1/2+x,1/2-y,z
loop_
_atom_site_type_symbol
_atom_site_label
_atom_site_fract_x
_atom_site_fract_y
_atom_site_fract_z
Si Si1 0.099933 0.597994 0.706039
Si Si2 0.776581 0.943700 0.926151
Si Si3 0.901292 0.940807 0.707770
Si Si4 0.833546 0.940546 0.496641
Si Si5 0.342857 0.719597 0.111944
Si Si6 0.824564 0.803879 0.858913
Si Si7 0.792976 0.392201 0.947525
O O1 0.150443 0.553725 0.790925
O O2 0.213840 0.589060 0.669487
O O3 0.174340 0.649255 0.781864
O O4 0.859613 0.596338 0.593374
O O5 0.772763 0.000000 0.963806
O O6 0.691921 0.901520 0.951215
O O7 0.000000 0.925767 0.000000
O O8 0.920171 0.929064 0.621411
O O9 0.108770 0.924180 0.835096
O O10 0.863679 0.000000 0.707833
O O11 0.000000 0.925791 0.500000
O O12 0.772307 0.000000 0.462585
O O13 0.315934 0.755401 0.178208
O O14 0.573402 0.707356 0.184864
O O15 0.225243 0.667374 0.079361
O O16 0.250000 0.750000 0.000000
O O17 0.000000 0.814625 0.000000
O O18 0.000000 0.413794 0.000000
#
# Coordination Sequence:
#
# PCOD8094193 Si02
#       7
#     8   8   8   8   8   8   8
#     4  12  21  38  64  90 118 162 207 252 301 363
#     4  11  21  34  54  86 127 162 195 238 298 369
#     4  11  23  41  62  88 124 163 205 247 297 367
#     4  10  24  44  63  88 119 159 211 257 299 356
#     4  10  19  37  57  85 122 161 199 246 295 358
#     4  10  20  36  60  92 124 156 202 251 304 360
#     4  12  24  37  57  92 129 163 200 245 308 366
#
# _framework density 19.300122000000002
#
# number of rings (size 3 to 8) (size 9 to 14) (size 15 to 20)
#    0.000    1.143    2.857    5.571    2.000    2.286 
#    0.000    0.000    0.000    0.857    0.000    0.000 
#    0.000    0.000    0.000    0.000    0.000    0.000 
#
# Total GULP energy -347116.054869 kJ/mol
# GULP energy per Si atom -12397.001960 kJ/mol
# Density = 1.925619 g / cm^3
# Si number density = 19.300122 Si / 1000 Ang^3
#
#
#
# Elastic Constant Matrix: (Units=GPa)
#
#
# Indices 1 2 3 4 5 6 
#
# 1 148.4674 39.7591 42.8234 0.0000 8.7724 0.0000
# 2 39.7591 80.0473 9.6339 0.0001 1.2379 0.0000
# 3 42.8234 9.6339 62.2635 0.0003 4.8023 0.0001
# 4 0.0000 0.0001 0.0003 15.3795 0.0001 -0.0050
# 5 8.7724 1.2379 4.8023 0.0001 35.1832 0.0000
# 6 0.0000 0.0000 0.0001 -0.0050 0.0000 34.9600
#
#
#
# Elastic Compliance Matrix: (Units=1/GPa)
#
#
# Indices 1 2 3 4 5 6 
#
# 1 0.009593 -0.004037 -0.005861 0.000000 -0.001450 0.000000
# 2 -0.004037 0.014430 0.000511 0.000000 0.000429 0.000000
# 3 -0.005861 0.000511 0.020113 0.000000 -0.001302 0.000000
# 4 0.000000 0.000000 0.000000 0.065022 0.000000 0.000009
# 5 -0.001450 0.000429 -0.001302 0.000000 0.028947 0.000000
# 6 0.000000 0.000000 0.000000 0.000009 0.000000 0.028604
#
#
# Mechanical properties :
#
#
# Convention : Reuss Voigt Hill
#
# Bulk Modulus (GPa) = 39.43069 52.80121 46.11595
# Shear Modulus (GPa) = 25.78157 30.34199 28.06178
#
# Velocity S-wave (km/s) = 3.65886 3.96929 3.81723
# Velocity P-wave (km/s) = 6.19066 6.95876 6.58592
#
# Compressibility (1/GPa) = 0.02536096
#
# Stress axis : x y z
#
# Youngs Moduli (GPa) = 104.24473 69.30200 49.71800
#
# Poissons Ratio (x) = 0.27976 0.29141
# Poissons Ratio (y) = 0.42082 -0.02539
# Poissons Ratio (z) = 0.61101 -0.03539
#
# Static dielectric constant tensor:
#      x y z
#    x 3.987630 0.000000 -0.023840 
#    y 0.000000 3.571230 0.000000 
#    z -0.023840 0.000000 3.338320 
# 
# 
# High freq. dielectric constant tensor:
#      x y z
#    x 1.768140 0.000000 0.001280 
#    y 0.000000 1.748750 0.000000 
#    z 0.001280 0.000000 1.715870 
# 
# From -- ./inp_files/259859.got.cif
#   From: 2010.06.25/outbox.cif.g09.slc.cpg/sg12_130_cif.got.tgz:259859.got - 2010.06.28 00:19:55.
