data_PCOD8094840
_publ_section_title
;
Structure prediction by ZEFSAII (Michael W. Deem and Ramdas Pophale) SiO2 
 PCOD8094840
Probable space group: C 2/M
;
_chemical_formula_sum "Si O2"
_cell_formula_units_Z 44
_cell_length_a 8.874277
_cell_length_b 22.128017
_cell_length_c 11.581302
_cell_angle_alpha 90.000000
_cell_angle_beta 71.931664
_cell_angle_gamma 90.000000
_cell_volume 2162.073961
_symmetry_space_group_name_H-M "C 2/M"
_symmetry_group_IT_number 12
_symmetry_cell_setting 'monoclinic'
loop_
_space_group_symop_operation_xyz
x,y,z
-x,y,-z
-x,-y,-z
x,-y,z
1/2+x,1/2+y,z
1/2-x,1/2+y,-z
1/2-x,1/2-y,-z
1/2+x,1/2-y,z
loop_
_atom_site_type_symbol
_atom_site_label
_atom_site_fract_x
_atom_site_fract_y
_atom_site_fract_z
Si Si1 0.514777 0.931330 0.363919
Si Si2 0.741635 0.065766 0.757035
Si Si3 0.376086 0.830974 0.824734
Si Si4 0.049992 0.168862 0.366190
Si Si5 0.171632 0.754054 0.727675
Si Si6 0.000000 0.392411 0.000000
O O1 0.500000 0.910315 0.500000
O O2 0.340385 0.928412 0.348742
O O3 0.629187 0.885076 0.268451
O O4 0.583043 0.000000 0.339764
O O5 0.874417 0.117616 0.734798
O O6 0.604020 0.068912 0.886374
O O7 0.823343 0.000000 0.750339
O O8 0.229430 0.786378 0.833409
O O9 0.545858 0.797742 0.781955
O O10 0.368930 0.854569 0.957861
O O11 0.172375 0.223314 0.363732
O O12 0.000000 0.139852 0.500000
O O13 0.894649 0.194897 0.341303
#
# Coordination Sequence:
#
# PCOD8094840 Si02
#       6
#     8   8   8   8   8   4
#     4   9  18  33  56  82 114 148 193 245 287 344
#     4  10  21  39  61  90 117 155 201 244 300 353
#     4  10  21  37  60  87 116 156 198 245 295 345
#     4  11  22  38  59  88 122 161 194 240 299 356
#     4  10  22  39  55  88 121 157 200 241 293 355
#     4  10  19  40  64  88 114 156 205 244 292 354
#
# _framework density 20.350830999999999
#
# number of rings (size 3 to 8) (size 9 to 14) (size 15 to 20)
#    0.000    2.000    3.636    0.818    2.545    4.727 
#    0.000    0.909    0.000    1.091    0.000    0.000 
#    0.000    0.000    0.000    0.000    0.000    0.000 
#
# Total GULP energy -272693.168818 kJ/mol
# GULP energy per Si atom -12395.144037 kJ/mol
# Density = 2.030451 g / cm^3
# Si number density = 20.350831 Si / 1000 Ang^3
#
#
#
# Elastic Constant Matrix: (Units=GPa)
#
#
# Indices 1 2 3 4 5 6 
#
# 1 86.5833 38.6607 31.5560 0.0000 7.8604 0.0000
# 2 38.6607 112.3853 39.2712 0.0000 4.1795 0.0000
# 3 31.5560 39.2712 99.1377 0.0000 21.9844 0.0000
# 4 0.0000 0.0000 0.0000 13.3851 0.0000 5.2923
# 5 7.8604 4.1795 21.9844 0.0000 25.8437 0.0000
# 6 0.0000 0.0000 0.0000 5.2923 0.0000 16.2596
#
#
#
# Elastic Compliance Matrix: (Units=1/GPa)
#
#
# Indices 1 2 3 4 5 6 
#
# 1 0.014438 -0.003969 -0.002702 0.000000 -0.001451 0.000000
# 2 -0.003969 0.011524 -0.003890 0.000000 0.002652 0.000000
# 3 -0.002702 -0.003890 0.014995 0.000000 -0.011305 0.000000
# 4 0.000000 0.000000 0.000000 0.085745 0.000000 -0.027909
# 5 -0.001451 0.002652 -0.011305 0.000000 0.048323 0.000000
# 6 0.000000 0.000000 0.000000 -0.027909 0.000000 0.070586
#
#
# Mechanical properties :
#
#
# Convention : Reuss Voigt Hill
#
# Bulk Modulus (GPa) = 50.41333 57.45357 53.93345
# Shear Modulus (GPa) = 18.29203 23.67224 20.98214
#
# Velocity S-wave (km/s) = 3.00131 3.41428 3.21444
# Velocity P-wave (km/s) = 6.06930 6.62087 6.35108
#
# Compressibility (1/GPa) = 0.01983602
#
# Stress axis : x y z
#
# Youngs Moduli (GPa) = 69.26132 86.77701 66.68998
#
# Poissons Ratio (x) = 0.34439 0.18018
# Poissons Ratio (y) = 0.27487 0.25941
# Poissons Ratio (z) = 0.18713 0.33755
#
# Static dielectric constant tensor:
#      x y z
#    x 3.555670 0.000000 0.295420 
#    y 0.000000 3.853670 0.000000 
#    z 0.295420 0.000000 3.471070 
# 
# 
# High freq. dielectric constant tensor:
#      x y z
#    x 1.774870 0.000000 0.020970 
#    y 0.000000 1.806880 0.000000 
#    z 0.020970 0.000000 1.777020 
# 
# From -- ./inp_files/121774.got.cif
#   From: 2010.06.25/outbox.cif.g09.slc.cpg/sg12_61_cif.got.tgz:121774.got - 2010.06.28 00:19:55.
