data_PCOD8094597
_publ_section_title
;
Structure prediction by ZEFSAII (Michael W. Deem and Ramdas Pophale) SiO2 
 PCOD8094597
Probable space group: C 2/M
;
_chemical_formula_sum "Si O2"
_cell_formula_units_Z 56
_cell_length_a 23.329619
_cell_length_b 14.213307
_cell_length_c 9.353076
_cell_angle_alpha 90.000000
_cell_angle_beta 58.923284
_cell_angle_gamma 90.000000
_cell_volume 2656.274252
_symmetry_space_group_name_H-M "C 2/M"
_symmetry_group_IT_number 12
_symmetry_cell_setting 'monoclinic'
loop_
_space_group_symop_operation_xyz
x,y,z
-x,y,-z
-x,-y,-z
x,-y,z
1/2+x,1/2+y,z
1/2-x,1/2+y,-z
1/2-x,1/2-y,-z
1/2+x,1/2-y,z
loop_
_atom_site_type_symbol
_atom_site_label
_atom_site_fract_x
_atom_site_fract_y
_atom_site_fract_z
Si Si1 0.593407 0.209596 0.240363
Si Si2 0.107361 0.104571 0.667766
Si Si3 0.621645 0.109299 0.492821
Si Si4 0.716748 0.191562 0.919727
Si Si5 0.232600 0.821409 0.645315
Si Si6 0.529050 0.215304 0.810345
Si Si7 0.648746 0.606034 0.294561
O O1 0.587595 0.159776 0.400886
O O2 0.523611 0.207756 0.249816
O O3 0.616197 0.318918 0.228172
O O4 0.646761 0.152264 0.072538
O O5 0.177027 0.105051 0.664823
O O6 0.053832 0.177648 0.799478
O O7 0.121494 0.131897 0.485749
O O8 0.076931 0.000000 0.719062
O O9 0.701395 0.124388 0.386422
O O10 0.591646 0.151100 0.679487
O O11 0.604454 0.000000 0.507649
O O12 0.699382 0.261388 0.813747
O O13 0.769921 0.111500 0.805213
O O14 0.750000 0.250000 0.000000
O O15 0.250000 0.750000 0.500000
O O16 0.500000 0.179737 0.000000
O O17 0.628509 0.500000 0.274923
#
# Coordination Sequence:
#
# PCOD8094597 Si02
#       7
#     8   8   8   8   8   8   8
#     4  11  23  43  66  94 131 175 218 262 321 384
#     4  11  23  40  66 101 131 167 214 263 324 389
#     4  12  26  45  68  95 126 171 225 270 322 382
#     4  10  19  38  61  93 128 163 211 262 314 379
#     4  12  19  41  71  93 132 171 208 266 327 379
#     4  12  26  45  68  91 133 174 211 271 324 384
#     4  10  20  38  65  97 130 167 214 265 319 383
#
# _framework density 21.082159999999998
#
# number of rings (size 3 to 8) (size 9 to 14) (size 15 to 20)
#    0.000    0.857    7.143    1.714    0.000    2.857 
#    0.000    5.000    0.000    0.000    0.000    0.000 
#    0.000    0.000    0.000    0.000    0.000    0.000 
#
# Total GULP energy -347179.679445 kJ/mol
# GULP energy per Si atom -12399.274266 kJ/mol
# Density = 2.103418 g / cm^3
# Si number density = 21.082160 Si / 1000 Ang^3
#
#
#
# Elastic Constant Matrix: (Units=GPa)
#
#
# Indices 1 2 3 4 5 6 
#
# 1 91.1245 15.0187 8.0212 0.0000 3.7320 0.0000
# 2 15.0187 92.8556 27.8990 0.0000 6.1611 0.0000
# 3 8.0212 27.8990 114.0941 0.0000 0.9771 0.0000
# 4 0.0000 0.0000 0.0000 16.8233 0.0000 -0.5043
# 5 3.7320 6.1611 0.9771 0.0000 31.5831 0.0000
# 6 0.0000 0.0000 0.0000 -0.5043 0.0000 19.7412
#
#
#
# Elastic Compliance Matrix: (Units=1/GPa)
#
#
# Indices 1 2 3 4 5 6 
#
# 1 0.011321 -0.001649 -0.000384 0.000000 -0.001004 0.000000
# 2 -0.001649 0.012016 -0.002805 0.000000 -0.002062 0.000000
# 3 -0.000384 -0.002805 0.009475 0.000000 0.000299 0.000000
# 4 0.000000 0.000000 0.000000 0.059487 0.000000 0.001520
# 5 -0.001004 -0.002062 0.000299 0.000000 0.032174 0.000000
# 6 0.000000 0.000000 0.000000 0.001520 0.000000 0.050694
#
#
# Mechanical properties :
#
#
# Convention : Reuss Voigt Hill
#
# Bulk Modulus (GPa) = 43.22266 44.43909 43.83087
# Shear Modulus (GPa) = 25.96675 30.10520 28.03598
#
# Velocity S-wave (km/s) = 3.51336 3.78298 3.65066
# Velocity P-wave (km/s) = 6.08315 6.34082 6.21332
#
# Compressibility (1/GPa) = 0.02313601
#
# Stress axis : x y z
#
# Youngs Moduli (GPa) = 88.33364 83.22505 105.54181
#
# Poissons Ratio (x) = 0.13724 0.04053
# Poissons Ratio (y) = 0.14566 0.29600
# Poissons Ratio (z) = 0.03392 0.23341
#
# Static dielectric constant tensor:
#      x y z
#    x 4.115220 0.000000 -0.421670 
#    y 0.000000 3.625880 0.000000 
#    z -0.421670 0.000000 4.320820 
# 
# 
# High freq. dielectric constant tensor:
#      x y z
#    x 1.823810 0.000000 -0.001350 
#    y 0.000000 1.805080 0.000000 
#    z -0.001350 0.000000 1.837700 
# 
# From -- ./inp_files/96800.got.cif
#   From: 2010.06.25/outbox.cif.g09.slc.cpg/sg12_49_cif.got.tgz:96800.got - 2010.06.28 00:19:55.
