data_PCOD8094053
_publ_section_title
;
Structure prediction by ZEFSAII (Michael W. Deem and Ramdas Pophale) SiO2 
 PCOD8094053
Probable space group: C 2/M
;
_chemical_formula_sum "Si O2"
_cell_formula_units_Z 56
_cell_length_a 26.034535
_cell_length_b 13.276258
_cell_length_c 9.314863
_cell_angle_alpha 90.000000
_cell_angle_beta 64.108020
_cell_angle_gamma 90.000000
_cell_volume 2896.413460
_symmetry_space_group_name_H-M "C 2/M"
_symmetry_group_IT_number 12
_symmetry_cell_setting 'monoclinic'
loop_
_space_group_symop_operation_xyz
x,y,z
-x,y,-z
-x,-y,-z
x,-y,z
1/2+x,1/2+y,z
1/2-x,1/2+y,-z
1/2-x,1/2-y,-z
1/2+x,1/2-y,z
loop_
_atom_site_type_symbol
_atom_site_label
_atom_site_fract_x
_atom_site_fract_y
_atom_site_fract_z
Si Si1 0.667618 0.388302 0.753044
Si Si2 0.378448 0.112101 0.537302
Si Si3 0.990613 0.718188 0.347454
Si Si4 0.217432 0.277651 0.894988
Si Si5 0.544242 0.615901 0.827561
Si Si6 0.205435 0.209526 0.443087
Si Si7 0.607068 0.885679 0.146190
O O1 0.683666 0.500000 0.781947
O O2 0.704094 0.321182 0.817512
O O3 0.601320 0.363608 0.848695
O O4 0.676062 0.379281 0.569185
O O5 0.443217 0.129905 0.404045
O O6 0.337556 0.198392 0.530191
O O7 0.374107 0.115551 0.713199
O O8 0.360166 0.000000 0.505872
O O9 0.965000 0.815206 0.299904
O O10 0.000000 0.752245 0.500000
O O11 0.048499 0.677930 0.200517
O O12 0.264450 0.335160 0.737735
O O13 0.250000 0.250000 0.000000
O O14 0.159332 0.339519 0.989943
O O15 0.539212 0.500000 0.782946
O O16 0.500000 0.648047 0.000000
O O17 0.250000 0.250000 0.500000
O O18 0.596610 0.000000 0.105361
#
# Coordination Sequence:
#
# PCOD8094053 Si02
#       7
#     8   8   8   8   8   8   8
#     4  10  22  40  60  83 114 157 202 244 298 364
#     4  10  19  36  62  89 118 157 200 244 301 361
#     4  10  20  36  62  89 121 157 200 250 299 356
#     4  11  22  38  62  88 121 156 202 254 307 355
#     4  10  20  36  60  85 116 157 196 241 302 360
#     4  10  21  37  59  86 118 159 199 244 296 357
#     4  10  21  37  59  90 122 155 196 249 305 361
#
# _framework density 19.334256
#
# number of rings (size 3 to 8) (size 9 to 14) (size 15 to 20)
#    0.000    1.857    2.857    1.286    0.000    5.429 
#    0.000    2.143    0.000    2.571    0.000    0.000 
#    0.000    0.000    0.000    0.000    0.000    0.000 
#
# Total GULP energy -346933.089448 kJ/mol
# GULP energy per Si atom -12390.467480 kJ/mol
# Density = 1.929025 g / cm^3
# Si number density = 19.334256 Si / 1000 Ang^3
#
#
#
# Elastic Constant Matrix: (Units=GPa)
#
#
# Indices 1 2 3 4 5 6 
#
# 1 67.4161 42.8913 37.2802 0.0000 -3.4014 0.0000
# 2 42.8913 79.3359 36.5535 0.0000 7.3835 0.0000
# 3 37.2802 36.5535 113.9208 0.0000 -12.5547 0.0000
# 4 0.0000 0.0000 0.0000 6.3877 0.0000 12.5096
# 5 -3.4014 7.3835 -12.5547 0.0000 34.6996 0.0000
# 6 0.0000 0.0000 0.0000 12.5096 0.0000 19.2421
#
#
#
# Elastic Compliance Matrix: (Units=1/GPa)
#
#
# Indices 1 2 3 4 5 6 
#
# 1 0.024742 -0.011920 -0.003880 0.000000 0.003558 0.000000
# 2 -0.011920 0.021441 -0.003761 0.000000 -0.007091 0.000000
# 3 -0.003880 -0.003761 0.011770 0.000000 0.004678 0.000000
# 4 0.000000 0.000000 0.000000 -0.573066 0.000000 0.372561
# 5 0.003558 -0.007091 0.004678 0.000000 0.032369 0.000000
# 6 0.000000 0.000000 0.000000 0.372561 0.000000 -0.190239
#
#
# Mechanical properties :
#
#
# Convention : Reuss Voigt Hill
#
# Bulk Modulus (GPa) = 53.09924 54.90253 54.00089
# Shear Modulus (GPa) = -7.96705 21.66239 6.84767
#
# Velocity S-wave (km/s) = -2.03215 3.35089 1.88399
# Velocity P-wave (km/s) = 4.69225 6.59010 5.72043
#
# Compressibility (1/GPa) = 0.01883266
#
# Stress axis : x y z
#
# Youngs Moduli (GPa) = 40.41746 46.63870 84.96155
#
# Poissons Ratio (x) = 0.55591 0.32965
# Poissons Ratio (y) = 0.48176 0.31952
# Poissons Ratio (z) = 0.15682 0.17540
#
# Static dielectric constant tensor:
#      x y z
#    x 0.738300 0.000000 3.991110 
#    y 0.000000 3.488950 0.000000 
#    z 3.991110 0.000000 -2.644080 
# 
# 
# High freq. dielectric constant tensor:
#      x y z
#    x 1.764770 0.000000 -0.017460 
#    y 0.000000 1.739280 0.000000 
#    z -0.017460 0.000000 1.756450 
# 
# From -- ./inp_files/103120.got.cif
#   From: 2010.06.25/outbox.cif.g09.slc.cpg/sg12_52_cif.got.tgz:103120.got - 2010.06.28 00:19:55.
