data_PCOD8094679
_publ_section_title
;
Structure prediction by ZEFSAII (Michael W. Deem and Ramdas Pophale) SiO2 
 PCOD8094679
Probable space group: C 2/M
;
_chemical_formula_sum "Si O2"
_cell_formula_units_Z 64
_cell_length_a 22.672657
_cell_length_b 13.241010
_cell_length_c 11.395064
_cell_angle_alpha 90.000000
_cell_angle_beta 80.412581
_cell_angle_gamma 90.000000
_cell_volume 3373.118420
_symmetry_space_group_name_H-M "C 2/M"
_symmetry_group_IT_number 12
_symmetry_cell_setting 'monoclinic'
loop_
_space_group_symop_operation_xyz
x,y,z
-x,y,-z
-x,-y,-z
x,-y,z
1/2+x,1/2+y,z
1/2-x,1/2+y,-z
1/2-x,1/2-y,-z
1/2+x,1/2-y,z
loop_
_atom_site_type_symbol
_atom_site_label
_atom_site_fract_x
_atom_site_fract_y
_atom_site_fract_z
Si Si1 0.804467 0.615232 0.032491
Si Si2 0.889874 0.614285 0.214977
Si Si3 0.056728 0.116341 0.554605
Si Si4 0.579920 0.383286 0.038059
Si Si5 0.962180 0.808133 0.183865
Si Si6 0.292852 0.114573 0.441957
Si Si7 0.826520 0.208669 0.588495
Si Si8 0.316072 0.290063 0.858832
O O1 0.790340 0.500000 0.003439
O O2 0.863183 0.623002 0.093330
O O3 0.749719 0.662640 0.123220
O O4 0.815137 0.676520 0.909374
O O5 0.912942 0.500000 0.230108
O O6 0.945431 0.690601 0.209781
O O7 0.838627 0.644613 0.324117
O O8 0.044814 0.128311 0.695931
O O9 0.114292 0.180086 0.500878
O O10 0.000000 0.157015 0.500000
O O11 0.068586 0.000000 0.519775
O O12 0.562685 0.500000 0.061333
O O13 0.530576 0.314054 0.118635
O O14 0.644134 0.361679 0.071910
O O15 0.581645 0.356889 0.899306
O O16 0.225446 0.127346 0.417239
O O17 0.304040 0.182312 0.552597
O O18 0.301911 0.000000 0.478980
O O19 0.842647 0.214131 0.719983
#
# Coordination Sequence:
#
# PCOD8094679 Si02
#       8
#     8   8   8   8   8   8   8   8
#     4  10  21  38  59  85 118 153 192 238 289 345
#     4  10  19  38  65  85 112 153 194 236 285 340
#     4  11  23  38  58  85 118 154 191 236 287 340
#     4  11  23  38  60  87 118 155 189 238 295 345
#     4  11  21  40  59  85 116 152 192 239 283 343
#     4  10  21  38  59  84 115 154 192 235 289 342
#     4  11  22  36  59  87 116 151 194 239 284 346
#     4  11  22  37  59  87 119 154 191 237 292 352
#
# _framework density 18.973541000000001
#
# number of rings (size 3 to 8) (size 9 to 14) (size 15 to 20)
#    0.000    1.375    3.750    3.000    0.000    3.000 
#    0.000    1.875    0.000    3.000    0.000    0.000 
#    0.000    0.000    0.000    0.000    0.000    0.000 
#
# Total GULP energy -396958.166664 kJ/mol
# GULP energy per Si atom -12404.942708 kJ/mol
# Density = 1.893036 g / cm^3
# Si number density = 18.973541 Si / 1000 Ang^3
#
#
#
# Elastic Constant Matrix: (Units=GPa)
#
#
# Indices 1 2 3 4 5 6 
#
# 1 66.2648 30.8065 26.2807 0.0000 0.5309 0.0000
# 2 30.8065 103.7261 19.0664 0.0000 -0.5184 0.0000
# 3 26.2807 19.0664 109.9566 0.0000 7.6335 0.0000
# 4 0.0000 0.0000 0.0000 23.9477 0.0000 -1.9588
# 5 0.5309 -0.5184 7.6335 0.0000 27.9211 0.0000
# 6 0.0000 0.0000 0.0000 -1.9588 0.0000 28.9252
#
#
#
# Elastic Compliance Matrix: (Units=1/GPa)
#
#
# Indices 1 2 3 4 5 6 
#
# 1 0.018833 -0.004913 -0.003688 0.000000 0.000559 0.000000
# 2 -0.004913 0.011252 -0.000813 0.000000 0.000525 0.000000
# 3 -0.003688 -0.000813 0.010309 0.000000 -0.002763 0.000000
# 4 0.000000 0.000000 0.000000 0.041990 0.000000 0.002844
# 5 0.000559 0.000525 -0.002763 0.000000 0.036570 0.000000
# 6 0.000000 0.000000 0.000000 0.002844 0.000000 0.034764
#
#
# Mechanical properties :
#
#
# Convention : Reuss Voigt Hill
#
# Bulk Modulus (GPa) = 46.37039 48.02830 47.19935
# Shear Modulus (GPa) = 27.81863 29.74505 28.78184
#
# Velocity S-wave (km/s) = 3.83323 3.96373 3.89902
# Velocity P-wave (km/s) = 6.63958 6.80562 6.72311
#
# Compressibility (1/GPa) = 0.02156549
#
# Stress axis : x y z
#
# Youngs Moduli (GPa) = 53.09780 88.87346 97.00349
#
# Poissons Ratio (x) = 0.43661 0.35778
# Poissons Ratio (y) = 0.26085 0.07890
# Poissons Ratio (z) = 0.19584 0.07228
#
# Static dielectric constant tensor:
#      x y z
#    x 3.373880 0.000000 0.053260 
#    y 0.000000 3.457150 0.000000 
#    z 0.053260 0.000000 3.428880 
# 
# 
# High freq. dielectric constant tensor:
#      x y z
#    x 1.732410 0.000000 0.002030 
#    y 0.000000 1.738730 0.000000 
#    z 0.002030 0.000000 1.739350 
# 
# From -- ./inp_files/174620.got.cif
#   From: 2010.06.25/outbox.cif.g09.slc.cpg/sg12_88_cif.got.tgz:174620.got - 2010.06.28 00:19:55.
