data_PCOD8094403
_publ_section_title
;
Structure prediction by ZEFSAII (Michael W. Deem and Ramdas Pophale) SiO2 
 PCOD8094403
Probable space group: C 2/M
;
_chemical_formula_sum "Si O2"
_cell_formula_units_Z 64
_cell_length_a 15.298047
_cell_length_b 17.017580
_cell_length_c 12.627568
_cell_angle_alpha 90.000000
_cell_angle_beta 116.589898
_cell_angle_gamma 90.000000
_cell_volume 2939.708596
_symmetry_space_group_name_H-M "C 2/M"
_symmetry_group_IT_number 12
_symmetry_cell_setting 'monoclinic'
loop_
_space_group_symop_operation_xyz
x,y,z
-x,y,-z
-x,-y,-z
x,-y,z
1/2+x,1/2+y,z
1/2-x,1/2+y,-z
1/2-x,1/2-y,-z
1/2+x,1/2-y,z
loop_
_atom_site_type_symbol
_atom_site_label
_atom_site_fract_x
_atom_site_fract_y
_atom_site_fract_z
Si Si1 0.237647 0.908868 0.970209
Si Si2 0.661428 0.409230 0.290490
Si Si3 0.679060 0.839094 0.778264
Si Si4 0.974722 0.326798 0.874101
Si Si5 0.733147 0.159745 0.461716
Si Si6 0.528853 0.339917 0.895209
Si Si7 0.024328 0.408655 0.332738
Si Si8 0.241232 0.677879 0.228844
O O1 0.125510 0.888089 0.925630
O O2 0.264179 0.889642 0.862917
O O3 0.255760 0.000000 0.001195
O O4 0.306618 0.861480 0.090050
O O5 0.650389 0.500000 0.260688
O O6 0.734196 0.375284 0.242607
O O7 0.700519 0.395155 0.429737
O O8 0.555082 0.370590 0.227845
O O9 0.575514 0.870525 0.675536
O O10 0.682715 0.744852 0.766344
O O11 0.981500 0.398753 0.797079
O O12 0.867476 0.286136 0.818231
O O13 0.046125 0.253655 0.883456
O O14 0.000000 0.365031 0.000000
O O15 0.750000 0.250000 0.500000
O O16 0.619906 0.137627 0.424719
O O17 0.767109 0.143046 0.359044
O O18 0.500000 0.354784 0.000000
O O19 0.030574 0.500000 0.367594
#
# Coordination Sequence:
#
# PCOD8094403 Si02
#       8
#     8   8   8   8   8   8   8   8
#     4  12  25  39  64 103 141 172 217 279 344 397
#     4  12  23  39  67  95 128 170 218 280 336 389
#     4  12  22  42  64  99 138 171 218 271 334 406
#     4  10  19  37  62  89 124 174 224 262 318 396
#     4  11  24  48  67  88 124 174 230 268 320 399
#     4  11  21  41  65  96 131 172 228 274 329 395
#     4  11  24  39  62  96 132 167 210 270 333 392
#     4  11  23  42  67  90 129 178 222 272 331 403
#
# _framework density 21.770866000000002
#
# number of rings (size 3 to 8) (size 9 to 14) (size 15 to 20)
#    0.000    0.750    3.750    5.250    0.000    3.750 
#    0.000    3.125    0.000    1.500    0.000    0.000 
#    0.000    0.000    0.000    0.000    0.000    0.000 
#
# Total GULP energy -396835.894485 kJ/mol
# GULP energy per Si atom -12401.121703 kJ/mol
# Density = 2.172131 g / cm^3
# Si number density = 21.770866 Si / 1000 Ang^3
#
#
#
# Elastic Constant Matrix: (Units=GPa)
#
#
# Indices 1 2 3 4 5 6 
#
# 1 66.5684 20.4945 22.2475 0.0000 17.0995 0.0000
# 2 20.4945 78.3045 8.2922 0.0000 11.4367 0.0000
# 3 22.2475 8.2922 114.2149 0.0000 0.7765 0.0000
# 4 0.0000 0.0000 0.0000 31.7498 0.0000 0.6297
# 5 17.0995 11.4367 0.7765 0.0000 44.7843 0.0000
# 6 0.0000 0.0000 0.0000 0.6297 0.0000 23.2916
#
#
#
# Elastic Compliance Matrix: (Units=1/GPa)
#
#
# Indices 1 2 3 4 5 6 
#
# 1 0.018874 -0.003676 -0.003367 0.000000 -0.006209 0.000000
# 2 -0.003676 0.014083 -0.000291 0.000000 -0.002188 0.000000
# 3 -0.003367 -0.000291 0.009424 0.000000 0.001197 0.000000
# 4 0.000000 0.000000 0.000000 0.031513 0.000000 -0.000852
# 5 -0.006209 -0.002188 0.001197 0.000000 0.025238 0.000000
# 6 0.000000 0.000000 0.000000 -0.000852 0.000000 0.042957
#
#
# Mechanical properties :
#
#
# Convention : Reuss Voigt Hill
#
# Bulk Modulus (GPa) = 36.08614 40.12848 38.10731
# Shear Modulus (GPa) = 30.12084 33.83537 31.97811
#
# Velocity S-wave (km/s) = 3.72363 3.94656 3.83671
# Velocity P-wave (km/s) = 5.92441 6.26413 6.09664
#
# Compressibility (1/GPa) = 0.02771147
#
# Stress axis : x y z
#
# Youngs Moduli (GPa) = 52.98170 71.00621 106.10794
#
# Poissons Ratio (x) = 0.26105 0.35730
# Poissons Ratio (y) = 0.19479 0.03093
# Poissons Ratio (z) = 0.17841 0.02070
#
# Static dielectric constant tensor:
#      x y z
#    x 4.085600 0.000000 0.051620 
#    y 0.000000 3.788420 0.000000 
#    z 0.051620 0.000000 4.214780 
# 
# 
# High freq. dielectric constant tensor:
#      x y z
#    x 1.857350 0.000000 0.006440 
#    y 0.000000 1.846530 0.000000 
#    z 0.006440 0.000000 1.864270 
# 
# From -- ./inp_files/216392.got.cif
#   From: 2010.06.25/outbox.cif.g09.slc.cpg/sg12_109_cif.got.tgz:216392.got - 2010.06.28 00:19:55.
