data_PCOD8094061
_publ_section_title
;
Structure prediction by ZEFSAII (Michael W. Deem and Ramdas Pophale) SiO2 
 PCOD8094061
Probable space group: C 2/M
;
_chemical_formula_sum "Si O2"
_cell_formula_units_Z 40
_cell_length_a 14.871296
_cell_length_b 17.115697
_cell_length_c 14.655862
_cell_angle_alpha 90.000000
_cell_angle_beta 30.781908
_cell_angle_gamma 90.000000
_cell_volume 1909.110053
_symmetry_space_group_name_H-M "C 2/M"
_symmetry_group_IT_number 12
_symmetry_cell_setting 'monoclinic'
loop_
_space_group_symop_operation_xyz
x,y,z
-x,y,-z
-x,-y,-z
x,-y,z
1/2+x,1/2+y,z
1/2-x,1/2+y,-z
1/2-x,1/2-y,-z
1/2+x,1/2-y,z
loop_
_atom_site_type_symbol
_atom_site_label
_atom_site_fract_x
_atom_site_fract_y
_atom_site_fract_z
Si Si1 0.507148 0.092225 0.392413
Si Si2 0.385264 0.408056 0.018458
Si Si3 0.032830 0.408624 0.077866
Si Si4 0.272265 0.162078 0.448558
Si Si5 0.923676 0.091002 0.781989
O O1 0.500000 0.128358 0.500000
O O2 0.686738 0.124618 0.191337
O O3 0.342609 0.116560 0.475379
O O4 0.504173 0.000000 0.400926
O O5 0.375922 0.500000 0.043563
O O6 0.500000 0.369490 0.000000
O O7 0.467943 0.388668 0.848709
O O8 0.009614 0.500000 0.127618
O O9 0.900142 0.353720 0.250908
O O10 0.230296 0.378332 0.924629
O O11 0.000000 0.397402 0.000000
O O12 0.250000 0.250000 0.500000
O O13 0.078137 0.131545 0.589338
O O14 0.930452 0.000000 0.754927
#
# Coordination Sequence:
#
# PCOD8094061 Si02
#       5
#     8   8   8   8   8
#     4  10  19  36  62  90 123 163 214 268 314 380
#     4   9  16  29  55  90 119 148 197 259 317 369
#     4  10  22  44  71  95 121 166 229 280 312 362
#     4  12  25  41  60  94 137 172 204 261 338 407
#     4  10  20  38  66  91 119 163 217 274 316 371
#
# _framework density 20.952169999999999
#
# number of rings (size 3 to 8) (size 9 to 14) (size 15 to 20)
#    0.000    1.800    2.000    3.000    0.000    4.800 
#    3.600    4.000    0.000    0.000    0.000    0.000 
#    0.000    0.000    0.000    0.000    0.000    0.000 
#
# Total GULP energy -247923.599856 kJ/mol
# GULP energy per Si atom -12396.179993 kJ/mol
# Density = 2.090448 g / cm^3
# Si number density = 20.952170 Si / 1000 Ang^3
#
#
#
# Elastic Constant Matrix: (Units=GPa)
#
#
# Indices 1 2 3 4 5 6 
#
# 1 108.8004 24.6507 51.9970 -0.0006 -6.6661 0.0019
# 2 24.6507 44.7569 52.4789 -0.0020 -1.4116 0.0050
# 3 51.9970 52.4789 168.9272 -0.0004 -21.5717 0.0048
# 4 -0.0006 -0.0020 -0.0004 20.4046 0.0018 4.8905
# 5 -6.6661 -1.4116 -21.5717 0.0018 35.2024 -0.0041
# 6 0.0019 0.0050 0.0048 4.8905 -0.0041 7.1500
#
#
#
# Elastic Compliance Matrix: (Units=1/GPa)
#
#
# Indices 1 2 3 4 5 6 
#
# 1 0.011089 -0.003417 -0.002280 -0.000001 0.000566 0.000002
# 2 -0.003417 0.037296 -0.011311 0.000011 -0.006083 -0.000028
# 3 -0.002280 -0.011311 0.010873 -0.000003 0.005778 0.000007
# 4 -0.000001 0.000011 -0.000003 0.058618 -0.000009 -0.040093
# 5 0.000566 -0.006083 0.005778 -0.000009 0.031811 0.000025
# 6 0.000002 -0.000028 0.000007 -0.040093 0.000025 0.167283
#
#
# Mechanical properties :
#
#
# Convention : Reuss Voigt Hill
#
# Bulk Modulus (GPa) = 39.61535 64.52642 52.07088
# Shear Modulus (GPa) = 13.91206 25.44194 19.67700
#
# Velocity S-wave (km/s) = 2.57960 3.48844 3.06786
# Velocity P-wave (km/s) = 5.27456 6.86218 6.12007
#
# Compressibility (1/GPa) = 0.02524274
#
# Stress axis : x y z
#
# Youngs Moduli (GPa) = 90.17576 26.81248 91.96916
#
# Poissons Ratio (x) = 0.09162 0.20966
# Poissons Ratio (y) = 0.30812 1.04030
# Poissons Ratio (z) = 0.20557 0.30329
#
# Static dielectric constant tensor:
#      x y z
#    x 4.430320 0.000010 -0.369880 
#    y 0.000010 3.323630 0.000010 
#    z -0.369880 0.000010 4.130070 
# 
# 
# High freq. dielectric constant tensor:
#      x y z
#    x 1.826630 0.000000 -0.009450 
#    y 0.000000 1.769320 0.000000 
#    z -0.009450 0.000000 1.837410 
# 
# From -- ./inp_files/216629.got.cif
#   From: 2010.06.25/outbox.cif.g09.slc.cpg/sg12_109_cif.got.tgz:216629.got - 2010.06.28 00:19:55.
