data_PCOD8094006
_publ_section_title
;
Structure prediction by ZEFSAII (Michael W. Deem and Ramdas Pophale) SiO2 
 PCOD8094006
Probable space group: C 2/M
;
_chemical_formula_sum "Si O2"
_cell_formula_units_Z 44
_cell_length_a 20.934180
_cell_length_b 10.453381
_cell_length_c 13.692640
_cell_angle_alpha 90.000000
_cell_angle_beta 55.342181
_cell_angle_gamma 90.000000
_cell_volume 2464.728303
_symmetry_space_group_name_H-M "C 2/M"
_symmetry_group_IT_number 12
_symmetry_cell_setting 'monoclinic'
loop_
_space_group_symop_operation_xyz
x,y,z
-x,y,-z
-x,-y,-z
x,-y,z
1/2+x,1/2+y,z
1/2-x,1/2+y,-z
1/2-x,1/2-y,-z
1/2+x,1/2-y,z
loop_
_atom_site_type_symbol
_atom_site_label
_atom_site_fract_x
_atom_site_fract_y
_atom_site_fract_z
Si Si1 0.206426 0.637110 0.088506
Si Si2 0.334097 0.247153 0.475926
Si Si3 0.080441 0.500000 0.102084
Si Si4 0.597371 0.000000 0.683361
Si Si5 0.329449 0.000000 0.170874
Si Si6 0.201650 0.211970 0.271371
Si Si7 0.590922 0.500000 0.330884
Si Si8 0.422344 0.500000 0.424170
O O1 0.248719 0.500000 0.031847
O O2 0.119269 0.625587 0.119251
O O3 0.208499 0.659219 0.202772
O O4 0.250000 0.750000 0.000000
O O5 0.250000 0.250000 0.500000
O O6 0.383224 0.125401 0.397144
O O7 0.323241 0.240583 0.601042
O O8 0.381939 0.376496 0.409737
O O9 0.990614 0.500000 0.204012
O O10 0.099569 0.500000 0.968561
O O11 0.646461 0.000000 0.738347
O O12 0.280136 0.870804 0.201455
O O13 0.137241 0.129564 0.268786
O O14 0.515105 0.500000 0.327869
O O15 0.584335 0.500000 0.453943
#
# Coordination Sequence:
#
# PCOD8094006 Si02
#       8
#     8   8   4   4   4   8   4   4
#     4  10  21  38  60  88 118 151 200 245 297 355
#     4  11  22  38  58  83 122 155 205 235 295 362
#     4  10  24  39  60  91 122 150 203 245 311 351
#     4  12  25  38  60  91 124 162 189 256 303 356
#     4  11  19  41  66  83 116 161 210 242 286 359
#     4  10  19  36  61  90 111 155 198 250 290 353
#     4   8  18  32  59  77 111 144 196 231 293 345
#     4   9  19  36  53  81 106 155 189 236 282 354
#
# _framework density 17.851868
#
# number of rings (size 3 to 8) (size 9 to 14) (size 15 to 20)
#    0.545    1.273    3.636    1.364    5.091    0.000 
#    0.000    0.909    0.000    0.000    0.000    2.545 
#    0.000    0.000    0.000    0.000    0.000    0.000 
#
# Total GULP energy -272553.544571 kJ/mol
# GULP energy per Si atom -12388.797480 kJ/mol
# Density = 1.781124 g / cm^3
# Si number density = 17.851868 Si / 1000 Ang^3
#
#
#
# Elastic Constant Matrix: (Units=GPa)
#
#
# Indices 1 2 3 4 5 6 
#
# 1 96.7596 48.9413 30.6685 0.0000 -11.4902 0.0000
# 2 48.9413 137.8457 53.1314 0.0000 -3.2965 0.0000
# 3 30.6685 53.1314 105.7765 0.0000 -1.1770 0.0000
# 4 0.0000 0.0000 0.0000 31.3390 0.0000 8.7856
# 5 -11.4902 -3.2965 -1.1770 0.0000 34.8160 0.0000
# 6 0.0000 0.0000 0.0000 8.7856 0.0000 16.6282
#
#
#
# Elastic Compliance Matrix: (Units=1/GPa)
#
#
# Indices 1 2 3 4 5 6 
#
# 1 0.013391 -0.003943 -0.001858 0.000000 0.003983 0.000000
# 2 -0.003943 0.010174 -0.003973 0.000000 -0.000472 0.000000
# 3 -0.001858 -0.003973 0.011981 0.000000 -0.000584 0.000000
# 4 0.000000 0.000000 0.000000 0.037457 0.000000 -0.019791
# 5 0.003983 -0.000472 -0.000584 0.000000 0.029973 0.000000
# 6 0.000000 0.000000 0.000000 -0.019791 0.000000 0.070596
#
#
# Mechanical properties :
#
#
# Convention : Reuss Voigt Hill
#
# Bulk Modulus (GPa) = 62.49915 67.31826 64.90871
# Shear Modulus (GPa) = 25.19495 30.39933 27.79714
#
# Velocity S-wave (km/s) = 3.76085 4.13106 3.95029
# Velocity P-wave (km/s) = 7.34469 7.78109 7.56604
#
# Compressibility (1/GPa) = 0.01600022
#
# Stress axis : x y z
#
# Youngs Moduli (GPa) = 74.67607 98.28593 83.46270
#
# Poissons Ratio (x) = 0.38756 0.15504
# Poissons Ratio (y) = 0.29446 0.33156
# Poissons Ratio (z) = 0.13872 0.39045
#
# Static dielectric constant tensor:
#      x y z
#    x 3.458850 0.000000 0.076600 
#    y 0.000000 22.352250 0.000000 
#    z 0.076600 0.000000 3.531090 
# 
# 
# High freq. dielectric constant tensor:
#      x y z
#    x 1.684810 0.000000 0.003870 
#    y 0.000000 1.692250 0.000000 
#    z 0.003870 0.000000 1.687480 
# 
# From -- ./inp_files/229787.got.cif
#   From: 2010.06.25/outbox.cif.g09.slc.cpg/sg12_115_cif.got.tgz:229787.got - 2010.06.28 00:19:55.
