data_PCOD8094087
_publ_section_title
;
Structure prediction by ZEFSAII (Michael W. Deem and Ramdas Pophale) SiO2 
 PCOD8094087
Probable space group: C 2/M
;
_chemical_formula_sum "Si O2"
_cell_formula_units_Z 48
_cell_length_a 15.510788
_cell_length_b 17.322489
_cell_length_c 15.411252
_cell_angle_alpha 90.000000
_cell_angle_beta 144.325548
_cell_angle_gamma 90.000000
_cell_volume 2414.815700
_symmetry_space_group_name_H-M "C 2/M"
_symmetry_group_IT_number 12
_symmetry_cell_setting 'monoclinic'
loop_
_space_group_symop_operation_xyz
x,y,z
-x,y,-z
-x,-y,-z
x,-y,z
1/2+x,1/2+y,z
1/2-x,1/2+y,-z
1/2-x,1/2-y,-z
1/2+x,1/2-y,z
loop_
_atom_site_type_symbol
_atom_site_label
_atom_site_fract_x
_atom_site_fract_y
_atom_site_fract_z
Si Si1 0.141937 0.847409 0.358487
Si Si2 0.856033 0.257924 0.326154
Si Si3 0.950853 0.590917 0.055382
Si Si4 0.203064 0.676986 0.346948
Si Si5 0.823128 0.415793 0.354857
Si Si6 0.173928 0.813647 0.877411
O O1 0.160869 0.757986 0.353072
O O2 0.183882 0.864420 0.493717
O O3 0.248500 0.901460 0.388247
O O4 0.965953 0.860381 0.196782
O O5 0.768460 0.190355 0.304194
O O6 0.772526 0.342165 0.254389
O O7 0.892173 0.232140 0.259252
O O8 0.000000 0.275164 0.500000
O O9 0.947460 0.500000 0.060973
O O10 0.060218 0.623572 0.218193
O O11 0.788965 0.622587 0.941723
O O12 0.000000 0.617837 0.000000
O O13 0.765117 0.500000 0.273733
O O14 0.000000 0.420528 0.500000
O O15 0.250000 0.750000 0.000000
#
# Coordination Sequence:
#
# PCOD8094087 Si02
#       6
#     8   8   8   8   8   8
#     4  10  21  35  64  95 120 156 213 260 303 366
#     4  10  19  36  63  89 119 162 211 255 306 377
#     4  11  24  40  58  85 124 167 206 253 320 382
#     4  10  19  37  60  89 119 159 209 255 303 371
#     4   9  20  37  59  90 126 158 194 253 321 376
#     4  12  23  38  63  94 125 163 210 265 312 364
#
# _framework density 19.877293999999999
#
# number of rings (size 3 to 8) (size 9 to 14) (size 15 to 20)
#    0.000    1.667    5.000    0.000    2.333    1.333 
#    0.000    2.500    0.000    4.000    0.000    0.000 
#    0.000    0.000    0.000    0.000    0.000    0.000 
#
# Total GULP energy -297353.657046 kJ/mol
# GULP energy per Si atom -12389.735710 kJ/mol
# Density = 1.983205 g / cm^3
# Si number density = 19.877294 Si / 1000 Ang^3
#
#
#
# Elastic Constant Matrix: (Units=GPa)
#
#
# Indices 1 2 3 4 5 6 
#
# 1 111.8621 27.1710 37.4402 -0.0018 19.9526 -0.0007
# 2 27.1710 66.0775 20.4818 -0.0007 7.4271 -0.0002
# 3 37.4402 20.4818 94.6543 -0.0029 10.3701 -0.0016
# 4 -0.0018 -0.0007 -0.0029 9.2538 -0.0022 6.4532
# 5 19.9526 7.4271 10.3701 -0.0022 35.3605 -0.0011
# 6 -0.0007 -0.0002 -0.0016 6.4532 -0.0011 13.6565
#
#
#
# Elastic Compliance Matrix: (Units=1/GPa)
#
#
# Indices 1 2 3 4 5 6 
#
# 1 0.011745 -0.003217 -0.003407 0.000000 -0.004952 0.000000
# 2 -0.003217 0.017312 -0.002350 0.000000 -0.001132 0.000000
# 3 -0.003407 -0.002350 0.012560 0.000003 -0.001267 0.000000
# 4 0.000000 0.000000 0.000003 0.161174 0.000007 -0.076160
# 5 -0.004952 -0.001132 -0.001267 0.000007 0.031684 -0.000001
# 6 0.000000 0.000000 0.000000 -0.076160 -0.000001 0.109213
#
#
# Mechanical properties :
#
#
# Convention : Reuss Voigt Hill
#
# Bulk Modulus (GPa) = 42.24825 49.19777 45.72301
# Shear Modulus (GPa) = 13.53094 24.15424 18.84259
#
# Velocity S-wave (km/s) = 2.61190 3.48971 3.08221
# Velocity P-wave (km/s) = 5.51332 6.40639 5.97656
#
# Compressibility (1/GPa) = 0.02366962
#
# Stress axis : x y z
#
# Youngs Moduli (GPa) = 85.14612 57.76343 79.62009
#
# Poissons Ratio (x) = 0.18581 0.27126
# Poissons Ratio (y) = 0.27389 0.18708
# Poissons Ratio (z) = 0.29009 0.13573
#
# Static dielectric constant tensor:
#      x y z
#    x 4.022760 0.000000 0.238450 
#    y 0.000000 3.699150 0.000000 
#    z 0.238450 0.000000 3.686830 
# 
# 
# High freq. dielectric constant tensor:
#      x y z
#    x 1.784510 0.000000 0.009420 
#    y 0.000000 1.763560 0.000000 
#    z 0.009420 0.000000 1.755790 
# 
# From -- ./inp_files/216520.got.cif
#   From: 2010.06.25/outbox.cif.g09.slc.cpg/sg12_109_cif.got.tgz:216520.got - 2010.06.28 00:19:55.
