data_PCOD8094937
_publ_section_title
;
Structure prediction by ZEFSAII (Michael W. Deem and Ramdas Pophale) SiO2 
 PCOD8094937
Probable space group: C 2/M
;
_chemical_formula_sum "Si O2"
_cell_formula_units_Z 56
_cell_length_a 24.407431
_cell_length_b 9.766847
_cell_length_c 22.736205
_cell_angle_alpha 90.000000
_cell_angle_beta 135.981219
_cell_angle_gamma 90.000000
_cell_volume 3766.284054
_symmetry_space_group_name_H-M "C 2/M"
_symmetry_group_IT_number 12
_symmetry_cell_setting 'monoclinic'
loop_
_space_group_symop_operation_xyz
x,y,z
-x,y,-z
-x,-y,-z
x,-y,z
1/2+x,1/2+y,z
1/2-x,1/2+y,-z
1/2-x,1/2-y,-z
1/2+x,1/2-y,z
loop_
_atom_site_type_symbol
_atom_site_label
_atom_site_fract_x
_atom_site_fract_y
_atom_site_fract_z
Si Si1 0.161972 0.342578 0.877985
Si Si2 0.423797 0.839208 0.780928
Si Si3 0.147159 0.346905 0.460080
Si Si4 0.002820 0.660067 0.282835
Si Si5 0.733246 0.848889 0.401775
Si Si6 0.990743 0.841147 0.060305
Si Si7 0.835842 0.156650 0.007730
O O1 0.153749 0.500000 0.891943
O O2 0.149785 0.252069 0.925852
O O3 0.090000 0.307902 0.777244
O O4 0.247186 0.316028 0.913744
O O5 0.474355 0.784238 0.764276
O O6 0.331362 0.809617 0.697345
O O7 0.449160 0.751619 0.856699
O O8 0.438721 0.000000 0.804511
O O9 0.142418 0.500000 0.482884
O O10 0.059617 0.282427 0.378707
O O11 0.192911 0.254820 0.543105
O O12 0.192497 0.347254 0.433572
O O13 0.022773 0.500000 0.297225
O O14 0.766827 0.000000 0.414793
O O15 0.899865 0.810108 0.007377
O O16 0.012056 0.000000 0.087459
O O17 0.000000 0.799635 0.000000
O O18 0.843180 0.000000 0.034843
#
# Coordination Sequence:
#
# PCOD8094937 Si02
#       7
#     8   8   8   8   8   8   8
#     4   9  15  25  42  58  76 101 128 160 194 229
#     4   9  16  27  41  55  73 100 134 164 191 228
#     4   8  13  21  33  50  73 100 125 145 176 227
#     4   8  13  22  37  56  77 100 125 155 189 225
#     4   8  14  23  34  50  73  98 124 155 186 218
#     4  10  20  31  40  54  80 107 132 166 201 230
#     4   9  17  27  39  57  76  99 132 162 194 233
#
# _framework density 14.868766000000001
#
# number of rings (size 3 to 8) (size 9 to 14) (size 15 to 20)
#    0.000    3.286    1.429    1.714    0.000    0.857 
#    0.000    2.857    0.000    0.000    0.000    0.000 
#    0.000    1.143    0.000   14.286    0.000    2.857 
#
# Total GULP energy -346892.482256 kJ/mol
# GULP energy per Si atom -12389.017223 kJ/mol
# Density = 1.483492 g / cm^3
# Si number density = 14.868766 Si / 1000 Ang^3
#
#
#
# Elastic Constant Matrix: (Units=GPa)
#
#
# Indices 1 2 3 4 5 6 
#
# 1 55.4512 27.9272 46.9329 0.0000 11.6937 0.0000
# 2 27.9272 59.0489 59.0896 0.0000 10.1595 0.0000
# 3 46.9329 59.0896 131.4976 0.0000 28.3029 0.0000
# 4 0.0000 0.0000 0.0000 26.6146 0.0000 1.4934
# 5 11.6937 10.1595 28.3029 0.0000 21.5246 0.0000
# 6 0.0000 0.0000 0.0000 1.4934 0.0000 10.6838
#
#
#
# Elastic Compliance Matrix: (Units=1/GPa)
#
#
# Indices 1 2 3 4 5 6 
#
# 1 0.027054 -0.005990 -0.006149 0.000000 -0.003784 0.000000
# 2 -0.005990 0.032506 -0.013762 0.000000 0.006007 0.000000
# 3 -0.006149 -0.013762 0.019340 0.000000 -0.015594 0.000000
# 4 0.000000 0.000000 0.000000 0.037870 0.000000 -0.005293
# 5 -0.003784 0.006007 -0.015594 0.000000 0.066183 0.000000
# 6 0.000000 0.000000 0.000000 -0.005293 0.000000 0.094340
#
#
# Mechanical properties :
#
#
# Convention : Reuss Voigt Hill
#
# Bulk Modulus (GPa) = 36.90540 57.09968 47.00254
# Shear Modulus (GPa) = 14.78729 19.23445 17.01087
#
# Velocity S-wave (km/s) = 3.15702 3.60059 3.38608
# Velocity P-wave (km/s) = 6.17768 7.46803 6.85329
#
# Compressibility (1/GPa) = 0.02709631
#
# Stress axis : x y z
#
# Youngs Moduli (GPa) = 36.96365 30.76353 51.70667
#
# Poissons Ratio (x) = 0.18428 0.31797
# Poissons Ratio (y) = 0.22142 0.71158
# Poissons Ratio (z) = 0.22731 0.42336
#
# Static dielectric constant tensor:
#      x y z
#    x 2.561430 0.000000 0.385800 
#    y 0.000000 2.907260 0.000000 
#    z 0.385800 0.000000 3.080460 
# 
# 
# High freq. dielectric constant tensor:
#      x y z
#    x 1.512560 0.000000 0.036900 
#    y 0.000000 1.562550 0.000000 
#    z 0.036900 0.000000 1.572060 
# 
# From -- ./inp_files/282616.got.cif
#   From: 2010.06.25/outbox.cif.g09.slc.cpg/sg12_142_cif.got.tgz:282616.got - 2010.06.28 00:19:55.
