data_PCOD8094566
_publ_section_title
;
Structure prediction by ZEFSAII (Michael W. Deem and Ramdas Pophale) SiO2 
 PCOD8094566
Probable space group: C 2/M
;
_chemical_formula_sum "Si O2"
_cell_formula_units_Z 40
_cell_length_a 7.967857
_cell_length_b 20.770446
_cell_length_c 16.957043
_cell_angle_alpha 90.000000
_cell_angle_beta 137.186781
_cell_angle_gamma 90.000000
_cell_volume 1907.205976
_symmetry_space_group_name_H-M "C 2/M"
_symmetry_group_IT_number 12
_symmetry_cell_setting 'monoclinic'
loop_
_space_group_symop_operation_xyz
x,y,z
-x,y,-z
-x,-y,-z
x,-y,z
1/2+x,1/2+y,z
1/2-x,1/2+y,-z
1/2-x,1/2-y,-z
1/2+x,1/2-y,z
loop_
_atom_site_type_symbol
_atom_site_label
_atom_site_fract_x
_atom_site_fract_y
_atom_site_fract_z
Si Si1 0.132489 0.338691 0.121704
Si Si2 0.970792 0.427375 0.774985
Si Si3 0.570587 0.180115 0.357794
Si Si4 0.500000 0.225567 0.500000
Si Si5 0.487313 0.292990 0.861058
Si Si6 0.000000 0.887605 0.000000
O O1 0.171324 0.392007 0.202198
O O2 0.397214 0.310080 0.184502
O O3 0.954784 0.280486 0.091972
O O4 0.000000 0.370108 0.000000
O O5 0.871799 0.500000 0.734239
O O6 0.896529 0.391016 0.668157
O O7 0.265815 0.429960 0.892039
O O8 0.590480 0.179642 0.459932
O O9 0.777259 0.228262 0.393650
O O10 0.306548 0.205020 0.240814
O O11 0.594099 0.343734 0.960699
#
# Coordination Sequence:
#
# PCOD8094566 Si02
#       6
#     8   8   8   4   8   4
#     4  12  21  33  54  86 125 160 196 234 284 341
#     4  11  24  40  56  84 123 167 198 229 281 357
#     4  10  22  38  66  90 119 147 191 248 306 358
#     4  10  20  42  66  96 112 140 190 264 322 336
#     4  11  20  35  59  92 118 152 192 247 301 342
#     4  10  19  38  60  82 121 154 196 240 282 344
#
# _framework density 20.973089000000002
#
# number of rings (size 3 to 8) (size 9 to 14) (size 15 to 20)
#    0.000    1.200    3.000    5.700    0.000    2.000 
#    0.000    2.000    0.000    0.000    0.000    0.000 
#    0.000    0.000    0.000    0.000    0.000    0.000 
#
# Total GULP energy -247973.967237 kJ/mol
# GULP energy per Si atom -12398.698362 kJ/mol
# Density = 2.092535 g / cm^3
# Si number density = 20.973089 Si / 1000 Ang^3
#
#
#
# Elastic Constant Matrix: (Units=GPa)
#
#
# Indices 1 2 3 4 5 6 
#
# 1 131.7736 70.8337 26.1687 0.0000 -13.3829 0.0000
# 2 70.8337 145.1356 40.1730 0.0000 -30.9191 0.0000
# 3 26.1687 40.1730 62.7316 0.0000 -8.2816 0.0000
# 4 0.0000 0.0000 0.0000 19.2104 0.0000 -0.6125
# 5 -13.3829 -30.9191 -8.2816 0.0000 36.8224 0.0000
# 6 0.0000 0.0000 0.0000 -0.6125 0.0000 19.5102
#
#
#
# Elastic Compliance Matrix: (Units=1/GPa)
#
#
# Indices 1 2 3 4 5 6 
#
# 1 0.010387 -0.004827 -0.001318 0.000000 -0.000574 0.000000
# 2 -0.004827 0.012140 -0.004789 0.000000 0.007362 0.000000
# 3 -0.001318 -0.004789 0.019543 0.000000 -0.000104 0.000000
# 4 0.000000 0.000000 0.000000 0.052107 0.000000 0.001636
# 5 -0.000574 0.007362 -0.000104 0.000000 0.033107 0.000000
# 6 0.000000 0.000000 0.000000 0.001636 0.000000 0.051307
#
#
# Mechanical properties :
#
#
# Convention : Reuss Voigt Hill
#
# Bulk Modulus (GPa) = 49.49633 68.22129 58.85881
# Shear Modulus (GPa) = 24.13221 28.60631 26.36926
#
# Velocity S-wave (km/s) = 3.39577 3.69718 3.54968
# Velocity P-wave (km/s) = 6.24709 7.12911 6.70262
#
# Compressibility (1/GPa) = 0.02020352
#
# Stress axis : x y z
#
# Youngs Moduli (GPa) = 96.27630 82.37338 51.16802
#
# Poissons Ratio (x) = 0.39761 0.06742
# Poissons Ratio (y) = 0.46472 0.24503
# Poissons Ratio (z) = 0.12685 0.39447
#
# Static dielectric constant tensor:
#      x y z
#    x 4.001500 0.000000 -0.059390 
#    y 0.000000 3.384710 0.000000 
#    z -0.059390 0.000000 3.686810 
# 
# 
# High freq. dielectric constant tensor:
#      x y z
#    x 1.842960 0.000000 0.002100 
#    y 0.000000 1.776220 0.000000 
#    z 0.002100 0.000000 1.813750 
# 
# From -- ./inp_files/257872.got.cif
#   From: 2010.06.25/outbox.cif.g09.slc.cpg/sg12_129_cif.got.tgz:257872.got - 2010.06.28 00:19:55.
