data_PCOD8095515
_publ_section_title
;
Structure prediction by ZEFSAII (Michael W. Deem and Ramdas Pophale) SiO2 
 PCOD8095515
Probable space group: C 2/M
;
_chemical_formula_sum "Si O2"
_cell_formula_units_Z 60
_cell_length_a 11.812011
_cell_length_b 31.256106
_cell_length_c 18.940813
_cell_angle_alpha 90.000000
_cell_angle_beta 29.070738
_cell_angle_gamma 90.000000
_cell_volume 3397.773744
_symmetry_space_group_name_H-M "C 2/M"
_symmetry_group_IT_number 12
_symmetry_cell_setting 'monoclinic'
loop_
_space_group_symop_operation_xyz
x,y,z
-x,y,-z
-x,-y,-z
x,-y,z
1/2+x,1/2+y,z
1/2-x,1/2+y,-z
1/2-x,1/2-y,-z
1/2+x,1/2-y,z
loop_
_atom_site_type_symbol
_atom_site_label
_atom_site_fract_x
_atom_site_fract_y
_atom_site_fract_z
Si Si1 0.938246 0.951906 0.452012
Si Si2 0.682272 0.203062 0.959361
Si Si3 0.867141 0.327277 0.645581
Si Si4 0.235905 0.048145 0.156099
Si Si5 0.788356 0.135668 0.489827
Si Si6 0.981252 0.873149 0.782667
Si Si7 0.500000 0.687405 0.500000
Si Si8 0.898854 0.253608 0.231496
O O1 0.757063 0.914796 0.527035
O O2 0.000000 0.944918 0.500000
O O3 0.165936 0.946786 0.277137
O O4 0.832433 0.000000 0.499259
O O5 0.743032 0.152718 0.928588
O O6 0.925688 0.228098 0.812065
O O7 0.500000 0.215668 0.000000
O O8 0.562584 0.215523 0.097402
O O9 0.674423 0.364528 0.737666
O O10 0.743735 0.282565 0.735377
O O11 0.000000 0.318446 0.500000
O O12 0.033096 0.343143 0.618849
O O13 0.074907 0.076623 0.192235
O O14 0.198007 0.000000 0.150513
O O15 0.500000 0.062751 0.000000
O O16 0.926090 0.143048 0.342948
O O17 0.948508 0.157994 0.461020
O O18 0.274806 0.716873 0.630714
#
# Coordination Sequence:
#
# PCOD8095515 Si02
#       8
#     8   8   8   8   8   8   4   8
#     4   9  17  33  52  76 108 134 162 208 263 313
#     4  10  20  35  50  69  97 136 171 207 256 306
#     4   9  18  35  51  71 101 137 171 209 263 301
#     4   9  17  29  51  81 105 131 168 212 259 309
#     4  10  20  32  53  78 102 131 170 216 254 311
#     4   9  18  34  52  71 101 138 168 207 259 309
#     4  12  22  32  49  80 100 126 179 220 254 302
#     4  10  22  34  49  73  98 133 175 213 255 304
#
# _framework density 17.658622000000001
#
# number of rings (size 3 to 8) (size 9 to 14) (size 15 to 20)
#    0.000    2.400    1.333    1.200    1.867    1.600 
#    0.000    0.667    0.000    4.000    0.000    0.000 
#    0.000    4.267    0.000    0.000    0.000    0.000 
#
# Total GULP energy -371777.215147 kJ/mol
# GULP energy per Si atom -12392.573838 kJ/mol
# Density = 1.761843 g / cm^3
# Si number density = 17.658622 Si / 1000 Ang^3
#
#
#
# Elastic Constant Matrix: (Units=GPa)
#
#
# Indices 1 2 3 4 5 6 
#
# 1 68.3624 31.3720 20.8871 -0.0011 -16.7202 0.0013
# 2 31.3720 102.6660 39.5811 -0.0023 -10.4105 0.0008
# 3 20.8871 39.5811 73.2119 0.0036 -11.6679 0.0023
# 4 -0.0011 -0.0023 0.0036 20.6510 -0.0012 2.2224
# 5 -16.7202 -10.4105 -11.6679 -0.0012 23.1637 -0.0007
# 6 0.0013 0.0008 0.0023 2.2224 -0.0007 20.1728
#
#
#
# Elastic Compliance Matrix: (Units=1/GPa)
#
#
# Indices 1 2 3 4 5 6 
#
# 1 0.019928 -0.004334 -0.001479 0.000002 0.011692 -0.000001
# 2 -0.004334 0.013368 -0.006015 0.000002 -0.000150 0.000000
# 3 -0.001479 -0.006015 0.018192 -0.000004 0.005393 -0.000001
# 4 0.000002 0.000002 -0.000004 0.049005 0.000003 -0.005399
# 5 0.011692 -0.000150 0.005393 0.000003 0.054260 0.000000
# 6 -0.000001 0.000000 -0.000001 -0.005399 0.000000 0.050167
#
#
# Mechanical properties :
#
#
# Convention : Reuss Voigt Hill
#
# Bulk Modulus (GPa) = 35.92804 47.54677 41.73741
# Shear Modulus (GPa) = 21.02135 22.95750 21.98943
#
# Velocity S-wave (km/s) = 3.45400 3.60956 3.53264
# Velocity P-wave (km/s) = 6.02469 6.66002 6.35031
#
# Compressibility (1/GPa) = 0.02783342
#
# Stress axis : x y z
#
# Youngs Moduli (GPa) = 50.17986 74.80351 54.96828
#
# Poissons Ratio (x) = 0.32418 0.08131
# Poissons Ratio (y) = 0.21747 0.33063
# Poissons Ratio (z) = 0.07422 0.44994
#
# Static dielectric constant tensor:
#      x y z
#    x 3.152310 0.000000 -0.117490 
#    y 0.000000 3.473900 0.000000 
#    z -0.117490 0.000000 3.385070 
# 
# 
# High freq. dielectric constant tensor:
#      x y z
#    x 1.657370 0.000000 -0.005890 
#    y 0.000000 1.693380 0.000000 
#    z -0.005890 0.000000 1.676350 
# 
# From -- ./inp_files/307593.got.cif
#   From: 2010.06.25/outbox.cif.g09.slc.cpg/sg12_154_cif.got.tgz:307593.got - 2010.06.28 00:19:55.
