data_PCOD8095325
_publ_section_title
;
Structure prediction by ZEFSAII (Michael W. Deem and Ramdas Pophale) SiO2 
 PCOD8095325
Probable space group: C 2/M
;
_chemical_formula_sum "Si O2"
_cell_formula_units_Z 64
_cell_length_a 7.867521
_cell_length_b 18.293158
_cell_length_c 27.515387
_cell_angle_alpha 90.000000
_cell_angle_beta 124.880280
_cell_angle_gamma 90.000000
_cell_volume 3248.633671
_symmetry_space_group_name_H-M "C 2/M"
_symmetry_group_IT_number 12
_symmetry_cell_setting 'monoclinic'
loop_
_space_group_symop_operation_xyz
x,y,z
-x,y,-z
-x,-y,-z
x,-y,z
1/2+x,1/2+y,z
1/2-x,1/2+y,-z
1/2-x,1/2-y,-z
1/2+x,1/2-y,z
loop_
_atom_site_type_symbol
_atom_site_label
_atom_site_fract_x
_atom_site_fract_y
_atom_site_fract_z
Si Si1 0.070853 0.666452 0.885516
Si Si2 0.471210 0.666453 0.885516
Si Si3 0.023684 0.913231 0.356039
Si Si4 0.340778 0.083463 0.771028
Si Si5 0.599529 0.086769 0.643962
Si Si6 0.133733 0.087350 0.566866
Si Si7 0.797104 0.917227 0.000000
Si Si8 0.756666 0.583463 0.228972
O O1 0.270186 0.656895 0.885093
O O2 0.108217 0.623740 0.942074
O O3 0.030220 0.750000 0.890111
O O4 0.876452 0.631458 0.825239
O O5 0.424502 0.631458 0.825239
O O6 0.660079 0.623741 0.942074
O O7 0.255095 0.888941 0.377547
O O8 0.860336 0.884570 0.289319
O O9 0.969731 0.881688 0.400492
O O10 0.004688 0.000000 0.355013
O O11 0.529802 0.089006 0.764901
O O12 0.306922 0.000000 0.782211
O O13 0.367762 0.118312 0.599508
O O14 0.703062 0.115430 0.710682
O O15 0.584637 0.000000 0.644988
O O16 0.000000 0.117376 0.500000
O O17 0.134997 0.000000 0.567499
O O18 0.729064 0.000000 0.000001
O O19 0.000000 0.915797 0.000000
O O20 0.678077 0.500000 0.217789
#
# Coordination Sequence:
#
# PCOD8095325 Si02
#       8
#     8   8   8   8   8   8   8   8
#     4  10  20  32  49  72 100 132 163 211 263 312
#     4  10  20  32  49  72 100 132 163 211 263 312
#     4   9  16  26  42  65  93 129 170 211 257 306
#     4   9  16  29  48  67  90 127 173 215 256 306
#     4   9  16  26  42  65  93 129 170 211 257 306
#     4   9  16  26  40  62  98 137 169 207 253 307
#     4   9  17  32  53  75  96 127 178 218 248 303
#     4   9  16  29  48  67  90 127 173 215 256 306
#
# _framework density 19.700590999999999
#
# number of rings (size 3 to 8) (size 9 to 14) (size 15 to 20)
#    0.000    2.750    1.250    1.125    0.000    4.500 
#    0.000    2.500    0.000    3.000    0.000    0.000 
#    0.000    1.000    0.500    0.000    0.000    0.000 
#
# Total GULP energy -396709.472061 kJ/mol
# GULP energy per Si atom -12397.171002 kJ/mol
# Density = 1.965575 g / cm^3
# Si number density = 19.700591 Si / 1000 Ang^3
#
#
#
# Elastic Constant Matrix: (Units=GPa)
#
#
# Indices 1 2 3 4 5 6 
#
# 1 86.0121 16.4679 68.3838 0.0000 -0.1324 0.0000
# 2 16.4679 83.4734 55.7559 0.0000 -1.0344 0.0000
# 3 68.3838 55.7559 195.5249 0.0000 -2.7514 0.0000
# 4 0.0000 0.0000 0.0000 7.5084 0.0000 0.2316
# 5 -0.1324 -1.0344 -2.7514 0.0000 11.3848 0.0000
# 6 0.0000 0.0000 0.0000 0.2316 0.0000 16.3064
#
#
#
# Elastic Compliance Matrix: (Units=1/GPa)
#
#
# Indices 1 2 3 4 5 6 
#
# 1 0.016155 0.000721 -0.005872 0.000000 -0.001166 0.000000
# 2 0.000721 0.014832 -0.004478 0.000000 0.000274 0.000000
# 3 -0.005872 -0.004478 0.008467 0.000000 0.001571 0.000000
# 4 0.000000 0.000000 0.000000 0.133242 0.000000 -0.001892
# 5 -0.001166 0.000274 0.001571 0.000000 0.088227 0.000000
# 6 0.000000 0.000000 0.000000 -0.001892 0.000000 0.061352
#
#
# Mechanical properties :
#
#
# Convention : Reuss Voigt Hill
#
# Bulk Modulus (GPa) = 49.51480 71.80286 60.65883
# Shear Modulus (GPa) = 14.35686 22.00013 18.17850
#
# Velocity S-wave (km/s) = 2.70247 3.34537 3.04096
# Velocity P-wave (km/s) = 5.90982 7.17274 6.57169
#
# Compressibility (1/GPa) = 0.02019598
#
# Stress axis : x y z
#
# Youngs Moduli (GPa) = 61.90012 67.42208 118.10401
#
# Poissons Ratio (x) = -0.04859 0.69351
# Poissons Ratio (y) = -0.04461 0.52883
# Poissons Ratio (z) = 0.36348 0.30189
#
# Static dielectric constant tensor:
#      x y z
#    x 3.496360 0.000000 -0.010490 
#    y 0.000000 3.067150 0.000000 
#    z -0.010490 0.000000 3.894870 
# 
# 
# High freq. dielectric constant tensor:
#      x y z
#    x 1.757240 0.000000 -0.000550 
#    y 0.000000 1.714400 0.000000 
#    z -0.000550 0.000000 1.778020 
# 
# From -- ./inp_files/372578.got.cif
#   From: 2010.06.25/outbox.cif.g09.slc.cpg/sg12_187_cif.got.tgz:372578.got - 2010.06.28 00:19:55.
