data_PCOD8095012
_publ_section_title
;
Structure prediction by ZEFSAII (Michael W. Deem and Ramdas Pophale) SiO2 
 PCOD8095012
Probable space group: C 2/M
;
_chemical_formula_sum "Si O2"
_cell_formula_units_Z 56
_cell_length_a 30.470890
_cell_length_b 14.472353
_cell_length_c 9.641835
_cell_angle_alpha 90.000000
_cell_angle_beta 125.473480
_cell_angle_gamma 90.000000
_cell_volume 3462.687741
_symmetry_space_group_name_H-M "C 2/M"
_symmetry_group_IT_number 12
_symmetry_cell_setting 'monoclinic'
loop_
_space_group_symop_operation_xyz
x,y,z
-x,y,-z
-x,-y,-z
x,-y,z
1/2+x,1/2+y,z
1/2-x,1/2+y,-z
1/2-x,1/2-y,-z
1/2+x,1/2-y,z
loop_
_atom_site_type_symbol
_atom_site_label
_atom_site_fract_x
_atom_site_fract_y
_atom_site_fract_z
Si Si1 0.697111 0.395665 0.904805
Si Si2 0.858405 0.286420 0.223731
Si Si3 0.797774 0.607357 0.895442
Si Si4 0.670287 0.108301 0.345355
Si Si5 0.050625 0.398741 0.497650
Si Si6 0.282293 0.105911 0.281818
Si Si7 0.049975 0.608096 0.179696
O O1 0.675216 0.500000 0.847081
O O2 0.647803 0.324634 0.797969
O O3 0.740749 0.372478 0.864689
O O4 0.722793 0.381859 0.106186
O O5 0.918146 0.314041 0.374934
O O6 0.820958 0.325252 0.274682
O O7 0.844452 0.333547 0.052502
O O8 0.812507 0.500000 0.938165
O O9 0.798915 0.640392 0.737671
O O10 0.711794 0.133880 0.545995
O O11 0.609491 0.150990 0.250883
O O12 0.661756 0.000000 0.326569
O O13 0.080859 0.500000 0.550086
O O14 0.036429 0.370586 0.314835
O O15 0.000000 0.412198 0.500000
O O16 0.300842 0.000000 0.291535
O O17 0.051695 0.500000 0.150830
O O18 0.000000 0.652221 0.000000
#
# Coordination Sequence:
#
# PCOD8095012 Si02
#       7
#     8   8   8   8   8   8   8
#     4   9  19  33  47  63  86 122 162 199 234 265
#     4  11  18  30  47  65  92 122 157 190 230 273
#     4   9  17  27  44  70  96 121 152 186 222 273
#     4   9  16  26  42  65  96 130 153 179 223 273
#     4  10  20  31  47  71  96 121 148 181 221 273
#     4   9  15  27  46  67  93 125 154 179 220 276
#     4   9  17  28  41  60  92 129 156 175 211 266
#
# _framework density 16.172408000000001
#
# number of rings (size 3 to 8) (size 9 to 14) (size 15 to 20)
#    0.000    2.571    1.429    3.857    2.000    0.000 
#    0.000    2.857    0.000    0.429    0.000    0.000 
#    0.000    0.571    0.000    0.143    0.000    0.000 
#
# Total GULP energy -346872.261671 kJ/mol
# GULP energy per Si atom -12388.295060 kJ/mol
# Density = 1.613560 g / cm^3
# Si number density = 16.172408 Si / 1000 Ang^3
#
#
#
# Elastic Constant Matrix: (Units=GPa)
#
#
# Indices 1 2 3 4 5 6 
#
# 1 46.5797 26.3803 46.9455 0.0000 -7.6779 0.0000
# 2 26.3803 62.3010 44.2655 0.0000 6.5976 0.0000
# 3 46.9455 44.2655 119.4973 0.0000 -14.6348 0.0000
# 4 0.0000 0.0000 0.0000 25.9990 0.0000 5.8612
# 5 -7.6779 6.5976 -14.6348 0.0000 28.7648 0.0000
# 6 0.0000 0.0000 0.0000 5.8612 0.0000 11.9117
#
#
#
# Elastic Compliance Matrix: (Units=1/GPa)
#
#
# Indices 1 2 3 4 5 6 
#
# 1 0.039053 -0.009486 -0.010969 0.000000 0.007019 0.000000
# 2 -0.009486 0.026966 -0.007817 0.000000 -0.012694 0.000000
# 3 -0.010969 -0.007817 0.016460 0.000000 0.007240 0.000000
# 4 0.000000 0.000000 0.000000 0.043262 0.000000 -0.021287
# 5 0.007019 -0.012694 0.007240 0.000000 0.043233 0.000000
# 6 0.000000 0.000000 0.000000 -0.021287 0.000000 0.094425
#
#
# Mechanical properties :
#
#
# Convention : Reuss Voigt Hill
#
# Bulk Modulus (GPa) = 38.55777 51.50671 45.03224
# Shear Modulus (GPa) = 15.21661 20.72088 17.96875
#
# Velocity S-wave (km/s) = 3.07074 3.58334 3.33689
# Velocity P-wave (km/s) = 6.03871 7.00272 6.53850
#
# Compressibility (1/GPa) = 0.02593511
#
# Stress axis : x y z
#
# Youngs Moduli (GPa) = 25.60634 37.08332 60.75425
#
# Poissons Ratio (x) = 0.35178 0.66639
# Poissons Ratio (y) = 0.24291 0.47492
# Poissons Ratio (z) = 0.28086 0.28988
#
# Static dielectric constant tensor:
#      x y z
#    x 3.212450 0.000000 -0.012210 
#    y 0.000000 2.871280 0.000000 
#    z -0.012210 0.000000 3.528920 
# 
# 
# High freq. dielectric constant tensor:
#      x y z
#    x 1.592310 0.000000 -0.018690 
#    y 0.000000 1.579910 0.000000 
#    z -0.018690 0.000000 1.629530 
# 
# From -- ./inp_files/104708.got.cif
#   From: 2010.06.25/outbox.cif.g09.slc.cpg/sg12_53_cif.got.tgz:104708.got - 2010.06.28 00:19:55.
