data_PCOD8095387
_publ_section_title
;
Structure prediction by ZEFSAII (Michael W. Deem and Ramdas Pophale) SiO2 
 PCOD8095387
Probable space group: C 2/M
;
_chemical_formula_sum "Si O2"
_cell_formula_units_Z 64
_cell_length_a 19.335643
_cell_length_b 8.884254
_cell_length_c 20.373547
_cell_angle_alpha 90.000000
_cell_angle_beta 112.714872
_cell_angle_gamma 90.000000
_cell_volume 3228.370461
_symmetry_space_group_name_H-M "C 2/M"
_symmetry_group_IT_number 12
_symmetry_cell_setting 'monoclinic'
loop_
_space_group_symop_operation_xyz
x,y,z
-x,y,-z
-x,-y,-z
x,-y,z
1/2+x,1/2+y,z
1/2-x,1/2+y,-z
1/2-x,1/2-y,-z
1/2+x,1/2-y,z
loop_
_atom_site_type_symbol
_atom_site_label
_atom_site_fract_x
_atom_site_fract_y
_atom_site_fract_z
Si Si1 0.889272 0.177559 0.759178
Si Si2 0.157709 0.677914 0.392609
Si Si3 0.942502 0.174391 0.166457
Si Si4 0.949336 0.830444 0.423321
Si Si5 0.324973 0.331447 0.475138
Si Si6 0.092566 0.671388 0.715503
Si Si7 0.705286 0.179112 0.924342
Si Si8 0.741767 0.672000 0.196989
O O1 0.883543 0.252403 0.685407
O O2 0.826582 0.246537 0.786547
O O3 0.971127 0.212385 0.820776
O O4 0.877683 0.000000 0.745136
O O5 0.148552 0.500000 0.384215
O O6 0.243671 0.735743 0.427728
O O7 0.127235 0.738352 0.452010
O O8 0.933175 0.212961 0.239045
O O9 0.881932 0.270051 0.102739
O O10 0.924938 0.000000 0.148046
O O11 0.865371 0.831164 0.419968
O O12 0.954939 0.715144 0.365471
O O13 0.000000 0.767092 0.500000
O O14 0.974157 0.000000 0.411495
O O15 0.316888 0.500000 0.499989
O O16 0.073977 0.500000 0.729722
O O17 0.181288 0.689582 0.733958
O O18 0.743804 0.239843 0.870822
O O19 0.707238 0.000000 0.928488
O O20 0.750000 0.250000 0.000000
O O21 0.719332 0.500000 0.178453
#
# Coordination Sequence:
#
# PCOD8095387 Si02
#       8
#     8   8   8   8   8   8   8   8
#     4  10  20  35  56  79 107 142 182 225 270 319
#     4  10  20  32  50  73  99 134 175 224 276 329
#     4  10  21  36  57  84 113 146 183 222 270 325
#     4  10  21  34  49  69  97 134 180 229 277 329
#     4   9  19  35  49  67  97 135 180 224 276 335
#     4  10  20  35  55  77 106 141 181 231 280 331
#     4  10  20  38  64  90 118 149 182 219 260 314
#     4   8  17  35  58  83 107 140 183 221 260 312
#
# _framework density 19.824242999999999
#
# number of rings (size 3 to 8) (size 9 to 14) (size 15 to 20)
#    0.000    2.375    0.000    3.000    1.750    2.250 
#    0.000    3.750    0.000    3.750    0.000    0.000 
#    0.000    0.000    0.000    0.000    0.000    0.000 
#
# Total GULP energy -396593.047863 kJ/mol
# GULP energy per Si atom -12393.532746 kJ/mol
# Density = 1.977912 g / cm^3
# Si number density = 19.824243 Si / 1000 Ang^3
#
#
#
# Elastic Constant Matrix: (Units=GPa)
#
#
# Indices 1 2 3 4 5 6 
#
# 1 54.8504 16.4119 12.3612 0.0000 13.9585 0.0000
# 2 16.4119 62.2885 33.5813 0.0000 7.6115 0.0000
# 3 12.3612 33.5813 116.0320 0.0000 16.3370 0.0000
# 4 0.0000 0.0000 0.0000 33.9970 0.0000 3.5813
# 5 13.9585 7.6115 16.3370 0.0000 22.8591 0.0000
# 6 0.0000 0.0000 0.0000 3.5813 0.0000 20.6399
#
#
#
# Elastic Compliance Matrix: (Units=1/GPa)
#
#
# Indices 1 2 3 4 5 6 
#
# 1 0.022778 -0.004856 0.000789 0.000000 -0.012856 0.000000
# 2 -0.004856 0.020205 -0.005338 0.000000 0.000052 0.000000
# 3 0.000789 -0.005338 0.011004 0.000000 -0.006569 0.000000
# 4 0.000000 0.000000 0.000000 0.029962 0.000000 -0.005199
# 5 -0.012856 0.000052 -0.006569 0.000000 0.056274 0.000000
# 6 0.000000 0.000000 0.000000 -0.005199 0.000000 0.049352
#
#
# Mechanical properties :
#
#
# Convention : Reuss Voigt Hill
#
# Bulk Modulus (GPa) = 28.42712 39.76441 34.09576
# Shear Modulus (GPa) = 22.71588 26.88697 24.80143
#
# Velocity S-wave (km/s) = 3.38873 3.68675 3.54088
# Velocity P-wave (km/s) = 5.44812 6.18262 5.82696
#
# Compressibility (1/GPa) = 0.03517768
#
# Stress axis : x y z
#
# Youngs Moduli (GPa) = 43.90149 49.49254 90.87662
#
# Poissons Ratio (x) = 0.24034 -0.07169
# Poissons Ratio (y) = 0.21319 0.48507
# Poissons Ratio (z) = -0.03463 0.26417
#
# Static dielectric constant tensor:
#      x y z
#    x 3.866900 0.000000 0.042890 
#    y 0.000000 3.461080 0.000000 
#    z 0.042890 0.000000 3.530000 
# 
# 
# High freq. dielectric constant tensor:
#      x y z
#    x 1.775730 0.000000 0.010950 
#    y 0.000000 1.758870 0.000000 
#    z 0.010950 0.000000 1.758370 
# 
# From -- ./inp_files/320017.got.cif
#   From: 2010.06.25/outbox.cif.g09.slc.cpg/sg12_161_cif.got.tgz:320017.got - 2010.06.28 00:19:55.
