data_PCOD8095262
_publ_section_title
;
Structure prediction by ZEFSAII (Michael W. Deem and Ramdas Pophale) SiO2 
 PCOD8095262
Probable space group: C 2/M
;
_chemical_formula_sum "Si O2"
_cell_formula_units_Z 64
_cell_length_a 9.892775
_cell_length_b 22.222870
_cell_length_c 31.888095
_cell_angle_alpha 90.000000
_cell_angle_beta 149.163536
_cell_angle_gamma 90.000000
_cell_volume 3593.490397
_symmetry_space_group_name_H-M "C 2/M"
_symmetry_group_IT_number 12
_symmetry_cell_setting 'monoclinic'
loop_
_space_group_symop_operation_xyz
x,y,z
-x,y,-z
-x,-y,-z
x,-y,z
1/2+x,1/2+y,z
1/2-x,1/2+y,-z
1/2-x,1/2-y,-z
1/2+x,1/2-y,z
loop_
_atom_site_type_symbol
_atom_site_label
_atom_site_fract_x
_atom_site_fract_y
_atom_site_fract_z
Si Si1 0.773905 0.161366 0.697567
Si Si2 0.985363 0.249625 0.177240
Si Si3 0.778126 0.257912 0.556373
Si Si4 0.954829 0.163731 0.315573
Si Si5 0.609330 0.357737 0.074881
Si Si6 0.543996 0.929696 0.234945
Si Si7 0.692807 0.646358 0.925528
Si Si8 0.705182 0.430427 0.224943
O O1 0.985593 0.208281 0.773533
O O2 0.487013 0.190402 0.620926
O O3 0.865470 0.142359 0.675482
O O4 0.741438 0.102314 0.717120
O O5 0.244273 0.289802 0.240446
O O6 0.729170 0.291276 0.112402
O O7 0.955499 0.206840 0.129013
O O8 0.500000 0.280159 0.500000
O O9 0.750000 0.250000 0.500000
O O10 0.864216 0.195358 0.601210
O O11 0.814925 0.106526 0.299975
O O12 0.359749 0.362116 0.039253
O O13 0.826595 0.408314 0.143322
O O14 0.500000 0.370445 0.000000
O O15 0.437072 0.915668 0.253245
O O16 0.599264 0.000000 0.242976
O O17 0.575147 0.589794 0.868888
O O18 0.000000 0.650753 0.000000
O O19 0.688935 0.500000 0.230910
#
# Coordination Sequence:
#
# PCOD8095262 Si02
#       8
#     8   8   8   8   8   8   8   8
#     4  10  20  34  56  83 108 137 176 216 256 309
#     4   9  19  32  51  72 106 140 174 213 265 324
#     4  11  22  36  57  88 121 144 164 203 257 312
#     4  10  20  34  56  83 108 137 177 215 256 310
#     4  10  20  32  48  72 102 136 175 221 270 320
#     4   9  20  38  56  73 100 141 183 222 266 313
#     4  10  20  32  48  72 102 136 175 222 271 315
#     4   9  20  38  56  73 100 141 184 222 264 314
#
# _framework density 17.809982000000002
#
# number of rings (size 3 to 8) (size 9 to 14) (size 15 to 20)
#    0.000    2.250    1.250    1.125    1.750   10.000 
#    0.000    0.000    0.000    1.500    0.000    0.000 
#    0.000    0.000    0.000    0.000    0.000    0.000 
#
# Total GULP energy -396808.233307 kJ/mol
# GULP energy per Si atom -12400.257291 kJ/mol
# Density = 1.776945 g / cm^3
# Si number density = 17.809982 Si / 1000 Ang^3
#
#
#
# Elastic Constant Matrix: (Units=GPa)
#
#
# Indices 1 2 3 4 5 6 
#
# 1 130.0005 56.3195 59.6071 0.0028 -13.1992 0.0014
# 2 56.3195 116.3419 41.1398 0.0037 -6.1130 0.0024
# 3 59.6071 41.1398 86.0640 0.0079 -8.2280 0.0057
# 4 0.0028 0.0037 0.0079 14.8441 0.0022 1.5232
# 5 -13.1992 -6.1130 -8.2280 0.0022 31.3045 0.0003
# 6 0.0014 0.0024 0.0057 1.5232 0.0003 25.2543
#
#
#
# Elastic Compliance Matrix: (Units=1/GPa)
#
#
# Indices 1 2 3 4 5 6 
#
# 1 0.012633 -0.003572 -0.006770 0.000002 0.002850 0.000001
# 2 -0.003572 0.011370 -0.002968 -0.000001 -0.000066 0.000000
# 3 -0.006770 -0.002968 0.017847 -0.000007 0.001257 -0.000003
# 4 0.000002 -0.000001 -0.000007 0.067786 -0.000006 -0.004088
# 5 0.002850 -0.000066 0.001257 -0.000006 0.033463 0.000000
# 6 0.000001 0.000000 -0.000003 -0.004088 0.000000 0.039844
#
#
# Mechanical properties :
#
#
# Convention : Reuss Voigt Hill
#
# Bulk Modulus (GPa) = 65.65273 71.83769 68.74521
# Shear Modulus (GPa) = 23.29493 25.96992 24.63243
#
# Velocity S-wave (km/s) = 3.62051 3.82274 3.72300
# Velocity P-wave (km/s) = 7.37702 7.74000 7.56069
#
# Compressibility (1/GPa) = 0.01523166
#
# Stress axis : x y z
#
# Youngs Moduli (GPa) = 79.15744 87.94758 56.03316
#
# Poissons Ratio (x) = 0.31414 0.37932
# Poissons Ratio (y) = 0.28275 0.16628
# Poissons Ratio (z) = 0.53587 0.26099
#
# Static dielectric constant tensor:
#      x y z
#    x 3.306190 -0.000010 -0.059520 
#    y -0.000010 3.244950 -0.000020 
#    z -0.059520 -0.000020 3.282970 
# 
# 
# High freq. dielectric constant tensor:
#      x y z
#    x 1.697470 0.000000 -0.001450 
#    y 0.000000 1.676720 0.000000 
#    z -0.001450 0.000000 1.679630 
# 
# From -- ./inp_files/251927.got.cif
#   From: 2010.06.25/outbox.cif.g09.slc.cpg/sg12_126_cif.got.tgz:251927.got - 2010.06.28 00:19:55.
