data_PCOD8095724
_publ_section_title
;
Structure prediction by ZEFSAII (Michael W. Deem and Ramdas Pophale) SiO2 
 PCOD8095724
Probable space group: C 2/M
;
_chemical_formula_sum "Si O2"
_cell_formula_units_Z 56
_cell_length_a 15.387406
_cell_length_b 9.227035
_cell_length_c 20.127265
_cell_angle_alpha 90.000000
_cell_angle_beta 98.825388
_cell_angle_gamma 90.000000
_cell_volume 2823.838359
_symmetry_space_group_name_H-M "C 2/M"
_symmetry_group_IT_number 12
_symmetry_cell_setting 'monoclinic'
loop_
_space_group_symop_operation_xyz
x,y,z
-x,y,-z
-x,-y,-z
x,-y,z
1/2+x,1/2+y,z
1/2-x,1/2+y,-z
1/2-x,1/2-y,-z
1/2+x,1/2-y,z
loop_
_atom_site_type_symbol
_atom_site_label
_atom_site_fract_x
_atom_site_fract_y
_atom_site_fract_z
Si Si1 0.197648 0.168851 0.937719
Si Si2 0.025452 0.339206 0.927375
Si Si3 0.441379 0.671042 0.662781
Si Si4 0.736232 0.330269 0.430007
Si Si5 0.967682 0.160110 0.810945
Si Si6 0.330318 0.660376 0.207727
Si Si7 0.877283 0.329888 0.335865
O O1 0.098594 0.218028 0.933468
O O2 0.227819 0.202985 0.864777
O O3 0.205878 0.000000 0.953431
O O4 0.250000 0.250000 0.000000
O O5 0.053610 0.500000 0.905264
O O6 0.949926 0.276094 0.868544
O O7 0.000000 0.354189 0.000000
O O8 0.459904 0.500000 0.657911
O O9 0.356437 0.722212 0.611724
O O10 0.419078 0.708979 0.737288
O O11 0.528169 0.752811 0.646202
O O12 0.732245 0.500000 0.443030
O O13 0.750000 0.250000 0.500000
O O14 0.818588 0.291826 0.392771
O O15 0.069745 0.156236 0.804302
O O16 0.935678 0.000000 0.829767
O O17 0.302886 0.500000 0.229917
O O18 0.320814 0.775836 0.265530
O O19 0.893078 0.500000 0.329785
#
# Coordination Sequence:
#
# PCOD8095724 Si02
#       7
#     8   8   8   8   8   8   8
#     4  10  20  34  52  74 104 140 181 226 275 330
#     4  10  20  33  49  72 107 142 177 226 277 325
#     4   9  19  38  60  81 111 150 188 226 278 340
#     4  10  23  41  59  84 119 151 184 230 279 336
#     4   8  15  30  53  75  98 135 183 225 265 322
#     4   8  16  32  53  76 104 140 179 221 272 332
#     4  10  20  35  58  87 115 143 186 237 280 326
#
# _framework density 19.831164000000001
#
# number of rings (size 3 to 8) (size 9 to 14) (size 15 to 20)
#    0.000    2.714    0.000    3.000    0.000    9.143 
#    2.571    2.857    0.000    0.000    0.000    0.000 
#    0.000    0.000    0.000    0.000    0.000    0.000 
#
# Total GULP energy -346906.149663 kJ/mol
# GULP energy per Si atom -12389.505345 kJ/mol
# Density = 1.978603 g / cm^3
# Si number density = 19.831164 Si / 1000 Ang^3
#
#
#
# Elastic Constant Matrix: (Units=GPa)
#
#
# Indices 1 2 3 4 5 6 
#
# 1 64.6434 42.4737 56.0848 0.0000 9.8292 0.0000
# 2 42.4737 98.9893 81.3828 0.0000 4.3060 0.0000
# 3 56.0848 81.3828 176.3370 0.0000 19.6112 0.0000
# 4 0.0000 0.0000 0.0000 37.1996 0.0000 0.6862
# 5 9.8292 4.3060 19.6112 0.0000 27.3180 0.0000
# 6 0.0000 0.0000 0.0000 0.6862 0.0000 23.9218
#
#
#
# Elastic Compliance Matrix: (Units=1/GPa)
#
#
# Indices 1 2 3 4 5 6 
#
# 1 0.024174 -0.006896 -0.003977 0.000000 -0.004756 0.000000
# 2 -0.006896 0.018487 -0.006836 0.000000 0.004475 0.000000
# 3 -0.003977 -0.006836 0.010663 0.000000 -0.005147 0.000000
# 4 0.000000 0.000000 0.000000 0.026896 0.000000 -0.000772
# 5 -0.004756 0.004475 -0.005147 0.000000 0.041306 0.000000
# 6 0.000000 0.000000 0.000000 -0.000772 0.000000 0.041825
#
#
# Mechanical properties :
#
#
# Convention : Reuss Voigt Hill
#
# Bulk Modulus (GPa) = 55.84901 77.76139 66.80520
# Shear Modulus (GPa) = 24.42133 28.35644 26.38889
#
# Velocity S-wave (km/s) = 3.51303 3.78550 3.65180
# Velocity P-wave (km/s) = 6.68420 7.64222 7.17921
#
# Compressibility (1/GPa) = 0.01790542
#
# Stress axis : x y z
#
# Youngs Moduli (GPa) = 41.36655 54.09298 93.77842
#
# Poissons Ratio (x) = 0.37301 0.37298
# Poissons Ratio (y) = 0.28525 0.64111
# Poissons Ratio (z) = 0.16453 0.36980
#
# Static dielectric constant tensor:
#      x y z
#    x 4.643930 0.000000 7.062910 
#    y 0.000000 3.825850 0.000000 
#    z 7.062910 0.000000 35.575230 
# 
# 
# High freq. dielectric constant tensor:
#      x y z
#    x 1.739210 0.000000 0.011700 
#    y 0.000000 1.776010 0.000000 
#    z 0.011700 0.000000 1.787100 
# 
# From -- ./inp_files/313317.got.cif
#   From: 2010.06.25/outbox.cif.g09.slc.cpg/sg12_157_cif.got.tgz:313317.got - 2010.06.28 00:19:55.
