data_PCOD8095790
_publ_section_title
;
Structure prediction by ZEFSAII (Michael W. Deem and Ramdas Pophale) SiO2 
 PCOD8095790
Probable space group: C 2/M
;
_chemical_formula_sum "Si O2"
_cell_formula_units_Z 64
_cell_length_a 29.978694
_cell_length_b 8.549064
_cell_length_c 30.939802
_cell_angle_alpha 90.000000
_cell_angle_beta 151.281057
_cell_angle_gamma 90.000000
_cell_volume 3810.257927
_symmetry_space_group_name_H-M "C 2/M"
_symmetry_group_IT_number 12
_symmetry_cell_setting 'monoclinic'
loop_
_space_group_symop_operation_xyz
x,y,z
-x,y,-z
-x,-y,-z
x,-y,z
1/2+x,1/2+y,z
1/2-x,1/2+y,-z
1/2-x,1/2-y,-z
1/2+x,1/2-y,z
loop_
_atom_site_type_symbol
_atom_site_label
_atom_site_fract_x
_atom_site_fract_y
_atom_site_fract_z
Si Si1 0.369967 0.183084 0.242540
Si Si2 0.625711 0.181518 0.931800
Si Si3 0.662375 0.681487 0.874896
Si Si4 0.314811 0.181113 0.877254
Si Si5 0.464635 0.319215 0.065914
Si Si6 0.160717 0.816853 0.194542
Si Si7 0.981692 0.314242 0.417157
Si Si8 0.857449 0.314721 0.389464
O O1 0.383672 0.276022 0.209761
O O2 0.271781 0.214903 0.181724
O O3 0.452179 0.243414 0.344364
O O4 0.377122 0.000000 0.238660
O O5 0.610574 0.224248 0.868799
O O6 0.554470 0.280390 0.900245
O O7 0.606034 0.000000 0.922255
O O8 0.729452 0.228707 0.034737
O O9 0.650404 0.500000 0.874761
O O10 0.345811 0.222366 0.855363
O O11 0.287111 0.000000 0.857426
O O12 0.401263 0.212276 0.981900
O O13 0.443283 0.500000 0.037987
O O14 0.571641 0.278657 0.147739
O O15 0.250521 0.759350 0.298450
O O16 0.167879 0.000000 0.189204
O O17 0.976241 0.500000 0.412862
O O18 0.907543 0.248810 0.389006
O O19 0.085268 0.256093 0.519257
O O20 0.862550 0.500000 0.393188
#
# Coordination Sequence:
#
# PCOD8095790 Si02
#       8
#     8   8   8   8   8   8   8   8
#     4  11  19  30  50  74  99 129 162 197 239 288
#     4  10  20  34  51  71  96 127 160 197 240 285
#     4  10  20  33  50  72  98 126 158 196 242 289
#     4  12  23  33  45  66  98 135 169 202 237 277
#     4  11  22  34  50  70  95 129 167 204 239 280
#     4  10  20  34  51  70  94 129 169 204 239 280
#     4   8  14  24  46  73  96 122 156 198 241 283
#     4   8  13  26  46  71  96 121 158 201 239 281
#
# _framework density 16.796762999999999
#
# number of rings (size 3 to 8) (size 9 to 14) (size 15 to 20)
#    0.000    2.000    2.500    3.750    0.000    3.500 
#    0.000    0.000    0.000    2.250    0.000    0.875 
#    0.000    0.000    0.000    0.000    0.000    0.000 
#
# Total GULP energy -396749.615757 kJ/mol
# GULP energy per Si atom -12398.425492 kJ/mol
# Density = 1.675853 g / cm^3
# Si number density = 16.796763 Si / 1000 Ang^3
#
#
#
# Elastic Constant Matrix: (Units=GPa)
#
#
# Indices 1 2 3 4 5 6 
#
# 1 94.2987 15.5096 55.0093 -0.0001 -12.0221 -0.0001
# 2 15.5096 33.0655 11.2291 -0.0011 -1.2330 -0.0031
# 3 55.0093 11.2291 104.3181 0.0002 -12.4927 -0.0001
# 4 -0.0001 -0.0011 0.0002 10.3499 0.0001 -6.3590
# 5 -12.0221 -1.2330 -12.4927 0.0001 24.6875 -0.0001
# 6 -0.0001 -0.0031 -0.0001 -6.3590 -0.0001 22.5463
#
#
#
# Elastic Compliance Matrix: (Units=1/GPa)
#
#
# Indices 1 2 3 4 5 6 
#
# 1 0.016362 -0.004938 -0.007635 -0.000001 0.003858 -0.000001
# 2 -0.004938 0.032881 -0.001093 0.000008 -0.001316 0.000007
# 3 -0.007635 -0.001093 0.014134 -0.000001 0.003380 0.000000
# 4 -0.000001 0.000008 -0.000001 0.116872 -0.000001 0.032963
# 5 0.003858 -0.001316 0.003380 -0.000001 0.044030 0.000000
# 6 -0.000001 0.000007 0.000000 0.032963 0.000000 0.053650
#
#
# Mechanical properties :
#
#
# Convention : Reuss Voigt Hill
#
# Bulk Modulus (GPa) = 27.74196 43.90869 35.82532
# Shear Modulus (GPa) = 15.75911 21.51235 18.63573
#
# Velocity S-wave (km/s) = 3.06637 3.58263 3.33450
# Velocity P-wave (km/s) = 5.39341 6.58115 6.01666
#
# Compressibility (1/GPa) = 0.03604648
#
# Stress axis : x y z
#
# Youngs Moduli (GPa) = 61.11597 30.41226 70.74933
#
# Poissons Ratio (x) = 0.15018 0.54015
# Poissons Ratio (y) = 0.30181 0.07733
# Poissons Ratio (z) = 0.46660 0.03324
#
# Static dielectric constant tensor:
#      x y z
#    x 3.038750 0.000000 -0.118210 
#    y 0.000000 2.952430 0.000000 
#    z -0.118210 0.000000 3.426870 
# 
# 
# High freq. dielectric constant tensor:
#      x y z
#    x 1.626920 0.000000 -0.014840 
#    y 0.000000 1.635490 0.000000 
#    z -0.014840 0.000000 1.636910 
# 
# From -- ./inp_files/384629.got.cif
#   From: 2010.06.25/outbox.cif.g09.slc.cpg/sg12_193_cif.got.tgz:384629.got - 2010.06.28 00:19:55.
