data_PCOD8095696
_publ_section_title
;
Structure prediction by ZEFSAII (Michael W. Deem and Ramdas Pophale) SiO2 
 PCOD8095696
Probable space group: C 2/M
;
_chemical_formula_sum "Si O2"
_cell_formula_units_Z 40
_cell_length_a 21.161907
_cell_length_b 13.392614
_cell_length_c 7.536497
_cell_angle_alpha 90.000000
_cell_angle_beta 96.023694
_cell_angle_gamma 90.000000
_cell_volume 2124.149692
_symmetry_space_group_name_H-M "C 2/M"
_symmetry_group_IT_number 12
_symmetry_cell_setting 'monoclinic'
loop_
_space_group_symop_operation_xyz
x,y,z
-x,y,-z
-x,-y,-z
x,-y,z
1/2+x,1/2+y,z
1/2-x,1/2+y,-z
1/2-x,1/2-y,-z
1/2+x,1/2-y,z
loop_
_atom_site_type_symbol
_atom_site_label
_atom_site_fract_x
_atom_site_fract_y
_atom_site_fract_z
Si Si1 0.821675 0.221011 0.051895
Si Si2 0.340314 0.252775 0.670344
Si Si3 0.414150 0.110876 0.138327
Si Si4 0.283112 0.615235 0.362881
Si Si5 0.052653 0.388810 0.264272
O O1 0.858228 0.311263 0.163669
O O2 0.821514 0.127946 0.188233
O O3 0.750000 0.250000 0.000000
O O4 0.852520 0.197649 0.868978
O O5 0.326876 0.342674 0.533234
O O6 0.283175 0.173553 0.662918
O O7 0.403000 0.192376 0.623934
O O8 0.478390 0.140280 0.264272
O O9 0.391531 0.000000 0.189298
O O10 0.428445 0.110711 0.935038
O O11 0.268947 0.500000 0.393513
O O12 0.063975 0.500000 0.346815
#
# Coordination Sequence:
#
# PCOD8095696 Si02
#       5
#     8   8   8   8   8
#     4   9  18  31  48  71  98 128 157 189 234 284
#     4   9  18  33  51  73  97 125 159 196 241 286
#     4   8  14  26  47  75 100 123 156 196 240 290
#     4  10  20  33  49  71  98 126 161 200 235 280
#     4   8  13  25  49  75  98 125 154 193 246 290
#
# _framework density 18.831064999999999
#
# number of rings (size 3 to 8) (size 9 to 14) (size 15 to 20)
#    0.000    3.200    0.000    1.800    0.000    5.600 
#    0.000   10.000    0.000    4.800    0.000    5.600 
#    0.000    0.000    0.000    0.000    0.000    0.000 
#
# Total GULP energy -247835.842487 kJ/mol
# GULP energy per Si atom -12391.792124 kJ/mol
# Density = 1.878821 g / cm^3
# Si number density = 18.831065 Si / 1000 Ang^3
#
#
#
# Elastic Constant Matrix: (Units=GPa)
#
#
# Indices 1 2 3 4 5 6 
#
# 1 78.7087 31.4707 14.5716 0.0000 14.7134 0.0000
# 2 31.4707 89.7193 39.8677 0.0000 5.1914 0.0000
# 3 14.5716 39.8677 75.0150 0.0000 8.5779 0.0000
# 4 0.0000 0.0000 0.0000 24.3037 0.0000 2.6351
# 5 14.7134 5.1914 8.5779 0.0000 17.8665 0.0000
# 6 0.0000 0.0000 0.0000 2.6351 0.0000 33.4390
#
#
#
# Elastic Compliance Matrix: (Units=1/GPa)
#
#
# Indices 1 2 3 4 5 6 
#
# 1 0.017267 -0.005857 0.001259 0.000000 -0.013122 0.000000
# 2 -0.005857 0.016584 -0.008122 0.000000 0.003904 0.000000
# 3 0.001259 -0.008122 0.018254 0.000000 -0.007441 0.000000
# 4 0.000000 0.000000 0.000000 0.041501 0.000000 -0.003270
# 5 -0.013122 0.003904 -0.007441 0.000000 0.069215 0.000000
# 6 0.000000 0.000000 0.000000 -0.003270 0.000000 0.030163
#
#
# Mechanical properties :
#
#
# Convention : Reuss Voigt Hill
#
# Bulk Modulus (GPa) = 37.50380 46.14031 41.82206
# Shear Modulus (GPa) = 21.99632 25.62402 23.81017
#
# Velocity S-wave (km/s) = 3.42144 3.69281 3.55971
# Velocity P-wave (km/s) = 5.96385 6.53742 6.25721
#
# Compressibility (1/GPa) = 0.02666396
#
# Stress axis : x y z
#
# Youngs Moduli (GPa) = 57.91468 60.30047 54.78367
#
# Poissons Ratio (x) = 0.35317 -0.06898
# Poissons Ratio (y) = 0.33920 0.44497
# Poissons Ratio (z) = -0.07293 0.48978
#
# Static dielectric constant tensor:
#      x y z
#    x 3.588450 0.000000 0.107390 
#    y 0.000000 3.349820 0.000000 
#    z 0.107390 0.000000 3.702340 
# 
# 
# High freq. dielectric constant tensor:
#      x y z
#    x 1.717990 0.000000 0.010460 
#    y 0.000000 1.696650 0.000000 
#    z 0.010460 0.000000 1.734010 
# 
# From -- ./inp_files/83385.got.cif
#   From: 2010.06.25/outbox.cif.g09.slc.cpg/sg12_42_cif.got.tgz:83385.got - 2010.06.28 00:19:55.
