data_PCOD8095286
_publ_section_title
;
Structure prediction by ZEFSAII (Michael W. Deem and Ramdas Pophale) SiO2 
 PCOD8095286
Probable space group: C 2/M
;
_chemical_formula_sum "Si O2"
_cell_formula_units_Z 64
_cell_length_a 31.286443
_cell_length_b 9.048548
_cell_length_c 14.366355
_cell_angle_alpha 90.000000
_cell_angle_beta 117.489336
_cell_angle_gamma 90.000000
_cell_volume 3607.884879
_symmetry_space_group_name_H-M "C 2/M"
_symmetry_group_IT_number 12
_symmetry_cell_setting 'monoclinic'
loop_
_space_group_symop_operation_xyz
x,y,z
-x,y,-z
-x,-y,-z
x,-y,z
1/2+x,1/2+y,z
1/2-x,1/2+y,-z
1/2-x,1/2-y,-z
1/2+x,1/2-y,z
loop_
_atom_site_type_symbol
_atom_site_label
_atom_site_fract_x
_atom_site_fract_y
_atom_site_fract_z
Si Si1 0.300812 0.326291 0.947894
Si Si2 0.472180 0.171118 0.325025
Si Si3 0.890991 0.169035 0.354528
Si Si4 0.570667 0.669574 0.410188
Si Si5 0.390617 0.325628 0.916260
Si Si6 0.080801 0.328202 0.233603
Si Si7 0.968756 0.332681 0.109284
Si Si8 0.204116 0.172835 0.845128
O O1 0.295114 0.500000 0.933017
O O2 0.345782 0.269481 0.932679
O O3 0.252282 0.253820 0.859243
O O4 0.309520 0.278205 0.063565
O O5 0.430834 0.224826 0.351626
O O6 0.520159 0.263300 0.393357
O O7 0.454402 0.194553 0.201721
O O8 0.484028 0.000000 0.355881
O O9 0.891797 0.182929 0.466981
O O10 0.838854 0.221064 0.266395
O O11 0.901229 0.000000 0.333264
O O12 0.562195 0.500000 0.372854
O O13 0.592869 0.756781 0.345375
O O14 0.390375 0.500000 0.902268
O O15 0.386518 0.248691 0.811703
O O16 0.439850 0.280340 0.016558
O O17 0.093520 0.500000 0.252316
O O18 0.025128 0.301766 0.151875
O O19 0.956237 0.500000 0.065912
O O20 0.214225 0.000000 0.850324
#
# Coordination Sequence:
#
# PCOD8095286 Si02
#       8
#     8   8   8   8   8   8   8   8
#     4   9  19  34  51  75 104 129 157 197 244 295
#     4  10  20  32  48  73 105 138 170 204 243 291
#     4  10  20  33  51  75 101 131 168 208 249 295
#     4  10  20  34  51  71  99 134 170 209 250 290
#     4  11  21  32  51  76 100 130 167 205 247 297
#     4  10  21  36  51  70 100 134 169 209 248 290
#     4   9  19  33  47  69 102 135 166 203 244 287
#     4   9  18  34  54  75 101 131 161 196 243 297
#
# _framework density 17.738927
#
# number of rings (size 3 to 8) (size 9 to 14) (size 15 to 20)
#    0.000    2.250    0.000    3.750    0.000    9.500 
#    0.000    2.500    0.000    0.750    0.000    0.000 
#    0.000    0.000    0.000    0.000    0.000    0.000 
#
# Total GULP energy -396907.994465 kJ/mol
# GULP energy per Si atom -12403.374827 kJ/mol
# Density = 1.769855 g / cm^3
# Si number density = 17.738927 Si / 1000 Ang^3
#
#
#
# Elastic Constant Matrix: (Units=GPa)
#
#
# Indices 1 2 3 4 5 6 
#
# 1 87.2820 40.5424 49.9790 0.0000 -11.9298 0.0000
# 2 40.5424 81.8728 44.9501 0.0000 -6.5542 0.0000
# 3 49.9790 44.9501 104.4577 0.0000 1.8228 0.0000
# 4 0.0000 0.0000 0.0000 26.2913 0.0000 -1.9541
# 5 -11.9298 -6.5542 1.8228 0.0000 20.1675 0.0000
# 6 0.0000 0.0000 0.0000 -1.9541 0.0000 29.9475
#
#
#
# Elastic Compliance Matrix: (Units=1/GPa)
#
#
# Indices 1 2 3 4 5 6 
#
# 1 0.019313 -0.004636 -0.007430 0.000000 0.010589 0.000000
# 2 -0.004636 0.017820 -0.005512 0.000000 0.003547 0.000000
# 3 -0.007430 -0.005512 0.015633 0.000000 -0.007599 0.000000
# 4 0.000000 0.000000 0.000000 0.038221 0.000000 0.002494
# 5 0.010589 0.003547 -0.007599 0.000000 0.057688 0.000000
# 6 0.000000 0.000000 0.000000 0.002494 0.000000 0.033555
#
#
# Mechanical properties :
#
#
# Convention : Reuss Voigt Hill
#
# Bulk Modulus (GPa) = 56.78978 60.50615 58.64796
# Shear Modulus (GPa) = 22.39599 24.49067 23.44333
#
# Velocity S-wave (km/s) = 3.55707 3.71970 3.63929
# Velocity P-wave (km/s) = 6.99672 7.25476 7.12690
#
# Compressibility (1/GPa) = 0.01760880
#
# Stress axis : x y z
#
# Youngs Moduli (GPa) = 51.77992 56.11657 63.96880
#
# Poissons Ratio (x) = 0.26018 0.47528
# Poissons Ratio (y) = 0.24008 0.35258
# Poissons Ratio (z) = 0.38472 0.30930
#
# Static dielectric constant tensor:
#      x y z
#    x 3.212140 0.000000 -0.125700 
#    y 0.000000 3.308900 0.000000 
#    z -0.125700 0.000000 3.306540 
# 
# 
# High freq. dielectric constant tensor:
#      x y z
#    x 1.668040 0.000000 -0.013080 
#    y 0.000000 1.693390 0.000000 
#    z -0.013080 0.000000 1.680200 
# 
# From -- ./inp_files/249160.got.cif
#   From: 2010.06.25/outbox.cif.g09.slc.cpg/sg12_125_cif.got.tgz:249160.got - 2010.06.28 00:19:55.
