data_PCOD8095792
_publ_section_title
;
Structure prediction by ZEFSAII (Michael W. Deem and Ramdas Pophale) SiO2 
 PCOD8095792
Probable space group: C 2/M
;
_chemical_formula_sum "Si O2"
_cell_formula_units_Z 40
_cell_length_a 19.429658
_cell_length_b 9.258585
_cell_length_c 27.275341
_cell_angle_alpha 90.000000
_cell_angle_beta 152.702288
_cell_angle_gamma 90.000000
_cell_volume 2250.232208
_symmetry_space_group_name_H-M "C 2/M"
_symmetry_group_IT_number 12
_symmetry_cell_setting 'monoclinic'
loop_
_space_group_symop_operation_xyz
x,y,z
-x,y,-z
-x,-y,-z
x,-y,z
1/2+x,1/2+y,z
1/2-x,1/2+y,-z
1/2-x,1/2-y,-z
1/2+x,1/2-y,z
loop_
_atom_site_type_symbol
_atom_site_label
_atom_site_fract_x
_atom_site_fract_y
_atom_site_fract_z
Si Si1 0.405677 0.168150 0.180817
Si Si2 0.209544 0.331347 0.425433
Si Si3 0.340083 0.165726 0.420652
Si Si4 0.039497 0.167354 0.176978
Si Si5 0.422644 0.328812 0.999657
O O1 0.536878 0.201742 0.302685
O O2 0.431965 0.250495 0.146663
O O3 0.399631 0.000000 0.163688
O O4 0.250658 0.221207 0.107116
O O5 0.239807 0.500000 0.451300
O O6 0.250000 0.250000 0.500000
O O7 0.317331 0.271762 0.451531
O O8 0.500000 0.205314 0.500000
O O9 0.214147 0.193894 0.299641
O O10 0.333887 0.000000 0.435074
O O11 0.010286 0.225833 0.103595
O O12 0.995737 0.000000 0.153176
O O13 0.432544 0.500000 0.002603
O O14 0.500000 0.260702 0.000000
#
# Coordination Sequence:
#
# PCOD8095792 Si02
#       5
#     8   8   8   8   8
#     4   9  18  32  50  70  93 124 158 194 235 280
#     4  10  20  33  50  72  98 128 162 200 242 287
#     4   9  18  32  50  73 100 129 162 199 239 284
#     4   9  17  30  50  72  94 125 160 193 230 277
#     4   9  17  29  47  72  97 121 155 196 235 276
#
# _framework density 17.775942000000001
#
# number of rings (size 3 to 8) (size 9 to 14) (size 15 to 20)
#    0.000    2.800    0.000    1.200    0.000    2.800 
#    0.000    6.000    0.000    2.400    0.000    0.000 
#    0.000    0.000    0.000    0.000    0.000    0.000 
#
# Total GULP energy -247996.315668 kJ/mol
# GULP energy per Si atom -12399.815783 kJ/mol
# Density = 1.773548 g / cm^3
# Si number density = 17.775942 Si / 1000 Ang^3
#
#
#
# Elastic Constant Matrix: (Units=GPa)
#
#
# Indices 1 2 3 4 5 6 
#
# 1 167.2997 59.3722 104.6695 0.0000 -2.4086 0.0000
# 2 59.3722 58.6349 47.7870 0.0000 -5.9984 0.0001
# 3 104.6695 47.7870 124.4303 0.0002 1.2067 0.0001
# 4 0.0000 0.0000 0.0002 18.0006 0.0000 0.1766
# 5 -2.4086 -5.9984 1.2067 0.0000 38.0318 0.0000
# 6 0.0000 0.0001 0.0001 0.1766 0.0000 29.2167
#
#
#
# Elastic Compliance Matrix: (Units=1/GPa)
#
#
# Indices 1 2 3 4 5 6 
#
# 1 0.014261 -0.006767 -0.009399 0.000000 0.000134 0.000000
# 2 -0.006767 0.028731 -0.005384 0.000000 0.004274 0.000000
# 3 -0.009399 -0.005384 0.018030 0.000000 -0.002016 0.000000
# 4 0.000000 0.000000 0.000000 0.055557 0.000000 -0.000336
# 5 0.000134 0.004274 -0.002016 0.000000 0.027040 0.000000
# 6 0.000000 0.000000 0.000000 -0.000336 0.000000 0.034229
#
#
# Mechanical properties :
#
#
# Convention : Reuss Voigt Hill
#
# Bulk Modulus (GPa) = 55.79074 86.00248 70.89661
# Shear Modulus (GPa) = 22.03419 26.28557 24.15988
#
# Velocity S-wave (km/s) = 3.52455 3.84958 3.69064
# Velocity P-wave (km/s) = 6.92942 8.26108 7.62438
#
# Compressibility (1/GPa) = 0.01792412
#
# Stress axis : x y z
#
# Youngs Moduli (GPa) = 70.12261 34.80547 55.46381
#
# Poissons Ratio (x) = 0.23551 0.52128
# Poissons Ratio (y) = 0.47449 0.29859
# Poissons Ratio (z) = 0.65906 0.18738
#
# Static dielectric constant tensor:
#      x y z
#    x 3.473870 0.000000 -0.019030 
#    y 0.000000 3.143560 0.000000 
#    z -0.019030 0.000000 3.497400 
# 
# 
# High freq. dielectric constant tensor:
#      x y z
#    x 1.684460 0.000000 -0.001050 
#    y 0.000000 1.665830 0.000000 
#    z -0.001050 0.000000 1.699480 
# 
# From -- ./inp_files/162355.got.cif
#   From: 2010.06.25/outbox.cif.g09.slc.cpg/sg12_82_cif.got.tgz:162355.got - 2010.06.28 00:19:55.
