data_PCOD8095198
_publ_section_title
;
Structure prediction by ZEFSAII (Michael W. Deem and Ramdas Pophale) SiO2 
 PCOD8095198
Probable space group: C 2/M
;
_chemical_formula_sum "Si O2"
_cell_formula_units_Z 48
_cell_length_a 32.037102
_cell_length_b 9.353771
_cell_length_c 9.016677
_cell_angle_alpha 90.000000
_cell_angle_beta 87.913994
_cell_angle_gamma 90.000000
_cell_volume 2700.216416
_symmetry_space_group_name_H-M "C 2/M"
_symmetry_group_IT_number 12
_symmetry_cell_setting 'monoclinic'
loop_
_space_group_symop_operation_xyz
x,y,z
-x,y,-z
-x,-y,-z
x,-y,z
1/2+x,1/2+y,z
1/2-x,1/2+y,-z
1/2-x,1/2-y,-z
1/2+x,1/2-y,z
loop_
_atom_site_type_symbol
_atom_site_label
_atom_site_fract_x
_atom_site_fract_y
_atom_site_fract_z
Si Si1 0.455470 0.829709 0.056360
Si Si2 0.370711 0.662836 0.589774
Si Si3 0.588557 0.159248 0.652289
Si Si4 0.875626 0.331756 0.887883
Si Si5 0.173608 0.342287 0.822627
Si Si6 0.286056 0.662641 0.417040
O O1 0.445986 0.780479 0.227046
O O2 0.455518 0.000000 0.054572
O O3 0.500000 0.765825 0.000000
O O4 0.419754 0.776113 0.948056
O O5 0.383792 0.500000 0.618204
O O6 0.407600 0.735556 0.488353
O O7 0.365023 0.745316 0.743028
O O8 0.327172 0.672425 0.510557
O O9 0.631626 0.150561 0.733988
O O10 0.576495 0.000000 0.596721
O O11 0.877497 0.500000 0.852080
O O12 0.838323 0.297664 0.008479
O O13 0.194526 0.500000 0.818572
O O14 0.205520 0.229070 0.746990
O O15 0.271375 0.500000 0.396745
O O16 0.250000 0.750000 0.500000
#
# Coordination Sequence:
#
# PCOD8095198 Si02
#       6
#     8   8   8   8   8   8
#     4   8  14  27  49  75  97 118 154 201 237 269
#     4  10  20  32  47  69  96 124 155 191 229 274
#     4   8  14  27  48  69  90 121 157 191 230 274
#     4   9  17  30  50  73  95 123 157 192 233 276
#     4   8  15  29  48  69  92 119 154 192 228 273
#     4  10  20  33  50  71  93 120 154 191 232 276
#
# _framework density 17.776353
#
# number of rings (size 3 to 8) (size 9 to 14) (size 15 to 20)
#    0.000    3.167    0.000    3.000    0.000    2.667 
#    0.000    4.167    0.000    7.000    0.000    0.000 
#    0.000    0.000    0.000    0.000    0.000    0.000 
#
# Total GULP energy -297481.682719 kJ/mol
# GULP energy per Si atom -12395.070113 kJ/mol
# Density = 1.773589 g / cm^3
# Si number density = 17.776353 Si / 1000 Ang^3
#
#
#
# Elastic Constant Matrix: (Units=GPa)
#
#
# Indices 1 2 3 4 5 6 
#
# 1 53.7538 36.2939 26.7775 0.0000 -30.4964 0.0000
# 2 36.2939 108.5868 70.0726 0.0000 -24.8865 0.0000
# 3 26.7775 70.0726 125.5479 0.0000 -31.5546 0.0000
# 4 0.0000 0.0000 0.0000 26.6079 0.0000 -1.8114
# 5 -30.4964 -24.8865 -31.5546 0.0000 30.7503 0.0000
# 6 0.0000 0.0000 0.0000 -1.8114 0.0000 14.2341
#
#
#
# Elastic Compliance Matrix: (Units=1/GPa)
#
#
# Indices 1 2 3 4 5 6 
#
# 1 0.048861 -0.010020 0.007158 0.000000 0.047694 0.000000
# 2 -0.010020 0.016945 -0.008586 0.000000 -0.005034 0.000000
# 3 0.007158 -0.008586 0.015184 0.000000 0.015732 0.000000
# 4 0.000000 0.000000 0.000000 0.037911 0.000000 0.004825
# 5 0.047694 -0.005034 0.015732 0.000000 0.091891 0.000000
# 6 0.000000 0.000000 0.000000 0.004825 0.000000 0.070868
#
#
# Mechanical properties :
#
#
# Convention : Reuss Voigt Hill
#
# Bulk Modulus (GPa) = 17.21278 61.57515 39.39396
# Shear Modulus (GPa) = 15.43587 24.63473 20.03530
#
# Velocity S-wave (km/s) = 2.94995 3.72669 3.36084
# Velocity P-wave (km/s) = 4.61595 7.29600 6.10486
#
# Compressibility (1/GPa) = 0.05809638
#
# Stress axis : x y z
#
# Youngs Moduli (GPa) = 20.46606 59.01418 65.85721
#
# Poissons Ratio (x) = 0.59132 -0.47143
# Poissons Ratio (y) = 0.20507 0.56543
# Poissons Ratio (z) = -0.14650 0.50668
#
# Static dielectric constant tensor:
#      x y z
#    x 3.232920 0.000000 -0.371600 
#    y 0.000000 3.354320 0.000000 
#    z -0.371600 0.000000 3.414870 
# 
# 
# High freq. dielectric constant tensor:
#      x y z
#    x 1.659280 0.000000 -0.026640 
#    y 0.000000 1.671170 0.000000 
#    z -0.026640 0.000000 1.689980 
# 
# From -- ./inp_files/108745.got.cif
#   From: 2010.06.25/outbox.cif.g09.slc.cpg/sg12_55_cif.got.tgz:108745.got - 2010.06.28 00:19:55.
