data_PCOD8095419
_publ_section_title
;
Structure prediction by ZEFSAII (Michael W. Deem and Ramdas Pophale) SiO2 
 PCOD8095419
Probable space group: C 2/M
;
_chemical_formula_sum "Si O2"
_cell_formula_units_Z 40
_cell_length_a 19.062308
_cell_length_b 18.352150
_cell_length_c 9.604006
_cell_angle_alpha 90.000000
_cell_angle_beta 39.922220
_cell_angle_gamma 90.000000
_cell_volume 2156.149002
_symmetry_space_group_name_H-M "C 2/M"
_symmetry_group_IT_number 12
_symmetry_cell_setting 'monoclinic'
loop_
_space_group_symop_operation_xyz
x,y,z
-x,y,-z
-x,-y,-z
x,-y,z
1/2+x,1/2+y,z
1/2-x,1/2+y,-z
1/2-x,1/2-y,-z
1/2+x,1/2-y,z
loop_
_atom_site_type_symbol
_atom_site_label
_atom_site_fract_x
_atom_site_fract_y
_atom_site_fract_z
Si Si1 0.501914 0.085469 0.150750
Si Si2 0.926160 0.915850 0.982885
Si Si3 0.330754 0.843357 0.917864
Si Si4 0.674784 0.915535 0.364395
Si Si5 0.410158 0.685661 0.754665
O O1 0.616249 0.103421 0.050113
O O2 0.399939 0.115141 0.396678
O O3 0.489677 0.000000 0.154647
O O4 0.500000 0.121512 0.000000
O O5 0.957142 0.866944 0.802964
O O6 0.948680 0.000000 0.909530
O O7 0.800168 0.903483 0.216739
O O8 0.000000 0.891032 0.000000
O O9 0.357994 0.869555 0.720822
O O10 0.380771 0.763472 0.866118
O O11 0.200874 0.846980 0.142417
O O12 0.650124 0.000000 0.369635
O O13 0.500000 0.693181 0.500000
#
# Coordination Sequence:
#
# PCOD8095419 Si02
#       5
#     8   8   8   8   8
#     4  10  20  32  50  78 105 130 166 210 252 292
#     4   9  19  35  53  74 101 133 168 205 248 299
#     4  10  20  35  53  73 102 135 166 204 248 298
#     4   9  17  32  54  75  98 134 172 203 245 299
#     4  10  21  35  53  77 100 129 170 208 246 294
#
# _framework density 18.551593
#
# number of rings (size 3 to 8) (size 9 to 14) (size 15 to 20)
#    0.000    2.400    0.000    2.400    0.000    5.200 
#    0.000    2.000    0.000    9.600    0.000    0.000 
#    0.000    0.000    0.000    0.000    0.000    0.000 
#
# Total GULP energy -248039.587080 kJ/mol
# GULP energy per Si atom -12401.979354 kJ/mol
# Density = 1.850937 g / cm^3
# Si number density = 18.551593 Si / 1000 Ang^3
#
#
#
# Elastic Constant Matrix: (Units=GPa)
#
#
# Indices 1 2 3 4 5 6 
#
# 1 133.3423 27.1519 45.5702 0.0000 7.0347 0.0000
# 2 27.1519 37.1246 11.4109 0.0000 4.2658 0.0000
# 3 45.5702 11.4109 91.8684 0.0000 4.5629 0.0000
# 4 0.0000 0.0000 0.0000 19.0689 0.0000 -8.3726
# 5 7.0347 4.2658 4.5629 0.0000 20.7405 0.0000
# 6 0.0000 0.0000 0.0000 -8.3726 0.0000 15.7051
#
#
#
# Elastic Compliance Matrix: (Units=1/GPa)
#
#
# Indices 1 2 3 4 5 6 
#
# 1 0.010258 -0.006040 -0.004274 0.000000 -0.001297 0.000000
# 2 -0.006040 0.032095 -0.000773 0.000000 -0.004383 0.000000
# 3 -0.004274 -0.000773 0.013165 0.000000 -0.001288 0.000000
# 4 0.000000 0.000000 0.000000 0.068468 0.000000 0.036501
# 5 -0.001297 -0.004383 -0.001288 0.000000 0.049839 0.000000
# 6 0.000000 0.000000 0.000000 0.036501 0.000000 0.083133
#
#
# Mechanical properties :
#
#
# Convention : Reuss Voigt Hill
#
# Bulk Modulus (GPa) = 29.98941 47.84457 38.91699
# Shear Modulus (GPa) = 17.22671 22.98305 20.10488
#
# Velocity S-wave (km/s) = 3.05057 3.52358 3.29557
# Velocity P-wave (km/s) = 5.34869 6.51154 5.95855
#
# Compressibility (1/GPa) = 0.03334510
#
# Stress axis : x y z
#
# Youngs Moduli (GPa) = 97.48048 31.15753 75.95832
#
# Poissons Ratio (x) = 0.18819 0.32464
# Poissons Ratio (y) = 0.58879 0.05869
# Poissons Ratio (z) = 0.41663 0.02408
#
# Static dielectric constant tensor:
#      x y z
#    x 3.468240 0.000000 -0.042940 
#    y 0.000000 3.376440 0.000000 
#    z -0.042940 0.000000 3.499510 
# 
# 
# High freq. dielectric constant tensor:
#      x y z
#    x 1.720100 0.000000 -0.008750 
#    y 0.000000 1.713870 0.000000 
#    z -0.008750 0.000000 1.716760 
# 
# From -- ./inp_files/46915.got.cif
#   From: 2010.06.25/outbox.cif.g09.slc.cpg/sg12_24_cif.got.tgz:46915.got - 2010.06.28 00:19:55.
