data_PCOD8095887
_publ_section_title
;
Structure prediction by ZEFSAII (Michael W. Deem and Ramdas Pophale) SiO2 
 PCOD8095887
Probable space group: C 2/M
;
_chemical_formula_sum "Si O2"
_cell_formula_units_Z 60
_cell_length_a 22.693451
_cell_length_b 22.109560
_cell_length_c 5.259582
_cell_angle_alpha 90.000000
_cell_angle_beta 113.832520
_cell_angle_gamma 90.000000
_cell_volume 2413.931950
_symmetry_space_group_name_H-M "C 2/M"
_symmetry_group_IT_number 12
_symmetry_cell_setting 'monoclinic'
loop_
_space_group_symop_operation_xyz
x,y,z
-x,y,-z
-x,-y,-z
x,-y,z
1/2+x,1/2+y,z
1/2-x,1/2+y,-z
1/2-x,1/2-y,-z
1/2+x,1/2-y,z
loop_
_atom_site_type_symbol
_atom_site_label
_atom_site_fract_x
_atom_site_fract_y
_atom_site_fract_z
Si Si1 0.084034 0.227659 0.994177
Si Si2 0.773753 0.366869 0.743220
Si Si3 0.352017 0.686214 0.367941
Si Si4 0.277147 0.065946 0.254294
Si Si5 0.000000 0.869810 0.000000
Si Si6 0.574133 0.139598 0.984489
Si Si7 0.428444 0.568576 0.493158
Si Si8 0.070967 0.567938 0.471116
O O1 0.135960 0.228305 0.856141
O O2 0.113060 0.213758 0.324217
O O3 0.030282 0.176018 0.840724
O O4 0.047673 0.292369 0.922000
O O5 0.724913 0.311712 0.714269
O O6 0.749514 0.391502 0.427683
O O7 0.848501 0.349574 0.872646
O O8 0.760048 0.415197 0.940149
O O9 0.375172 0.618167 0.319773
O O10 0.353272 0.064082 0.422183
O O11 0.247200 0.000000 0.245984
O O12 0.942294 0.913873 0.810460
O O13 0.546621 0.110084 0.196682
O O14 0.551047 0.096910 0.709748
O O15 0.500000 0.576190 0.500000
O O16 0.402129 0.500000 0.414233
O O17 0.042193 0.500000 0.401482
#
# Coordination Sequence:
#
# PCOD8095887 Si02
#       8
#     8   8   8   8   4   8   8   8
#     4  11  23  38  59  78 110 141 190 232 276 338
#     4  10  20  33  50  74 113 143 182 223 276 333
#     4  11  23  38  53  81 108 148 181 232 284 335
#     4   9  17  30  49  71 103 146 180 218 264 318
#     4  10  21  40  60  82 109 146 186 248 292 326
#     4  10  20  34  54  85 109 149 188 222 269 334
#     4  10  20  37  59  80 105 141 187 237 290 340
#     4   9  17  32  54  81 112 142 180 220 261 317
#
# _framework density 24.855713999999999
#
# number of rings (size 3 to 8) (size 9 to 14) (size 15 to 20)
#    0.000    2.000    1.333    2.600    0.000    5.333 
#    0.000    0.000    0.000    0.000    0.000    2.800 
#    0.000    0.000    0.000    0.000    0.000    0.000 
#
# Total GULP energy -371727.307879 kJ/mol
# GULP energy per Si atom -12390.910263 kJ/mol
# Density = 2.479914 g / cm^3
# Si number density = 24.855714 Si / 1000 Ang^3
#
#
#
# Elastic Constant Matrix: (Units=GPa)
#
#
# Indices 1 2 3 4 5 6 
#
# 1 85.0772 10.6702 36.0543 0.0000 -27.5085 0.0000
# 2 10.6702 135.9908 43.8613 0.0000 -20.0467 0.0000
# 3 36.0543 43.8613 99.4828 0.0000 -34.7699 0.0000
# 4 0.0000 0.0000 0.0000 20.1183 0.0000 1.0968
# 5 -27.5085 -20.0467 -34.7699 0.0000 42.0861 0.0000
# 6 0.0000 0.0000 0.0000 1.0968 0.0000 5.1894
#
#
#
# Elastic Compliance Matrix: (Units=1/GPa)
#
#
# Indices 1 2 3 4 5 6 
#
# 1 0.015603 0.001020 -0.003332 0.000000 0.007931 0.000000
# 2 0.001020 0.008694 -0.003546 0.000000 0.001878 0.000000
# 3 -0.003332 -0.003546 0.016129 0.000000 0.009458 0.000000
# 4 0.000000 0.000000 0.000000 0.050285 0.000000 -0.010628
# 5 0.007931 0.001878 0.009458 0.000000 0.037653 0.000000
# 6 0.000000 0.000000 0.000000 -0.010628 0.000000 0.194946
#
#
# Mechanical properties :
#
#
# Convention : Reuss Voigt Hill
#
# Bulk Modulus (GPa) = 34.83421 55.74694 45.29057
# Shear Modulus (GPa) = 14.50971 28.80975 21.65973
#
# Velocity S-wave (km/s) = 2.41873 3.40822 2.95518
# Velocity P-wave (km/s) = 4.67390 6.16156 5.46855
#
# Compressibility (1/GPa) = 0.02870742
#
# Stress axis : x y z
#
# Youngs Moduli (GPa) = 64.09144 115.02089 62.00092
#
# Poissons Ratio (x) = -0.11728 0.20661
# Poissons Ratio (y) = -0.06535 0.21988
# Poissons Ratio (z) = 0.21357 0.40791
#
# Static dielectric constant tensor:
#      x y z
#    x 4.617060 0.000000 -0.084950 
#    y 0.000000 4.411600 0.000000 
#    z -0.084950 0.000000 4.535140 
# 
# 
# High freq. dielectric constant tensor:
#      x y z
#    x 2.005030 0.000000 -0.009840 
#    y 0.000000 1.982830 0.000000 
#    z -0.009840 0.000000 1.986990 
# 
# From -- ./inp_files/29202.got.cif
#   From: 2010.06.25/outbox.cif.g09.slc.cpg/sg12_15_cif.got.tgz:29202.got - 2010.06.28 00:19:55.
