data_PCOD8095320
_publ_section_title
;
Structure prediction by ZEFSAII (Michael W. Deem and Ramdas Pophale) SiO2 
 PCOD8095320
Probable space group: C 2/M
;
_chemical_formula_sum "Si O2"
_cell_formula_units_Z 64
_cell_length_a 23.105041
_cell_length_b 9.403136
_cell_length_c 21.342249
_cell_angle_alpha 90.000000
_cell_angle_beta 51.502125
_cell_angle_gamma 90.000000
_cell_volume 3628.915247
_symmetry_space_group_name_H-M "C 2/M"
_symmetry_group_IT_number 12
_symmetry_cell_setting 'monoclinic'
loop_
_space_group_symop_operation_xyz
x,y,z
-x,y,-z
-x,-y,-z
x,-y,z
1/2+x,1/2+y,z
1/2-x,1/2+y,-z
1/2-x,1/2-y,-z
1/2+x,1/2-y,z
loop_
_atom_site_type_symbol
_atom_site_label
_atom_site_fract_x
_atom_site_fract_y
_atom_site_fract_z
Si Si1 0.486496 0.837954 0.199169
Si Si2 0.203668 0.168189 0.265464
Si Si3 0.775786 0.166895 0.887902
Si Si4 0.542748 0.669267 0.410182
Si Si5 0.675759 0.833480 0.717870
Si Si6 0.198921 0.162391 0.579408
Si Si7 0.030324 0.161125 0.667817
Si Si8 0.144663 0.662659 0.061283
O O1 0.411374 0.799388 0.211968
O O2 0.498624 0.747989 0.253564
O O3 0.557301 0.812886 0.106225
O O4 0.481717 0.000000 0.225069
O O5 0.212469 0.230653 0.189471
O O6 0.128225 0.222615 0.349887
O O7 0.276334 0.215323 0.254823
O O8 0.200384 0.000000 0.262888
O O9 0.833494 0.240371 0.895037
O O10 0.792203 0.000000 0.878100
O O11 0.691913 0.201067 0.967492
O O12 0.500000 0.732296 0.500000
O O13 0.539111 0.500000 0.415572
O O14 0.502461 0.724820 0.374447
O O15 0.703959 0.738005 0.642487
O O16 0.688684 0.000000 0.693878
O O17 0.250000 0.250000 0.500000
O O18 0.118163 0.168468 0.603869
O O19 0.226192 0.000000 0.567776
O O20 0.002396 0.000000 0.695938
O O21 0.160231 0.500000 0.070161
#
# Coordination Sequence:
#
# PCOD8095320 Si02
#       8
#     8   8   8   8   8   8   8   8
#     4   9  17  30  47  68  94 124 152 187 236 283
#     4   9  17  29  47  68  94 125 157 194 237 281
#     4   9  17  30  48  72  96 123 160 198 234 279
#     4   9  17  27  43  68  92 114 147 194 238 271
#     4   9  18  32  49  68  92 125 160 191 233 285
#     4  10  20  32  49  71  93 120 157 199 240 278
#     4   9  18  31  48  70  91 116 156 197 232 273
#     4   9  17  29  47  71  99 125 154 194 239 283
#
# _framework density 17.636123999999999
#
# number of rings (size 3 to 8) (size 9 to 14) (size 15 to 20)
#    0.000    2.875    0.000    1.125    1.750    2.000 
#    0.000    1.250    0.000    4.875    0.000    0.000 
#    0.000    8.000    0.000    0.000    0.000    0.000 
#
# Total GULP energy -396634.597151 kJ/mol
# GULP energy per Si atom -12394.831161 kJ/mol
# Density = 1.759598 g / cm^3
# Si number density = 17.636124 Si / 1000 Ang^3
#
#
#
# Elastic Constant Matrix: (Units=GPa)
#
#
# Indices 1 2 3 4 5 6 
#
# 1 109.0244 20.7999 67.9622 0.0001 2.1425 0.0000
# 2 20.7999 40.2933 26.5381 0.0006 -2.7034 -0.0006
# 3 67.9622 26.5381 131.0794 -0.0002 -12.7657 0.0001
# 4 0.0001 0.0006 -0.0002 19.6063 0.0000 1.8076
# 5 2.1425 -2.7034 -12.7657 0.0000 22.8840 0.0000
# 6 0.0000 -0.0006 0.0001 1.8076 0.0000 18.1273
#
#
#
# Elastic Compliance Matrix: (Units=1/GPa)
#
#
# Indices 1 2 3 4 5 6 
#
# 1 0.014535 -0.002950 -0.007513 0.000000 -0.005901 0.000000
# 2 -0.002950 0.029236 -0.004257 -0.000001 0.001355 0.000001
# 3 -0.007513 -0.004257 0.013119 0.000000 0.007519 0.000000
# 4 0.000000 -0.000001 0.000000 0.051477 0.000000 -0.005133
# 5 -0.005901 0.001355 0.007519 0.000000 0.048605 0.000000
# 6 0.000000 0.000001 0.000000 -0.005133 0.000000 0.055677
#
#
# Mechanical properties :
#
#
# Convention : Reuss Voigt Hill
#
# Bulk Modulus (GPa) = 36.43366 56.77751 46.60559
# Shear Modulus (GPa) = 19.90128 23.12998 21.51563
#
# Velocity S-wave (km/s) = 3.36287 3.62541 3.49660
# Velocity P-wave (km/s) = 5.98180 7.05610 6.54104
#
# Compressibility (1/GPa) = 0.02744714
#
# Stress axis : x y z
#
# Youngs Moduli (GPa) = 68.80146 34.20444 76.22771
#
# Poissons Ratio (x) = 0.10092 0.57271
# Poissons Ratio (y) = 0.20299 0.32453
# Poissons Ratio (z) = 0.51692 0.14562
#
# Static dielectric constant tensor:
#      x y z
#    x 3.267710 0.000000 -0.735430 
#    y 0.000000 3.104280 0.000000 
#    z -0.735430 0.000000 1.556410 
# 
# 
# High freq. dielectric constant tensor:
#      x y z
#    x 1.679150 0.000000 -0.016400 
#    y 0.000000 1.652860 0.000000 
#    z -0.016400 0.000000 1.684300 
# 
# From -- ./inp_files/324080.got.cif
#   From: 2010.06.25/outbox.cif.g09.slc.cpg/sg12_163_cif.got.tgz:324080.got - 2010.06.28 00:19:55.
