data_PCOD8095946
_publ_section_title
;
Structure prediction by ZEFSAII (Michael W. Deem and Ramdas Pophale) SiO2 
 PCOD8095946
Probable space group: C 2/M
;
_chemical_formula_sum "Si O2"
_cell_formula_units_Z 64
_cell_length_a 22.027069
_cell_length_b 18.880398
_cell_length_c 19.581703
_cell_angle_alpha 90.000000
_cell_angle_beta 27.972863
_cell_angle_gamma 90.000000
_cell_volume 3819.799174
_symmetry_space_group_name_H-M "C 2/M"
_symmetry_group_IT_number 12
_symmetry_cell_setting 'monoclinic'
loop_
_space_group_symop_operation_xyz
x,y,z
-x,y,-z
-x,-y,-z
x,-y,z
1/2+x,1/2+y,z
1/2-x,1/2+y,-z
1/2-x,1/2-y,-z
1/2+x,1/2-y,z
loop_
_atom_site_type_symbol
_atom_site_label
_atom_site_fract_x
_atom_site_fract_y
_atom_site_fract_z
Si Si1 0.732047 0.919146 0.905122
Si Si2 0.385602 0.704775 0.560208
Si Si3 0.361600 0.802781 0.102812
Si Si4 0.363606 0.844202 0.875705
Si Si5 0.883227 0.699177 0.436103
Si Si6 0.369180 0.290663 0.967868
Si Si7 0.384659 0.662505 0.342251
Si Si8 0.531384 0.582114 0.615792
O O1 0.665386 0.874199 0.912137
O O2 0.881039 0.894905 0.765204
O O3 0.721764 0.000000 0.892589
O O4 0.660739 0.909639 0.048875
O O5 0.500000 0.711423 0.500000
O O6 0.245283 0.708613 0.733295
O O7 0.400327 0.771326 0.495251
O O8 0.394216 0.629053 0.513872
O O9 0.500000 0.810761 0.000000
O O10 0.359049 0.734974 0.055708
O O11 0.498831 0.852747 0.701285
O O12 0.364676 0.774496 0.920681
O O13 0.251552 0.841249 0.929828
O O14 0.752179 0.653226 0.560036
O O15 0.882191 0.765152 0.386568
O O16 0.502185 0.334207 0.826618
O O17 0.409625 0.596684 0.367998
O O18 0.550443 0.500000 0.578035
#
# Coordination Sequence:
#
# PCOD8095946 Si02
#       8
#     8   8   8   8   8   8   8   8
#     4  10  20  34  50  69  97 132 169 204 233 280
#     4  11  20  33  49  72 102 138 167 192 226 289
#     4  11  22  33  47  71 102 134 166 196 234 284
#     4   9  16  29  49  70  87 118 157 203 249 282
#     4   9  18  28  47  70  97 119 153 203 254 282
#     4   9  16  28  49  66  90 122 157 198 243 281
#     4   9  16  31  48  70  92 120 155 206 252 283
#     4  10  20  33  51  71  95 132 172 201 230 282
#
# _framework density 16.754808000000001
#
# number of rings (size 3 to 8) (size 9 to 14) (size 15 to 20)
#    0.000    2.250    2.500    1.500    3.500    4.000 
#    0.000    1.875    0.000    0.000    0.000    0.000 
#    0.000   20.000    0.000    0.000    0.000    0.000 
#
# Total GULP energy -396786.944286 kJ/mol
# GULP energy per Si atom -12399.592009 kJ/mol
# Density = 1.671667 g / cm^3
# Si number density = 16.754808 Si / 1000 Ang^3
#
#
#
# Elastic Constant Matrix: (Units=GPa)
#
#
# Indices 1 2 3 4 5 6 
#
# 1 79.9732 28.7249 47.4921 0.0062 -1.5301 0.0013
# 2 28.7249 14.3959 24.6197 0.0130 5.8133 0.0007
# 3 47.4921 24.6197 142.6960 0.0042 -2.8047 0.0013
# 4 0.0062 0.0130 0.0042 26.8481 -0.0064 3.1069
# 5 -1.5301 5.8133 -2.8047 -0.0064 30.7494 -0.0014
# 6 0.0013 0.0007 0.0013 3.1069 -0.0014 18.7141
#
#
#
# Elastic Compliance Matrix: (Units=1/GPa)
#
#
# Indices 1 2 3 4 5 6 
#
# 1 0.062538 -0.145842 0.004961 0.000064 0.031136 -0.000007
# 2 -0.145842 0.453029 -0.031505 -0.000206 -0.095778 0.000023
# 3 0.004961 -0.031505 0.010934 0.000014 0.007200 -0.000002
# 4 0.000064 -0.000206 0.000014 0.037976 0.000051 -0.006305
# 5 0.031136 -0.095778 0.007200 0.000051 0.052834 -0.000004
# 6 -0.000007 0.000023 -0.000002 -0.006305 -0.000004 0.054482
#
#
# Mechanical properties :
#
#
# Convention : Reuss Voigt Hill
#
# Bulk Modulus (GPa) = 5.50277 48.74870 27.12574
# Shear Modulus (GPa) = 4.64191 24.34423 14.49307
#
# Velocity S-wave (km/s) = 1.66629 3.81592 2.94430
# Velocity P-wave (km/s) = 2.64451 6.96947 5.27100
#
# Compressibility (1/GPa) = 0.18172662
#
# Stress axis : x y z
#
# Youngs Moduli (GPa) = 15.99035 2.20737 91.45677
#
# Poissons Ratio (x) = 0.32193 -0.45369
# Poissons Ratio (y) = 2.33207 2.88139
# Poissons Ratio (z) = -0.07932 0.06954
#
# Static dielectric constant tensor:
#      x y z
#    x 3.296320 -0.000010 0.274910 
#    y -0.000010 2.763680 -0.000030 
#    z 0.274910 -0.000030 4.572030 
# 
# 
# High freq. dielectric constant tensor:
#      x y z
#    x 1.642740 0.000000 -0.010210 
#    y 0.000000 1.597340 0.000000 
#    z -0.010210 0.000000 1.658170 
# 
# From -- ./inp_files/279121.got.cif
#   From: 2010.06.25/outbox.cif.g09.slc.cpg/sg12_140_cif.got.tgz:279121.got - 2010.06.28 00:19:55.
