data_PCOD8095245
_publ_section_title
;
Structure prediction by ZEFSAII (Michael W. Deem and Ramdas Pophale) SiO2 
 PCOD8095245
Probable space group: C 2/M
;
_chemical_formula_sum "Si O2"
_cell_formula_units_Z 48
_cell_length_a 32.426010
_cell_length_b 9.254159
_cell_length_c 14.652398
_cell_angle_alpha 90.000000
_cell_angle_beta 142.547730
_cell_angle_gamma 90.000000
_cell_volume 2673.710656
_symmetry_space_group_name_H-M "C 2/M"
_symmetry_group_IT_number 12
_symmetry_cell_setting 'monoclinic'
loop_
_space_group_symop_operation_xyz
x,y,z
-x,y,-z
-x,-y,-z
x,-y,z
1/2+x,1/2+y,z
1/2-x,1/2+y,-z
1/2-x,1/2-y,-z
1/2+x,1/2-y,z
loop_
_atom_site_type_symbol
_atom_site_label
_atom_site_fract_x
_atom_site_fract_y
_atom_site_fract_z
Si Si1 0.063504 0.328518 0.556373
Si Si2 0.207234 0.669544 0.297241
Si Si3 0.336625 0.831157 0.579229
Si Si4 0.180435 0.329180 0.894418
Si Si5 0.964273 0.328403 0.692701
Si Si6 0.384294 0.171637 0.029090
O O1 0.057661 0.500000 0.545682
O O2 0.132262 0.280470 0.726769
O O3 0.061857 0.267871 0.450540
O O4 0.000000 0.263163 0.500000
O O5 0.220805 0.500000 0.311012
O O6 0.279439 0.748467 0.421118
O O7 0.168183 0.706103 0.322423
O O8 0.161206 0.730544 0.134188
O O9 0.410702 0.779133 0.675667
O O10 0.325827 0.000000 0.541435
O O11 0.192362 0.500000 0.916985
O O12 0.250000 0.250000 0.000000
O O13 0.147556 0.276051 0.931573
O O14 0.968839 0.500000 0.696372
O O15 0.039152 0.266100 0.846456
O O16 0.386836 0.000000 0.030071
#
# Coordination Sequence:
#
# PCOD8095245 Si02
#       6
#     8   8   8   8   8   8
#     4   9  15  27  46  68  93 120 152 191 230 269
#     4   9  18  32  48  68  97 126 150 185 235 284
#     4   9  18  31  49  72  93 119 156 194 231 272
#     4  10  20  32  48  71  96 124 156 190 230 275
#     4   9  16  27  46  71  93 116 155 199 230 263
#     4   9  17  30  47  69  96 123 153 192 235 274
#
# _framework density 17.952580000000001
#
# number of rings (size 3 to 8) (size 9 to 14) (size 15 to 20)
#    0.000    2.833    1.667    0.000    2.333    0.667 
#    0.000    3.333    0.000    2.500    0.000    4.667 
#    0.000    0.000    0.000    0.000    0.000    0.000 
#
# Total GULP energy -297538.955222 kJ/mol
# GULP energy per Si atom -12397.456468 kJ/mol
# Density = 1.791172 g / cm^3
# Si number density = 17.952580 Si / 1000 Ang^3
#
#
#
# Elastic Constant Matrix: (Units=GPa)
#
#
# Indices 1 2 3 4 5 6 
#
# 1 107.2845 19.4653 73.6876 0.0000 16.4100 0.0000
# 2 19.4653 16.1210 26.6801 0.0000 4.5112 0.0000
# 3 73.6876 26.6801 165.5808 0.0000 5.9616 0.0000
# 4 0.0000 0.0000 0.0000 23.0699 0.0000 4.0750
# 5 16.4100 4.5112 5.9616 0.0000 40.0266 0.0000
# 6 0.0000 0.0000 0.0000 4.0750 0.0000 14.7130
#
#
#
# Elastic Compliance Matrix: (Units=1/GPa)
#
#
# Indices 1 2 3 4 5 6 
#
# 1 0.015102 -0.008355 -0.005213 0.000000 -0.004473 0.000000
# 2 -0.008355 0.091538 -0.010841 0.000000 -0.005277 0.000000
# 3 -0.005213 -0.010841 0.010039 0.000000 0.001864 0.000000
# 4 0.000000 0.000000 0.000000 0.045576 0.000000 -0.012623
# 5 -0.004473 -0.005277 0.001864 0.000000 0.027134 0.000000
# 6 0.000000 0.000000 0.000000 -0.012623 0.000000 0.071463
#
#
# Mechanical properties :
#
#
# Convention : Reuss Voigt Hill
#
# Bulk Modulus (GPa) = 14.73629 58.73916 36.73772
# Shear Modulus (GPa) = 15.04699 26.83879 20.94289
#
# Velocity S-wave (km/s) = 2.89823 3.87070 3.41921
# Velocity P-wave (km/s) = 4.40748 7.26405 6.00801
#
# Compressibility (1/GPa) = 0.06785968
#
# Stress axis : x y z
#
# Youngs Moduli (GPa) = 66.21662 10.92443 99.60914
#
# Poissons Ratio (x) = 0.09127 0.51931
# Poissons Ratio (y) = 0.55323 1.07991
# Poissons Ratio (z) = 0.34522 0.11844
#
# Static dielectric constant tensor:
#      x y z
#    x 3.522250 0.000000 -0.057900 
#    y 0.000000 2.758790 0.000000 
#    z -0.057900 0.000000 3.593710 
# 
# 
# High freq. dielectric constant tensor:
#      x y z
#    x 1.705620 0.000000 0.000190 
#    y 0.000000 1.631150 0.000000 
#    z 0.000190 0.000000 1.707620 
# 
# From -- ./inp_files/153723.got.cif
#   From: 2010.06.25/outbox.cif.g09.slc.cpg/sg12_77_cif.got.tgz:153723.got - 2010.06.28 00:19:55.
