data_PCOD8095815
_publ_section_title
;
Structure prediction by ZEFSAII (Michael W. Deem and Ramdas Pophale) SiO2 
 PCOD8095815
Probable space group: C 2/M
;
_chemical_formula_sum "Si O2"
_cell_formula_units_Z 56
_cell_length_a 18.686151
_cell_length_b 9.317948
_cell_length_c 29.364356
_cell_angle_alpha 90.000000
_cell_angle_beta 37.207957
_cell_angle_gamma 90.000000
_cell_volume 3091.772800
_symmetry_space_group_name_H-M "C 2/M"
_symmetry_group_IT_number 12
_symmetry_cell_setting 'monoclinic'
loop_
_space_group_symop_operation_xyz
x,y,z
-x,y,-z
-x,-y,-z
x,-y,z
1/2+x,1/2+y,z
1/2-x,1/2+y,-z
1/2-x,1/2-y,-z
1/2+x,1/2-y,z
loop_
_atom_site_type_symbol
_atom_site_label
_atom_site_fract_x
_atom_site_fract_y
_atom_site_fract_z
Si Si1 0.498532 0.668247 0.134327
Si Si2 0.345645 0.330107 0.861227
Si Si3 0.575466 0.169132 0.005992
Si Si4 0.586096 0.332021 0.271734
Si Si5 0.769750 0.662750 0.729447
Si Si6 0.128885 0.832305 0.557329
Si Si7 0.514531 0.836892 0.440244
O O1 0.521733 0.500000 0.114757
O O2 0.582640 0.730947 0.131692
O O3 0.522508 0.750317 0.075771
O O4 0.363732 0.700109 0.217266
O O5 0.353901 0.500000 0.858122
O O6 0.405010 0.273391 0.784373
O O7 0.210151 0.278563 0.931260
O O8 0.568228 0.000000 0.018599
O O9 0.500000 0.212953 0.000000
O O10 0.613126 0.500000 0.260152
O O11 0.687493 0.260298 0.250684
O O12 0.455035 0.296869 0.356911
O O13 0.779140 0.500000 0.742260
O O14 0.849711 0.686020 0.643972
O O15 0.250000 0.750000 0.500000
O O16 0.066906 0.777636 0.543327
O O17 0.154212 0.000000 0.540238
O O18 0.500000 0.801583 0.500000
O O19 0.473334 0.000000 0.450161
#
# Coordination Sequence:
#
# PCOD8095815 Si02
#       7
#     8   8   8   8   8   8   8
#     4  10  20  33  50  73 101 130 160 200 248 295
#     4   9  18  33  52  74  99 127 163 206 247 289
#     4  10  20  34  53  74  97 129 166 203 243 289
#     4   9  18  34  55  74  95 130 171 205 242 294
#     4   9  18  32  50  73 100 129 163 205 250 295
#     4  10  20  33  52  77 104 135 170 210 254 302
#     4   9  18  33  53  75 100 133 172 213 257 305
#
# _framework density 18.112584999999999
#
# number of rings (size 3 to 8) (size 9 to 14) (size 15 to 20)
#    0.000    2.571    0.000    1.714    0.000    4.000 
#    0.000    5.714    0.000    1.714    0.000    0.000 
#    0.000    0.000    0.000    0.000    0.000    0.000 
#
# Total GULP energy -347193.863900 kJ/mol
# GULP energy per Si atom -12399.780854 kJ/mol
# Density = 1.807136 g / cm^3
# Si number density = 18.112585 Si / 1000 Ang^3
#
#
#
# Elastic Constant Matrix: (Units=GPa)
#
#
# Indices 1 2 3 4 5 6 
#
# 1 149.4921 47.8233 95.3827 0.0000 -1.5564 0.0002
# 2 47.8233 51.0543 50.2062 -0.0001 -2.7059 -0.0003
# 3 95.3827 50.2062 138.0977 0.0000 0.2341 0.0000
# 4 0.0000 -0.0001 0.0000 24.6695 0.0000 0.6299
# 5 -1.5564 -2.7059 0.2341 0.0000 39.1952 0.0000
# 6 0.0002 -0.0003 0.0000 0.6299 0.0000 25.2387
#
#
#
# Elastic Compliance Matrix: (Units=1/GPa)
#
#
# Indices 1 2 3 4 5 6 
#
# 1 0.012766 -0.005100 -0.006964 0.000000 0.000196 0.000000
# 2 -0.005100 0.032709 -0.008373 0.000000 0.002106 0.000000
# 3 -0.006964 -0.008373 0.015097 0.000000 -0.000945 0.000000
# 4 0.000000 0.000000 0.000000 0.040562 0.000000 -0.001012
# 5 0.000196 0.002106 -0.000945 0.000000 0.025672 0.000000
# 6 0.000000 0.000000 0.000000 -0.001012 0.000000 0.039647
#
#
# Mechanical properties :
#
#
# Convention : Reuss Voigt Hill
#
# Bulk Modulus (GPa) = 50.76298 80.60762 65.68530
# Shear Modulus (GPa) = 23.37636 27.50280 25.43958
#
# Velocity S-wave (km/s) = 3.59641 3.90094 3.75177
# Velocity P-wave (km/s) = 6.73296 8.05544 7.42370
#
# Compressibility (1/GPa) = 0.01969940
#
# Stress axis : x y z
#
# Youngs Moduli (GPa) = 78.33403 30.57230 66.24035
#
# Poissons Ratio (x) = 0.15591 0.46127
# Poissons Ratio (y) = 0.39948 0.55463
# Poissons Ratio (z) = 0.54548 0.25598
#
# Static dielectric constant tensor:
#      x y z
#    x 3.505790 0.000000 -0.104950 
#    y 0.000000 3.232100 -0.000010 
#    z -0.104950 -0.000010 3.668880 
# 
# 
# High freq. dielectric constant tensor:
#      x y z
#    x 1.699960 0.000000 -0.001840 
#    y 0.000000 1.684840 0.000000 
#    z -0.001840 0.000000 1.715920 
# 
# From -- ./inp_files/377653.got.cif
#   From: 2010.06.25/outbox.cif.g09.slc.cpg/sg12_189_cif.got.tgz:377653.got - 2010.06.28 00:19:55.
