data_PCOD8095512
_publ_section_title
;
Structure prediction by ZEFSAII (Michael W. Deem and Ramdas Pophale) SiO2 
 PCOD8095512
Probable space group: C 2/M
;
_chemical_formula_sum "Si O2"
_cell_formula_units_Z 56
_cell_length_a 27.021334
_cell_length_b 8.650941
_cell_length_c 13.466949
_cell_angle_alpha 90.000000
_cell_angle_beta 63.646237
_cell_angle_gamma 90.000000
_cell_volume 2820.859310
_symmetry_space_group_name_H-M "C 2/M"
_symmetry_group_IT_number 12
_symmetry_cell_setting 'monoclinic'
loop_
_space_group_symop_operation_xyz
x,y,z
-x,y,-z
-x,-y,-z
x,-y,z
1/2+x,1/2+y,z
1/2-x,1/2+y,-z
1/2-x,1/2-y,-z
1/2+x,1/2-y,z
loop_
_atom_site_type_symbol
_atom_site_label
_atom_site_fract_x
_atom_site_fract_y
_atom_site_fract_z
Si Si1 0.969281 0.818735 0.233490
Si Si2 0.406728 0.824312 0.111514
Si Si3 0.867861 0.817780 0.453411
Si Si4 0.197579 0.681085 0.325104
Si Si5 0.090478 0.819402 0.102960
Si Si6 0.699121 0.178654 0.663832
Si Si7 0.699746 0.316820 0.107082
O O1 0.952525 0.729352 0.149000
O O2 0.929378 0.773966 0.360684
O O3 0.031998 0.769092 0.204585
O O4 0.964564 0.000000 0.214181
O O5 0.346057 0.805019 0.210175
O O6 0.419321 0.000000 0.071048
O O7 0.409514 0.721178 0.012110
O O8 0.858164 0.737315 0.568877
O O9 0.822660 0.752846 0.417806
O O10 0.860317 0.000000 0.471005
O O11 0.195214 0.500000 0.306501
O O12 0.248180 0.723994 0.350950
O O13 0.204807 0.770169 0.216317
O O14 0.142419 0.745178 0.114738
O O15 0.097399 0.000000 0.106295
O O16 0.714797 0.000000 0.631467
O O17 0.701900 0.500000 0.096590
O O18 0.750000 0.250000 0.000000
#
# Coordination Sequence:
#
# PCOD8095512 Si02
#       7
#     8   8   8   8   8   8   8
#     4   9  19  36  57  81 110 145 184 224 269 324
#     4  10  20  32  52  84 117 147 179 221 273 326
#     4  10  20  36  58  83 112 145 183 227 275 327
#     4  12  24  38  57  81 111 147 187 228 275 328
#     4  10  21  37  57  80 108 145 186 227 271 323
#     4  10  20  35  55  82 116 149 184 226 275 330
#     4  11  24  42  62  84 111 143 183 228 274 324
#
# _framework density 19.852107
#
# number of rings (size 3 to 8) (size 9 to 14) (size 15 to 20)
#    0.000    1.714    0.000    4.714    0.000    8.000 
#    0.000    0.714    0.000    4.286    0.000    0.000 
#    0.000    0.000    0.000    0.000    0.000    0.000 
#
# Total GULP energy -347244.513178 kJ/mol
# GULP energy per Si atom -12401.589756 kJ/mol
# Density = 1.980692 g / cm^3
# Si number density = 19.852107 Si / 1000 Ang^3
#
#
#
# Elastic Constant Matrix: (Units=GPa)
#
#
# Indices 1 2 3 4 5 6 
#
# 1 117.3643 33.4445 56.8154 0.0000 -23.2138 0.0000
# 2 33.4445 43.4619 18.9895 0.0000 -6.1581 0.0000
# 3 56.8154 18.9895 128.1173 0.0000 -10.4444 0.0000
# 4 0.0000 0.0000 0.0000 33.7226 0.0000 -2.5154
# 5 -23.2138 -6.1581 -10.4444 0.0000 12.0262 0.0000
# 6 0.0000 0.0000 0.0000 -2.5154 0.0000 23.0653
#
#
#
# Elastic Compliance Matrix: (Units=1/GPa)
#
#
# Indices 1 2 3 4 5 6 
#
# 1 0.018694 -0.008375 -0.004796 0.000000 0.027631 0.000000
# 2 -0.008375 0.029561 -0.000809 0.000000 -0.001731 0.000000
# 3 -0.004796 -0.000809 0.009970 0.000000 -0.001014 0.000000
# 4 0.000000 0.000000 0.000000 0.029897 0.000000 0.003260
# 5 0.027631 -0.001731 -0.001014 0.000000 0.134720 0.000000
# 6 0.000000 0.000000 0.000000 0.003260 0.000000 0.043711
#
#
# Mechanical properties :
#
#
# Convention : Reuss Voigt Hill
#
# Bulk Modulus (GPa) = 33.04125 56.38249 44.71187
# Shear Modulus (GPa) = 16.41493 25.74241 21.07867
#
# Velocity S-wave (km/s) = 2.87864 3.60489 3.26204
# Velocity P-wave (km/s) = 5.26579 6.76682 6.06294
#
# Compressibility (1/GPa) = 0.03026520
#
# Stress axis : x y z
#
# Youngs Moduli (GPa) = 53.49304 33.82809 100.30549
#
# Poissons Ratio (x) = 0.28330 0.48110
# Poissons Ratio (y) = 0.44799 0.08113
# Poissons Ratio (z) = 0.25657 0.02736
#
# Static dielectric constant tensor:
#      x y z
#    x 3.849850 0.000000 -0.285380 
#    y 0.000000 3.633790 0.000000 
#    z -0.285380 0.000000 3.775650 
# 
# 
# High freq. dielectric constant tensor:
#      x y z
#    x 1.767760 0.000000 -0.020340 
#    y 0.000000 1.776920 0.000000 
#    z -0.020340 0.000000 1.781170 
# 
# From -- ./inp_files/180773.got.cif
#   From: 2010.06.25/outbox.cif.g09.slc.cpg/sg12_91_cif.got.tgz:180773.got - 2010.06.28 00:19:55.
