data_PCOD8095134
_publ_section_title
;
Structure prediction by ZEFSAII (Michael W. Deem and Ramdas Pophale) SiO2 
 PCOD8095134
Probable space group: C 2/M
;
_chemical_formula_sum "Si O2"
_cell_formula_units_Z 40
_cell_length_a 27.407679
_cell_length_b 9.195677
_cell_length_c 13.641425
_cell_angle_alpha 90.000000
_cell_angle_beta 41.318331
_cell_angle_gamma 90.000000
_cell_volume 2269.963367
_symmetry_space_group_name_H-M "C 2/M"
_symmetry_group_IT_number 12
_symmetry_cell_setting 'monoclinic'
loop_
_space_group_symop_operation_xyz
x,y,z
-x,y,-z
-x,-y,-z
x,-y,z
1/2+x,1/2+y,z
1/2-x,1/2+y,-z
1/2-x,1/2-y,-z
1/2+x,1/2-y,z
loop_
_atom_site_type_symbol
_atom_site_label
_atom_site_fract_x
_atom_site_fract_y
_atom_site_fract_z
Si Si1 0.624648 0.328160 0.073298
Si Si2 0.421598 0.827552 0.662662
Si Si3 0.725973 0.671922 0.633711
Si Si4 0.929111 0.828157 0.054067
Si Si5 0.280295 0.172192 0.757926
O O1 0.622463 0.500000 0.096878
O O2 0.587991 0.244091 0.217731
O O3 0.575479 0.284568 0.053111
O O4 0.709053 0.273868 0.927706
O O5 0.500000 0.778336 0.500000
O O6 0.356045 0.769107 0.690953
O O7 0.417594 0.000000 0.680842
O O8 0.731336 0.500000 0.610674
O O9 0.750000 0.750000 0.500000
O O10 0.643005 0.725078 0.779726
O O11 0.775884 0.723246 0.651176
O O12 0.933257 0.000000 0.055157
O O13 0.000000 0.755765 0.000000
O O14 0.277555 0.000000 0.762993
#
# Coordination Sequence:
#
# PCOD8095134 Si02
#       5
#     8   8   8   8   8
#     4   9  17  31  51  69  86 115 154 190 219 255
#     4  10  20  32  46  66  93 122 148 179 225 273
#     4   9  17  30  48  68  91 119 149 182 221 265
#     4   8  15  29  48  68  90 118 150 182 221 267
#     4   8  16  32  49  64  88 123 154 178 217 271
#
# _framework density 17.62143
#
# number of rings (size 3 to 8) (size 9 to 14) (size 15 to 20)
#    0.000    3.200    0.000    3.000    0.000    2.000 
#    0.000    5.000    0.000    1.200    0.000    0.000 
#    0.000    0.000    0.000    0.000    0.000    0.000 
#
# Total GULP energy -247882.053135 kJ/mol
# GULP energy per Si atom -12394.102657 kJ/mol
# Density = 1.758132 g / cm^3
# Si number density = 17.621430 Si / 1000 Ang^3
#
#
#
# Elastic Constant Matrix: (Units=GPa)
#
#
# Indices 1 2 3 4 5 6 
#
# 1 164.5046 25.9440 99.9882 0.0000 -3.6322 0.0000
# 2 25.9440 20.1640 29.8943 -0.0002 6.6269 0.0000
# 3 99.9882 29.8943 140.9318 0.0000 14.2395 0.0000
# 4 0.0000 -0.0002 0.0000 25.1195 0.0000 11.3590
# 5 -3.6322 6.6269 14.2395 0.0000 37.2375 0.0000
# 6 0.0000 0.0000 0.0000 11.3590 0.0000 21.6526
#
#
#
# Elastic Compliance Matrix: (Units=1/GPa)
#
#
# Indices 1 2 3 4 5 6 
#
# 1 0.011694 -0.005316 -0.007677 0.000000 0.005022 0.000000
# 2 -0.005316 0.076713 -0.011514 0.000001 -0.009768 -0.000001
# 3 -0.007677 -0.011514 0.015450 0.000000 -0.004608 0.000000
# 4 0.000000 0.000001 0.000000 0.052191 0.000000 -0.027379
# 5 0.005022 -0.009768 -0.004608 0.000000 0.030845 0.000000
# 6 0.000000 -0.000001 0.000000 -0.027379 0.000000 0.060547
#
#
# Mechanical properties :
#
#
# Convention : Reuss Voigt Hill
#
# Bulk Modulus (GPa) = 18.23341 70.80595 44.51968
# Shear Modulus (GPa) = 15.88647 28.12017 22.00332
#
# Velocity S-wave (km/s) = 3.00583 3.99907 3.53748
# Velocity P-wave (km/s) = 4.73460 7.84808 6.48108
#
# Compressibility (1/GPa) = 0.05484438
#
# Stress axis : x y z
#
# Youngs Moduli (GPa) = 85.51418 13.03561 64.72551
#
# Poissons Ratio (x) = 0.06929 0.49687
# Poissons Ratio (y) = 0.45456 0.74525
# Poissons Ratio (z) = 0.65645 0.15009
#
# Static dielectric constant tensor:
#      x y z
#    x 3.897600 0.000000 -0.303390 
#    y 0.000000 2.791360 0.000000 
#    z -0.303390 0.000000 3.357390 
# 
# 
# High freq. dielectric constant tensor:
#      x y z
#    x 1.697290 0.000000 0.000520 
#    y 0.000000 1.635070 0.000000 
#    z 0.000520 0.000000 1.681520 
# 
# From -- ./inp_files/140384.got.cif
#   From: 2010.06.25/outbox.cif.g09.slc.cpg/sg12_71_cif.got.tgz:140384.got - 2010.06.28 00:19:55.
