data_PCOD8095477
_publ_section_title
;
Structure prediction by ZEFSAII (Michael W. Deem and Ramdas Pophale) SiO2 
 PCOD8095477
Probable space group: C 2/M
;
_chemical_formula_sum "Si O2"
_cell_formula_units_Z 40
_cell_length_a 13.391439
_cell_length_b 13.698090
_cell_length_c 12.815192
_cell_angle_alpha 90.000000
_cell_angle_beta 117.656293
_cell_angle_gamma 90.000000
_cell_volume 2082.200482
_symmetry_space_group_name_H-M "C 2/M"
_symmetry_group_IT_number 12
_symmetry_cell_setting 'monoclinic'
loop_
_space_group_symop_operation_xyz
x,y,z
-x,y,-z
-x,-y,-z
x,-y,z
1/2+x,1/2+y,z
1/2-x,1/2+y,-z
1/2-x,1/2-y,-z
1/2+x,1/2-y,z
loop_
_atom_site_type_symbol
_atom_site_label
_atom_site_fract_x
_atom_site_fract_y
_atom_site_fract_z
Si Si1 0.630173 0.210318 0.570993
Si Si2 0.730947 0.290826 0.159088
Si Si3 0.317089 0.611268 0.534424
Si Si4 0.282056 0.612094 0.058455
Si Si5 0.455515 0.388590 0.804302
O O1 0.500000 0.182504 0.500000
O O2 0.670903 0.194416 0.708662
O O3 0.653909 0.322678 0.551219
O O4 0.696241 0.138777 0.524522
O O5 0.721640 0.178785 0.116056
O O6 0.609998 0.318554 0.148056
O O7 0.763342 0.361140 0.078398
O O8 0.313953 0.500000 0.494232
O O9 0.414788 0.629360 0.666708
O O10 0.255762 0.500000 0.071929
O O11 0.414154 0.637012 0.126098
O O12 0.431345 0.500000 0.826725
#
# Coordination Sequence:
#
# PCOD8095477 Si02
#       5
#     8   8   8   8   8
#     4  10  20  34  52  74 102 135 166 200 246 295
#     4  10  20  32  52  77 102 129 166 208 246 291
#     4   9  19  34  52  77 103 127 164 207 245 295
#     4  10  20  34  53  76 100 129 167 208 249 293
#     4   9  17  33  57  78  97 127 165 205 250 296
#
# _framework density 19.210445
#
# number of rings (size 3 to 8) (size 9 to 14) (size 15 to 20)
#    0.000    2.400    0.000    2.400    0.000    4.000 
#    0.000    0.000    0.000   10.800    0.000    0.000 
#    0.000    0.000    0.000    0.000    0.000    0.000 
#
# Total GULP energy -248067.135468 kJ/mol
# GULP energy per Si atom -12403.356773 kJ/mol
# Density = 1.916672 g / cm^3
# Si number density = 19.210445 Si / 1000 Ang^3
#
#
#
# Elastic Constant Matrix: (Units=GPa)
#
#
# Indices 1 2 3 4 5 6 
#
# 1 73.7507 40.2870 48.3772 0.0000 8.4204 0.0000
# 2 40.2870 103.9514 24.2246 0.0000 7.0322 0.0000
# 3 48.3772 24.2246 76.7146 0.0000 11.1917 0.0000
# 4 0.0000 0.0000 0.0000 24.8773 0.0000 -2.6736
# 5 8.4204 7.0322 11.1917 0.0000 18.1753 0.0000
# 6 0.0000 0.0000 0.0000 -2.6736 0.0000 28.3077
#
#
#
# Elastic Compliance Matrix: (Units=1/GPa)
#
#
# Indices 1 2 3 4 5 6 
#
# 1 0.027222 -0.007042 -0.014833 0.000000 -0.000753 0.000000
# 2 -0.007042 0.012286 0.000856 0.000000 -0.002018 0.000000
# 3 -0.014833 0.000856 0.023253 0.000000 -0.007778 0.000000
# 4 0.000000 0.000000 0.000000 0.040609 0.000000 0.003835
# 5 -0.000753 -0.002018 -0.007778 0.000000 0.060939 0.000000
# 6 0.000000 0.000000 0.000000 0.003835 0.000000 0.035688
#
#
# Mechanical properties :
#
#
# Convention : Reuss Voigt Hill
#
# Bulk Modulus (GPa) = 48.25598 53.35491 50.80544
# Shear Modulus (GPa) = 20.08481 23.70726 21.89603
#
# Velocity S-wave (km/s) = 3.23695 3.51676 3.37975
# Velocity P-wave (km/s) = 6.25657 6.65765 6.46022
#
# Compressibility (1/GPa) = 0.02072282
#
# Stress axis : x y z
#
# Youngs Moduli (GPa) = 36.73539 81.39137 43.00431
#
# Poissons Ratio (x) = 0.57319 0.63787
# Poissons Ratio (y) = 0.25871 -0.03680
# Poissons Ratio (z) = 0.54488 -0.06965
#
# Static dielectric constant tensor:
#      x y z
#    x 3.330480 0.000000 0.048280 
#    y 0.000000 3.547780 0.000000 
#    z 0.048280 0.000000 3.604490 
# 
# 
# High freq. dielectric constant tensor:
#      x y z
#    x 1.730600 0.000000 0.000180 
#    y 0.000000 1.744880 0.000000 
#    z 0.000180 0.000000 1.755630 
# 
# From -- ./inp_files/129144.got.cif
#   From: 2010.06.25/outbox.cif.g09.slc.cpg/sg12_65_cif.got.tgz:129144.got - 2010.06.28 00:19:55.
