data_PCOD8095491
_publ_section_title
;
Structure prediction by ZEFSAII (Michael W. Deem and Ramdas Pophale) SiO2 
 PCOD8095491
Probable space group: C 2/M
;
_chemical_formula_sum "Si O2"
_cell_formula_units_Z 56
_cell_length_a 18.823601
_cell_length_b 8.704768
_cell_length_c 18.458709
_cell_angle_alpha 90.000000
_cell_angle_beta 110.746446
_cell_angle_gamma 90.000000
_cell_volume 2828.432685
_symmetry_space_group_name_H-M "C 2/M"
_symmetry_group_IT_number 12
_symmetry_cell_setting 'monoclinic'
loop_
_space_group_symop_operation_xyz
x,y,z
-x,y,-z
-x,-y,-z
x,-y,z
1/2+x,1/2+y,z
1/2-x,1/2+y,-z
1/2-x,1/2-y,-z
1/2+x,1/2-y,z
loop_
_atom_site_type_symbol
_atom_site_label
_atom_site_fract_x
_atom_site_fract_y
_atom_site_fract_z
Si Si1 0.827468 0.179423 0.997181
Si Si2 0.227576 0.682729 0.710457
Si Si3 0.871182 0.179488 0.850077
Si Si4 0.073747 0.316689 0.723321
Si Si5 0.462968 0.170119 0.563883
Si Si6 0.805403 0.683791 0.462385
Si Si7 0.531849 0.181776 0.867745
O O1 0.834424 0.213922 0.914650
O O2 0.825413 0.000000 0.012856
O O3 0.750000 0.250000 0.000000
O O4 0.901931 0.250141 0.059711
O O5 0.227059 0.500000 0.710965
O O6 0.308873 0.740517 0.769761
O O7 0.158848 0.743680 0.736689
O O8 0.215342 0.746529 0.624891
O O9 0.949859 0.267943 0.867248
O O10 0.888548 0.000000 0.846743
O O11 0.074287 0.500000 0.718589
O O12 0.045618 0.258159 0.791061
O O13 0.016406 0.245563 0.642186
O O14 0.500000 0.156458 0.500000
O O15 0.384111 0.256033 0.520241
O O16 0.446717 0.000000 0.589090
O O17 0.807641 0.500000 0.461158
O O18 0.750000 0.750000 0.500000
O O19 0.537179 0.000000 0.873445
#
# Coordination Sequence:
#
# PCOD8095491 Si02
#       7
#     8   8   8   8   8   8   8
#     4  11  23  41  65  89 115 149 187 229 278 334
#     4   9  17  33  54  77 106 144 187 228 277 336
#     4  10  22  39  58  81 114 153 189 229 281 338
#     4   9  17  31  52  79 110 142 185 236 280 326
#     4   9  15  28  51  79 105 137 187 237 275 319
#     4  10  20  32  52  79 108 143 181 228 281 334
#     4  11  23  37  58  88 118 149 186 233 282 331
#
# _framework density 19.798950999999999
#
# number of rings (size 3 to 8) (size 9 to 14) (size 15 to 20)
#    0.000    2.143    1.429    2.143    2.000    5.143 
#    0.000    0.000    0.000    2.143    0.000    0.000 
#    0.000    0.000    0.000    0.000    0.000    0.000 
#
# Total GULP energy -347042.024347 kJ/mol
# GULP energy per Si atom -12394.358012 kJ/mol
# Density = 1.975389 g / cm^3
# Si number density = 19.798951 Si / 1000 Ang^3
#
#
#
# Elastic Constant Matrix: (Units=GPa)
#
#
# Indices 1 2 3 4 5 6 
#
# 1 165.2828 35.0301 58.9448 0.0000 16.5464 0.0000
# 2 35.0301 37.7360 31.2023 0.0000 -0.0510 0.0000
# 3 58.9448 31.2023 116.9861 0.0000 20.7940 0.0000
# 4 0.0000 0.0000 0.0000 13.9957 0.0000 -10.9499
# 5 16.5464 -0.0510 20.7940 0.0000 44.9890 0.0000
# 6 0.0000 0.0000 0.0000 -10.9499 0.0000 16.4407
#
#
#
# Elastic Compliance Matrix: (Units=1/GPa)
#
#
# Indices 1 2 3 4 5 6 
#
# 1 0.008295 -0.005828 -0.002268 0.000000 -0.002009 0.000000
# 2 -0.005828 0.038992 -0.008555 0.000000 0.006142 0.000000
# 3 -0.002268 -0.008555 0.012885 0.000000 -0.005131 0.000000
# 4 0.000000 0.000000 0.000000 0.149192 0.000000 0.099365
# 5 -0.002009 0.006142 -0.005131 0.000000 0.025345 0.000000
# 6 0.000000 0.000000 0.000000 0.099365 0.000000 0.127004
#
#
# Mechanical properties :
#
#
# Convention : Reuss Voigt Hill
#
# Bulk Modulus (GPa) = 37.21658 63.37327 50.29493
# Shear Modulus (GPa) = 12.37709 28.07360 20.22535
#
# Velocity S-wave (km/s) = 2.50299 3.76963 3.19962
# Velocity P-wave (km/s) = 5.21453 7.14316 6.25364
#
# Compressibility (1/GPa) = 0.02686974
#
# Stress axis : x y z
#
# Youngs Moduli (GPa) = 120.54798 25.64628 77.61141
#
# Poissons Ratio (x) = 0.14946 0.17604
# Poissons Ratio (y) = 0.70253 0.66398
# Poissons Ratio (z) = 0.27343 0.21941
#
# Static dielectric constant tensor:
#      x y z
#    x 3.684680 0.000000 0.075380 
#    y 0.000000 3.199210 0.000000 
#    z 0.075380 0.000000 3.913650 
# 
# 
# High freq. dielectric constant tensor:
#      x y z
#    x 1.789560 0.000000 0.007210 
#    y 0.000000 1.720340 0.000000 
#    z 0.007210 0.000000 1.792190 
# 
# From -- ./inp_files/275612.got.cif
#   From: 2010.06.25/outbox.cif.g09.slc.cpg/sg12_138_cif.got.tgz:275612.got - 2010.06.28 00:19:55.
