data_PCOD8096712
_publ_section_title
;
Structure prediction by ZEFSAII (Michael W. Deem and Ramdas Pophale) SiO2 
 PCOD8096712
Probable space group: C 2/M
;
_chemical_formula_sum "Si O2"
_cell_formula_units_Z 36
_cell_length_a 17.140178
_cell_length_b 13.700124
_cell_length_c 12.709959
_cell_angle_alpha 90.000000
_cell_angle_beta 131.915857
_cell_angle_gamma 90.000000
_cell_volume 2220.909478
_symmetry_space_group_name_H-M "C 2/M"
_symmetry_group_IT_number 12
_symmetry_cell_setting 'monoclinic'
loop_
_space_group_symop_operation_xyz
x,y,z
-x,y,-z
-x,-y,-z
x,-y,z
1/2+x,1/2+y,z
1/2-x,1/2+y,-z
1/2-x,1/2-y,-z
1/2+x,1/2-y,z
loop_
_atom_site_type_symbol
_atom_site_label
_atom_site_fract_x
_atom_site_fract_y
_atom_site_fract_z
Si Si1 0.331339 0.500000 0.994127
Si Si2 0.431278 0.000000 0.738489
Si Si3 0.615909 0.159710 0.137832
Si Si4 0.211440 0.136932 0.231490
Si Si5 0.888210 0.500000 0.456057
Si Si6 0.160112 0.500000 0.013267
Si Si7 0.948479 0.000000 0.839260
O O1 0.311376 0.597067 0.906664
O O2 0.261120 0.500000 0.032656
O O3 0.451593 0.500000 0.148610
O O4 0.389949 0.096701 0.760737
O O5 0.393261 0.000000 0.585788
O O6 0.556857 0.000000 0.848719
O O7 0.699234 0.247021 0.226506
O O8 0.662849 0.095354 0.087169
O O9 0.500000 0.197758 0.000000
O O10 0.126285 0.094484 0.238307
O O11 0.327032 0.098907 0.367111
O O12 0.000000 0.500000 0.500000
O O13 0.000000 0.000000 0.000000
#
# Coordination Sequence:
#
# PCOD8096712 Si02
#       7
#     4   4   8   8   4   4   4
#     4   9  15  26  43  68 100 119 144 194 241 273
#     4   9  18  32  48  66  96 130 156 186 225 273
#     4   9  17  31  49  70  94 122 158 192 227 277
#     4   9  17  29  48  68  89 121 158 190 226 275
#     4  10  20  34  49  69  96 122 153 193 232 277
#     4   9  18  29  46  72  99 125 148 187 242 276
#     4   7  13  25  41  63  88 114 143 186 231 267
#
# _framework density 16.209575000000001
#
# number of rings (size 3 to 8) (size 9 to 14) (size 15 to 20)
#    0.000    3.556    0.000    4.667    0.000    1.778 
#    0.000    2.222    0.000    0.000    0.000    7.778 
#    0.000    0.000    0.000    0.000    0.000    0.000 
#
# Total GULP energy -223019.424252 kJ/mol
# GULP energy per Si atom -12389.968014 kJ/mol
# Density = 1.617268 g / cm^3
# Si number density = 16.209575 Si / 1000 Ang^3
#
#
#
# Elastic Constant Matrix: (Units=GPa)
#
#
# Indices 1 2 3 4 5 6 
#
# 1 132.6551 40.5633 49.3921 0.0000 19.2019 0.0000
# 2 40.5633 119.9146 44.0417 0.0000 10.6818 0.0000
# 3 49.3921 44.0417 80.8659 0.0000 12.2418 0.0000
# 4 0.0000 0.0000 0.0000 -97.6022 0.0000 -17.4750
# 5 19.2019 10.6818 12.2418 0.0000 27.4548 0.0000
# 6 0.0000 0.0000 0.0000 -17.4750 0.0000 6.6448
#
#
#
# Elastic Compliance Matrix: (Units=1/GPa)
#
#
# Indices 1 2 3 4 5 6 
#
# 1 0.010455 -0.001297 -0.004985 0.000000 -0.004585 0.000000
# 2 -0.001297 0.010654 -0.004847 0.000000 -0.001077 0.000000
# 3 -0.004985 -0.004847 0.018485 0.000000 -0.002870 0.000000
# 4 0.000000 0.000000 0.000000 -0.006966 0.000000 -0.018319
# 5 -0.004585 -0.001077 -0.002870 0.000000 0.041328 0.000000
# 6 0.000000 0.000000 0.000000 -0.018319 0.000000 0.102317
#
#
# Mechanical properties :
#
#
# Convention : Reuss Voigt Hill
#
# Bulk Modulus (GPa) = 57.68610 66.82552 62.25581
# Shear Modulus (GPa) = 24.47243 0.59539 12.53391
#
# Velocity S-wave (km/s) = 3.88977 0.60672 2.78374
# Velocity P-wave (km/s) = 7.47253 6.46578 6.98731
#
# Compressibility (1/GPa) = 0.01733520
#
# Stress axis : x y z
#
# Youngs Moduli (GPa) = 95.65014 93.85909 54.09664
#
# Poissons Ratio (x) = 0.12176 0.26968
# Poissons Ratio (y) = 0.12408 0.26222
# Poissons Ratio (z) = 0.47683 0.45496
#
# Static dielectric constant tensor:
#      x y z
#    x 3.179290 0.000000 0.329490 
#    y 0.000000 2.929220 0.000000 
#    z 0.329490 0.000000 2.999270 
# 
# 
# High freq. dielectric constant tensor:
#      x y z
#    x 1.617410 0.000000 0.016350 
#    y 0.000000 1.614800 0.000000 
#    z 0.016350 0.000000 1.599990 
# 
# From -- ./inp_files/224490.got.cif
#   From: 2010.06.25/outbox.cif.g09.slc.cpg/sg12_113_cif.got.tgz:224490.got - 2010.06.28 00:19:55.
