data_PCOD8096306
_publ_section_title
;
Structure prediction by ZEFSAII (Michael W. Deem and Ramdas Pophale) SiO2 
 PCOD8096306
Probable space group: C 2/M
;
_chemical_formula_sum "Si O2"
_cell_formula_units_Z 64
_cell_length_a 14.911639
_cell_length_b 9.324700
_cell_length_c 24.180585
_cell_angle_alpha 90.000000
_cell_angle_beta 90.448791
_cell_angle_gamma 90.000000
_cell_volume 3362.124025
_symmetry_space_group_name_H-M "C 2/M"
_symmetry_group_IT_number 12
_symmetry_cell_setting 'monoclinic'
loop_
_space_group_symop_operation_xyz
x,y,z
-x,y,-z
-x,-y,-z
x,-y,z
1/2+x,1/2+y,z
1/2-x,1/2+y,-z
1/2-x,1/2-y,-z
1/2+x,1/2-y,z
loop_
_atom_site_type_symbol
_atom_site_label
_atom_site_fract_x
_atom_site_fract_y
_atom_site_fract_z
Si Si1 0.766287 0.659129 0.054398
Si Si2 0.475507 0.666669 0.438625
Si Si3 0.764646 0.835092 0.158191
Si Si4 0.387371 0.832575 0.633568
Si Si5 0.975537 0.340788 0.059771
Si Si6 0.892408 0.333643 0.760569
Si Si7 0.527417 0.331725 0.834765
Si Si8 0.228291 0.165566 0.554775
O O1 0.723011 0.500000 0.048765
O O2 0.726072 0.741239 0.107187
O O3 0.870553 0.644170 0.064996
O O4 0.750000 0.750000 0.000000
O O5 0.500000 0.723487 0.500000
O O6 0.500317 0.500000 0.434061
O O7 0.529907 0.750591 0.392795
O O8 0.371856 0.697687 0.425262
O O9 0.702186 0.801121 0.210223
O O10 0.867403 0.797854 0.174147
O O11 0.758081 0.000000 0.139548
O O12 0.378907 0.788854 0.697228
O O13 0.294888 0.786342 0.603805
O O14 0.405813 0.000000 0.626445
O O15 0.019805 0.500000 0.066194
O O16 0.010168 0.236115 0.108127
O O17 0.000000 0.274334 0.000000
O O18 0.918954 0.500000 0.767316
O O19 0.973346 0.238895 0.784442
O O20 0.508207 0.500000 0.836364
O O21 0.250000 0.250000 0.500000
O O22 0.240133 0.000000 0.539761
#
# Coordination Sequence:
#
# PCOD8096306 Si02
#       8
#     8   8   8   8   8   8   8   8
#     4  10  20  33  52  80 112 142 179 228 281 338
#     4  10  20  35  57  86 119 153 185 229 289 337
#     4   9  20  39  59  78 108 149 188 229 282 342
#     4  10  22  38  57  85 114 149 196 236 272 331
#     4   9  19  35  54  77 107 146 183 220 278 346
#     4  10  22  40  60  80 110 153 195 230 277 342
#     4  10  21  37  58  85 111 142 187 239 288 330
#     4  10  20  35  57  84 117 153 189 230 280 334
#
# _framework density 19.035587
#
# number of rings (size 3 to 8) (size 9 to 14) (size 15 to 20)
#    0.000    2.250    1.250    0.750    1.750    4.000 
#    0.000    2.500    0.000    0.000    0.000    0.000 
#    0.000    0.000    0.000    0.000    0.000    0.000 
#
# Total GULP energy -396842.888080 kJ/mol
# GULP energy per Si atom -12401.340252 kJ/mol
# Density = 1.899226 g / cm^3
# Si number density = 19.035587 Si / 1000 Ang^3
#
#
#
# Elastic Constant Matrix: (Units=GPa)
#
#
# Indices 1 2 3 4 5 6 
#
# 1 94.6122 53.5282 70.5442 0.0000 1.5105 0.0000
# 2 53.5282 93.8313 80.3737 0.0000 3.7896 0.0000
# 3 70.5442 80.3737 179.0943 0.0000 -1.5178 0.0000
# 4 0.0000 0.0000 0.0000 29.7103 0.0000 -0.6352
# 5 1.5105 3.7896 -1.5178 0.0000 34.3865 0.0000
# 6 0.0000 0.0000 0.0000 -0.6352 0.0000 28.9487
#
#
#
# Elastic Compliance Matrix: (Units=1/GPa)
#
#
# Indices 1 2 3 4 5 6 
#
# 1 0.017082 -0.006452 -0.003835 0.000000 -0.000209 0.000000
# 2 -0.006452 0.019925 -0.006419 0.000000 -0.002196 0.000000
# 3 -0.003835 -0.006419 0.009986 0.000000 0.001317 0.000000
# 4 0.000000 0.000000 0.000000 0.033674 0.000000 0.000739
# 5 -0.000209 -0.002196 0.001317 0.000000 0.029390 0.000000
# 6 0.000000 0.000000 0.000000 0.000739 0.000000 0.034560
#
#
# Mechanical properties :
#
#
# Convention : Reuss Voigt Hill
#
# Bulk Modulus (GPa) = 73.62776 86.27000 79.94888
# Shear Modulus (GPa) = 27.38858 29.48189 28.43523
#
# Velocity S-wave (km/s) = 3.79728 3.93972 3.86916
# Velocity P-wave (km/s) = 7.61503 8.13105 7.87727
#
# Compressibility (1/GPa) = 0.01358183
#
# Stress axis : x y z
#
# Youngs Moduli (GPa) = 58.54002 50.18763 100.13695
#
# Poissons Ratio (x) = 0.32379 0.38403
# Poissons Ratio (y) = 0.37767 0.64282
# Poissons Ratio (z) = 0.22451 0.32217
#
# Static dielectric constant tensor:
#      x y z
#    x 5.416390 0.000000 1.005340 
#    y 0.000000 3.706690 0.000000 
#    z 1.005340 0.000000 3.995750 
# 
# 
# High freq. dielectric constant tensor:
#      x y z
#    x 1.742610 0.000000 0.000540 
#    y 0.000000 1.738740 0.000000 
#    z 0.000540 0.000000 1.737150 
# 
# From -- ./inp_files/338744.got.cif
#   From: 2010.06.25/outbox.cif.g09.slc.cpg/sg12_170_cif.got.tgz:338744.got - 2010.06.28 00:19:55.
