data_PCOD8096036
_publ_section_title
;
Structure prediction by ZEFSAII (Michael W. Deem and Ramdas Pophale) SiO2 
 PCOD8096036
Probable space group: C 2/M
;
_chemical_formula_sum "Si O2"
_cell_formula_units_Z 56
_cell_length_a 19.346780
_cell_length_b 8.962818
_cell_length_c 22.167321
_cell_angle_alpha 90.000000
_cell_angle_beta 124.764090
_cell_angle_gamma 90.000000
_cell_volume 3157.749046
_symmetry_space_group_name_H-M "C 2/M"
_symmetry_group_IT_number 12
_symmetry_cell_setting 'monoclinic'
loop_
_space_group_symop_operation_xyz
x,y,z
-x,y,-z
-x,-y,-z
x,-y,z
1/2+x,1/2+y,z
1/2-x,1/2+y,-z
1/2-x,1/2-y,-z
1/2+x,1/2-y,z
loop_
_atom_site_type_symbol
_atom_site_label
_atom_site_fract_x
_atom_site_fract_y
_atom_site_fract_z
Si Si1 0.034142 0.674656 0.294826
Si Si2 0.366627 0.823830 0.439786
Si Si3 0.928700 0.824709 0.009857
Si Si4 0.076190 0.823386 0.854361
Si Si5 0.277866 0.826062 0.575403
Si Si6 0.989857 0.675368 0.401090
Si Si7 0.743573 0.176542 0.932107
O O1 0.022018 0.500000 0.274266
O O2 0.129270 0.715753 0.357590
O O3 0.004852 0.771863 0.223533
O O4 0.981736 0.727092 0.327925
O O5 0.280241 0.734081 0.399723
O O6 0.427313 0.763112 0.523543
O O7 0.405934 0.779289 0.394813
O O8 0.350313 0.000000 0.436861
O O9 0.938644 0.767519 0.083980
O O10 0.943030 0.000000 0.017202
O O11 0.831804 0.787831 0.940400
O O12 0.000000 0.753595 0.000000
O O13 0.158386 0.748491 0.862482
O O14 0.087797 0.000000 0.858012
O O15 0.250000 0.750000 0.500000
O O16 0.267706 0.000000 0.560524
O O17 0.002732 0.500000 0.409862
O O18 0.731837 0.000000 0.931921
O O19 0.750000 0.250000 0.000000
#
# Coordination Sequence:
#
# PCOD8096036 Si02
#       7
#     8   8   8   8   8   8   8
#     4  10  20  35  52  71  99 137 174 208 257 314
#     4   9  16  31  53  73  94 121 165 216 255 302
#     4   8  15  30  53  79 103 129 166 207 242 286
#     4  10  20  33  51  76 103 133 170 214 258 299
#     4  11  21  33  51  74 101 134 173 217 264 315
#     4   8  15  30  52  72  92 126 166 206 252 306
#     4   9  16  29  52  77 102 132 165 203 243 292
#
# _framework density 17.734151000000001
#
# number of rings (size 3 to 8) (size 9 to 14) (size 15 to 20)
#    0.000    2.714    1.429    3.000    0.000    1.143 
#    0.000    3.571    0.000   22.286    0.000    0.000 
#    0.000    0.000    0.000    0.000    0.000    0.000 
#
# Total GULP energy -346896.040440 kJ/mol
# GULP energy per Si atom -12389.144301 kJ/mol
# Density = 1.769379 g / cm^3
# Si number density = 17.734151 Si / 1000 Ang^3
#
#
#
# Elastic Constant Matrix: (Units=GPa)
#
#
# Indices 1 2 3 4 5 6 
#
# 1 146.3543 42.1646 57.0988 0.0000 7.1470 0.0000
# 2 42.1646 52.8895 39.9658 0.0000 14.5853 0.0000
# 3 57.0988 39.9658 91.6098 0.0000 2.8068 0.0000
# 4 0.0000 0.0000 0.0000 26.4789 0.0000 5.0755
# 5 7.1470 14.5853 2.8068 0.0000 19.5787 0.0000
# 6 0.0000 0.0000 0.0000 5.0755 0.0000 26.1348
#
#
#
# Elastic Compliance Matrix: (Units=1/GPa)
#
#
# Indices 1 2 3 4 5 6 
#
# 1 0.009777 -0.005040 -0.003918 0.000000 0.000747 0.000000
# 2 -0.005040 0.040626 -0.013772 0.000000 -0.026451 0.000000
# 3 -0.003918 -0.013772 0.019092 0.000000 0.008953 0.000000
# 4 0.000000 0.000000 0.000000 0.039226 0.000000 -0.007618
# 5 0.000747 -0.026451 0.008953 0.000000 0.069225 0.000000
# 6 0.000000 0.000000 0.000000 -0.007618 0.000000 0.039743
#
#
# Mechanical properties :
#
#
# Convention : Reuss Voigt Hill
#
# Bulk Modulus (GPa) = 41.60547 63.25691 52.43119
# Shear Modulus (GPa) = 18.43936 24.54676 21.49306
#
# Velocity S-wave (km/s) = 3.22804 3.72446 3.48510
# Velocity P-wave (km/s) = 6.11598 7.36494 6.76933
#
# Compressibility (1/GPa) = 0.02403530
#
# Stress axis : x y z
#
# Youngs Moduli (GPa) = 102.28375 24.61467 52.37850
#
# Poissons Ratio (x) = 0.12405 0.20522
# Poissons Ratio (y) = 0.51547 0.72136
# Poissons Ratio (z) = 0.40074 0.33900
#
# Static dielectric constant tensor:
#      x y z
#    x 8.487850 0.000000 -4.856700 
#    y 0.000000 3.110650 0.000000 
#    z -4.856700 0.000000 8.445760 
# 
# 
# High freq. dielectric constant tensor:
#      x y z
#    x 1.695890 0.000000 0.009640 
#    y 0.000000 1.662530 0.000000 
#    z 0.009640 0.000000 1.662200 
# 
# From -- ./inp_files/342024.got.cif
#   From: 2010.06.25/outbox.cif.g09.slc.cpg/sg12_172_cif.got.tgz:342024.got - 2010.06.28 00:19:55.
