data_PCOD8096984
_publ_section_title
;
Structure prediction by ZEFSAII (Michael W. Deem and Ramdas Pophale) SiO2 
 PCOD8096984
Probable space group: C 2/M
;
_chemical_formula_sum "Si O2"
_cell_formula_units_Z 48
_cell_length_a 20.039425
_cell_length_b 9.288398
_cell_length_c 15.619396
_cell_angle_alpha 90.000000
_cell_angle_beta 108.885932
_cell_angle_gamma 90.000000
_cell_volume 2750.788017
_symmetry_space_group_name_H-M "C 2/M"
_symmetry_group_IT_number 12
_symmetry_cell_setting 'monoclinic'
loop_
_space_group_symop_operation_xyz
x,y,z
-x,y,-z
-x,-y,-z
x,-y,z
1/2+x,1/2+y,z
1/2-x,1/2+y,-z
1/2-x,1/2-y,-z
1/2+x,1/2-y,z
loop_
_atom_site_type_symbol
_atom_site_label
_atom_site_fract_x
_atom_site_fract_y
_atom_site_fract_z
Si Si1 0.547021 0.833188 0.938938
Si Si2 0.993719 0.333226 0.731494
Si Si3 0.650887 0.831390 0.411409
Si Si4 0.180438 0.169205 0.942795
Si Si5 0.302280 0.668264 0.409646
Si Si6 0.625790 0.333153 0.734343
O O1 0.501417 0.800715 0.835339
O O2 0.615849 0.733550 0.970284
O O3 0.570505 0.000000 0.952664
O O4 0.500000 0.789894 0.000000
O O5 0.004371 0.500000 0.715761
O O6 0.916418 0.280439 0.671196
O O7 0.052160 0.250585 0.700714
O O8 0.650023 0.750841 0.501677
O O9 0.720270 0.789113 0.385984
O O10 0.648686 0.000000 0.429676
O O11 0.169146 0.202435 0.837992
O O12 0.186960 0.000000 0.964261
O O13 0.250000 0.250000 0.000000
O O14 0.313992 0.500000 0.429576
O O15 0.326109 0.716103 0.325089
O O16 0.606615 0.500000 0.721359
#
# Coordination Sequence:
#
# PCOD8096984 Si02
#       6
#     8   8   8   8   8   8
#     4   9  18  33  53  75  99 130 167 204 244 292
#     4   9  18  32  50  72  98 127 159 198 240 284
#     4   9  18  32  49  70  96 125 158 197 240 283
#     4  10  20  34  52  74 101 131 164 203 246 292
#     4   9  18  33  51  70  94 125 161 198 236 281
#     4   9  19  34  51  71  96 127 160 197 239 284
#
# _framework density 17.449545000000001
#
# number of rings (size 3 to 8) (size 9 to 14) (size 15 to 20)
#    0.000    2.833    0.000    0.500    0.000    4.333 
#    0.000    8.333    0.000    4.000    0.000    0.000 
#    0.000    0.000    0.000    0.000    0.000    0.000 
#
# Total GULP energy -297646.329762 kJ/mol
# GULP energy per Si atom -12401.930407 kJ/mol
# Density = 1.740983 g / cm^3
# Si number density = 17.449545 Si / 1000 Ang^3
#
#
#
# Elastic Constant Matrix: (Units=GPa)
#
#
# Indices 1 2 3 4 5 6 
#
# 1 141.9063 63.6248 94.0843 0.0000 2.2666 0.0000
# 2 63.6248 60.9281 51.1834 0.0000 4.1126 0.0000
# 3 94.0843 51.1834 104.5272 0.0000 0.4050 0.0000
# 4 0.0000 0.0000 0.0000 28.3672 0.0000 1.4156
# 5 2.2666 4.1126 0.4050 0.0000 40.5229 0.0000
# 6 0.0000 0.0000 0.0000 1.4156 0.0000 33.0651
#
#
#
# Elastic Compliance Matrix: (Units=1/GPa)
#
#
# Indices 1 2 3 4 5 6 
#
# 1 0.020564 -0.010066 -0.013580 0.000000 0.000007 0.000000
# 2 -0.010066 0.033107 -0.007140 0.000000 -0.002725 0.000000
# 3 -0.013580 -0.007140 0.025282 0.000000 0.001232 0.000000
# 4 0.000000 0.000000 0.000000 0.035327 0.000000 -0.001512
# 5 0.000007 -0.002725 0.001232 0.000000 0.024941 0.000000
# 6 0.000000 0.000000 0.000000 -0.001512 0.000000 0.030308
#
#
# Mechanical properties :
#
#
# Convention : Reuss Voigt Hill
#
# Bulk Modulus (GPa) = 57.54024 80.57185 69.05605
# Shear Modulus (GPa) = 21.10633 26.95564 24.03099
#
# Velocity S-wave (km/s) = 3.48165 3.93463 3.71505
# Velocity P-wave (km/s) = 7.01494 8.18023 7.61989
#
# Compressibility (1/GPa) = 0.01737914
#
# Stress axis : x y z
#
# Youngs Moduli (GPa) = 48.62898 30.20548 39.55381
#
# Poissons Ratio (x) = 0.30405 0.53716
# Poissons Ratio (y) = 0.48951 0.28242
# Poissons Ratio (z) = 0.66040 0.21567
#
# Static dielectric constant tensor:
#      x y z
#    x 3.354020 0.000000 -0.015160 
#    y 0.000000 3.233940 0.000000 
#    z -0.015160 0.000000 3.326680 
# 
# 
# High freq. dielectric constant tensor:
#      x y z
#    x 1.676750 0.000000 0.000120 
#    y 0.000000 1.672150 0.000000 
#    z 0.000120 0.000000 1.673120 
# 
# From -- ./inp_files/229904.got.cif
#   From: 2010.06.25/outbox.cif.g09.slc.cpg/sg12_115_cif.got.tgz:229904.got - 2010.06.28 00:19:55.
