data_PCOD8096672
_publ_section_title
;
Structure prediction by ZEFSAII (Michael W. Deem and Ramdas Pophale) SiO2 
 PCOD8096672
Probable space group: C 2/M
;
_chemical_formula_sum "Si O2"
_cell_formula_units_Z 52
_cell_length_a 18.814853
_cell_length_b 18.764437
_cell_length_c 14.120305
_cell_angle_alpha 90.000000
_cell_angle_beta 29.661148
_cell_angle_gamma 90.000000
_cell_volume 2467.011469
_symmetry_space_group_name_H-M "C 2/M"
_symmetry_group_IT_number 12
_symmetry_cell_setting 'monoclinic'
loop_
_space_group_symop_operation_xyz
x,y,z
-x,y,-z
-x,-y,-z
x,-y,z
1/2+x,1/2+y,z
1/2-x,1/2+y,-z
1/2-x,1/2-y,-z
1/2+x,1/2-y,z
loop_
_atom_site_type_symbol
_atom_site_label
_atom_site_fract_x
_atom_site_fract_y
_atom_site_fract_z
Si Si1 0.260072 0.710631 0.360047
Si Si2 0.272472 0.000000 0.013910
Si Si3 0.340378 0.000000 0.718425
Si Si4 0.205903 0.142524 0.868627
Si Si5 0.248098 0.365619 0.562859
Si Si6 0.049276 0.737756 0.342462
Si Si7 0.042960 0.500000 0.839757
Si Si8 0.434371 0.374272 0.781398
O O1 0.339123 0.689583 0.169996
O O2 0.292071 0.652647 0.403877
O O3 0.311683 0.791394 0.323325
O O4 0.088242 0.705399 0.550604
O O5 0.168679 0.067553 0.145848
O O6 0.342589 0.000000 0.829565
O O7 0.396075 0.000000 0.949928
O O8 0.500000 0.000000 0.500000
O O9 0.258503 0.933059 0.768684
O O10 0.336387 0.175431 0.777883
O O11 0.075625 0.131346 0.092408
O O12 0.133286 0.428905 0.708867
O O13 0.398407 0.389368 0.438101
O O14 0.119322 0.800168 0.200165
O O15 0.000000 0.770125 0.500000
O O16 0.000000 0.500000 0.000000
#
# Coordination Sequence:
#
# PCOD8096672 Si02
#       8
#     8   4   4   8   8   8   4   8
#     4   9  20  39  62  94 129 180 210 269 331 388
#     4  10  25  41  65  95 125 164 216 271 315 380
#     4  10  20  33  57  94 125 158 201 262 320 385
#     4  10  20  33  59  97 130 158 223 261 318 393
#     4  10  23  44  64  89 136 172 221 265 333 389
#     4   9  18  34  58  89 125 169 219 266 315 379
#     4  12  29  48  67  96 127 180 224 273 328 389
#     4  10  21  40  62  94 126 170 214 267 326 385
#
# _framework density 21.078133999999999
#
# number of rings (size 3 to 8) (size 9 to 14) (size 15 to 20)
#    0.000    2.154    0.000    2.308    6.462    4.308 
#   11.077    1.154    0.000    3.692    0.000    0.000 
#    0.000    0.000    0.000    0.000    0.000    0.000 
#
# Total GULP energy -322299.904766 kJ/mol
# GULP energy per Si atom -12396.150183 kJ/mol
# Density = 2.103016 g / cm^3
# Si number density = 21.078134 Si / 1000 Ang^3
#
#
#
# Elastic Constant Matrix: (Units=GPa)
#
#
# Indices 1 2 3 4 5 6 
#
# 1 94.4524 45.9056 24.1390 -0.0023 -8.5186 0.0020
# 2 45.9056 142.8554 52.5715 -0.0008 -5.5548 0.0013
# 3 24.1390 52.5715 75.4610 -0.0031 -5.9790 0.0037
# 4 -0.0023 -0.0008 -0.0031 27.5998 0.0024 1.1770
# 5 -8.5186 -5.5548 -5.9790 0.0024 25.9725 -0.0026
# 6 0.0020 0.0013 0.0037 1.1770 -0.0026 24.1298
#
#
#
# Elastic Compliance Matrix: (Units=1/GPa)
#
#
# Indices 1 2 3 4 5 6 
#
# 1 0.012946 -0.003504 -0.001450 0.000001 0.003163 0.000000
# 2 -0.003504 0.010368 -0.006130 -0.000001 -0.000343 0.000001
# 3 -0.001450 -0.006130 0.018176 0.000002 0.002398 -0.000002
# 4 0.000001 -0.000001 0.000002 0.036308 -0.000003 -0.001771
# 5 0.003163 -0.000343 0.002398 -0.000003 0.040018 0.000004
# 6 0.000000 0.000001 -0.000002 -0.001771 0.000004 0.041529
#
#
# Mechanical properties :
#
#
# Convention : Reuss Voigt Hill
#
# Bulk Modulus (GPa) = 51.74873 62.00010 56.87441
# Shear Modulus (GPa) = 26.60241 28.21727 27.40984
#
# Velocity S-wave (km/s) = 3.55644 3.66279 3.61001
# Velocity P-wave (km/s) = 6.43961 6.88232 6.66464
#
# Compressibility (1/GPa) = 0.01932415
#
# Stress axis : x y z
#
# Youngs Moduli (GPa) = 77.24439 96.44701 55.01744
#
# Poissons Ratio (x) = 0.33791 0.07976
# Poissons Ratio (y) = 0.27063 0.33724
# Poissons Ratio (z) = 0.11199 0.59120
#
# Static dielectric constant tensor:
#      x y z
#    x 3.961950 0.000000 0.059040 
#    y 0.000000 3.901690 0.000000 
#    z 0.059040 0.000000 3.722680 
# 
# 
# High freq. dielectric constant tensor:
#      x y z
#    x 1.822930 0.000000 0.000020 
#    y 0.000000 1.828240 0.000000 
#    z 0.000020 0.000000 1.822490 
# 
# From -- ./inp_files/234452.got.cif
#   From: 2010.06.25/outbox.cif.g09.slc.cpg/sg12_118_cif.got.tgz:234452.got - 2010.06.28 00:19:55.
