data_PCOD8096710
_publ_section_title
;
Structure prediction by ZEFSAII (Michael W. Deem and Ramdas Pophale) SiO2 
 PCOD8096710
Probable space group: C 2/M
;
_chemical_formula_sum "Si O2"
_cell_formula_units_Z 64
_cell_length_a 29.187107
_cell_length_b 9.081029
_cell_length_c 15.427112
_cell_angle_alpha 90.000000
_cell_angle_beta 117.582439
_cell_angle_gamma 90.000000
_cell_volume 3624.213780
_symmetry_space_group_name_H-M "C 2/M"
_symmetry_group_IT_number 12
_symmetry_cell_setting 'monoclinic'
loop_
_space_group_symop_operation_xyz
x,y,z
-x,y,-z
-x,-y,-z
x,-y,z
1/2+x,1/2+y,z
1/2-x,1/2+y,-z
1/2-x,1/2-y,-z
1/2+x,1/2-y,z
loop_
_atom_site_type_symbol
_atom_site_label
_atom_site_fract_x
_atom_site_fract_y
_atom_site_fract_z
Si Si1 0.673190 0.170931 0.912136
Si Si2 0.928971 0.674457 0.272903
Si Si3 0.812671 0.831243 0.445551
Si Si4 0.633023 0.673246 0.331343
Si Si5 0.599490 0.172513 0.565227
Si Si6 0.727025 0.329314 0.111184
Si Si7 0.042714 0.327040 0.340761
Si Si8 0.794425 0.671384 0.729117
O O1 0.617943 0.227184 0.828817
O O2 0.715141 0.195561 0.873342
O O3 0.671896 0.000000 0.938914
O O4 0.685695 0.269862 0.005892
O O5 0.928972 0.500000 0.280343
O O6 0.922648 0.738962 0.364545
O O7 0.983383 0.726004 0.279586
O O8 0.828757 0.783555 0.556403
O O9 0.844067 0.738525 0.402473
O O10 0.752144 0.802078 0.379363
O O11 0.827379 0.000000 0.442701
O O12 0.629056 0.500000 0.312816
O O13 0.576083 0.737247 0.300129
O O14 0.655008 0.748124 0.263906
O O15 0.560361 0.212869 0.453682
O O16 0.607557 0.000000 0.580727
O O17 0.715555 0.500000 0.118998
O O18 0.721221 0.238240 0.193195
O O19 0.049677 0.500000 0.328433
O O20 0.806835 0.500000 0.752001
#
# Coordination Sequence:
#
# PCOD8096710 Si02
#       8
#     8   8   8   8   8   8   8   8
#     4   9  18  33  52  74 101 131 161 194 236 288
#     4   9  16  28  49  74  98 128 167 204 236 278
#     4   9  19  32  46  69 101 132 161 197 239 285
#     4  10  20  34  49  68  98 132 165 201 241 282
#     4   9  16  27  46  72 101 132 165 199 235 280
#     4  10  20  34  52  75 102 128 156 195 244 292
#     4   9  17  30  48  70  98 132 168 203 238 277
#     4  11  21  33  51  73  96 126 165 202 240 288
#
# _framework density 17.659002000000001
#
# number of rings (size 3 to 8) (size 9 to 14) (size 15 to 20)
#    0.000    2.500    0.000    2.625    0.000    4.500 
#    0.000    1.875    0.000    3.750    0.000    5.250 
#    0.000    0.000    0.000    0.000    0.000    0.000 
#
# Total GULP energy -396828.696159 kJ/mol
# GULP energy per Si atom -12400.896755 kJ/mol
# Density = 1.761881 g / cm^3
# Si number density = 17.659002 Si / 1000 Ang^3
#
#
#
# Elastic Constant Matrix: (Units=GPa)
#
#
# Indices 1 2 3 4 5 6 
#
# 1 106.1279 48.1792 45.6431 0.0000 7.9609 0.0000
# 2 48.1792 65.2465 32.3753 0.0000 -0.0168 0.0000
# 3 45.6431 32.3753 59.3982 0.0000 6.3211 0.0000
# 4 0.0000 0.0000 0.0000 23.9963 0.0000 -3.0627
# 5 7.9609 -0.0168 6.3211 0.0000 25.6300 0.0000
# 6 0.0000 0.0000 0.0000 -3.0627 0.0000 27.0572
#
#
#
# Elastic Compliance Matrix: (Units=1/GPa)
#
#
# Indices 1 2 3 4 5 6 
#
# 1 0.017031 -0.008578 -0.008060 0.000000 -0.003308 0.000000
# 2 -0.008578 0.025543 -0.007821 0.000000 0.004610 0.000000
# 3 -0.008060 -0.007821 0.027755 0.000000 -0.004347 0.000000
# 4 0.000000 0.000000 0.000000 0.042284 0.000000 0.004786
# 5 -0.003308 0.004610 -0.004347 0.000000 0.041119 0.000000
# 6 0.000000 0.000000 0.000000 0.004786 0.000000 0.037500
#
#
# Mechanical properties :
#
#
# Convention : Reuss Voigt Hill
#
# Bulk Modulus (GPa) = 46.70612 53.68532 50.19572
# Shear Modulus (GPa) = 20.21947 22.30837 21.26392
#
# Velocity S-wave (km/s) = 3.38745 3.55813 3.47384
# Velocity P-wave (km/s) = 6.46576 6.88095 6.67658
#
# Compressibility (1/GPa) = 0.02141047
#
# Stress axis : x y z
#
# Youngs Moduli (GPa) = 58.71623 39.15040 36.03013
#
# Poissons Ratio (x) = 0.33582 0.29040
# Poissons Ratio (y) = 0.50365 0.28181
# Poissons Ratio (z) = 0.47324 0.30621
#
# Static dielectric constant tensor:
#      x y z
#    x 3.336860 0.000000 0.076530 
#    y 0.000000 3.169390 0.000000 
#    z 0.076530 0.000000 3.173980 
# 
# 
# High freq. dielectric constant tensor:
#      x y z
#    x 1.682780 0.000000 -0.000440 
#    y 0.000000 1.673430 0.000000 
#    z -0.000440 0.000000 1.662140 
# 
# From -- ./inp_files/243740.got.cif
#   From: 2010.06.25/outbox.cif.g09.slc.cpg/sg12_122_cif.got.tgz:243740.got - 2010.06.28 00:19:55.
