data_PCOD8096115
_publ_section_title
;
Structure prediction by ZEFSAII (Michael W. Deem and Ramdas Pophale) SiO2 
 PCOD8096115
Probable space group: C 2/M
;
_chemical_formula_sum "Si O2"
_cell_formula_units_Z 64
_cell_length_a 19.231121
_cell_length_b 20.471436
_cell_length_c 8.925782
_cell_angle_alpha 90.000000
_cell_angle_beta 75.738401
_cell_angle_gamma 90.000000
_cell_volume 3405.682061
_symmetry_space_group_name_H-M "C 2/M"
_symmetry_group_IT_number 12
_symmetry_cell_setting 'monoclinic'
loop_
_space_group_symop_operation_xyz
x,y,z
-x,y,-z
-x,-y,-z
x,-y,z
1/2+x,1/2+y,z
1/2-x,1/2+y,-z
1/2-x,1/2-y,-z
1/2+x,1/2-y,z
loop_
_atom_site_type_symbol
_atom_site_label
_atom_site_fract_x
_atom_site_fract_y
_atom_site_fract_z
Si Si1 0.785792 0.572577 0.894606
Si Si2 0.567494 0.127042 0.150849
Si Si3 0.588581 0.876001 0.795406
Si Si4 0.673556 0.307274 0.381099
Si Si5 0.891699 0.766558 0.280659
Si Si6 0.768026 0.787384 0.145929
Si Si7 0.036600 0.241076 0.323489
Si Si8 0.736182 0.929247 0.745072
O O1 0.762455 0.500000 0.845449
O O2 0.871813 0.576999 0.825066
O O3 0.749434 0.635400 0.837128
O O4 0.763253 0.578579 0.077966
O O5 0.488606 0.093996 0.212937
O O6 0.573355 0.194466 0.237242
O O7 0.583719 0.145088 0.970852
O O8 0.604370 0.810992 0.692509
O O9 0.653828 0.925090 0.730529
O O10 0.655230 0.297947 0.563694
O O11 0.725664 0.249473 0.299862
O O12 0.601399 0.309848 0.317371
O O13 0.712405 0.376407 0.353963
O O14 0.853073 0.782521 0.142186
O O15 0.975585 0.790151 0.245130
O O16 0.750000 0.750000 0.000000
O O17 0.000000 0.260068 0.500000
O O18 0.765371 0.000000 0.680826
#
# Coordination Sequence:
#
# PCOD8096115 Si02
#       8
#     8   8   8   8   8   8   8   8
#     4  10  20  33  51  78 111 145 179 219 267 321
#     4   9  16  30  49  75 109 144 178 208 256 320
#     4   9  17  29  50  78 107 140 179 218 260 310
#     4  11  20  35  57  80 107 142 181 226 277 318
#     4  10  21  34  54  82 111 136 178 232 275 313
#     4  12  20  34  57  82 106 144 185 225 265 321
#     4   9  19  33  53  81 108 139 178 228 273 317
#     4  10  20  33  51  78 110 142 182 227 273 322
#
# _framework density 18.792123
#
# number of rings (size 3 to 8) (size 9 to 14) (size 15 to 20)
#    0.000    2.000    3.750    1.125    0.000    0.500 
#    0.000    3.125    0.000    4.500    0.000    1.750 
#    0.000    0.000    0.000    0.000    0.000    0.000 
#
# Total GULP energy -396474.744347 kJ/mol
# GULP energy per Si atom -12389.835761 kJ/mol
# Density = 1.874935 g / cm^3
# Si number density = 18.792123 Si / 1000 Ang^3
#
#
#
# Elastic Constant Matrix: (Units=GPa)
#
#
# Indices 1 2 3 4 5 6 
#
# 1 101.7491 34.9690 20.9332 0.0000 15.4037 0.0000
# 2 34.9690 112.6333 19.0810 0.0000 -7.0115 0.0000
# 3 20.9332 19.0810 31.0869 0.0000 -0.9994 0.0000
# 4 0.0000 0.0000 0.0000 12.3985 0.0000 0.5158
# 5 15.4037 -7.0115 -0.9994 0.0000 28.8140 0.0000
# 6 0.0000 0.0000 0.0000 0.5158 0.0000 21.5826
#
#
#
# Elastic Compliance Matrix: (Units=1/GPa)
#
#
# Indices 1 2 3 4 5 6 
#
# 1 0.013882 -0.003585 -0.007422 0.000000 -0.008551 0.000000
# 2 -0.003585 0.010976 -0.004180 0.000000 0.004442 0.000000
# 3 -0.007422 -0.004180 0.039871 0.000000 0.004334 0.000000
# 4 0.000000 0.000000 0.000000 0.080735 0.000000 -0.001929
# 5 -0.008551 0.004442 0.004334 0.000000 0.040508 0.000000
# 6 0.000000 0.000000 0.000000 -0.001929 0.000000 0.046380
#
#
# Mechanical properties :
#
#
# Convention : Reuss Voigt Hill
#
# Bulk Modulus (GPa) = 29.10853 43.93730 36.52291
# Shear Modulus (GPa) = 18.23637 23.92474 21.08055
#
# Velocity S-wave (km/s) = 3.11855 3.57196 3.35293
# Velocity P-wave (km/s) = 5.33765 6.35951 5.87085
#
# Compressibility (1/GPa) = 0.03435419
#
# Stress axis : x y z
#
# Youngs Moduli (GPa) = 72.03809 91.10771 25.08085
#
# Poissons Ratio (x) = 0.32659 0.18615
# Poissons Ratio (y) = 0.25823 0.10485
# Poissons Ratio (z) = 0.53468 0.38086
#
# Static dielectric constant tensor:
#      x y z
#    x 3.919970 0.000000 0.054350 
#    y 0.000000 3.256480 0.000000 
#    z 0.054350 0.000000 3.267830 
# 
# 
# High freq. dielectric constant tensor:
#      x y z
#    x 1.742280 0.000000 -0.001100 
#    y 0.000000 1.695520 0.000000 
#    z -0.001100 0.000000 1.710690 
# 
# From -- ./inp_files/89132.got.cif
#   From: 2010.06.25/outbox.cif.g09.slc.cpg/sg12_45_cif.got.tgz:89132.got - 2010.06.28 00:19:55.
