data_PCOD8096714
_publ_section_title
;
Structure prediction by ZEFSAII (Michael W. Deem and Ramdas Pophale) SiO2 
 PCOD8096714
Probable space group: C 2/M
;
_chemical_formula_sum "Si O2"
_cell_formula_units_Z 56
_cell_length_a 22.782917
_cell_length_b 9.136742
_cell_length_c 14.412744
_cell_angle_alpha 90.000000
_cell_angle_beta 78.274012
_cell_angle_gamma 90.000000
_cell_volume 2937.568778
_symmetry_space_group_name_H-M "C 2/M"
_symmetry_group_IT_number 12
_symmetry_cell_setting 'monoclinic'
loop_
_space_group_symop_operation_xyz
x,y,z
-x,y,-z
-x,-y,-z
x,-y,z
1/2+x,1/2+y,z
1/2-x,1/2+y,-z
1/2-x,1/2-y,-z
1/2+x,1/2-y,z
loop_
_atom_site_type_symbol
_atom_site_label
_atom_site_fract_x
_atom_site_fract_y
_atom_site_fract_z
Si Si1 0.188820 0.331428 0.537988
Si Si2 0.728106 0.167171 0.721316
Si Si3 0.942732 0.834762 0.952580
Si Si4 0.029034 0.330514 0.394426
Si Si5 0.985388 0.331723 0.210892
Si Si6 0.644848 0.674597 0.388387
Si Si7 0.374424 0.826393 0.122522
O O1 0.191031 0.500000 0.504887
O O2 0.250000 0.250000 0.500000
O O3 0.180378 0.320768 0.651398
O O4 0.139029 0.245426 0.493865
O O5 0.793709 0.237219 0.679823
O O6 0.691106 0.230998 0.821036
O O7 0.742709 0.000000 0.737256
O O8 0.959032 0.758601 0.850184
O O9 0.922375 0.000000 0.939134
O O10 0.887997 0.751269 0.020517
O O11 0.000000 0.826726 0.000000
O O12 0.047745 0.500000 0.397772
O O13 0.983337 0.307344 0.322982
O O14 0.087578 0.233592 0.351300
O O15 0.000000 0.274947 0.500000
O O16 0.997907 0.500000 0.182717
O O17 0.923057 0.280806 0.185220
O O18 0.644809 0.500000 0.396254
O O19 0.374581 0.000000 0.107612
#
# Coordination Sequence:
#
# PCOD8096714 Si02
#       7
#     8   8   8   8   8   8   8
#     4   9  16  28  47  69  97 131 169 209 252 297
#     4   8  16  29  49  74  99 129 165 206 253 299
#     4   9  17  30  48  73 105 133 157 197 255 307
#     4  10  22  37  54  75  99 133 177 218 251 293
#     4   9  18  32  52  75  98 130 171 207 247 300
#     4  10  20  34  49  70 101 137 174 209 253 306
#     4   9  16  29  52  78 101 127 163 207 249 300
#
# _framework density 19.063383999999999
#
# number of rings (size 3 to 8) (size 9 to 14) (size 15 to 20)
#    0.000    2.857    0.000    2.143    2.000    2.571 
#    0.000    4.286    0.000    0.857    0.000    0.000 
#    0.000    0.000    0.000    0.000    0.000    0.000 
#
# Total GULP energy -346920.010128 kJ/mol
# GULP energy per Si atom -12390.000362 kJ/mol
# Density = 1.901999 g / cm^3
# Si number density = 19.063384 Si / 1000 Ang^3
#
#
#
# Elastic Constant Matrix: (Units=GPa)
#
#
# Indices 1 2 3 4 5 6 
#
# 1 53.8154 18.3464 23.4403 0.0000 -13.2201 0.0000
# 2 18.3464 68.7364 29.3201 0.0000 -8.9436 0.0000
# 3 23.4403 29.3201 100.3629 0.0000 -21.3437 0.0000
# 4 0.0000 0.0000 0.0000 18.6848 0.0000 1.1126
# 5 -13.2201 -8.9436 -21.3437 0.0000 28.5297 0.0000
# 6 0.0000 0.0000 0.0000 1.1126 0.0000 23.3947
#
#
#
# Elastic Compliance Matrix: (Units=1/GPa)
#
#
# Indices 1 2 3 4 5 6 
#
# 1 0.022911 -0.004045 -0.002594 0.000000 0.007408 0.000000
# 2 -0.004045 0.017418 -0.004021 0.000000 0.000578 0.000000
# 3 -0.002594 -0.004021 0.013344 0.000000 0.007520 0.000000
# 4 0.000000 0.000000 0.000000 0.053671 0.000000 -0.002553
# 5 0.007408 0.000578 0.007520 0.000000 0.044291 0.000000
# 6 0.000000 0.000000 0.000000 -0.002553 0.000000 0.042866
#
#
# Mechanical properties :
#
#
# Convention : Reuss Voigt Hill
#
# Bulk Modulus (GPa) = 30.90881 40.56980 35.73931
# Shear Modulus (GPa) = 22.06484 24.24236 23.15360
#
# Velocity S-wave (km/s) = 3.40582 3.56992 3.48883
# Velocity P-wave (km/s) = 5.63161 6.19033 5.91757
#
# Compressibility (1/GPa) = 0.03235323
#
# Stress axis : x y z
#
# Youngs Moduli (GPa) = 43.64801 57.41092 74.94204
#
# Poissons Ratio (x) = 0.23221 0.19439
# Poissons Ratio (y) = 0.17654 0.30134
# Poissons Ratio (z) = 0.11322 0.23085
#
# Static dielectric constant tensor:
#      x y z
#    x 3.302250 0.000000 -0.076180 
#    y 0.000000 3.395490 0.000000 
#    z -0.076180 0.000000 3.726410 
# 
# 
# High freq. dielectric constant tensor:
#      x y z
#    x 1.712900 0.000000 -0.014340 
#    y 0.000000 1.725500 0.000000 
#    z -0.014340 0.000000 1.733660 
# 
# From -- ./inp_files/243035.got.cif
#   From: 2010.06.25/outbox.cif.g09.slc.cpg/sg12_122_cif.got.tgz:243035.got - 2010.06.28 00:19:55.
