data_PCOD8096020
_publ_section_title
;
Structure prediction by ZEFSAII (Michael W. Deem and Ramdas Pophale) SiO2 
 PCOD8096020
Probable space group: C 2/M
;
_chemical_formula_sum "Si O2"
_cell_formula_units_Z 64
_cell_length_a 29.041940
_cell_length_b 14.641040
_cell_length_c 8.810614
_cell_angle_alpha 90.000000
_cell_angle_beta 110.288635
_cell_angle_gamma 90.000000
_cell_volume 3513.880551
_symmetry_space_group_name_H-M "C 2/M"
_symmetry_group_IT_number 12
_symmetry_cell_setting 'monoclinic'
loop_
_space_group_symop_operation_xyz
x,y,z
-x,y,-z
-x,-y,-z
x,-y,z
1/2+x,1/2+y,z
1/2-x,1/2+y,-z
1/2-x,1/2-y,-z
1/2+x,1/2-y,z
loop_
_atom_site_type_symbol
_atom_site_label
_atom_site_fract_x
_atom_site_fract_y
_atom_site_fract_z
Si Si1 0.788702 0.817392 0.623402
Si Si2 0.236984 0.395999 0.105358
Si Si3 0.330362 0.606977 0.381206
Si Si4 0.855526 0.301283 0.915430
Si Si5 0.127370 0.270560 0.715644
Si Si6 0.551640 0.106772 0.133529
Si Si7 0.214239 0.395549 0.753073
Si Si8 0.552601 0.899333 0.488107
O O1 0.750000 0.750000 0.500000
O O2 0.823707 0.873901 0.550921
O O3 0.827403 0.773280 0.783244
O O4 0.754726 0.890849 0.669302
O O5 0.251565 0.500000 0.128112
O O6 0.280596 0.349523 0.249701
O O7 0.183102 0.384222 0.115470
O O8 0.238988 0.359008 0.936526
O O9 0.341413 0.500000 0.364664
O O10 0.373565 0.668108 0.356025
O O11 0.905052 0.335009 0.893312
O O12 0.866907 0.263229 0.096527
O O13 0.167893 0.330557 0.670864
O O14 0.077432 0.321705 0.618165
O O15 0.550187 0.130417 0.309597
O O16 0.561531 0.000000 0.114665
O O17 0.500000 0.136298 0.000000
O O18 0.195936 0.500000 0.749656
O O19 0.500000 0.909307 0.500000
O O20 0.578319 0.000000 0.529533
#
# Coordination Sequence:
#
# PCOD8096020 Si02
#       8
#     8   8   8   8   8   8   8   8
#     4  12  21  34  50  75 109 145 185 234 279 333
#     4   9  18  32  49  73 103 142 184 223 270 326
#     4  11  22  36  53  75 107 145 188 235 279 326
#     4  11  21  34  54  77 108 149 186 231 281 335
#     4  11  21  36  56  80 108 145 192 231 275 337
#     4  10  21  36  55  83 118 151 186 228 275 332
#     4  10  20  33  51  75 108 144 181 224 273 330
#     4  10  21  37  59  86 117 149 183 227 278 333
#
# _framework density 18.213483
#
# number of rings (size 3 to 8) (size 9 to 14) (size 15 to 20)
#    0.000    1.500    2.500    3.375    0.000    4.500 
#    0.000    0.625    0.000    0.375    0.000    0.000 
#    0.000    6.000    0.000    0.000    0.000    0.000 
#
# Total GULP energy -396628.021009 kJ/mol
# GULP energy per Si atom -12394.625657 kJ/mol
# Density = 1.817203 g / cm^3
# Si number density = 18.213483 Si / 1000 Ang^3
#
#
#
# Elastic Constant Matrix: (Units=GPa)
#
#
# Indices 1 2 3 4 5 6 
#
# 1 73.3801 33.5595 31.1068 0.0000 -8.2834 0.0000
# 2 33.5595 86.0768 41.0850 0.0000 -0.0481 0.0000
# 3 31.1068 41.0850 96.8900 0.0000 -3.1522 0.0000
# 4 0.0000 0.0000 0.0000 24.1799 0.0000 -4.4035
# 5 -8.2834 -0.0481 -3.1522 0.0000 34.2329 0.0000
# 6 0.0000 0.0000 0.0000 -4.4035 0.0000 22.8961
#
#
#
# Elastic Compliance Matrix: (Units=1/GPa)
#
#
# Indices 1 2 3 4 5 6 
#
# 1 0.017975 -0.005409 -0.003346 0.000000 0.004034 0.000000
# 2 -0.005409 0.016203 -0.005192 0.000000 -0.001764 0.000000
# 3 -0.003346 -0.005192 0.013611 0.000000 0.000436 0.000000
# 4 0.000000 0.000000 0.000000 0.042858 0.000000 0.008243
# 5 0.004034 -0.001764 0.000436 0.000000 0.030225 0.000000
# 6 0.000000 0.000000 0.000000 0.008243 0.000000 0.045261
#
#
# Mechanical properties :
#
#
# Convention : Reuss Voigt Hill
#
# Bulk Modulus (GPa) = 50.26109 51.98329 51.12219
# Shear Modulus (GPa) = 24.91792 26.30149 25.60971
#
# Velocity S-wave (km/s) = 3.70280 3.80421 3.75385
# Velocity P-wave (km/s) = 6.77764 6.92092 6.84965
#
# Compressibility (1/GPa) = 0.01989611
#
# Stress axis : x y z
#
# Youngs Moduli (GPa) = 55.63244 61.71573 73.47001
#
# Poissons Ratio (x) = 0.33380 0.24585
# Poissons Ratio (y) = 0.30090 0.38144
# Poissons Ratio (z) = 0.18616 0.32041
#
# Static dielectric constant tensor:
#      x y z
#    x 3.226650 0.000000 -0.050060 
#    y 0.000000 3.177930 0.000000 
#    z -0.050060 0.000000 3.655700 
# 
# 
# High freq. dielectric constant tensor:
#      x y z
#    x 1.685250 0.000000 -0.011550 
#    y 0.000000 1.691510 0.000000 
#    z -0.011550 0.000000 1.721640 
# 
# From -- ./inp_files/104586.got.cif
#   From: 2010.06.25/outbox.cif.g09.slc.cpg/sg12_53_cif.got.tgz:104586.got - 2010.06.28 00:19:55.
