data_PCOD8096358
_publ_section_title
;
Structure prediction by ZEFSAII (Michael W. Deem and Ramdas Pophale) SiO2 
 PCOD8096358
Probable space group: C 2/M
;
_chemical_formula_sum "Si O2"
_cell_formula_units_Z 56
_cell_length_a 19.131046
_cell_length_b 8.831634
_cell_length_c 19.798600
_cell_angle_alpha 90.000000
_cell_angle_beta 65.845902
_cell_angle_gamma 90.000000
_cell_volume 3052.266802
_symmetry_space_group_name_H-M "C 2/M"
_symmetry_group_IT_number 12
_symmetry_cell_setting 'monoclinic'
loop_
_space_group_symop_operation_xyz
x,y,z
-x,y,-z
-x,-y,-z
x,-y,z
1/2+x,1/2+y,z
1/2-x,1/2+y,-z
1/2-x,1/2-y,-z
1/2+x,1/2-y,z
loop_
_atom_site_type_symbol
_atom_site_label
_atom_site_fract_x
_atom_site_fract_y
_atom_site_fract_z
Si Si1 0.652384 0.675477 0.104100
Si Si2 0.807057 0.824980 0.062941
Si Si3 0.998339 0.324654 0.797867
Si Si4 0.758334 0.178277 0.569436
Si Si5 0.938369 0.325085 0.079974
Si Si6 0.606888 0.678598 0.648226
Si Si7 0.573733 0.678149 0.510129
O O1 0.635869 0.500000 0.124273
O O2 0.733313 0.721309 0.103628
O O3 0.589745 0.775279 0.167293
O O4 0.652841 0.713496 0.024307
O O5 0.864781 0.780912 0.099523
O O6 0.783331 0.000000 0.076228
O O7 0.005269 0.500000 0.775752
O O8 0.031241 0.289241 0.858277
O O9 0.042410 0.225002 0.726207
O O10 0.750000 0.250000 0.500000
O O11 0.688655 0.249501 0.640401
O O12 0.845445 0.215179 0.560892
O O13 0.746266 0.000000 0.570241
O O14 0.915367 0.500000 0.079774
O O15 0.000000 0.276551 0.000000
O O16 0.617681 0.500000 0.643045
O O17 0.580374 0.738865 0.584609
O O18 0.500000 0.750956 0.500000
O O19 0.561053 0.500000 0.518594
#
# Coordination Sequence:
#
# PCOD8096358 Si02
#       7
#     8   8   8   8   8   8   8
#     4  10  20  34  53  76 104 138 175 217 269 326
#     4  10  20  33  53  78 103 132 173 224 273 322
#     4  11  22  36  55  77 106 142 180 225 276 327
#     4   9  16  29  52  78 105 137 173 212 254 308
#     4  10  20  35  54  76 102 135 179 227 272 322
#     4  10  20  34  53  77 107 141 176 217 265 320
#     4   8  15  30  54  82 106 133 172 213 252 301
#
# _framework density 18.347021000000002
#
# number of rings (size 3 to 8) (size 9 to 14) (size 15 to 20)
#    0.000    2.286    1.429    3.000    0.000    2.571 
#    0.000    1.429    0.000   22.286    0.000    0.000 
#    0.000    0.000    0.000    0.000    0.000    0.000 
#
# Total GULP energy -347098.847133 kJ/mol
# GULP energy per Si atom -12396.387398 kJ/mol
# Density = 1.830526 g / cm^3
# Si number density = 18.347021 Si / 1000 Ang^3
#
#
#
# Elastic Constant Matrix: (Units=GPa)
#
#
# Indices 1 2 3 4 5 6 
#
# 1 118.6541 36.4306 42.4994 0.0000 -16.5707 0.0001
# 2 36.4306 56.9215 25.8592 0.0000 -6.0902 0.0001
# 3 42.4994 25.8592 81.9032 0.0000 -15.1801 0.0000
# 4 0.0000 0.0000 0.0000 29.4581 0.0000 -6.6751
# 5 -16.5707 -6.0902 -15.1801 0.0000 23.5843 0.0000
# 6 0.0001 0.0001 0.0000 -6.6751 0.0000 29.0182
#
#
#
# Elastic Compliance Matrix: (Units=1/GPa)
#
#
# Indices 1 2 3 4 5 6 
#
# 1 0.012108 -0.005589 -0.003644 0.000000 0.004719 0.000000
# 2 -0.005589 0.023124 -0.004567 0.000000 -0.000895 0.000000
# 3 -0.003644 -0.004567 0.016860 0.000000 0.007113 0.000000
# 4 0.000000 0.000000 0.000000 0.035813 0.000000 0.008238
# 5 0.004719 -0.000895 0.007113 0.000000 0.050064 0.000000
# 6 0.000000 0.000000 0.000000 0.008238 0.000000 0.036356
#
#
# Mechanical properties :
#
#
# Convention : Reuss Voigt Hill
#
# Bulk Modulus (GPa) = 40.82689 51.89526 46.36108
# Shear Modulus (GPa) = 23.79950 26.59144 25.19547
#
# Velocity S-wave (km/s) = 3.60555 3.81118 3.70979
# Velocity P-wave (km/s) = 6.29558 6.90750 6.60862
#
# Compressibility (1/GPa) = 0.02449366
#
# Stress axis : x y z
#
# Youngs Moduli (GPa) = 82.59045 43.24510 59.31097
#
# Poissons Ratio (x) = 0.24170 0.21610
# Poissons Ratio (y) = 0.46161 0.27085
# Poissons Ratio (z) = 0.30092 0.19748
#
# Static dielectric constant tensor:
#      x y z
#    x 3.638760 0.000000 -0.247530 
#    y 0.000000 3.334480 0.000000 
#    z -0.247530 0.000000 3.300020 
# 
# 
# High freq. dielectric constant tensor:
#      x y z
#    x 1.714320 0.000000 -0.023210 
#    y 0.000000 1.708630 0.000000 
#    z -0.023210 0.000000 1.686750 
# 
# From -- ./inp_files/275270.got.cif
#   From: 2010.06.25/outbox.cif.g09.slc.cpg/sg12_138_cif.got.tgz:275270.got - 2010.06.28 00:19:55.
