data_PCOD8096207
_publ_section_title
;
Structure prediction by ZEFSAII (Michael W. Deem and Ramdas Pophale) SiO2 
 PCOD8096207
Probable space group: C 2/M
;
_chemical_formula_sum "Si O2"
_cell_formula_units_Z 64
_cell_length_a 13.991257
_cell_length_b 9.514487
_cell_length_c 28.663271
_cell_angle_alpha 90.000000
_cell_angle_beta 104.837636
_cell_angle_gamma 90.000000
_cell_volume 3688.412927
_symmetry_space_group_name_H-M "C 2/M"
_symmetry_group_IT_number 12
_symmetry_cell_setting 'monoclinic'
loop_
_space_group_symop_operation_xyz
x,y,z
-x,y,-z
-x,-y,-z
x,-y,z
1/2+x,1/2+y,z
1/2-x,1/2+y,-z
1/2-x,1/2-y,-z
1/2+x,1/2-y,z
loop_
_atom_site_type_symbol
_atom_site_label
_atom_site_fract_x
_atom_site_fract_y
_atom_site_fract_z
Si Si1 0.654362 0.662733 0.000060
Si Si2 0.041143 0.162978 0.078396
Si Si3 0.703156 0.336735 0.426426
Si Si4 0.020564 0.662352 0.747009
Si Si5 0.788509 0.838443 0.252167
Si Si6 0.092809 0.664997 0.175682
Si Si7 0.324368 0.839499 0.667719
Si Si8 0.103338 0.338378 0.490502
O O1 0.682146 0.500000 0.000895
O O2 0.617877 0.701968 0.047218
O O3 0.750000 0.750000 0.000000
O O4 0.569339 0.698625 0.952182
O O5 0.065736 0.254446 0.125903
O O6 0.050230 0.000000 0.092732
O O7 0.674369 0.500000 0.419481
O O8 0.703407 0.269361 0.375680
O O9 0.812262 0.315075 0.460580
O O10 0.622077 0.259420 0.448230
O O11 0.049900 0.500000 0.751672
O O12 0.115621 0.748147 0.744720
O O13 0.983128 0.710123 0.793235
O O14 0.935663 0.689698 0.698384
O O15 0.703538 0.794325 0.205042
O O16 0.751261 0.812037 0.299785
O O17 0.816771 0.000000 0.248469
O O18 0.085107 0.500000 0.165328
O O19 0.314427 0.000000 0.648556
O O20 0.100157 0.500000 0.473244
O O21 0.000000 0.291907 0.500000
#
# Coordination Sequence:
#
# PCOD8096207 Si02
#       8
#     8   8   8   8   8   8   8   8
#     4   9  19  35  52  72 100 131 165 205 248 295
#     4   9  19  35  52  72 100 132 165 204 248 293
#     4  10  20  33  52  78 102 127 166 210 246 287
#     4   9  19  35  53  73  99 132 167 202 244 295
#     4   9  19  35  53  74 101 132 166 205 247 291
#     4   9  19  35  52  73 102 133 165 202 247 298
#     4   9  19  36  53  70 100 137 165 197 247 299
#     4   9  19  36  54  72 100 136 167 199 246 299
#
# _framework density 17.351637
#
# number of rings (size 3 to 8) (size 9 to 14) (size 15 to 20)
#    0.000    2.875    0.000    2.625    0.000    5.750 
#    0.000   12.500    0.000    0.000    0.000    0.000 
#    0.000    0.000    0.000    0.000    0.000    0.000 
#
# Total GULP energy -396816.315237 kJ/mol
# GULP energy per Si atom -12400.509851 kJ/mol
# Density = 1.731214 g / cm^3
# Si number density = 17.351637 Si / 1000 Ang^3
#
#
#
# Elastic Constant Matrix: (Units=GPa)
#
#
# Indices 1 2 3 4 5 6 
#
# 1 138.0597 65.0594 41.7628 0.0000 -6.6784 0.0000
# 2 65.0594 84.7944 60.8046 0.0000 -2.9299 0.0000
# 3 41.7628 60.8046 108.6571 0.0000 -1.5963 0.0000
# 4 0.0000 0.0000 0.0000 40.1499 0.0000 -1.2801
# 5 -6.6784 -2.9299 -1.5963 0.0000 11.3540 0.0000
# 6 0.0000 0.0000 0.0000 -1.2801 0.0000 36.3343
#
#
#
# Elastic Compliance Matrix: (Units=1/GPa)
#
#
# Indices 1 2 3 4 5 6 
#
# 1 0.011620 -0.009360 0.000838 0.000000 0.004537 0.000000
# 2 -0.009360 0.027380 -0.011726 0.000000 -0.000089 0.000000
# 3 0.000838 -0.011726 0.015437 0.000000 -0.000362 0.000000
# 4 0.000000 0.000000 0.000000 0.024935 0.000000 0.000878
# 5 0.004537 -0.000089 -0.000362 0.000000 0.090670 0.000000
# 6 0.000000 0.000000 0.000000 0.000878 0.000000 0.027553
#
#
# Mechanical properties :
#
#
# Convention : Reuss Voigt Hill
#
# Bulk Modulus (GPa) = 71.72143 74.08497 72.90320
# Shear Modulus (GPa) = 20.59846 28.49326 24.54586
#
# Velocity S-wave (km/s) = 3.44920 4.05669 3.76521
# Velocity P-wave (km/s) = 7.56878 8.04557 7.81082
#
# Compressibility (1/GPa) = 0.01394283
#
# Stress axis : x y z
#
# Youngs Moduli (GPa) = 86.05944 36.52328 64.77773
#
# Poissons Ratio (x) = 0.34185 -0.05430
# Poissons Ratio (y) = 0.80550 0.75956
# Poissons Ratio (z) = -0.07214 0.42826
#
# Static dielectric constant tensor:
#      x y z
#    x 3.227550 0.000000 -0.011130 
#    y 0.000000 3.172610 0.000000 
#    z -0.011130 0.000000 3.189530 
# 
# 
# High freq. dielectric constant tensor:
#      x y z
#    x 1.673320 0.000000 -0.001360 
#    y 0.000000 1.670590 0.000000 
#    z -0.001360 0.000000 1.672360 
# 
# From -- ./inp_files/359827.got.cif
#   From: 2010.06.25/outbox.cif.g09.slc.cpg/sg12_180_cif.got.tgz:359827.got - 2010.06.28 00:19:55.
