data_PCOD8096971
_publ_section_title
;
Structure prediction by ZEFSAII (Michael W. Deem and Ramdas Pophale) SiO2 
 PCOD8096971
Probable space group: C 2/M
;
_chemical_formula_sum "Si O2"
_cell_formula_units_Z 64
_cell_length_a 19.617038
_cell_length_b 9.206336
_cell_length_c 20.081310
_cell_angle_alpha 90.000000
_cell_angle_beta 89.817128
_cell_angle_gamma 90.000000
_cell_volume 3626.687061
_symmetry_space_group_name_H-M "C 2/M"
_symmetry_group_IT_number 12
_symmetry_cell_setting 'monoclinic'
loop_
_space_group_symop_operation_xyz
x,y,z
-x,y,-z
-x,-y,-z
x,-y,z
1/2+x,1/2+y,z
1/2-x,1/2+y,-z
1/2-x,1/2-y,-z
1/2+x,1/2-y,z
loop_
_atom_site_type_symbol
_atom_site_label
_atom_site_fract_x
_atom_site_fract_y
_atom_site_fract_z
Si Si1 0.684050 0.829247 0.578659
Si Si2 0.571173 0.330965 0.821202
Si Si3 0.168460 0.832255 0.940199
Si Si4 0.414284 0.670919 0.816803
Si Si5 0.319544 0.831047 0.571930
Si Si6 0.576329 0.831793 0.315870
Si Si7 0.325167 0.831394 0.925558
Si Si8 0.579361 0.830937 0.689013
O O1 0.662583 0.784895 0.503718
O O2 0.754431 0.754702 0.599241
O O3 0.625865 0.772678 0.628706
O O4 0.694240 0.000000 0.584998
O O5 0.580259 0.500000 0.806806
O O6 0.615640 0.281749 0.884027
O O7 0.492380 0.291488 0.835363
O O8 0.599918 0.248798 0.756803
O O9 0.244877 0.808310 0.913163
O O10 0.156917 0.000000 0.960513
O O11 0.153162 0.732232 0.003373
O O12 0.400592 0.500000 0.816969
O O13 0.396140 0.733922 0.744434
O O14 0.365083 0.745812 0.869220
O O15 0.383528 0.790188 0.617476
O O16 0.301775 0.000000 0.576023
O O17 0.497921 0.795911 0.331187
O O18 0.586614 0.000000 0.296226
O O19 0.345361 0.000000 0.923276
O O20 0.591021 0.000000 0.701442
#
# Coordination Sequence:
#
# PCOD8096971 Si02
#       8
#     8   8   8   8   8   8   8   8
#     4   9  18  32  49  72 100 128 161 201 245 290
#     4   9  19  35  53  72  96 129 166 200 237 286
#     4   9  19  36  54  72  97 129 164 200 238 284
#     4  10  20  34  52  73  99 130 162 199 242 288
#     4   9  18  32  50  71  97 130 164 199 241 290
#     4   9  18  33  51  71  96 127 164 203 242 286
#     4  10  20  34  53  76 101 128 160 200 242 286
#     4   9  18  32  50  72  98 126 159 203 247 286
#
# _framework density 17.646958999999999
#
# number of rings (size 3 to 8) (size 9 to 14) (size 15 to 20)
#    0.000    2.750    0.000    0.750    0.000    4.500 
#    0.000    8.750    0.000    0.000    0.000    7.000 
#    0.000    0.000    0.000    0.000    0.000    0.000 
#
# Total GULP energy -396868.885139 kJ/mol
# GULP energy per Si atom -12402.152661 kJ/mol
# Density = 1.760679 g / cm^3
# Si number density = 17.646959 Si / 1000 Ang^3
#
#
#
# Elastic Constant Matrix: (Units=GPa)
#
#
# Indices 1 2 3 4 5 6 
#
# 1 49.4967 23.2641 31.0137 0.0000 -6.5192 0.0000
# 2 23.2641 52.9476 32.6324 0.0000 -9.0217 0.0000
# 3 31.0137 32.6324 68.4164 0.0000 -9.6736 0.0000
# 4 0.0000 0.0000 0.0000 31.0486 0.0000 -0.7270
# 5 -6.5192 -9.0217 -9.6736 0.0000 39.9357 0.0000
# 6 0.0000 0.0000 0.0000 -0.7270 0.0000 27.8987
#
#
#
# Elastic Compliance Matrix: (Units=1/GPa)
#
#
# Indices 1 2 3 4 5 6 
#
# 1 0.029865 -0.006663 -0.010234 0.000000 0.000891 0.000000
# 2 -0.006663 0.028602 -0.010212 0.000000 0.002900 0.000000
# 3 -0.010234 -0.010212 0.024400 0.000000 0.001933 0.000000
# 4 0.000000 0.000000 0.000000 0.032227 0.000000 0.000840
# 5 0.000891 0.002900 0.001933 0.000000 0.026309 0.000000
# 6 0.000000 0.000000 0.000000 0.000840 0.000000 0.035866
#
#
# Mechanical properties :
#
#
# Convention : Reuss Voigt Hill
#
# Bulk Modulus (GPa) = 34.90527 38.29789 36.60158
# Shear Modulus (GPa) = 20.74387 25.37332 23.05860
#
# Velocity S-wave (km/s) = 3.43227 3.79599 3.61870
# Velocity P-wave (km/s) = 5.96070 6.40016 6.18434
#
# Compressibility (1/GPa) = 0.02864897
#
# Stress axis : x y z
#
# Youngs Moduli (GPa) = 33.48429 34.96271 40.98438
#
# Poissons Ratio (x) = 0.23295 0.41944
# Poissons Ratio (y) = 0.22310 0.41853
# Poissons Ratio (z) = 0.34268 0.35703
#
# Static dielectric constant tensor:
#      x y z
#    x 3.330710 0.000000 0.004320 
#    y 0.000000 3.277810 0.000000 
#    z 0.004320 0.000000 3.376230 
# 
# 
# High freq. dielectric constant tensor:
#      x y z
#    x 1.680710 0.000000 0.000120 
#    y 0.000000 1.682120 0.000000 
#    z 0.000120 0.000000 1.685480 
# 
# From -- ./inp_files/313990.got.cif
#   From: 2010.06.25/outbox.cif.g09.slc.cpg/sg12_157_cif.got.tgz:313990.got - 2010.06.28 00:19:55.
