data_PCOD8096754
_publ_section_title
;
Structure prediction by ZEFSAII (Michael W. Deem and Ramdas Pophale) SiO2 
 PCOD8096754
Probable space group: C 2/M
;
_chemical_formula_sum "Si O2"
_cell_formula_units_Z 64
_cell_length_a 21.841025
_cell_length_b 9.276861
_cell_length_c 16.150514
_cell_angle_alpha 90.000000
_cell_angle_beta 89.370339
_cell_angle_gamma 90.000000
_cell_volume 3272.157413
_symmetry_space_group_name_H-M "C 2/M"
_symmetry_group_IT_number 12
_symmetry_cell_setting 'monoclinic'
loop_
_space_group_symop_operation_xyz
x,y,z
-x,y,-z
-x,-y,-z
x,-y,z
1/2+x,1/2+y,z
1/2-x,1/2+y,-z
1/2-x,1/2-y,-z
1/2+x,1/2-y,z
loop_
_atom_site_type_symbol
_atom_site_label
_atom_site_fract_x
_atom_site_fract_y
_atom_site_fract_z
Si Si1 0.650358 0.757896 0.032862
Si Si2 0.732616 0.845577 0.886107
Si Si3 0.547340 0.839527 0.148350
Si Si4 0.841588 0.834705 0.232700
Si Si5 0.058875 0.157194 0.904858
Si Si6 0.527534 0.329588 0.309850
Si Si7 0.904649 0.672203 0.366868
Si Si8 0.428376 0.659000 0.519610
O O1 0.697198 0.665799 0.087028
O O2 0.610014 0.853530 0.095812
O O3 0.689126 0.851926 0.967634
O O4 0.603997 0.657255 0.982455
O O5 0.715139 0.719934 0.822237
O O6 0.724403 0.000000 0.841638
O O7 0.493560 0.778163 0.089710
O O8 0.556727 0.732453 0.225638
O O9 0.529065 0.000000 0.178453
O O10 0.904023 0.818256 0.180299
O O11 0.848186 0.735451 0.314141
O O12 0.828550 0.000000 0.257475
O O13 0.027327 0.000000 0.903350
O O14 0.512129 0.500000 0.301279
O O15 0.466221 0.241658 0.330279
O O16 0.577488 0.304142 0.382465
O O17 0.906668 0.500000 0.362054
O O18 0.895075 0.722333 0.462605
O O19 0.500000 0.656612 0.500000
O O20 0.400742 0.500000 0.500995
#
# Coordination Sequence:
#
# PCOD8096754 Si02
#       8
#     8   8   8   8   8   8   8   8
#     4  10  23  38  56  78 105 137 175 225 277 321
#     4  10  21  39  60  78 100 133 181 231 270 315
#     4  12  24  35  52  78 109 143 178 221 269 317
#     4  10  20  34  53  77 108 143 176 218 269 315
#     4  10  21  36  54  75 104 142 181 216 261 322
#     4  10  20  34  50  72 106 145 179 214 258 315
#     4  11  19  29  50  78 108 140 177 217 259 309
#     4   8  16  30  48  70 102 142 177 210 255 309
#
# _framework density 19.558962000000001
#
# number of rings (size 3 to 8) (size 9 to 14) (size 15 to 20)
#    0.000    1.875    1.250    4.125    0.000   11.750 
#    0.000    0.000    0.000    0.000    0.000    0.875 
#    0.000    0.000    0.000    0.000    0.000    0.000 
#
# Total GULP energy -396630.567237 kJ/mol
# GULP energy per Si atom -12394.705226 kJ/mol
# Density = 1.951444 g / cm^3
# Si number density = 19.558962 Si / 1000 Ang^3
#
#
#
# Elastic Constant Matrix: (Units=GPa)
#
#
# Indices 1 2 3 4 5 6 
#
# 1 70.1057 39.7390 43.7281 0.0000 13.6550 0.0000
# 2 39.7390 165.7845 60.1891 0.0000 21.2585 0.0000
# 3 43.7281 60.1891 109.1111 0.0000 30.0257 0.0000
# 4 0.0000 0.0000 0.0000 21.9777 0.0000 6.8154
# 5 13.6550 21.2585 30.0257 0.0000 20.8978 0.0000
# 6 0.0000 0.0000 0.0000 6.8154 0.0000 12.7212
#
#
#
# Elastic Compliance Matrix: (Units=1/GPa)
#
#
# Indices 1 2 3 4 5 6 
#
# 1 0.019743 -0.002266 -0.006197 0.000000 -0.001692 0.000000
# 2 -0.002266 0.007903 -0.002723 0.000000 -0.002646 0.000000
# 3 -0.006197 -0.002723 0.018647 0.000000 -0.019972 0.000000
# 4 0.000000 0.000000 0.000000 0.054566 0.000000 -0.029234
# 5 -0.001692 -0.002646 -0.019972 0.000000 0.080344 0.000000
# 6 0.000000 0.000000 0.000000 -0.029234 0.000000 0.094271
#
#
# Mechanical properties :
#
#
# Convention : Reuss Voigt Hill
#
# Bulk Modulus (GPa) = 41.80436 70.25707 56.03072
# Shear Modulus (GPa) = 16.34944 24.54236 20.44590
#
# Velocity S-wave (km/s) = 2.89434 3.54614 3.23669
# Velocity P-wave (km/s) = 5.70872 7.26398 6.53280
#
# Compressibility (1/GPa) = 0.02392095
#
# Stress axis : x y z
#
# Youngs Moduli (GPa) = 50.64976 126.53304 53.62853
#
# Poissons Ratio (x) = 0.28669 0.33234
# Poissons Ratio (y) = 0.11476 0.14605
# Poissons Ratio (z) = 0.31388 0.34460
#
# Static dielectric constant tensor:
#      x y z
#    x 3.173260 0.000000 0.211790 
#    y 0.000000 3.566200 0.000000 
#    z 0.211790 0.000000 3.897080 
# 
# 
# High freq. dielectric constant tensor:
#      x y z
#    x 1.713360 0.000000 0.026380 
#    y 0.000000 1.767260 0.000000 
#    z 0.026380 0.000000 1.762410 
# 
# From -- ./inp_files/281409.got.cif
#   From: 2010.06.25/outbox.cif.g09.slc.cpg/sg12_141_cif.got.tgz:281409.got - 2010.06.28 00:19:55.
