data_PCOD8096561
_publ_section_title
;
Structure prediction by ZEFSAII (Michael W. Deem and Ramdas Pophale) SiO2 
 PCOD8096561
Probable space group: C 2/M
;
_chemical_formula_sum "Si O2"
_cell_formula_units_Z 64
_cell_length_a 14.206062
_cell_length_b 26.578125
_cell_length_c 9.964036
_cell_angle_alpha 90.000000
_cell_angle_beta 88.364432
_cell_angle_gamma 90.000000
_cell_volume 3760.593240
_symmetry_space_group_name_H-M "C 2/M"
_symmetry_group_IT_number 12
_symmetry_cell_setting 'monoclinic'
loop_
_space_group_symop_operation_xyz
x,y,z
-x,y,-z
-x,-y,-z
x,-y,z
1/2+x,1/2+y,z
1/2-x,1/2+y,-z
1/2-x,1/2-y,-z
1/2+x,1/2-y,z
loop_
_atom_site_type_symbol
_atom_site_label
_atom_site_fract_x
_atom_site_fract_y
_atom_site_fract_z
Si Si1 0.214568 0.700574 0.841150
Si Si2 0.328992 0.620713 0.271024
Si Si3 0.110413 0.941818 0.491023
Si Si4 0.002786 0.816933 0.659433
Si Si5 0.696630 0.806017 0.148130
Si Si6 0.997263 0.272158 0.149858
Si Si7 0.611021 0.442958 0.981297
Si Si8 0.660524 0.613088 0.241624
O O1 0.266065 0.752438 0.794663
O O2 0.102913 0.702195 0.817180
O O3 0.255261 0.653886 0.752772
O O4 0.237716 0.689775 0.995906
O O5 0.325993 0.589602 0.408325
O O6 0.395038 0.668955 0.289387
O O7 0.230244 0.646228 0.234389
O O8 0.364111 0.581672 0.159897
O O9 0.164295 0.932621 0.348139
O O10 0.000000 0.923656 0.500000
O O11 0.114131 0.000000 0.528790
O O12 0.975223 0.766032 0.734642
O O13 0.000000 0.809040 0.500000
O O14 0.935517 0.860389 0.713278
O O15 0.583306 0.811750 0.151101
O O16 0.000000 0.246848 0.000000
O O17 0.649611 0.500000 0.983572
O O18 0.500000 0.442615 0.000000
O O19 0.659644 0.410685 0.095098
#
# Coordination Sequence:
#
# PCOD8096561 Si02
#       8
#     8   8   8   8   8   8   8   8
#     4  10  20  33  55  83 108 140 182 221 266 323
#     4  12  20  35  53  78 110 150 177 215 268 322
#     4  11  22  38  55  77 113 149 183 220 271 329
#     4  12  22  34  49  81 115 147 181 214 261 315
#     4  10  20  33  55  83 108 140 182 221 266 323
#     4  10  22  38  56  77 110 147 182 220 264 317
#     4  11  22  32  51  81 107 133 179 232 269 309
#     4  12  20  35  53  78 110 150 177 215 268 322
#
# _framework density 17.018591000000001
#
# number of rings (size 3 to 8) (size 9 to 14) (size 15 to 20)
#    0.000    1.000    7.500    0.750    1.750    2.000 
#    2.250    1.875    0.000    0.000    0.000    5.250 
#    0.000    0.000    0.000    0.000    0.000    0.000 
#
# Total GULP energy -396676.339754 kJ/mol
# GULP energy per Si atom -12396.135617 kJ/mol
# Density = 1.697986 g / cm^3
# Si number density = 17.018591 Si / 1000 Ang^3
#
#
#
# Elastic Constant Matrix: (Units=GPa)
#
#
# Indices 1 2 3 4 5 6 
#
# 1 82.5631 31.0658 18.5758 0.0000 3.3589 0.0000
# 2 31.0658 77.2558 29.5277 0.0000 4.0205 0.0000
# 3 18.5758 29.5277 69.8961 0.0000 6.6100 0.0000
# 4 0.0000 0.0000 0.0000 40.9413 0.0000 -0.3998
# 5 3.3589 4.0205 6.6100 0.0000 18.3874 0.0000
# 6 0.0000 0.0000 0.0000 -0.3998 0.0000 20.4300
#
#
#
# Elastic Compliance Matrix: (Units=1/GPa)
#
#
# Indices 1 2 3 4 5 6 
#
# 1 0.014445 -0.005159 -0.001570 0.000000 -0.000946 0.000000
# 2 -0.005159 0.017299 -0.005868 0.000000 -0.000731 0.000000
# 3 -0.001570 -0.005868 0.017655 0.000000 -0.004777 0.000000
# 4 0.000000 0.000000 0.000000 0.024430 0.000000 0.000478
# 5 -0.000946 -0.000731 -0.004777 0.000000 0.056435 0.000000
# 6 0.000000 0.000000 0.000000 0.000478 0.000000 0.048957
#
#
# Mechanical properties :
#
#
# Convention : Reuss Voigt Hill
#
# Bulk Modulus (GPa) = 41.31378 43.11706 42.21542
# Shear Modulus (GPa) = 23.53125 25.98812 24.75969
#
# Velocity S-wave (km/s) = 3.72247 3.91198 3.81840
# Velocity P-wave (km/s) = 6.54249 6.76720 6.65579
#
# Compressibility (1/GPa) = 0.02420500
#
# Stress axis : x y z
#
# Youngs Moduli (GPa) = 69.22852 57.80541 56.64179
#
# Poissons Ratio (x) = 0.29823 0.08892
# Poissons Ratio (y) = 0.35717 0.33237
# Poissons Ratio (z) = 0.10868 0.33920
#
# Static dielectric constant tensor:
#      x y z
#    x 3.022250 0.000000 0.011260 
#    y 0.000000 3.113770 0.000000 
#    z 0.011260 0.000000 3.257200 
# 
# 
# High freq. dielectric constant tensor:
#      x y z
#    x 1.629830 0.000000 0.005050 
#    y 0.000000 1.648030 0.000000 
#    z 0.005050 0.000000 1.660080 
# 
# From -- ./inp_files/66954.got.cif
#   From: 2010.06.25/outbox.cif.g09.slc.cpg/sg12_34_cif.got.tgz:66954.got - 2010.06.28 00:19:55.
