data_PCOD8096729
_publ_section_title
;
Structure prediction by ZEFSAII (Michael W. Deem and Ramdas Pophale) SiO2 
 PCOD8096729
Probable space group: C 2/M
;
_chemical_formula_sum "Si O2"
_cell_formula_units_Z 64
_cell_length_a 28.218678
_cell_length_b 9.291678
_cell_length_c 14.588804
_cell_angle_alpha 90.000000
_cell_angle_beta 107.599748
_cell_angle_gamma 90.000000
_cell_volume 3646.119448
_symmetry_space_group_name_H-M "C 2/M"
_symmetry_group_IT_number 12
_symmetry_cell_setting 'monoclinic'
loop_
_space_group_symop_operation_xyz
x,y,z
-x,y,-z
-x,-y,-z
x,-y,z
1/2+x,1/2+y,z
1/2-x,1/2+y,-z
1/2-x,1/2-y,-z
1/2+x,1/2-y,z
loop_
_atom_site_type_symbol
_atom_site_label
_atom_site_fract_x
_atom_site_fract_y
_atom_site_fract_z
Si Si1 0.253988 0.171469 0.906975
Si Si2 0.503364 0.836722 0.897885
Si Si3 0.840258 0.170515 0.260492
Si Si4 0.198535 0.831232 0.571535
Si Si5 0.911732 0.164375 0.150306
Si Si6 0.392999 0.163709 0.812276
Si Si7 0.811856 0.667550 0.617255
Si Si8 0.150965 0.164531 0.062914
O O1 0.208574 0.225481 0.819409
O O2 0.303343 0.230306 0.887449
O O3 0.256182 0.000000 0.920681
O O4 0.250000 0.250000 0.000000
O O5 0.541227 0.753158 0.855105
O O6 0.450421 0.828885 0.814374
O O7 0.522856 0.000000 0.916682
O O8 0.500000 0.773816 0.000000
O O9 0.835510 0.223044 0.362960
O O10 0.889875 0.223893 0.235186
O O11 0.840043 0.000000 0.257164
O O12 0.178359 0.750606 0.471110
O O13 0.256905 0.796263 0.624606
O O14 0.191715 0.000000 0.551380
O O15 0.929383 0.000000 0.170160
O O16 0.866163 0.175349 0.052223
O O17 0.354817 0.217993 0.712162
O O18 0.391963 0.272873 0.897334
O O19 0.379443 0.000000 0.833513
O O20 0.816995 0.500000 0.598688
O O21 0.163854 0.000000 0.095553
#
# Coordination Sequence:
#
# PCOD8096729 Si02
#       8
#     8   8   8   8   8   8   8   8
#     4  11  20  32  48  69 102 139 174 207 246 300
#     4  10  20  34  52  75 100 130 176 219 254 303
#     4   9  18  34  52  71 100 139 175 205 251 310
#     4   9  17  32  55  77 100 132 168 206 250 305
#     4  10  20  34  50  70 101 137 172 209 254 304
#     4  10  20  35  54  74 101 137 169 209 264 314
#     4   9  18  33  53  78 104 131 164 206 261 311
#     4  11  21  32  47  73 104 135 173 211 250 301
#
# _framework density 17.552907999999999
#
# number of rings (size 3 to 8) (size 9 to 14) (size 15 to 20)
#    0.000    2.125    2.500    1.500    0.000    3.750 
#    0.000    4.375    0.000    0.750    0.000    5.250 
#    0.000    0.000    0.000    0.000    0.000    0.000 
#
# Total GULP energy -396655.198937 kJ/mol
# GULP energy per Si atom -12395.474967 kJ/mol
# Density = 1.751296 g / cm^3
# Si number density = 17.552908 Si / 1000 Ang^3
#
#
#
# Elastic Constant Matrix: (Units=GPa)
#
#
# Indices 1 2 3 4 5 6 
#
# 1 110.2052 38.0735 45.7456 0.0000 -19.9221 0.0000
# 2 38.0735 60.1474 27.0869 0.0000 -10.0714 0.0000
# 3 45.7456 27.0869 83.9425 0.0000 -17.1991 0.0000
# 4 0.0000 0.0000 0.0000 24.8038 0.0000 -3.1760
# 5 -19.9221 -10.0714 -17.1991 0.0000 32.8311 0.0000
# 6 0.0000 0.0000 0.0000 -3.1760 0.0000 29.7610
#
#
#
# Elastic Compliance Matrix: (Units=1/GPa)
#
#
# Indices 1 2 3 4 5 6 
#
# 1 0.013849 -0.005922 -0.004802 0.000000 0.004071 0.000000
# 2 -0.005922 0.022253 -0.003687 0.000000 0.001301 0.000000
# 3 -0.004802 -0.003687 0.016681 0.000000 0.004694 0.000000
# 4 0.000000 0.000000 0.000000 0.040875 0.000000 0.004362
# 5 0.004071 0.001301 0.004694 0.000000 0.035788 0.000000
# 6 0.000000 0.000000 0.000000 0.004362 0.000000 0.034067
#
#
# Mechanical properties :
#
#
# Convention : Reuss Voigt Hill
#
# Bulk Modulus (GPa) = 41.73385 52.90078 47.31731
# Shear Modulus (GPa) = 24.95984 27.03844 25.99914
#
# Velocity S-wave (km/s) = 3.77500 3.92905 3.85279
# Velocity P-wave (km/s) = 6.54435 7.12647 6.84160
#
# Compressibility (1/GPa) = 0.02396137
#
# Stress axis : x y z
#
# Youngs Moduli (GPa) = 72.20535 44.93813 59.94761
#
# Poissons Ratio (x) = 0.26614 0.28788
# Poissons Ratio (y) = 0.42763 0.22100
# Poissons Ratio (z) = 0.34674 0.16567
#
# Static dielectric constant tensor:
#      x y z
#    x 3.473260 0.000000 -0.088360 
#    y 0.000000 3.160320 0.000000 
#    z -0.088360 0.000000 3.206280 
# 
# 
# High freq. dielectric constant tensor:
#      x y z
#    x 1.677960 0.000000 -0.008960 
#    y 0.000000 1.666950 0.000000 
#    z -0.008960 0.000000 1.658250 
# 
# From -- ./inp_files/244216.got.cif
#   From: 2010.06.25/outbox.cif.g09.slc.cpg/sg12_123_cif.got.tgz:244216.got - 2010.06.28 00:19:55.
