data_PCOD8097283
_publ_section_title
;
Structure prediction by ZEFSAII (Michael W. Deem and Ramdas Pophale) SiO2 
 PCOD8097283
Probable space group: C 2/M
;
_chemical_formula_sum "Si O2"
_cell_formula_units_Z 56
_cell_length_a 9.642520
_cell_length_b 16.530871
_cell_length_c 20.643524
_cell_angle_alpha 90.000000
_cell_angle_beta 124.336867
_cell_angle_gamma 90.000000
_cell_volume 2717.134205
_symmetry_space_group_name_H-M "C 2/M"
_symmetry_group_IT_number 12
_symmetry_cell_setting 'monoclinic'
loop_
_space_group_symop_operation_xyz
x,y,z
-x,y,-z
-x,-y,-z
x,-y,z
1/2+x,1/2+y,z
1/2-x,1/2+y,-z
1/2-x,1/2-y,-z
1/2+x,1/2-y,z
loop_
_atom_site_type_symbol
_atom_site_label
_atom_site_fract_x
_atom_site_fract_y
_atom_site_fract_z
Si Si1 0.432079 0.645276 0.288405
Si Si2 0.600422 0.858697 0.967862
Si Si3 0.028015 0.826168 0.933570
Si Si4 0.636031 0.406392 0.586318
Si Si5 0.507162 0.832259 0.307829
Si Si6 0.074074 0.409189 0.194836
Si Si7 0.334143 0.593178 0.765824
O O1 0.437115 0.604335 0.360607
O O2 0.483670 0.737551 0.310874
O O3 0.242975 0.633171 0.211959
O O4 0.554545 0.603888 0.269018
O O5 0.526876 0.770449 0.931311
O O6 0.567627 0.914678 0.897355
O O7 0.500000 0.898412 0.000000
O O8 0.791904 0.859307 0.040248
O O9 0.895896 0.857771 0.845680
O O10 0.000000 0.856661 0.000000
O O11 0.500000 0.371738 0.500000
O O12 0.671481 0.500000 0.581889
O O13 0.809818 0.358922 0.618370
O O14 0.495202 0.853932 0.229363
O O15 0.353370 0.877669 0.302944
O O16 0.113234 0.500000 0.231057
O O17 0.331287 0.500000 0.785230
#
# Coordination Sequence:
#
# PCOD8097283 Si02
#       7
#     8   8   8   8   8   8   8
#     4  11  22  39  62  88 118 153 195 238 284 342
#     4  10  20  34  53  76 106 149 200 247 291 345
#     4  10  21  35  51  76 113 154 193 240 301 352
#     4  10  22  43  67  90 121 157 189 227 284 351
#     4  11  22  39  62  87 117 155 195 231 281 350
#     4  11  22  38  59  83 116 157 201 245 294 352
#     4  12  23  36  58  88 119 148 192 251 297 337
#
# _framework density 20.609949
#
# number of rings (size 3 to 8) (size 9 to 14) (size 15 to 20)
#    0.000    1.286    0.000    8.571    0.000    4.000 
#    0.000    0.714    0.000    2.571    0.000    0.000 
#    0.000    0.000    0.000    0.000    0.000    0.000 
#
# Total GULP energy -347164.086108 kJ/mol
# GULP energy per Si atom -12398.717361 kJ/mol
# Density = 2.056304 g / cm^3
# Si number density = 20.609949 Si / 1000 Ang^3
#
#
#
# Elastic Constant Matrix: (Units=GPa)
#
#
# Indices 1 2 3 4 5 6 
#
# 1 96.0628 10.7187 20.1416 0.0000 2.5289 0.0000
# 2 10.7187 90.3442 9.2262 0.0000 14.6357 0.0000
# 3 20.1416 9.2262 101.2009 0.0000 11.6264 0.0000
# 4 0.0000 0.0000 0.0000 12.6288 0.0000 -3.4135
# 5 2.5289 14.6357 11.6264 0.0000 26.3776 0.0000
# 6 0.0000 0.0000 0.0000 -3.4135 0.0000 27.7204
#
#
#
# Elastic Compliance Matrix: (Units=1/GPa)
#
#
# Indices 1 2 3 4 5 6 
#
# 1 0.010975 -0.001171 -0.002140 0.000000 0.000541 0.000000
# 2 -0.001171 0.012299 -0.000123 0.000000 -0.006657 0.000000
# 3 -0.002140 -0.000123 0.010836 0.000000 -0.004502 0.000000
# 4 0.000000 0.000000 0.000000 0.081910 0.000000 0.010086
# 5 0.000541 -0.006657 -0.004502 0.000000 0.043538 0.000000
# 6 0.000000 0.000000 0.000000 0.010086 0.000000 0.037317
#
#
# Mechanical properties :
#
#
# Convention : Reuss Voigt Hill
#
# Bulk Modulus (GPa) = 36.70918 40.86454 38.78686
# Shear Modulus (GPa) = 23.49373 29.84679 26.67026
#
# Velocity S-wave (km/s) = 3.37994 3.80962 3.60119
# Velocity P-wave (km/s) = 5.75170 6.26271 6.01263
#
# Compressibility (1/GPa) = 0.02724114
#
# Stress axis : x y z
#
# Youngs Moduli (GPa) = 91.11685 81.30860 92.28768
#
# Poissons Ratio (x) = 0.09523 0.19746
# Poissons Ratio (y) = 0.10671 0.01138
# Poissons Ratio (z) = 0.19496 0.01003
#
# Static dielectric constant tensor:
#      x y z
#    x 3.921940 0.000000 0.072400 
#    y 0.000000 3.695530 0.000000 
#    z 0.072400 0.000000 3.631590 
# 
# 
# High freq. dielectric constant tensor:
#      x y z
#    x 1.818890 0.000000 0.005680 
#    y 0.000000 1.807420 0.000000 
#    z 0.005680 0.000000 1.792310 
# 
# From -- ./inp_files/300884.got.cif
#   From: 2010.06.25/outbox.cif.g09.slc.cpg/sg12_151_cif.got.tgz:300884.got - 2010.06.28 00:19:55.
