data_PCOD8097964
_publ_section_title
;
Structure prediction by ZEFSAII (Michael W. Deem and Ramdas Pophale) SiO2 
 PCOD8097964
Probable space group: C 2/M
;
_chemical_formula_sum "Si O2"
_cell_formula_units_Z 48
_cell_length_a 35.357425
_cell_length_b 9.341170
_cell_length_c 7.980842
_cell_angle_alpha 90.000000
_cell_angle_beta 102.294249
_cell_angle_gamma 90.000000
_cell_volume 2575.460787
_symmetry_space_group_name_H-M "C 2/M"
_symmetry_group_IT_number 12
_symmetry_cell_setting 'monoclinic'
loop_
_space_group_symop_operation_xyz
x,y,z
-x,y,-z
-x,-y,-z
x,-y,z
1/2+x,1/2+y,z
1/2-x,1/2+y,-z
1/2-x,1/2-y,-z
1/2+x,1/2-y,z
loop_
_atom_site_type_symbol
_atom_site_label
_atom_site_fract_x
_atom_site_fract_y
_atom_site_fract_z
Si Si1 0.168124 0.331817 0.903814
Si Si2 0.504045 0.152783 0.693537
Si Si3 0.083069 0.334262 0.922138
Si Si4 0.794630 0.664753 0.707625
Si Si5 0.703457 0.333309 0.621613
Si Si6 0.959265 0.161262 0.864969
O O1 0.175978 0.500000 0.879254
O O2 0.122716 0.294109 0.867584
O O3 0.184908 0.242112 0.765592
O O4 0.186494 0.283964 0.099316
O O5 0.500000 0.119164 0.500000
O O6 0.547458 0.209360 0.768702
O O7 0.469339 0.262251 0.700660
O O8 0.498442 0.000000 0.785498
O O9 0.083788 0.500000 0.974699
O O10 0.076925 0.240337 0.083532
O O11 0.805683 0.500000 0.681195
O O12 0.749087 0.685116 0.684721
O O13 0.810252 0.758926 0.565562
O O14 0.691292 0.500000 0.605437
O O15 0.946577 0.000000 0.821614
O O16 0.000000 0.177277 0.000000
#
# Coordination Sequence:
#
# PCOD8097964 Si02
#       6
#     8   8   8   8   8   8
#     4  10  20  35  55  78 107 142 178 218 265 313
#     4   9  17  31  51  73  96 126 167 209 247 294
#     4   9  18  33  51  72  97 129 168 208 250 299
#     4   9  19  36  56  78 104 140 182 218 258 312
#     4  10  20  34  55  81 108 138 175 220 265 313
#     4   9  17  30  49  70  94 126 161 200 246 295
#
# _framework density 18.637440999999999
#
# number of rings (size 3 to 8) (size 9 to 14) (size 15 to 20)
#    0.000    2.667    0.000    1.500    0.000    4.333 
#    3.000    0.000    0.000    0.000    0.000    0.000 
#    0.000    0.000    0.000    0.000    0.000    0.000 
#
# Total GULP energy -297407.191012 kJ/mol
# GULP energy per Si atom -12391.966292 kJ/mol
# Density = 1.859502 g / cm^3
# Si number density = 18.637441 Si / 1000 Ang^3
#
#
#
# Elastic Constant Matrix: (Units=GPa)
#
#
# Indices 1 2 3 4 5 6 
#
# 1 73.1553 52.5228 52.4150 0.0000 -15.4296 0.0000
# 2 52.5228 114.4883 69.5553 0.0000 -24.4796 0.0000
# 3 52.4150 69.5553 128.1392 0.0000 -21.9886 0.0000
# 4 0.0000 0.0000 0.0000 23.9877 0.0000 -6.7022
# 5 -15.4296 -24.4796 -21.9886 0.0000 21.9147 0.0000
# 6 0.0000 0.0000 0.0000 -6.7022 0.0000 20.4275
#
#
#
# Elastic Compliance Matrix: (Units=1/GPa)
#
#
# Indices 1 2 3 4 5 6 
#
# 1 0.022844 -0.006586 -0.005160 0.000000 0.003549 0.000000
# 2 -0.006586 0.016592 -0.004744 0.000000 0.009136 0.000000
# 3 -0.005160 -0.004744 0.013236 0.000000 0.004348 0.000000
# 4 0.000000 0.000000 0.000000 0.045895 0.000000 0.015058
# 5 0.003549 0.009136 0.004348 0.000000 0.062699 0.000000
# 6 0.000000 0.000000 0.000000 0.015058 0.000000 0.053894
#
#
# Mechanical properties :
#
#
# Convention : Reuss Voigt Hill
#
# Bulk Modulus (GPa) = 50.78560 73.86323 62.32442
# Shear Modulus (GPa) = 19.63056 22.68528 21.15792
#
# Velocity S-wave (km/s) = 3.24896 3.49261 3.37298
# Velocity P-wave (km/s) = 6.43294 7.48212 6.97728
#
# Compressibility (1/GPa) = 0.01969062
#
# Stress axis : x y z
#
# Youngs Moduli (GPa) = 43.77531 60.27075 75.55008
#
# Poissons Ratio (x) = 0.39694 0.38986
# Poissons Ratio (y) = 0.28830 0.35844
# Poissons Ratio (z) = 0.22589 0.28595
#
# Static dielectric constant tensor:
#      x y z
#    x 3.348950 0.000000 -0.056920 
#    y 0.000000 3.489990 0.000000 
#    z -0.056920 0.000000 3.349870 
# 
# 
# High freq. dielectric constant tensor:
#      x y z
#    x 1.711990 0.000000 -0.011220 
#    y 0.000000 1.724590 0.000000 
#    z -0.011220 0.000000 1.715280 
# 
# From -- ./inp_files/108649.got.cif
#   From: 2010.06.25/outbox.cif.g09.slc.cpg/sg12_55_cif.got.tgz:108649.got - 2010.06.28 00:19:55.
