data_PCOD8097488
_publ_section_title
;
Structure prediction by ZEFSAII (Michael W. Deem and Ramdas Pophale) SiO2 
 PCOD8097488
Probable space group: C 2/M
;
_chemical_formula_sum "Si O2"
_cell_formula_units_Z 56
_cell_length_a 9.386088
_cell_length_b 15.168375
_cell_length_c 32.215403
_cell_angle_alpha 90.000000
_cell_angle_beta 143.281634
_cell_angle_gamma 90.000000
_cell_volume 2742.223292
_symmetry_space_group_name_H-M "C 2/M"
_symmetry_group_IT_number 12
_symmetry_cell_setting 'monoclinic'
loop_
_space_group_symop_operation_xyz
x,y,z
-x,y,-z
-x,-y,-z
x,-y,z
1/2+x,1/2+y,z
1/2-x,1/2+y,-z
1/2-x,1/2-y,-z
1/2+x,1/2-y,z
loop_
_atom_site_type_symbol
_atom_site_label
_atom_site_fract_x
_atom_site_fract_y
_atom_site_fract_z
Si Si1 0.502158 0.101360 0.283349
Si Si2 0.765470 0.743876 0.051759
Si Si3 0.320743 0.399248 0.286592
Si Si4 0.743567 0.658492 0.436385
Si Si5 0.968383 0.896197 0.153820
Si Si6 0.845624 0.603173 0.839638
Si Si7 0.601554 0.343591 0.564908
O O1 0.637383 0.148251 0.276002
O O2 0.663605 0.109583 0.362241
O O3 0.236076 0.139395 0.225681
O O4 0.469930 0.000000 0.265875
O O5 0.856195 0.837421 0.091136
O O6 0.918797 0.661108 0.102652
O O7 0.500000 0.720151 0.000000
O O8 0.750000 0.750000 0.000000
O O9 0.247998 0.500000 0.267999
O O10 0.588293 0.391832 0.365963
O O11 0.295094 0.362324 0.234158
O O12 0.605480 0.665026 0.448376
O O13 0.803428 0.751934 0.430415
O O14 0.000000 0.608482 0.500000
O O15 0.824062 0.877212 0.161639
O O16 0.956377 0.000000 0.138573
O O17 0.915717 0.500000 0.853926
O O18 0.500000 0.394794 0.500000
#
# Coordination Sequence:
#
# PCOD8097488 Si02
#       7
#     8   8   8   8   8   8   8
#     4   9  20  38  59  85 115 154 198 241 298 354
#     4  12  26  44  65  97 127 156 204 247 302 370
#     4   9  20  38  59  85 116 153 197 244 296 353
#     4  10  20  34  53  80 114 153 195 242 294 345
#     4  10  23  43  66  91 125 165 203 249 302 361
#     4  10  23  43  65  92 126 162 204 251 301 360
#     4  10  20  34  53  80 114 152 196 243 292 346
#
# _framework density 20.421385999999998
#
# number of rings (size 3 to 8) (size 9 to 14) (size 15 to 20)
#    0.000    2.000    1.429    1.714    4.000    4.000 
#    0.000    0.000    0.000    0.000    0.000    0.000 
#    0.000    0.000    0.000    0.000    0.000    0.000 
#
# Total GULP energy -346896.704211 kJ/mol
# GULP energy per Si atom -12389.168008 kJ/mol
# Density = 2.037491 g / cm^3
# Si number density = 20.421386 Si / 1000 Ang^3
#
#
#
# Elastic Constant Matrix: (Units=GPa)
#
#
# Indices 1 2 3 4 5 6 
#
# 1 145.6664 44.0471 100.0916 0.0000 1.9231 0.0000
# 2 44.0471 52.9945 47.7519 0.0001 -1.0419 0.0000
# 3 100.0916 47.7519 191.2307 0.0004 -2.4849 -0.0001
# 4 0.0000 0.0001 0.0004 35.8392 0.0001 -0.3764
# 5 1.9231 -1.0419 -2.4849 0.0001 48.8871 0.0000
# 6 0.0000 0.0000 -0.0001 -0.3764 0.0000 17.7758
#
#
#
# Elastic Compliance Matrix: (Units=1/GPa)
#
#
# Indices 1 2 3 4 5 6 
#
# 1 0.011877 -0.005518 -0.004849 0.000000 -0.000831 0.000000
# 2 -0.005518 0.026915 -0.003825 0.000000 0.000596 0.000000
# 3 -0.004849 -0.003825 0.008730 0.000000 0.000553 0.000000
# 4 0.000000 0.000000 0.000000 0.027909 0.000000 0.000591
# 5 -0.000831 0.000596 0.000553 0.000000 0.020529 0.000000
# 6 0.000000 0.000000 0.000000 0.000591 0.000000 0.056269
#
#
# Mechanical properties :
#
#
# Convention : Reuss Voigt Hill
#
# Bulk Modulus (GPa) = 52.25627 85.96363 69.10995
# Shear Modulus (GPa) = 26.73938 33.70049 30.21993
#
# Velocity S-wave (km/s) = 3.62246 4.06674 3.85101
# Velocity P-wave (km/s) = 6.56817 8.01483 7.32729
#
# Compressibility (1/GPa) = 0.01913646
#
# Stress axis : x y z
#
# Youngs Moduli (GPa) = 84.19915 37.15457 114.55266
#
# Poissons Ratio (x) = 0.20503 0.55548
# Poissons Ratio (y) = 0.46464 0.43813
# Poissons Ratio (z) = 0.40829 0.14211
#
# Static dielectric constant tensor:
#      x y z
#    x 3.974620 0.000000 -0.018180 
#    y 0.000000 3.372840 0.000000 
#    z -0.018180 0.000000 4.402220 
# 
# 
# High freq. dielectric constant tensor:
#      x y z
#    x 1.808950 0.000000 -0.000360 
#    y 0.000000 1.778700 0.000000 
#    z -0.000360 0.000000 1.815340 
# 
# From -- ./inp_files/372806.got.cif
#   From: 2010.06.25/outbox.cif.g09.slc.cpg/sg12_187_cif.got.tgz:372806.got - 2010.06.28 00:19:55.
