data_PCOD8097799
_publ_section_title
;
Structure prediction by ZEFSAII (Michael W. Deem and Ramdas Pophale) SiO2 
 PCOD8097799
Probable space group: C 2/M
;
_chemical_formula_sum "Si O2"
_cell_formula_units_Z 40
_cell_length_a 8.239029
_cell_length_b 26.078993
_cell_length_c 12.571617
_cell_angle_alpha 90.000000
_cell_angle_beta 48.750885
_cell_angle_gamma 90.000000
_cell_volume 2030.903042
_symmetry_space_group_name_H-M "C 2/M"
_symmetry_group_IT_number 12
_symmetry_cell_setting 'monoclinic'
loop_
_space_group_symop_operation_xyz
x,y,z
-x,y,-z
-x,-y,-z
x,-y,z
1/2+x,1/2+y,z
1/2-x,1/2+y,-z
1/2-x,1/2-y,-z
1/2+x,1/2-y,z
loop_
_atom_site_type_symbol
_atom_site_label
_atom_site_fract_x
_atom_site_fract_y
_atom_site_fract_z
Si Si1 0.242458 0.316380 0.924476
Si Si2 0.460780 0.056517 0.641107
Si Si3 0.159258 0.858809 0.717230
Si Si4 0.742904 0.643007 0.438402
Si Si5 0.634662 0.209002 0.203308
O O1 0.398727 0.363861 0.826829
O O2 0.347538 0.270474 0.808631
O O3 0.254858 0.308611 0.044654
O O4 0.000000 0.329913 0.000000
O O5 0.500000 0.049449 0.500000
O O6 0.245087 0.090873 0.741428
O O7 0.651422 0.086332 0.623238
O O8 0.431453 0.000000 0.705856
O O9 0.256798 0.849131 0.558844
O O10 0.225051 0.808907 0.757049
O O11 0.500000 0.644762 0.500000
O O12 0.888517 0.687078 0.318876
#
# Coordination Sequence:
#
# PCOD8097799 Si02
#       5
#     8   8   8   8   8
#     4  11  21  34  53  75 103 142 184 222 261 311
#     4   8  16  33  56  80 107 140 176 215 269 332
#     4  10  20  35  56  80 108 143 181 222 268 318
#     4  10  20  34  54  82 111 139 179 228 269 305
#     4  10  20  35  52  74 107 146 181 213 262 323
#
# _framework density 19.695672999999999
#
# number of rings (size 3 to 8) (size 9 to 14) (size 15 to 20)
#    0.000    2.200    0.000    6.000    0.000    1.200 
#    0.000    5.000    0.000   10.200    0.000    0.000 
#    0.000    0.000    0.000    0.000    0.000    0.000 
#
# Total GULP energy -247789.150021 kJ/mol
# GULP energy per Si atom -12389.457501 kJ/mol
# Density = 1.965084 g / cm^3
# Si number density = 19.695673 Si / 1000 Ang^3
#
#
#
# Elastic Constant Matrix: (Units=GPa)
#
#
# Indices 1 2 3 4 5 6 
#
# 1 118.0950 65.4529 36.3252 0.0000 -27.1635 0.0000
# 2 65.4529 78.6906 55.1852 0.0000 -25.3979 0.0000
# 3 36.3252 55.1852 70.8456 0.0000 -15.3754 0.0000
# 4 0.0000 0.0000 0.0000 5.8509 0.0000 1.6911
# 5 -27.1635 -25.3979 -15.3754 0.0000 47.6739 0.0000
# 6 0.0000 0.0000 0.0000 1.6911 0.0000 16.4560
#
#
#
# Elastic Compliance Matrix: (Units=1/GPa)
#
#
# Indices 1 2 3 4 5 6 
#
# 1 0.016644 -0.016476 0.004788 0.000000 0.002250 0.000000
# 2 -0.016476 0.047913 -0.027281 0.000000 0.007339 0.000000
# 3 0.004788 -0.027281 0.032633 0.000000 -0.001281 0.000000
# 4 0.000000 0.000000 0.000000 0.176145 0.000000 -0.018101
# 5 0.002250 0.007339 -0.001281 0.000000 0.025755 0.000000
# 6 0.000000 0.000000 0.000000 -0.018101 0.000000 0.062628
#
#
# Mechanical properties :
#
#
# Convention : Reuss Voigt Hill
#
# Bulk Modulus (GPa) = 51.94231 64.61754 58.27993
# Shear Modulus (GPa) = 11.20893 21.37403 16.29148
#
# Velocity S-wave (km/s) = 2.38818 3.29783 2.87916
# Velocity P-wave (km/s) = 5.83389 6.88332 6.38022
#
# Compressibility (1/GPa) = 0.01925213
#
# Stress axis : x y z
#
# Youngs Moduli (GPa) = 60.08174 20.87119 30.64390
#
# Poissons Ratio (x) = 0.34386 -0.14672
# Poissons Ratio (y) = 0.98988 0.83601
# Poissons Ratio (z) = -0.28767 0.56939
#
# Static dielectric constant tensor:
#      x y z
#    x 3.686800 0.000000 -0.131750 
#    y 0.000000 3.701350 0.000000 
#    z -0.131750 0.000000 3.687530 
# 
# 
# High freq. dielectric constant tensor:
#      x y z
#    x 1.777150 0.000000 -0.007080 
#    y 0.000000 1.734760 0.000000 
#    z -0.007080 0.000000 1.762440 
# 
# From -- ./inp_files/41055.got.cif
#   From: 2010.06.25/outbox.cif.g09.slc.cpg/sg12_21_cif.got.tgz:41055.got - 2010.06.28 00:19:55.
