data_PCOD8097223
_publ_section_title
;
Structure prediction by ZEFSAII (Michael W. Deem and Ramdas Pophale) SiO2 
 PCOD8097223
Probable space group: C 2/M
;
_chemical_formula_sum "Si O2"
_cell_formula_units_Z 56
_cell_length_a 19.078640
_cell_length_b 9.340810
_cell_length_c 20.006004
_cell_angle_alpha 90.000000
_cell_angle_beta 118.066690
_cell_angle_gamma 90.000000
_cell_volume 3145.995321
_symmetry_space_group_name_H-M "C 2/M"
_symmetry_group_IT_number 12
_symmetry_cell_setting 'monoclinic'
loop_
_space_group_symop_operation_xyz
x,y,z
-x,y,-z
-x,-y,-z
x,-y,z
1/2+x,1/2+y,z
1/2-x,1/2+y,-z
1/2-x,1/2-y,-z
1/2+x,1/2-y,z
loop_
_atom_site_type_symbol
_atom_site_label
_atom_site_fract_x
_atom_site_fract_y
_atom_site_fract_z
Si Si1 0.390087 0.666487 0.130704
Si Si2 0.639730 0.167742 0.409423
Si Si3 0.087758 0.832984 0.013057
Si Si4 0.474061 0.165266 0.277909
Si Si5 0.217245 0.665525 0.579790
Si Si6 0.766908 0.669143 0.861244
Si Si7 0.817546 0.664141 0.286749
O O1 0.404922 0.500000 0.149216
O O2 0.402712 0.710198 0.059893
O O3 0.456928 0.749151 0.202466
O O4 0.301271 0.709378 0.115047
O O5 0.553615 0.223079 0.348507
O O6 0.702908 0.244510 0.390785
O O7 0.654246 0.207622 0.493748
O O8 0.648287 0.000000 0.401473
O O9 0.106981 0.000000 0.032598
O O10 0.150092 0.739072 0.081666
O O11 0.000000 0.795301 0.000000
O O12 0.405753 0.192720 0.300903
O O13 0.481174 0.000000 0.261064
O O14 0.240688 0.500000 0.584488
O O15 0.179216 0.702626 0.633845
O O16 0.778188 0.500000 0.860076
O O17 0.743636 0.732595 0.778736
O O18 0.791195 0.500000 0.262529
#
# Coordination Sequence:
#
# PCOD8097223 Si02
#       7
#     8   8   8   8   8   8   8
#     4   9  19  35  53  73  98 129 163 198 240 291
#     4   9  18  32  49  72 101 130 163 203 245 288
#     4  10  21  36  53  74 100 129 162 200 240 286
#     4   9  18  32  51  74  98 126 162 205 247 285
#     4   9  18  32  50  71  97 132 168 200 240 291
#     4  10  20  34  53  75  99 128 161 200 245 290
#     4   9  18  33  52  73  97 128 166 203 241 288
#
# _framework density 17.800408999999998
#
# number of rings (size 3 to 8) (size 9 to 14) (size 15 to 20)
#    0.000    2.714    0.000    0.857    0.000    4.286 
#    0.000    7.143    0.000    0.000    0.000    8.000 
#    0.000    0.000    0.000    0.000    0.000    0.000 
#
# Total GULP energy -347234.875187 kJ/mol
# GULP energy per Si atom -12401.245542 kJ/mol
# Density = 1.775989 g / cm^3
# Si number density = 17.800409 Si / 1000 Ang^3
#
#
#
# Elastic Constant Matrix: (Units=GPa)
#
#
# Indices 1 2 3 4 5 6 
#
# 1 65.0351 27.9412 47.2605 0.0000 17.0930 0.0000
# 2 27.9412 46.2117 40.4730 0.0000 15.9256 0.0000
# 3 47.2605 40.4730 99.6767 0.0000 26.2826 0.0000
# 4 0.0000 0.0000 0.0000 31.8711 0.0000 1.6840
# 5 17.0930 15.9256 26.2826 0.0000 32.2165 0.0000
# 6 0.0000 0.0000 0.0000 1.6840 0.0000 26.9203
#
#
#
# Elastic Compliance Matrix: (Units=1/GPa)
#
#
# Indices 1 2 3 4 5 6 
#
# 1 0.025212 -0.006846 -0.008332 0.000000 -0.003195 0.000000
# 2 -0.006846 0.036719 -0.009982 0.000000 -0.006375 0.000000
# 3 -0.008332 -0.009982 0.019836 0.000000 -0.006828 0.000000
# 4 0.000000 0.000000 0.000000 0.031480 0.000000 -0.001969
# 5 -0.003195 -0.006375 -0.006828 0.000000 0.041457 0.000000
# 6 0.000000 0.000000 0.000000 -0.001969 0.000000 0.037270
#
#
# Mechanical properties :
#
#
# Convention : Reuss Voigt Hill
#
# Bulk Modulus (GPa) = 31.79945 49.14141 40.47043
# Shear Modulus (GPa) = 19.78034 24.55150 22.16592
#
# Velocity S-wave (km/s) = 3.33713 3.71788 3.53264
# Velocity P-wave (km/s) = 5.72292 6.78948 6.27888
#
# Compressibility (1/GPa) = 0.03144708
#
# Stress axis : x y z
#
# Youngs Moduli (GPa) = 39.66388 27.23413 50.41243
#
# Poissons Ratio (x) = 0.18644 0.42002
# Poissons Ratio (y) = 0.27153 0.50324
# Poissons Ratio (z) = 0.33047 0.27186
#
# Static dielectric constant tensor:
#      x y z
#    x 3.297030 0.000000 -0.016690 
#    y 0.000000 3.270680 0.000000 
#    z -0.016690 0.000000 3.432040 
# 
# 
# High freq. dielectric constant tensor:
#      x y z
#    x 1.683320 0.000000 -0.000990 
#    y 0.000000 1.685200 0.000000 
#    z -0.000990 0.000000 1.695360 
# 
# From -- ./inp_files/281642.got.cif
#   From: 2010.06.25/outbox.cif.g09.slc.cpg/sg12_141_cif.got.tgz:281642.got - 2010.06.28 00:19:55.
