data_PCOD8097238
_publ_section_title
;
Structure prediction by ZEFSAII (Michael W. Deem and Ramdas Pophale) SiO2 
 PCOD8097238
Probable space group: C 2/M
;
_chemical_formula_sum "Si O2"
_cell_formula_units_Z 64
_cell_length_a 27.908349
_cell_length_b 9.055387
_cell_length_c 14.408997
_cell_angle_alpha 90.000000
_cell_angle_beta 74.648823
_cell_angle_gamma 90.000000
_cell_volume 3511.532478
_symmetry_space_group_name_H-M "C 2/M"
_symmetry_group_IT_number 12
_symmetry_cell_setting 'monoclinic'
loop_
_space_group_symop_operation_xyz
x,y,z
-x,y,-z
-x,-y,-z
x,-y,z
1/2+x,1/2+y,z
1/2-x,1/2+y,-z
1/2-x,1/2-y,-z
1/2+x,1/2-y,z
loop_
_atom_site_type_symbol
_atom_site_label
_atom_site_fract_x
_atom_site_fract_y
_atom_site_fract_z
Si Si1 0.445393 0.827169 0.536958
Si Si2 0.180206 0.671289 0.722080
Si Si3 0.629250 0.825440 0.270430
Si Si4 0.588604 0.173778 0.094797
Si Si5 0.018024 0.338069 0.886134
Si Si6 0.888972 0.825865 0.107140
Si Si7 0.144116 0.328327 0.540757
Si Si8 0.795047 0.826900 0.645287
O O1 0.500000 0.751646 0.500000
O O2 0.416539 0.767443 0.642662
O O3 0.412225 0.791789 0.462771
O O4 0.453128 0.000000 0.545463
O O5 0.173321 0.500000 0.750902
O O6 0.160390 0.768608 0.817242
O O7 0.149442 0.713495 0.645502
O O8 0.237250 0.712136 0.677441
O O9 0.620063 0.781384 0.168715
O O10 0.679515 0.747125 0.278010
O O11 0.635720 0.000000 0.279485
O O12 0.530680 0.215132 0.145822
O O13 0.592289 0.000000 0.070572
O O14 0.610349 0.261913 0.996829
O O15 0.036187 0.500000 0.841674
O O16 0.063429 0.224416 0.855883
O O17 0.000000 0.351390 0.000000
O O18 0.888548 0.000000 0.100969
O O19 0.156559 0.500000 0.517243
O O20 0.183396 0.235834 0.461354
O O21 0.804944 0.000000 0.643505
#
# Coordination Sequence:
#
# PCOD8097238 Si02
#       8
#     8   8   8   8   8   8   8   8
#     4   8  14  26  47  77 106 127 156 201 245 287
#     4  10  21  36  53  73  99 135 175 212 255 307
#     4   9  18  33  54  77 100 133 176 213 249 299
#     4   9  18  34  55  75  99 137 179 213 246 297
#     4   8  15  30  51  72  97 131 168 204 243 292
#     4  11  22  33  49  76 107 135 167 213 263 305
#     4   9  18  33  54  76  99 132 171 209 248 299
#     4  10  20  34  53  76 102 131 165 211 263 311
#
# _framework density 18.225660999999999
#
# number of rings (size 3 to 8) (size 9 to 14) (size 15 to 20)
#    0.000    2.750    0.000    3.375    0.000    5.250 
#    0.000    4.375    0.000    6.000    0.000    0.000 
#    0.000    0.000    0.000    0.000    0.000    0.000 
#
# Total GULP energy -396710.288891 kJ/mol
# GULP energy per Si atom -12397.196528 kJ/mol
# Density = 1.818418 g / cm^3
# Si number density = 18.225661 Si / 1000 Ang^3
#
#
#
# Elastic Constant Matrix: (Units=GPa)
#
#
# Indices 1 2 3 4 5 6 
#
# 1 115.9349 44.2165 59.1752 0.0000 3.7113 0.0000
# 2 44.2165 70.4414 44.6858 0.0000 0.1642 0.0000
# 3 59.1752 44.6858 88.9791 0.0000 7.1670 0.0000
# 4 0.0000 0.0000 0.0000 20.8627 0.0000 -3.9179
# 5 3.7113 0.1642 7.1670 0.0000 27.8149 0.0000
# 6 0.0000 0.0000 0.0000 -3.9179 0.0000 22.5259
#
#
#
# Elastic Compliance Matrix: (Units=1/GPa)
#
#
# Indices 1 2 3 4 5 6 
#
# 1 0.013850 -0.004183 -0.007111 0.000000 0.000009 0.000000
# 2 -0.004183 0.022286 -0.008624 0.000000 0.002649 0.000000
# 3 -0.007111 -0.008624 0.020647 0.000000 -0.004320 0.000000
# 4 0.000000 0.000000 0.000000 0.049551 0.000000 0.008618
# 5 0.000009 0.002649 -0.004320 0.000000 0.037048 0.000000
# 6 0.000000 0.000000 0.000000 0.008618 0.000000 0.045892
#
#
# Mechanical properties :
#
#
# Convention : Reuss Voigt Hill
#
# Bulk Modulus (GPa) = 59.00522 63.50115 61.25319
# Shear Modulus (GPa) = 21.29840 22.72591 22.01216
#
# Velocity S-wave (km/s) = 3.42218 3.53500 3.47905
# Velocity P-wave (km/s) = 6.93254 7.18185 7.05830
#
# Compressibility (1/GPa) = 0.01694765
#
# Stress axis : x y z
#
# Youngs Moduli (GPa) = 72.20149 44.87058 48.43382
#
# Poissons Ratio (x) = 0.18768 0.34442
# Poissons Ratio (y) = 0.30200 0.41769
# Poissons Ratio (z) = 0.51343 0.38696
#
# Static dielectric constant tensor:
#      x y z
#    x 3.686740 0.000000 0.082230 
#    y 0.000000 3.139720 0.000000 
#    z 0.082230 0.000000 3.237730 
# 
# 
# High freq. dielectric constant tensor:
#      x y z
#    x 1.711540 0.000000 0.004020 
#    y 0.000000 1.683090 0.000000 
#    z 0.004020 0.000000 1.694040 
# 
# From -- ./inp_files/243846.got.cif
#   From: 2010.06.25/outbox.cif.g09.slc.cpg/sg12_122_cif.got.tgz:243846.got - 2010.06.28 00:19:55.
