data_PCOD8097064
_publ_section_title
;
Structure prediction by ZEFSAII (Michael W. Deem and Ramdas Pophale) SiO2 
 PCOD8097064
Probable space group: C 2/M
;
_chemical_formula_sum "Si O2"
_cell_formula_units_Z 56
_cell_length_a 25.472677
_cell_length_b 12.334418
_cell_length_c 25.281321
_cell_angle_alpha 90.000000
_cell_angle_beta 21.045967
_cell_angle_gamma 90.000000
_cell_volume 2852.520432
_symmetry_space_group_name_H-M "C 2/M"
_symmetry_group_IT_number 12
_symmetry_cell_setting 'monoclinic'
loop_
_space_group_symop_operation_xyz
x,y,z
-x,y,-z
-x,-y,-z
x,-y,z
1/2+x,1/2+y,z
1/2-x,1/2+y,-z
1/2-x,1/2-y,-z
1/2+x,1/2-y,z
loop_
_atom_site_type_symbol
_atom_site_label
_atom_site_fract_x
_atom_site_fract_y
_atom_site_fract_z
Si Si1 0.602326 0.879234 0.448628
Si Si2 0.405886 0.876585 0.166212
Si Si3 0.993167 0.124725 0.195481
Si Si4 0.782578 0.233786 0.572920
Si Si5 0.158743 0.187586 0.847357
Si Si6 0.188018 0.254634 0.932564
Si Si7 0.538743 0.374824 0.273487
O O1 0.500000 0.824623 0.500000
O O2 0.606447 0.806818 0.496834
O O3 0.759264 0.886350 0.272393
O O4 0.548678 0.000000 0.514198
O O5 0.293219 0.857612 0.320134
O O6 0.356196 0.809205 0.161841
O O7 0.401546 0.000000 0.152857
O O8 0.568446 0.845971 0.032134
O O9 0.059581 0.135471 0.191333
O O10 0.841172 0.190022 0.336094
O O11 0.958613 0.000000 0.213787
O O12 0.116820 0.168448 0.039599
O O13 0.880704 0.175368 0.436631
O O14 0.233053 0.193157 0.835573
O O15 0.000000 0.132915 0.000000
O O16 0.331203 0.308903 0.821753
O O17 0.544550 0.500000 0.286279
#
# Coordination Sequence:
#
# PCOD8097064 Si02
#       7
#     8   8   8   8   8   8   8
#     4  10  20  34  52  75 104 135 168 210 260 314
#     4   9  18  33  53  78 107 140 175 210 256 316
#     4  10  22  39  57  77 104 141 182 222 265 312
#     4  10  20  36  56  77 106 140 176 218 262 313
#     4   9  19  32  50  77 104 134 171 209 254 312
#     4  10  20  35  55  79 109 140 173 219 266 311
#     4  11  22  36  56  81 107 138 178 223 269 312
#
# _framework density 19.631761000000001
#
# number of rings (size 3 to 8) (size 9 to 14) (size 15 to 20)
#    0.000    2.143    0.000    3.857    0.000    4.000 
#    0.000    1.429    0.000   11.571    0.000    0.000 
#    0.000    0.000    0.000    0.000    0.000    0.000 
#
# Total GULP energy -347152.084311 kJ/mol
# GULP energy per Si atom -12398.288725 kJ/mol
# Density = 1.958708 g / cm^3
# Si number density = 19.631761 Si / 1000 Ang^3
#
#
#
# Elastic Constant Matrix: (Units=GPa)
#
#
# Indices 1 2 3 4 5 6 
#
# 1 91.6805 22.2035 16.9294 0.0023 -0.2457 -0.0003
# 2 22.2035 70.2591 20.0268 0.0011 -0.6123 0.0008
# 3 16.9294 20.0268 67.0879 -0.0139 5.3977 0.0023
# 4 0.0023 0.0011 -0.0139 19.0115 0.0044 -2.9394
# 5 -0.2457 -0.6123 5.3977 0.0044 35.9151 -0.0005
# 6 -0.0003 0.0008 0.0023 -2.9394 -0.0005 15.4254
#
#
#
# Elastic Compliance Matrix: (Units=1/GPa)
#
#
# Indices 1 2 3 4 5 6 
#
# 1 0.012077 -0.003210 -0.002117 -0.000003 0.000346 0.000000
# 2 -0.003210 0.016444 -0.004170 -0.000004 0.000885 -0.000001
# 3 -0.002117 -0.004170 0.016896 0.000013 -0.002625 0.000000
# 4 -0.000003 -0.000004 0.000013 0.054197 -0.000009 0.010328
# 5 0.000346 0.000885 -0.002625 -0.000009 0.028255 0.000000
# 6 0.000000 -0.000001 0.000000 0.010328 0.000000 0.066796
#
#
# Mechanical properties :
#
#
# Convention : Reuss Voigt Hill
#
# Bulk Modulus (GPa) = 37.84662 38.59410 38.22036
# Shear Modulus (GPa) = 22.47530 25.39490 23.93510
#
# Velocity S-wave (km/s) = 3.38722 3.60051 3.49550
# Velocity P-wave (km/s) = 5.88369 6.08166 5.98350
#
# Compressibility (1/GPa) = 0.02642244
#
# Stress axis : x y z
#
# Youngs Moduli (GPa) = 82.80387 60.81317 59.18547
#
# Poissons Ratio (x) = 0.19521 0.12530
# Poissons Ratio (y) = 0.26580 0.24680
# Poissons Ratio (z) = 0.17531 0.25359
#
# Static dielectric constant tensor:
#      x y z
#    x 3.575280 0.000000 0.044030 
#    y 0.000000 3.387450 0.000020 
#    z 0.044030 0.000020 3.686970 
# 
# 
# High freq. dielectric constant tensor:
#      x y z
#    x 1.769720 0.000000 0.003790 
#    y 0.000000 1.754840 0.000000 
#    z 0.003790 0.000000 1.769860 
# 
# From -- ./inp_files/369379.got.cif
#   From: 2010.06.25/outbox.cif.g09.slc.cpg/sg12_185_cif.got.tgz:369379.got - 2010.06.28 00:19:55.
