data_PCOD8097295
_publ_section_title
;
Structure prediction by ZEFSAII (Michael W. Deem and Ramdas Pophale) SiO2 
 PCOD8097295
Probable space group: C 2/M
;
_chemical_formula_sum "Si O2"
_cell_formula_units_Z 44
_cell_length_a 8.338329
_cell_length_b 12.235538
_cell_length_c 24.495358
_cell_angle_alpha 90.000000
_cell_angle_beta 113.599289
_cell_angle_gamma 90.000000
_cell_volume 2290.106396
_symmetry_space_group_name_H-M "C 2/M"
_symmetry_group_IT_number 12
_symmetry_cell_setting 'monoclinic'
loop_
_space_group_symop_operation_xyz
x,y,z
-x,y,-z
-x,-y,-z
x,-y,z
1/2+x,1/2+y,z
1/2-x,1/2+y,-z
1/2-x,1/2-y,-z
1/2+x,1/2-y,z
loop_
_atom_site_type_symbol
_atom_site_label
_atom_site_fract_x
_atom_site_fract_y
_atom_site_fract_z
Si Si1 0.025735 0.376513 0.793149
Si Si2 0.730989 0.200840 0.724953
Si Si3 0.626722 0.299044 0.362989
Si Si4 0.365970 0.874413 0.071257
Si Si5 0.577850 0.376090 0.568363
Si Si6 0.500000 0.724012 0.000000
O O1 0.952388 0.500000 0.783708
O O2 0.865836 0.297384 0.757774
O O3 0.188178 0.371658 0.772165
O O4 0.105963 0.342881 0.862061
O O5 0.551749 0.249602 0.681044
O O6 0.802051 0.134484 0.680947
O O7 0.583193 0.372014 0.409885
O O8 0.761738 0.202476 0.395900
O O9 0.494383 0.800350 0.052664
O O10 0.413179 0.000000 0.066555
O O11 0.166625 0.853996 0.026793
O O12 0.500000 0.339154 0.500000
O O13 0.649251 0.500000 0.575869
#
# Coordination Sequence:
#
# PCOD8097295 Si02
#       6
#     8   8   8   8   8   4
#     4  10  20  35  54  75 104 136 169 212 255 300
#     4   9  19  34  52  76 101 133 172 207 252 304
#     4   9  19  34  53  76 104 132 168 212 249 300
#     4  10  20  34  53  77 103 136 172 208 256 304
#     4  10  20  35  55  77 103 136 170 208 256 302
#     4  10  20  34  54  76 106 136 168 216 252 300
#
# _framework density 19.213082
#
# number of rings (size 3 to 8) (size 9 to 14) (size 15 to 20)
#    0.000    2.364    0.000    2.182    0.000    7.273 
#    0.000    5.455    0.000   25.091    0.000    0.000 
#    0.000    0.000    0.000    0.000    0.000    0.000 
#
# Total GULP energy -272582.391035 kJ/mol
# GULP energy per Si atom -12390.108683 kJ/mol
# Density = 1.916935 g / cm^3
# Si number density = 19.213082 Si / 1000 Ang^3
#
#
#
# Elastic Constant Matrix: (Units=GPa)
#
#
# Indices 1 2 3 4 5 6 
#
# 1 77.9626 15.0003 40.0183 0.0000 -11.1088 0.0000
# 2 15.0003 58.4975 29.2122 0.0000 3.4531 0.0000
# 3 40.0183 29.2122 127.9136 0.0000 -23.4630 0.0000
# 4 0.0000 0.0000 0.0000 -7.3405 0.0000 13.7183
# 5 -11.1088 3.4531 -23.4630 0.0000 40.1701 0.0000
# 6 0.0000 0.0000 0.0000 13.7183 0.0000 19.8383
#
#
#
# Elastic Compliance Matrix: (Units=1/GPa)
#
#
# Indices 1 2 3 4 5 6 
#
# 1 0.015596 -0.002131 -0.003996 0.000000 0.002162 0.000000
# 2 -0.002131 0.020428 -0.004960 0.000000 -0.005243 0.000000
# 3 -0.003996 -0.004960 0.011285 0.000000 0.005913 0.000000
# 4 0.000000 0.000000 0.000000 -0.059429 0.000000 0.041096
# 5 0.002162 -0.005243 0.005913 0.000000 0.029396 0.000000
# 6 0.000000 0.000000 0.000000 0.041096 0.000000 0.021990
#
#
# Mechanical properties :
#
#
# Convention : Reuss Voigt Hill
#
# Bulk Modulus (GPa) = 39.78624 48.09282 43.93953
# Shear Modulus (GPa) = 71.61438 22.54312 47.07875
#
# Velocity S-wave (km/s) = 6.11185 3.42909 4.95547
# Velocity P-wave (km/s) = 8.39995 6.38466 7.46066
#
# Compressibility (1/GPa) = 0.02513432
#
# Stress axis : x y z
#
# Youngs Moduli (GPa) = 64.11920 48.95334 88.61137
#
# Poissons Ratio (x) = 0.10434 0.35408
# Poissons Ratio (y) = 0.13666 0.43951
# Poissons Ratio (z) = 0.25621 0.24281
#
# Static dielectric constant tensor:
#      x y z
#    x 4.243590 0.000000 -0.737900 
#    y 0.000000 3.279770 0.000000 
#    z -0.737900 0.000000 4.266100 
# 
# 
# High freq. dielectric constant tensor:
#      x y z
#    x 1.755800 0.000000 -0.015260 
#    y 0.000000 1.721620 0.000000 
#    z -0.015260 0.000000 1.770130 
# 
# From -- ./inp_files/332087.got.cif
#   From: 2010.06.25/outbox.cif.g09.slc.cpg/sg12_167_cif.got.tgz:332087.got - 2010.06.28 00:19:55.
