data_PCOD8097527
_publ_section_title
;
Structure prediction by ZEFSAII (Michael W. Deem and Ramdas Pophale) SiO2 
 PCOD8097527
Probable space group: C 2/M
;
_chemical_formula_sum "Si O2"
_cell_formula_units_Z 56
_cell_length_a 16.852949
_cell_length_b 26.176940
_cell_length_c 8.182081
_cell_angle_alpha 90.000000
_cell_angle_beta 128.747824
_cell_angle_gamma 90.000000
_cell_volume 2815.153468
_symmetry_space_group_name_H-M "C 2/M"
_symmetry_group_IT_number 12
_symmetry_cell_setting 'monoclinic'
loop_
_space_group_symop_operation_xyz
x,y,z
-x,y,-z
-x,-y,-z
x,-y,z
1/2+x,1/2+y,z
1/2-x,1/2+y,-z
1/2-x,1/2-y,-z
1/2+x,1/2-y,z
loop_
_atom_site_type_symbol
_atom_site_label
_atom_site_fract_x
_atom_site_fract_y
_atom_site_fract_z
Si Si1 0.117223 0.202884 0.311867
Si Si2 0.766814 0.363858 0.341632
Si Si3 0.799076 0.789001 0.242307
Si Si4 0.891759 0.058258 0.948432
Si Si5 0.053075 0.859527 0.738848
Si Si6 0.441014 0.819420 0.763399
Si Si7 0.629496 0.188385 0.796782
O O1 0.179502 0.180619 0.238242
O O2 0.192923 0.193046 0.562165
O O3 0.094964 0.261734 0.247033
O O4 0.015821 0.170452 0.217067
O O5 0.703140 0.416877 0.275262
O O6 0.847889 0.357142 0.594758
O O7 0.822556 0.360487 0.236116
O O8 0.852821 0.823572 0.176382
O O9 0.855016 0.734062 0.313532
O O10 0.682352 0.792955 0.034956
O O11 0.861842 0.000000 0.944870
O O12 0.904269 0.087780 0.135120
O O13 0.000000 0.062046 0.000000
O O14 0.000000 0.872664 0.500000
O O15 0.512886 0.820953 0.694546
O O16 0.500000 0.840804 0.000000
#
# Coordination Sequence:
#
# PCOD8097527 Si02
#       7
#     8   8   8   8   8   8   8
#     4  11  22  35  53  86 127 162 200 230 298 366
#     4  12  24  39  61  88 120 163 210 255 296 361
#     4  10  20  34  53  85 123 165 193 239 287 358
#     4  11  24  44  66  90 117 153 204 264 315 357
#     4  10  20  36  60  87 124 157 191 243 295 369
#     4  12  26  37  54  86 130 172 203 242 289 368
#     4  11  22  35  56  82 123 164 204 239 289 353
#
# _framework density 19.892344000000001
#
# number of rings (size 3 to 8) (size 9 to 14) (size 15 to 20)
#    0.000    1.000    5.714    1.714    6.000    0.286 
#    0.000    0.000    0.000    2.143    0.000    0.000 
#    0.000    0.000    0.000    0.000    0.000    0.000 
#
# Total GULP energy -347080.702215 kJ/mol
# GULP energy per Si atom -12395.739365 kJ/mol
# Density = 1.984707 g / cm^3
# Si number density = 19.892344 Si / 1000 Ang^3
#
#
#
# Elastic Constant Matrix: (Units=GPa)
#
#
# Indices 1 2 3 4 5 6 
#
# 1 76.8121 22.0866 -0.8439 0.0000 12.7636 0.0000
# 2 22.0866 100.7969 31.7364 0.0000 16.9721 0.0000
# 3 -0.8439 31.7364 80.4072 0.0000 20.6935 0.0000
# 4 0.0000 0.0000 0.0000 10.1642 0.0000 3.1103
# 5 12.7636 16.9721 20.6935 0.0000 23.6801 0.0000
# 6 0.0000 0.0000 0.0000 3.1103 0.0000 21.2160
#
#
#
# Elastic Compliance Matrix: (Units=1/GPa)
#
#
# Indices 1 2 3 4 5 6 
#
# 1 0.015503 -0.002987 0.003795 0.000000 -0.009531 0.000000
# 2 -0.002987 0.012474 -0.003958 0.000000 -0.003871 0.000000
# 3 0.003795 -0.003958 0.017849 0.000000 -0.014807 0.000000
# 4 0.000000 0.000000 0.000000 0.103005 0.000000 -0.015101
# 5 -0.009531 -0.003871 -0.014807 0.000000 0.063081 0.000000
# 6 0.000000 0.000000 0.000000 -0.015101 0.000000 0.049348
#
#
# Mechanical properties :
#
#
# Convention : Reuss Voigt Hill
#
# Bulk Modulus (GPa) = 25.30051 40.44161 32.87106
# Shear Modulus (GPa) = 17.81030 24.68119 21.24574
#
# Velocity S-wave (km/s) = 2.99546 3.52623 3.27163
# Velocity P-wave (km/s) = 4.97092 6.07894 5.55263
#
# Compressibility (1/GPa) = 0.03952490
#
# Stress axis : x y z
#
# Youngs Moduli (GPa) = 64.50310 80.16967 56.02404
#
# Poissons Ratio (x) = 0.23946 -0.21259
# Poissons Ratio (y) = 0.19266 0.22176
# Poissons Ratio (z) = -0.24477 0.31734
#
# Static dielectric constant tensor:
#      x y z
#    x 3.769770 0.000000 0.135230 
#    y 0.000000 3.223460 0.000000 
#    z 0.135230 0.000000 3.775430 
# 
# 
# High freq. dielectric constant tensor:
#      x y z
#    x 1.793230 0.000000 0.004430 
#    y 0.000000 1.704580 0.000000 
#    z 0.004430 0.000000 1.796300 
# 
# From -- ./inp_files/79141.got.cif
#   From: 2010.06.25/outbox.cif.g09.slc.cpg/sg12_40_cif.got.tgz:79141.got - 2010.06.28 00:19:55.
