data_PCOD8097519
_publ_section_title
;
Structure prediction by ZEFSAII (Michael W. Deem and Ramdas Pophale) SiO2 
 PCOD8097519
Probable space group: C 2/M
;
_chemical_formula_sum "Si O2"
_cell_formula_units_Z 56
_cell_length_a 24.361048
_cell_length_b 8.989591
_cell_length_c 14.749826
_cell_angle_alpha 90.000000
_cell_angle_beta 120.975272
_cell_angle_gamma 90.000000
_cell_volume 2769.497389
_symmetry_space_group_name_H-M "C 2/M"
_symmetry_group_IT_number 12
_symmetry_cell_setting 'monoclinic'
loop_
_space_group_symop_operation_xyz
x,y,z
-x,y,-z
-x,-y,-z
x,-y,z
1/2+x,1/2+y,z
1/2-x,1/2+y,-z
1/2-x,1/2-y,-z
1/2+x,1/2-y,z
loop_
_atom_site_type_symbol
_atom_site_label
_atom_site_fract_x
_atom_site_fract_y
_atom_site_fract_z
Si Si1 0.514142 0.825247 0.411149
Si Si2 0.736981 0.163708 0.397770
Si Si3 0.183894 0.177338 0.792842
Si Si4 0.375461 0.339193 0.438380
Si Si5 0.940747 0.828528 0.012739
Si Si6 0.695960 0.327090 0.192462
Si Si7 0.915442 0.676657 0.176889
O O1 0.500000 0.759625 0.500000
O O2 0.587251 0.769571 0.460266
O O3 0.468258 0.764502 0.293881
O O4 0.511664 0.000000 0.409215
O O5 0.750000 0.250000 0.500000
O O6 0.803992 0.138866 0.408366
O O7 0.693822 0.258624 0.291803
O O8 0.705899 0.000000 0.389251
O O9 0.132190 0.223190 0.670896
O O10 0.253511 0.246981 0.831638
O O11 0.153211 0.246776 0.858421
O O12 0.191758 0.000000 0.808725
O O13 0.410054 0.500000 0.467688
O O14 0.874832 0.802192 0.904603
O O15 0.948518 0.000000 0.048795
O O16 0.940905 0.725873 0.101219
O O17 0.000000 0.779023 0.000000
O O18 0.714738 0.500000 0.214569
O O19 0.906821 0.500000 0.172439
#
# Coordination Sequence:
#
# PCOD8097519 Si02
#       7
#     8   8   8   8   8   8   8
#     4  10  20  34  53  83 122 156 189 233 289 349
#     4  10  21  37  57  86 119 154 198 243 291 350
#     4  10  20  36  59  89 122 154 194 241 295 360
#     4   9  19  33  52  80 114 153 193 234 284 344
#     4  10  24  46  66  85 115 157 203 251 301 358
#     4  10  21  39  64  89 117 155 196 247 307 356
#     4  11  23  38  60  90 121 159 203 249 301 356
#
# _framework density 20.220275999999998
#
# number of rings (size 3 to 8) (size 9 to 14) (size 15 to 20)
#    0.000    2.000    1.429    2.571    0.000    7.429 
#    0.000    4.286    0.000    0.000    0.000    0.000 
#    0.000    0.000    0.000    0.000    0.000    0.000 
#
# Total GULP energy -347069.820913 kJ/mol
# GULP energy per Si atom -12395.350747 kJ/mol
# Density = 2.017425 g / cm^3
# Si number density = 20.220276 Si / 1000 Ang^3
#
#
#
# Elastic Constant Matrix: (Units=GPa)
#
#
# Indices 1 2 3 4 5 6 
#
# 1 90.7853 48.8542 55.8954 0.0000 -3.0475 0.0000
# 2 48.8542 106.9134 58.1861 0.0000 -4.5885 0.0000
# 3 55.8954 58.1861 108.7066 0.0000 -2.6706 0.0000
# 4 0.0000 0.0000 0.0000 28.2485 0.0000 -3.2032
# 5 -3.0475 -4.5885 -2.6706 0.0000 31.6773 0.0000
# 6 0.0000 0.0000 0.0000 -3.2032 0.0000 33.2646
#
#
#
# Elastic Compliance Matrix: (Units=1/GPa)
#
#
# Indices 1 2 3 4 5 6 
#
# 1 0.017456 -0.004342 -0.006639 0.000000 0.000491 0.000000
# 2 -0.004342 0.014333 -0.005410 0.000000 0.001202 0.000000
# 3 -0.006639 -0.005410 0.015506 0.000000 -0.000115 0.000000
# 4 0.000000 0.000000 0.000000 0.035791 0.000000 0.003447
# 5 0.000491 0.001202 -0.000115 0.000000 0.031780 0.000000
# 6 0.000000 0.000000 0.000000 0.003447 0.000000 0.030394
#
#
# Mechanical properties :
#
#
# Convention : Reuss Voigt Hill
#
# Bulk Modulus (GPa) = 68.90666 70.25295 69.57981
# Shear Modulus (GPa) = 27.34037 28.20272 27.77154
#
# Velocity S-wave (km/s) = 3.68112 3.73872 3.71003
# Velocity P-wave (km/s) = 7.22630 7.31140 7.26898
#
# Compressibility (1/GPa) = 0.01451239
#
# Stress axis : x y z
#
# Youngs Moduli (GPa) = 57.28750 69.76760 64.49201
#
# Poissons Ratio (x) = 0.30293 0.42819
# Poissons Ratio (y) = 0.24874 0.34889
# Poissons Ratio (z) = 0.38035 0.37743
#
# Static dielectric constant tensor:
#      x y z
#    x 3.184860 0.000000 0.507650 
#    y 0.000000 3.801320 0.000000 
#    z 0.507650 0.000000 3.134840 
# 
# 
# High freq. dielectric constant tensor:
#      x y z
#    x 1.783770 0.000000 0.002820 
#    y 0.000000 1.796390 0.000000 
#    z 0.002820 0.000000 1.785710 
# 
# From -- ./inp_files/239029.got.cif
#   From: 2010.06.25/outbox.cif.g09.slc.cpg/sg12_120_cif.got.tgz:239029.got - 2010.06.28 00:19:55.
