data_PCOD8097948
_publ_section_title
;
Structure prediction by ZEFSAII (Michael W. Deem and Ramdas Pophale) SiO2 
 PCOD8097948
Probable space group: C 2/M
;
_chemical_formula_sum "Si O2"
_cell_formula_units_Z 64
_cell_length_a 21.809216
_cell_length_b 12.405766
_cell_length_c 23.165029
_cell_angle_alpha 90.000000
_cell_angle_beta 147.436957
_cell_angle_gamma 90.000000
_cell_volume 3373.356092
_symmetry_space_group_name_H-M "C 2/M"
_symmetry_group_IT_number 12
_symmetry_cell_setting 'monoclinic'
loop_
_space_group_symop_operation_xyz
x,y,z
-x,y,-z
-x,-y,-z
x,-y,z
1/2+x,1/2+y,z
1/2-x,1/2+y,-z
1/2-x,1/2-y,-z
1/2+x,1/2-y,z
loop_
_atom_site_type_symbol
_atom_site_label
_atom_site_fract_x
_atom_site_fract_y
_atom_site_fract_z
Si Si1 0.180537 0.729899 0.505137
Si Si2 0.290613 0.126643 0.963990
Si Si3 0.471508 0.123433 0.291001
Si Si4 0.635410 0.380014 0.274838
Si Si5 0.575600 0.730840 0.850871
Si Si6 0.884673 0.877354 0.874615
Si Si7 0.201326 0.232097 0.783303
Si Si8 0.508408 0.626539 0.440498
O O1 0.250000 0.750000 0.500000
O O2 0.089334 0.636098 0.419549
O O3 0.265239 0.697291 0.623586
O O4 0.107587 0.827129 0.476574
O O5 0.182993 0.161373 0.916545
O O6 0.270085 0.156443 0.881656
O O7 0.315204 0.000000 0.990462
O O8 0.397419 0.196632 0.071485
O O9 0.478771 0.187794 0.237742
O O10 0.363949 0.168388 0.239909
O O11 0.448039 0.000000 0.258715
O O12 0.677664 0.500000 0.321647
O O13 0.518986 0.359001 0.215498
O O14 0.600110 0.364069 0.181034
O O15 0.790066 0.788698 0.812100
O O16 0.847153 0.000000 0.860733
O O17 0.000000 0.848335 0.000000
O O18 0.115134 0.153134 0.682740
O O19 0.500000 0.671085 0.500000
O O20 0.530330 0.500000 0.458313
#
# Coordination Sequence:
#
# PCOD8097948 Si02
#       8
#     8   8   8   8   8   8   8   8
#     4  11  22  39  57  88 121 155 197 248 301 359
#     4  10  20  34  55  80 108 144 187 234 284 340
#     4  10  20  35  55  80 112 149 187 232 289 349
#     4  11  22  37  58  83 115 151 189 235 294 353
#     4  10  20  35  53  80 112 145 185 231 284 342
#     4  10  21  37  59  86 115 152 195 245 300 351
#     4  10  20  36  58  82 111 147 192 241 287 347
#     4  10  22  40  62  86 116 159 204 246 297 359
#
# _framework density 18.972203
#
# number of rings (size 3 to 8) (size 9 to 14) (size 15 to 20)
#    0.000    1.750    1.250    3.375    0.000    1.000 
#    0.000    3.750    0.000   15.000    0.000    0.000 
#    0.000    0.000    0.000    0.000    0.000    0.000 
#
# Total GULP energy -396597.168795 kJ/mol
# GULP energy per Si atom -12393.661525 kJ/mol
# Density = 1.892902 g / cm^3
# Si number density = 18.972203 Si / 1000 Ang^3
#
#
#
# Elastic Constant Matrix: (Units=GPa)
#
#
# Indices 1 2 3 4 5 6 
#
# 1 70.1184 30.5295 17.6955 -0.0003 -6.9971 0.0002
# 2 30.5295 68.0772 10.5904 -0.0001 2.5264 0.0000
# 3 17.6955 10.5904 97.5270 -0.0003 -8.5308 0.0003
# 4 -0.0003 -0.0001 -0.0003 -98.5828 -0.0002 77.2784
# 5 -6.9971 2.5264 -8.5308 -0.0002 29.5064 0.0002
# 6 0.0002 0.0000 0.0003 77.2784 0.0002 -25.7463
#
#
#
# Elastic Compliance Matrix: (Units=1/GPa)
#
#
# Indices 1 2 3 4 5 6 
#
# 1 0.018867 -0.008301 -0.002122 0.000000 0.004571 0.000000
# 2 -0.008301 0.018687 -0.000857 0.000000 -0.003816 0.000000
# 3 -0.002122 -0.000857 0.010972 0.000000 0.002742 0.000000
# 4 0.000000 0.000000 0.000000 0.007498 0.000000 0.022505
# 5 0.004571 -0.003816 0.002742 0.000000 0.036095 0.000000
# 6 0.000000 0.000000 0.000000 0.022505 0.000000 0.028709
#
#
# Mechanical properties :
#
#
# Convention : Reuss Voigt Hill
#
# Bulk Modulus (GPa) = 38.51161 39.26148 38.88654
# Shear Modulus (GPa) = 32.88559 -7.17073 12.85743
#
# Velocity S-wave (km/s) = 4.16788 -1.94623 2.60609
# Velocity P-wave (km/s) = 6.59580 3.96090 5.44028
#
# Compressibility (1/GPa) = 0.02596620
#
# Stress axis : x y z
#
# Youngs Moduli (GPa) = 53.00141 53.51426 91.14510
#
# Poissons Ratio (x) = 0.44421 0.19342
# Poissons Ratio (y) = 0.43995 0.07810
# Poissons Ratio (z) = 0.11247 0.04586
#
# Static dielectric constant tensor:
#      x y z
#    x 3.476630 0.000000 -0.137630 
#    y 0.000000 3.382230 0.000000 
#    z -0.137630 0.000000 3.674190 
# 
# 
# High freq. dielectric constant tensor:
#      x y z
#    x 1.731260 0.000000 -0.007630 
#    y 0.000000 1.734350 0.000000 
#    z -0.007630 0.000000 1.755300 
# 
# From -- ./inp_files/349398.got.cif
#   From: 2010.06.25/outbox.cif.g09.slc.cpg/sg12_175_cif.got.tgz:349398.got - 2010.06.28 00:19:55.
