data_PCOD8097091
_publ_section_title
;
Structure prediction by ZEFSAII (Michael W. Deem and Ramdas Pophale) SiO2 
 PCOD8097091
Probable space group: C 2/M
;
_chemical_formula_sum "Si O2"
_cell_formula_units_Z 52
_cell_length_a 11.060881
_cell_length_b 13.027924
_cell_length_c 20.854575
_cell_angle_alpha 90.000000
_cell_angle_beta 66.733905
_cell_angle_gamma 90.000000
_cell_volume 2760.772860
_symmetry_space_group_name_H-M "C 2/M"
_symmetry_group_IT_number 12
_symmetry_cell_setting 'monoclinic'
loop_
_space_group_symop_operation_xyz
x,y,z
-x,y,-z
-x,-y,-z
x,-y,z
1/2+x,1/2+y,z
1/2-x,1/2+y,-z
1/2-x,1/2-y,-z
1/2+x,1/2-y,z
loop_
_atom_site_type_symbol
_atom_site_label
_atom_site_fract_x
_atom_site_fract_y
_atom_site_fract_z
Si Si1 0.141365 0.883527 0.156322
Si Si2 0.872134 0.882432 0.147658
Si Si3 0.697702 0.386783 0.381019
Si Si4 0.025701 0.613056 0.613380
Si Si5 0.345416 0.236952 0.041349
Si Si6 0.500000 0.252465 0.500000
Si Si7 0.827057 0.746494 0.733259
O O1 0.282355 0.854986 0.096201
O O2 0.106313 0.808242 0.222326
O O3 0.028227 0.871247 0.126422
O O4 0.148427 0.000000 0.180185
O O5 0.838932 0.842438 0.083342
O O6 0.799840 0.816455 0.217204
O O7 0.825388 0.000000 0.161825
O O8 0.633967 0.500000 0.383594
O O9 0.840393 0.401292 0.378369
O O10 0.615365 0.323775 0.450047
O O11 0.713621 0.329222 0.310792
O O12 0.970803 0.500000 0.605516
O O13 0.053461 0.680651 0.545077
O O14 0.927105 0.665577 0.683194
O O15 0.500000 0.208301 0.000000
O O16 0.250000 0.250000 0.000000
#
# Coordination Sequence:
#
# PCOD8097091 Si02
#       7
#     8   8   8   8   8   4   8
#     4  10  21  37  58  83 113 147 186 230 277 333
#     4  10  21  37  59  83 111 149 188 226 276 338
#     4  10  20  34  53  77 108 142 179 225 280 331
#     4  10  20  34  53  77 107 141 181 229 277 325
#     4  11  22  39  61  86 116 149 187 232 280 331
#     4  10  20  34  52  76 104 144 184 224 270 332
#     4  10  20  35  56  80 109 142 183 228 277 330
#
# _framework density 18.835305999999999
#
# number of rings (size 3 to 8) (size 9 to 14) (size 15 to 20)
#    0.000    1.846    1.538    2.769    0.000    1.231 
#    0.000    0.000    0.000   14.769    0.000    0.000 
#    0.000    0.000    0.000    0.000    0.000    0.000 
#
# Total GULP energy -322331.449547 kJ/mol
# GULP energy per Si atom -12397.363444 kJ/mol
# Density = 1.879244 g / cm^3
# Si number density = 18.835306 Si / 1000 Ang^3
#
#
#
# Elastic Constant Matrix: (Units=GPa)
#
#
# Indices 1 2 3 4 5 6 
#
# 1 93.3493 51.8744 47.9434 0.0000 0.8222 0.0000
# 2 51.8744 160.1326 65.2421 0.0000 0.0917 0.0000
# 3 47.9434 65.2421 118.7686 0.0000 1.4696 0.0000
# 4 0.0000 0.0000 0.0000 8.0151 0.0000 2.0500
# 5 0.8222 0.0917 1.4696 0.0000 21.6149 0.0000
# 6 0.0000 0.0000 0.0000 2.0500 0.0000 28.9680
#
#
#
# Elastic Compliance Matrix: (Units=1/GPa)
#
#
# Indices 1 2 3 4 5 6 
#
# 1 0.014547 -0.002990 -0.004226 0.000000 -0.000253 0.000000
# 2 -0.002990 0.008662 -0.003555 0.000000 0.000319 0.000000
# 3 -0.004226 -0.003555 0.012087 0.000000 -0.000646 0.000000
# 4 0.000000 0.000000 0.000000 0.127064 0.000000 -0.008992
# 5 -0.000253 0.000319 -0.000646 0.000000 0.046317 0.000000
# 6 0.000000 0.000000 0.000000 -0.008992 0.000000 0.035157
#
#
# Mechanical properties :
#
#
# Convention : Reuss Voigt Hill
#
# Bulk Modulus (GPa) = 72.71655 78.04115 75.37885
# Shear Modulus (GPa) = 18.52126 25.53232 22.02679
#
# Velocity S-wave (km/s) = 3.13921 3.68578 3.42342
# Velocity P-wave (km/s) = 7.19929 7.72248 7.46547
#
# Compressibility (1/GPa) = 0.01375203
#
# Stress axis : x y z
#
# Youngs Moduli (GPa) = 68.74225 115.45066 82.73645
#
# Poissons Ratio (x) = 0.34524 0.34968
# Poissons Ratio (y) = 0.20557 0.29412
# Poissons Ratio (z) = 0.29053 0.41041
#
# Static dielectric constant tensor:
#      x y z
#    x 3.363610 0.000000 -0.023130 
#    y 0.000000 3.652490 0.000000 
#    z -0.023130 0.000000 3.672280 
# 
# 
# High freq. dielectric constant tensor:
#      x y z
#    x 1.724800 0.000000 0.000880 
#    y 0.000000 1.745580 0.000000 
#    z 0.000880 0.000000 1.741050 
# 
# From -- ./inp_files/304660.got.cif
#   From: 2010.06.25/outbox.cif.g09.slc.cpg/sg12_153_cif.got.tgz:304660.got - 2010.06.28 00:19:55.
