data_PCOD8097092
_publ_section_title
;
Structure prediction by ZEFSAII (Michael W. Deem and Ramdas Pophale) SiO2 
 PCOD8097092
Probable space group: C 2/M
;
_chemical_formula_sum "Si O2"
_cell_formula_units_Z 40
_cell_length_a 19.174320
_cell_length_b 8.970925
_cell_length_c 27.058438
_cell_angle_alpha 90.000000
_cell_angle_beta 152.017488
_cell_angle_gamma 90.000000
_cell_volume 2183.834967
_symmetry_space_group_name_H-M "C 2/M"
_symmetry_group_IT_number 12
_symmetry_cell_setting 'monoclinic'
loop_
_space_group_symop_operation_xyz
x,y,z
-x,y,-z
-x,-y,-z
x,-y,z
1/2+x,1/2+y,z
1/2-x,1/2+y,-z
1/2-x,1/2-y,-z
1/2+x,1/2-y,z
loop_
_atom_site_type_symbol
_atom_site_label
_atom_site_fract_x
_atom_site_fract_y
_atom_site_fract_z
Si Si1 0.436530 0.671599 0.906126
Si Si2 0.337291 0.675879 0.304825
Si Si3 0.597905 0.825058 0.919502
Si Si4 0.676838 0.323991 0.501384
Si Si5 0.302330 0.174112 0.681766
O O1 0.431460 0.500000 0.886416
O O2 0.270876 0.739800 0.800952
O O3 0.545830 0.761461 0.939006
O O4 0.500000 0.690680 0.000000
O O5 0.306746 0.500000 0.281670
O O6 0.503933 0.718739 0.394975
O O7 0.300275 0.732924 0.337322
O O8 0.474683 0.788853 0.800487
O O9 0.622064 0.000000 0.940267
O O10 0.750000 0.750000 0.000000
O O11 0.699903 0.500000 0.512022
O O12 0.750000 0.250000 0.500000
O O13 0.753888 0.255735 0.599005
O O14 0.273553 0.000000 0.659482
#
# Coordination Sequence:
#
# PCOD8097092 Si02
#       5
#     8   8   8   8   8
#     4  10  21  36  54  77 106 140 176 214 259 311
#     4   9  18  34  56  77  97 131 177 217 254 300
#     4  10  20  35  56  80 106 138 176 216 260 308
#     4  10  20  34  52  76 105 133 166 209 258 310
#     4   8  16  33  55  74  96 133 175 209 246 301
#
# _framework density 18.316403000000001
#
# number of rings (size 3 to 8) (size 9 to 14) (size 15 to 20)
#    0.000    2.600    0.000    3.000    0.000    6.400 
#    0.000   11.000    0.000    6.000    0.000    0.000 
#    0.000    0.000    0.000    0.000    0.000    0.000 
#
# Total GULP energy -247977.336253 kJ/mol
# GULP energy per Si atom -12398.866813 kJ/mol
# Density = 1.827471 g / cm^3
# Si number density = 18.316403 Si / 1000 Ang^3
#
#
#
# Elastic Constant Matrix: (Units=GPa)
#
#
# Indices 1 2 3 4 5 6 
#
# 1 123.6011 55.5709 95.0137 -0.0011 8.2930 -0.0001
# 2 55.5709 74.1956 69.8778 -0.0031 6.7760 0.0002
# 3 95.0137 69.8778 146.9519 -0.0062 8.3178 0.0002
# 4 -0.0011 -0.0031 -0.0062 28.0767 0.0018 2.8239
# 5 8.2930 6.7760 8.3178 0.0018 34.8309 0.0003
# 6 -0.0001 0.0002 0.0002 2.8239 0.0003 33.3817
#
#
#
# Elastic Compliance Matrix: (Units=1/GPa)
#
#
# Indices 1 2 3 4 5 6 
#
# 1 0.016837 -0.004196 -0.008830 -0.000002 -0.001084 0.000000
# 2 -0.004196 0.025594 -0.009359 0.000001 -0.001745 0.000000
# 3 -0.008830 -0.009359 0.016972 0.000002 -0.000130 0.000000
# 4 -0.000002 0.000001 0.000002 0.035922 -0.000002 -0.003039
# 5 -0.001084 -0.001745 -0.000130 -0.000002 0.029339 0.000000
# 6 0.000000 0.000000 0.000000 -0.003039 0.000000 0.030214
#
#
# Mechanical properties :
#
#
# Convention : Reuss Voigt Hill
#
# Bulk Modulus (GPa) = 68.33352 87.29706 77.81529
# Shear Modulus (GPa) = 24.44702 27.54361 25.99532
#
# Velocity S-wave (km/s) = 3.65733 3.88205 3.77136
# Velocity P-wave (km/s) = 7.43122 8.23759 7.84477
#
# Compressibility (1/GPa) = 0.01463411
#
# Stress axis : x y z
#
# Youngs Moduli (GPa) = 59.39182 39.07205 58.92216
#
# Poissons Ratio (x) = 0.16394 0.52028
# Poissons Ratio (y) = 0.24919 0.55143
# Poissons Ratio (z) = 0.52442 0.36566
#
# Static dielectric constant tensor:
#      x y z
#    x 3.433210 0.000000 -0.072450 
#    y 0.000000 3.270310 0.000000 
#    z -0.072450 0.000000 3.563190 
# 
# 
# High freq. dielectric constant tensor:
#      x y z
#    x 1.708300 0.000000 0.000150 
#    y 0.000000 1.693610 0.000000 
#    z 0.000150 0.000000 1.722600 
# 
# From -- ./inp_files/162397.got.cif
#   From: 2010.06.25/outbox.cif.g09.slc.cpg/sg12_82_cif.got.tgz:162397.got - 2010.06.28 00:19:55.
