data_PCOD8098149
_publ_section_title
;
Structure prediction by ZEFSAII (Michael W. Deem and Ramdas Pophale) SiO2 
 PCOD8098149
Probable space group: C 2/M
;
_chemical_formula_sum "Si O2"
_cell_formula_units_Z 64
_cell_length_a 19.814907
_cell_length_b 8.836407
_cell_length_c 24.273511
_cell_angle_alpha 90.000000
_cell_angle_beta 126.006094
_cell_angle_gamma 90.000000
_cell_volume 3438.146900
_symmetry_space_group_name_H-M "C 2/M"
_symmetry_group_IT_number 12
_symmetry_cell_setting 'monoclinic'
loop_
_space_group_symop_operation_xyz
x,y,z
-x,y,-z
-x,-y,-z
x,-y,z
1/2+x,1/2+y,z
1/2-x,1/2+y,-z
1/2-x,1/2-y,-z
1/2+x,1/2-y,z
loop_
_atom_site_type_symbol
_atom_site_label
_atom_site_fract_x
_atom_site_fract_y
_atom_site_fract_z
Si Si1 0.794744 0.821980 0.322991
Si Si2 0.230187 0.175948 0.182634
Si Si3 0.343586 0.676253 0.681902
Si Si4 0.903270 0.672295 0.217731
Si Si5 0.464024 0.323535 0.644392
Si Si6 0.022534 0.672561 0.181094
Si Si7 0.439734 0.823856 0.922929
Si Si8 0.472343 0.178581 0.426984
O O1 0.744764 0.770336 0.245043
O O2 0.741761 0.769411 0.350957
O O3 0.884521 0.746869 0.367341
O O4 0.805707 0.000000 0.328500
O O5 0.304956 0.206416 0.175031
O O6 0.145689 0.230926 0.113533
O O7 0.223845 0.000000 0.195286
O O8 0.322771 0.500000 0.675459
O O9 0.382925 0.719765 0.641616
O O10 0.408610 0.715949 0.761230
O O11 0.922412 0.500000 0.245340
O O12 0.952108 0.781356 0.282601
O O13 0.934028 0.699530 0.169595
O O14 0.467071 0.500000 0.632779
O O15 0.459019 0.233090 0.584511
O O16 0.053460 0.500000 0.205151
O O17 0.012497 0.707458 0.111739
O O18 0.418406 0.000000 0.920195
O O19 0.500000 0.765108 0.000000
O O20 0.500000 0.238632 0.500000
O O21 0.465053 0.000000 0.422851
#
# Coordination Sequence:
#
# PCOD8098149 Si02
#       8
#     8   8   8   8   8   8   8   8
#     4  12  23  36  58  86 114 147 189 234 280 332
#     4  11  21  34  55  82 111 143 184 236 283 329
#     4  10  20  34  55  85 116 144 183 234 280 327
#     4   9  18  32  53  79 108 143 184 230 277 328
#     4  10  20  34  56  85 115 147 184 229 279 332
#     4   9  17  32  53  77 107 146 188 226 274 334
#     4  10  21  36  54  78 111 150 190 234 284 338
#     4  11  24  41  60  83 115 153 189 229 280 335
#
# _framework density 18.614678999999999
#
# number of rings (size 3 to 8) (size 9 to 14) (size 15 to 20)
#    0.000    1.750    2.500    2.625    0.000    3.250 
#    0.000    1.250    0.000    0.000    0.000    0.000 
#    0.000    0.000    0.000    0.000    0.000    0.000 
#
# Total GULP energy -396852.413944 kJ/mol
# GULP energy per Si atom -12401.637936 kJ/mol
# Density = 1.857231 g / cm^3
# Si number density = 18.614679 Si / 1000 Ang^3
#
#
#
# Elastic Constant Matrix: (Units=GPa)
#
#
# Indices 1 2 3 4 5 6 
#
# 1 105.8138 23.8227 14.2417 0.0000 -14.8084 0.0000
# 2 23.8227 57.0619 10.0350 0.0000 -8.8492 0.0000
# 3 14.2417 10.0350 48.9418 0.0000 -16.5817 0.0000
# 4 0.0000 0.0000 0.0000 21.2822 0.0000 -2.0014
# 5 -14.8084 -8.8492 -16.5817 0.0000 25.8753 0.0000
# 6 0.0000 0.0000 0.0000 -2.0014 0.0000 26.4367
#
#
#
# Elastic Compliance Matrix: (Units=1/GPa)
#
#
# Indices 1 2 3 4 5 6 
#
# 1 0.011043 -0.003758 -0.000942 0.000000 0.004432 0.000000
# 2 -0.003758 0.019957 -0.001807 0.000000 0.003517 0.000000
# 3 -0.000942 -0.001807 0.026422 0.000000 0.015775 0.000000
# 4 0.000000 0.000000 0.000000 0.047325 0.000000 0.003583
# 5 0.004432 0.003517 0.015775 0.000000 0.052495 0.000000
# 6 0.000000 0.000000 0.000000 0.003583 0.000000 0.038097
#
#
# Mechanical properties :
#
#
# Convention : Reuss Voigt Hill
#
# Bulk Modulus (GPa) = 22.51789 34.22403 28.37096
# Shear Modulus (GPa) = 22.40602 25.63339 24.01971
#
# Velocity S-wave (km/s) = 3.47317 3.71489 3.59606
# Velocity P-wave (km/s) = 5.31102 6.06844 5.70232
#
# Compressibility (1/GPa) = 0.04440914
#
# Stress axis : x y z
#
# Youngs Moduli (GPa) = 90.55102 50.10834 37.84789
#
# Poissons Ratio (x) = 0.18829 0.03564
# Poissons Ratio (y) = 0.34026 0.06839
# Poissons Ratio (z) = 0.08527 0.09055
#
# Static dielectric constant tensor:
#      x y z
#    x 3.842800 0.000000 -0.176560 
#    y 0.000000 3.451050 0.000000 
#    z -0.176560 0.000000 3.169960 
# 
# 
# High freq. dielectric constant tensor:
#      x y z
#    x 1.743450 0.000000 -0.010590 
#    y 0.000000 1.728510 0.000000 
#    z -0.010590 0.000000 1.682340 
# 
# From -- ./inp_files/346196.got.cif
#   From: 2010.06.25/outbox.cif.g09.slc.cpg/sg12_174_cif.got.tgz:346196.got - 2010.06.28 00:19:55.
