data_PCOD8098406
_publ_section_title
;
Structure prediction by ZEFSAII (Michael W. Deem and Ramdas Pophale) SiO2 
 PCOD8098406
Probable space group: C 2/M
;
_chemical_formula_sum "Si O2"
_cell_formula_units_Z 36
_cell_length_a 19.337604
_cell_length_b 7.460655
_cell_length_c 21.314892
_cell_angle_alpha 90.000000
_cell_angle_beta 143.740187
_cell_angle_gamma 90.000000
_cell_volume 1818.775716
_symmetry_space_group_name_H-M "C 2/M"
_symmetry_group_IT_number 12
_symmetry_cell_setting 'monoclinic'
loop_
_space_group_symop_operation_xyz
x,y,z
-x,y,-z
-x,-y,-z
x,-y,z
1/2+x,1/2+y,z
1/2-x,1/2+y,-z
1/2-x,1/2-y,-z
1/2+x,1/2-y,z
loop_
_atom_site_type_symbol
_atom_site_label
_atom_site_fract_x
_atom_site_fract_y
_atom_site_fract_z
Si Si1 0.919408 0.300908 0.714638
Si Si2 0.517963 0.000000 0.356554
Si Si3 0.764088 0.500000 0.394590
Si Si4 0.133549 0.709048 0.950422
Si Si5 0.136586 0.298016 0.089916
Si Si6 0.277461 0.000000 0.257517
O O1 0.883881 0.500000 0.713755
O O2 0.967569 0.323777 0.677952
O O3 0.807062 0.175554 0.636558
O O4 0.021747 0.210750 0.831868
O O5 0.394242 0.000000 0.301237
O O6 0.615584 0.000000 0.480679
O O7 0.800333 0.500000 0.348325
O O8 0.109815 0.500000 0.939325
O O9 0.250000 0.750000 0.000000
O O10 0.152387 0.791288 0.032959
O O11 0.187655 0.500000 0.132051
O O12 0.202748 0.177636 0.188855
O O13 0.000000 0.299904 0.000000
#
# Coordination Sequence:
#
# PCOD8098406 Si02
#       6
#     8   4   4   8   8   4
#     4   9  22  40  63  88 121 157 204 254 301 365
#     4  10  23  45  61  89 128 152 205 275 305 349
#     4  12  23  41  69  87 113 169 217 249 309 359
#     4  10  20  34  56  88 120 155 189 242 296 363
#     4  10  22  39  60  87 129 163 197 237 303 374
#     4  12  24  40  62  94 126 161 203 258 308 358
#
# _framework density 19.793534999999999
#
# number of rings (size 3 to 8) (size 9 to 14) (size 15 to 20)
#    0.667    1.111    0.000    4.000    3.111    2.667 
#    2.000    0.000    0.000    2.667    0.000    0.000 
#    0.000    0.000    0.000    0.000    0.000    0.000 
#
# Total GULP energy -223103.704197 kJ/mol
# GULP energy per Si atom -12394.650233 kJ/mol
# Density = 1.974848 g / cm^3
# Si number density = 19.793535 Si / 1000 Ang^3
#
#
#
# Elastic Constant Matrix: (Units=GPa)
#
#
# Indices 1 2 3 4 5 6 
#
# 1 105.0139 24.2807 11.3009 0.0000 -13.7913 0.0000
# 2 24.2807 83.9422 36.6136 0.0001 1.3841 0.0003
# 3 11.3009 36.6136 103.3093 0.0000 -12.0306 -0.0001
# 4 0.0000 0.0001 0.0000 12.2988 0.0000 2.5656
# 5 -13.7913 1.3841 -12.0306 0.0000 39.8156 0.0000
# 6 0.0000 0.0003 -0.0001 2.5656 0.0000 22.9087
#
#
#
# Elastic Compliance Matrix: (Units=1/GPa)
#
#
# Indices 1 2 3 4 5 6 
#
# 1 0.010781 -0.003399 0.000491 0.000000 0.004001 0.000000
# 2 -0.003399 0.015329 -0.005452 0.000000 -0.003357 0.000000
# 3 0.000491 -0.005452 0.012023 0.000000 0.003993 0.000000
# 4 0.000000 0.000000 0.000000 0.083254 0.000000 -0.009324
# 5 0.004001 -0.003357 0.003993 0.000000 0.027825 0.000000
# 6 0.000000 0.000000 0.000000 -0.009324 0.000000 0.044696
#
#
# Mechanical properties :
#
#
# Convention : Reuss Voigt Hill
#
# Bulk Modulus (GPa) = 46.69775 48.51730 47.60753
# Shear Modulus (GPa) = 22.96052 29.67597 26.31825
#
# Velocity S-wave (km/s) = 3.40957 3.87625 3.65038
# Velocity P-wave (km/s) = 6.25651 6.67822 6.47080
#
# Compressibility (1/GPa) = 0.02141431
#
# Stress axis : x y z
#
# Youngs Moduli (GPa) = 92.75643 65.23393 83.17297
#
# Poissons Ratio (x) = 0.22170 -0.04084
# Poissons Ratio (y) = 0.31524 0.45347
# Poissons Ratio (z) = -0.04555 0.35566
#
# Static dielectric constant tensor:
#      x y z
#    x 3.581850 0.000000 -0.158420 
#    y 0.000000 3.532420 0.000000 
#    z -0.158420 0.000000 3.594370 
# 
# 
# High freq. dielectric constant tensor:
#      x y z
#    x 1.778360 0.000000 -0.008100 
#    y 0.000000 1.761740 0.000000 
#    z -0.008100 0.000000 1.772180 
# 
# From -- ./inp_files/313442.got.cif
#   From: 2010.06.25/outbox.cif.g09.slc.cpg/sg12_157_cif.got.tgz:313442.got - 2010.06.28 00:19:55.
