data_PCOD8098782
_publ_section_title
;
Structure prediction by ZEFSAII (Michael W. Deem and Ramdas Pophale) SiO2 
 PCOD8098782
Probable space group: C 2/M
;
_chemical_formula_sum "Si O2"
_cell_formula_units_Z 40
_cell_length_a 23.275068
_cell_length_b 12.187648
_cell_length_c 7.052517
_cell_angle_alpha 90.000000
_cell_angle_beta 102.559760
_cell_angle_gamma 90.000000
_cell_volume 1952.701439
_symmetry_space_group_name_H-M "C 2/M"
_symmetry_group_IT_number 12
_symmetry_cell_setting 'monoclinic'
loop_
_space_group_symop_operation_xyz
x,y,z
-x,y,-z
-x,-y,-z
x,-y,z
1/2+x,1/2+y,z
1/2-x,1/2+y,-z
1/2-x,1/2-y,-z
1/2+x,1/2-y,z
loop_
_atom_site_type_symbol
_atom_site_label
_atom_site_fract_x
_atom_site_fract_y
_atom_site_fract_z
Si Si1 0.311196 0.268506 0.840133
Si Si2 0.390908 0.373909 0.579819
Si Si3 0.584231 0.123319 0.014903
Si Si4 0.483448 0.807033 0.691863
Si Si5 0.704829 0.375002 0.782680
O O1 0.343989 0.332692 0.699344
O O2 0.251543 0.210110 0.723752
O O3 0.350564 0.170005 0.953449
O O4 0.297702 0.355973 0.994382
O O5 0.406041 0.500000 0.629318
O O6 0.453108 0.311044 0.633155
O O7 0.359649 0.355105 0.354517
O O8 0.542756 0.202634 0.859021
O O9 0.582561 0.000000 0.932331
O O10 0.562486 0.120136 0.219359
O O11 0.500000 0.860608 0.500000
O O12 0.724996 0.500000 0.756926
#
# Coordination Sequence:
#
# PCOD8098782 Si02
#       5
#     8   8   8   8   8
#     4  10  20  36  56  80 108 138 175 216 260 312
#     4  10  21  36  54  78 108 140 175 216 261 310
#     4  10  21  36  54  78 107 138 175 219 264 310
#     4  10  20  35  53  75 104 138 175 217 260 308
#     4  10  20  35  57  81 107 140 174 213 261 311
#
# _framework density 20.484444
#
# number of rings (size 3 to 8) (size 9 to 14) (size 15 to 20)
#    0.000    2.000    0.000    4.200    0.000    2.000 
#    0.000    9.000    0.000   15.600    0.000    0.000 
#    0.000    0.000    0.000    0.000    0.000    0.000 
#
# Total GULP energy -247937.724599 kJ/mol
# GULP energy per Si atom -12396.886230 kJ/mol
# Density = 2.043782 g / cm^3
# Si number density = 20.484444 Si / 1000 Ang^3
#
#
#
# Elastic Constant Matrix: (Units=GPa)
#
#
# Indices 1 2 3 4 5 6 
#
# 1 61.8272 31.6037 16.9998 0.0000 11.9473 0.0000
# 2 31.6037 108.5445 32.2992 0.0000 27.3193 0.0000
# 3 16.9998 32.2992 80.8864 0.0000 1.4584 0.0000
# 4 0.0000 0.0000 0.0000 25.0248 0.0000 7.4783
# 5 11.9473 27.3193 1.4584 0.0000 34.4739 0.0000
# 6 0.0000 0.0000 0.0000 7.4783 0.0000 26.8866
#
#
#
# Elastic Compliance Matrix: (Units=1/GPa)
#
#
# Indices 1 2 3 4 5 6 
#
# 1 0.019609 -0.004132 -0.002410 0.000000 -0.003420 0.000000
# 2 -0.004132 0.014223 -0.004637 0.000000 -0.009643 0.000000
# 3 -0.002410 -0.004637 0.014651 0.000000 0.003890 0.000000
# 4 0.000000 0.000000 0.000000 0.043583 0.000000 -0.012122
# 5 -0.003420 -0.009643 0.003890 0.000000 0.037670 0.000000
# 6 0.000000 0.000000 0.000000 -0.012122 0.000000 0.040565
#
#
# Mechanical properties :
#
#
# Convention : Reuss Voigt Hill
#
# Bulk Modulus (GPa) = 38.27619 45.89596 42.08608
# Shear Modulus (GPa) = 24.83035 28.63408 26.73221
#
# Velocity S-wave (km/s) = 3.48538 3.74283 3.61640
# Velocity P-wave (km/s) = 5.90959 6.41345 6.16667
#
# Compressibility (1/GPa) = 0.02612590
#
# Stress axis : x y z
#
# Youngs Moduli (GPa) = 50.99574 70.31049 68.25464
#
# Poissons Ratio (x) = 0.29050 0.16448
# Poissons Ratio (y) = 0.21070 0.31650
# Poissons Ratio (z) = 0.12289 0.32604
#
# Static dielectric constant tensor:
#      x y z
#    x 3.707750 0.000000 0.026430 
#    y 0.000000 3.555620 0.000000 
#    z 0.026430 0.000000 3.693470 
# 
# 
# High freq. dielectric constant tensor:
#      x y z
#    x 1.803140 0.000000 0.001520 
#    y 0.000000 1.790270 0.000000 
#    z 0.001520 0.000000 1.798680 
# 
# From -- ./inp_files/27503.got.cif
#   From: 2010.06.25/outbox.cif.g09.slc.cpg/sg12_14_cif.got.tgz:27503.got - 2010.06.28 00:19:55.
