data_PCOD8098625
_publ_section_title
;
Structure prediction by ZEFSAII (Michael W. Deem and Ramdas Pophale) SiO2 
 PCOD8098625
Probable space group: C 2/M
;
_chemical_formula_sum "Si O2"
_cell_formula_units_Z 40
_cell_length_a 14.852671
_cell_length_b 10.290356
_cell_length_c 29.056041
_cell_angle_alpha 90.000000
_cell_angle_beta 26.963455
_cell_angle_gamma 90.000000
_cell_volume 2013.604072
_symmetry_space_group_name_H-M "C 2/M"
_symmetry_group_IT_number 12
_symmetry_cell_setting 'monoclinic'
loop_
_space_group_symop_operation_xyz
x,y,z
-x,y,-z
-x,-y,-z
x,-y,z
1/2+x,1/2+y,z
1/2-x,1/2+y,-z
1/2-x,1/2-y,-z
1/2+x,1/2-y,z
loop_
_atom_site_type_symbol
_atom_site_label
_atom_site_fract_x
_atom_site_fract_y
_atom_site_fract_z
Si Si1 0.788379 0.347477 0.116072
Si Si2 0.831882 0.768408 0.730335
Si Si3 0.988173 0.500000 0.367376
Si Si4 0.306139 0.500000 0.619517
Si Si5 0.161471 0.500000 0.387851
Si Si6 0.109892 0.251216 0.735524
Si Si7 0.450202 0.500000 0.404758
O O1 0.750149 0.500000 0.126656
O O2 0.788207 0.311096 0.170024
O O3 0.626717 0.266748 0.160107
O O4 0.000000 0.304965 0.000000
O O5 0.679069 0.765376 0.756963
O O6 0.925162 0.626857 0.696835
O O7 0.018280 0.868033 0.638989
O O8 0.749658 0.500000 0.474104
O O9 0.039187 0.500000 0.397148
O O10 0.500000 0.500000 0.500000
O O11 0.172710 0.371470 0.673973
O O12 0.365569 0.500000 0.645223
O O13 0.295400 0.626333 0.331848
O O14 0.000000 0.500000 0.500000
#
# Coordination Sequence:
#
# PCOD8098625 Si02
#       7
#     8   8   4   4   4   8   4
#     4  11  24  43  71  94 115 167 222 263 316 367
#     4  10  22  40  60  91 130 160 204 264 311 370
#     4  10  22  34  58  91 127 166 204 252 313 368
#     4  10  22  36  56  87 129 170 198 240 315 376
#     4  10  20  34  58  91 123 168 210 248 303 366
#     4  10  22  40  60  91 129 161 204 261 311 369
#     4  10  20  36  56  87 123 174 206 236 309 376
#
# _framework density 19.864878000000001
#
# number of rings (size 3 to 8) (size 9 to 14) (size 15 to 20)
#    0.000    1.800    2.000    1.200    5.600    0.800 
#    0.000    2.000    0.000    0.000    0.000    0.000 
#    0.000    0.000    0.000    0.000    0.000    0.000 
#
# Total GULP energy -247968.087953 kJ/mol
# GULP energy per Si atom -12398.404398 kJ/mol
# Density = 1.981966 g / cm^3
# Si number density = 19.864878 Si / 1000 Ang^3
#
#
#
# Elastic Constant Matrix: (Units=GPa)
#
#
# Indices 1 2 3 4 5 6 
#
# 1 67.9856 24.0242 43.3962 -0.0006 -10.0712 -0.0002
# 2 24.0242 153.8911 59.6545 0.0001 -11.8777 0.0004
# 3 43.3962 59.6545 150.0607 0.0032 -10.4114 0.0025
# 4 -0.0006 0.0001 0.0032 32.1087 -0.0007 -2.4073
# 5 -10.0712 -11.8777 -10.4114 -0.0007 32.3067 -0.0002
# 6 -0.0002 0.0004 0.0025 -2.4073 -0.0002 9.4042
#
#
#
# Elastic Compliance Matrix: (Units=1/GPa)
#
#
# Indices 1 2 3 4 5 6 
#
# 1 0.018636 -0.000733 -0.004822 0.000001 0.003986 0.000002
# 2 -0.000733 0.007824 -0.002777 0.000000 0.001753 0.000000
# 3 -0.004822 -0.002777 0.009193 -0.000001 0.000438 -0.000003
# 4 0.000001 0.000000 -0.000001 0.031754 0.000001 0.008128
# 5 0.003986 0.001753 0.000438 0.000001 0.032982 0.000001
# 6 0.000002 0.000000 -0.000003 0.008128 0.000001 0.108416
#
#
# Mechanical properties :
#
#
# Convention : Reuss Voigt Hill
#
# Bulk Modulus (GPa) = 52.65694 69.56524 61.11109
# Shear Modulus (GPa) = 21.57056 31.08807 26.32932
#
# Velocity S-wave (km/s) = 3.29882 3.96027 3.64458
# Velocity P-wave (km/s) = 6.40896 7.48378 6.96712
#
# Compressibility (1/GPa) = 0.01899085
#
# Stress axis : x y z
#
# Youngs Moduli (GPa) = 53.65931 127.80796 108.78229
#
# Poissons Ratio (x) = 0.09363 0.52450
# Poissons Ratio (y) = 0.03931 0.30208
# Poissons Ratio (z) = 0.25872 0.35491
#
# Static dielectric constant tensor:
#      x y z
#    x 3.389630 -0.000010 -0.096160 
#    y -0.000010 3.930240 0.000000 
#    z -0.096160 0.000000 3.386320 
# 
# 
# High freq. dielectric constant tensor:
#      x y z
#    x 1.779270 0.000000 -0.001310 
#    y 0.000000 1.791040 0.000000 
#    z -0.001310 0.000000 1.755600 
# 
# From -- ./inp_files/141176.got.cif
#   From: 2010.06.25/outbox.cif.g09.slc.cpg/sg12_71_cif.got.tgz:141176.got - 2010.06.28 00:19:55.
