data_PCOD8098892
_publ_section_title
;
Structure prediction by ZEFSAII (Michael W. Deem and Ramdas Pophale) SiO2 
 PCOD8098892
Probable space group: C 2/M
;
_chemical_formula_sum "Si O2"
_cell_formula_units_Z 48
_cell_length_a 27.227919
_cell_length_b 8.662468
_cell_length_c 11.898696
_cell_angle_alpha 90.000000
_cell_angle_beta 107.360620
_cell_angle_gamma 90.000000
_cell_volume 2678.592566
_symmetry_space_group_name_H-M "C 2/M"
_symmetry_group_IT_number 12
_symmetry_cell_setting 'monoclinic'
loop_
_space_group_symop_operation_xyz
x,y,z
-x,y,-z
-x,-y,-z
x,-y,z
1/2+x,1/2+y,z
1/2-x,1/2+y,-z
1/2-x,1/2-y,-z
1/2+x,1/2-y,z
loop_
_atom_site_type_symbol
_atom_site_label
_atom_site_fract_x
_atom_site_fract_y
_atom_site_fract_z
Si Si1 0.889312 0.179685 0.417867
Si Si2 0.558002 0.179989 0.008494
Si Si3 0.805386 0.822425 0.531641
Si Si4 0.067631 0.176109 0.779275
Si Si5 0.467372 0.179074 0.631123
Si Si6 0.393883 0.679141 0.755529
O O1 0.837512 0.239164 0.444938
O O2 0.885978 0.201789 0.280044
O O3 0.937156 0.278408 0.497309
O O4 0.898463 0.000000 0.455674
O O5 0.600247 0.273246 0.110397
O O6 0.564052 0.000000 0.036272
O O7 0.500000 0.235441 0.000000
O O8 0.572197 0.212583 0.888978
O O9 0.750000 0.750000 0.500000
O O10 0.836630 0.788814 0.668570
O O11 0.795245 0.000000 0.507571
O O12 0.016993 0.213389 0.673535
O O13 0.066512 0.000000 0.821232
O O14 0.433212 0.211638 0.717061
O O15 0.483312 0.000000 0.640290
O O16 0.408261 0.500000 0.747882
#
# Coordination Sequence:
#
# PCOD8098892 Si02
#       6
#     8   8   8   8   8   8
#     4   9  20  36  51  73 103 136 175 213 256 313
#     4  11  22  34  50  76 109 141 177 219 257 298
#     4   9  19  36  58  82 104 128 166 217 267 314
#     4  11  21  33  51  71 101 145 180 209 250 305
#     4  11  20  30  47  74 106 138 173 215 258 301
#     4  10  20  35  54  76 104 140 180 214 252 309
#
# _framework density 17.919858999999999
#
# number of rings (size 3 to 8) (size 9 to 14) (size 15 to 20)
#    0.000    1.833    1.667    4.500    0.000    7.333 
#    0.000    0.000    0.000    1.000    0.000    0.000 
#    0.000    0.000    0.000    0.000    0.000    0.000 
#
# Total GULP energy -297522.793419 kJ/mol
# GULP energy per Si atom -12396.783059 kJ/mol
# Density = 1.787907 g / cm^3
# Si number density = 17.919859 Si / 1000 Ang^3
#
#
#
# Elastic Constant Matrix: (Units=GPa)
#
#
# Indices 1 2 3 4 5 6 
#
# 1 68.1542 12.8703 54.5575 0.0000 2.0154 0.0000
# 2 12.8703 52.0645 27.6940 0.0000 3.5691 0.0000
# 3 54.5575 27.6940 113.1504 0.0000 -13.2428 0.0000
# 4 0.0000 0.0000 0.0000 29.5315 0.0000 1.7703
# 5 2.0154 3.5691 -13.2428 0.0000 22.1324 0.0000
# 6 0.0000 0.0000 0.0000 1.7703 0.0000 24.6747
#
#
#
# Elastic Compliance Matrix: (Units=1/GPa)
#
#
# Indices 1 2 3 4 5 6 
#
# 1 0.026197 0.001986 -0.014446 0.000000 -0.011349 0.000000
# 2 0.001986 0.023389 -0.007683 0.000000 -0.008549 0.000000
# 3 -0.014446 -0.007683 0.019336 0.000000 0.014124 0.000000
# 4 0.000000 0.000000 0.000000 0.034008 0.000000 -0.002440
# 5 -0.011349 -0.008549 0.014124 0.000000 0.056046 0.000000
# 6 0.000000 0.000000 0.000000 -0.002440 0.000000 0.040702
#
#
# Mechanical properties :
#
#
# Convention : Reuss Voigt Hill
#
# Bulk Modulus (GPa) = 34.91937 47.06808 40.99372
# Shear Modulus (GPa) = 20.03932 24.48422 22.26177
#
# Velocity S-wave (km/s) = 3.34769 3.70038 3.52845
# Velocity P-wave (km/s) = 5.87124 6.67683 6.28695
#
# Compressibility (1/GPa) = 0.02863740
#
# Stress axis : x y z
#
# Youngs Moduli (GPa) = 38.17231 42.75584 51.71569
#
# Poissons Ratio (x) = -0.08492 0.74707
# Poissons Ratio (y) = -0.07581 0.39731
# Poissons Ratio (z) = 0.55143 0.32848
#
# Static dielectric constant tensor:
#      x y z
#    x 3.409270 0.000000 -0.195550 
#    y 0.000000 3.259660 0.000000 
#    z -0.195550 0.000000 3.371180 
# 
# 
# High freq. dielectric constant tensor:
#      x y z
#    x 1.658580 0.000000 -0.018920 
#    y 0.000000 1.699010 0.000000 
#    z -0.018920 0.000000 1.692930 
# 
# From -- ./inp_files/172078.got.cif
#   From: 2010.06.25/outbox.cif.g09.slc.cpg/sg12_87_cif.got.tgz:172078.got - 2010.06.28 00:19:55.
