data_PCOD8098960
_publ_section_title
;
Structure prediction by ZEFSAII (Michael W. Deem and Ramdas Pophale) SiO2 
 PCOD8098960
Probable space group: C 2/M
;
_chemical_formula_sum "Si O2"
_cell_formula_units_Z 56
_cell_length_a 12.416389
_cell_length_b 23.560341
_cell_length_c 20.833498
_cell_angle_alpha 90.000000
_cell_angle_beta 150.237228
_cell_angle_gamma 90.000000
_cell_volume 3025.377834
_symmetry_space_group_name_H-M "C 2/M"
_symmetry_group_IT_number 12
_symmetry_cell_setting 'monoclinic'
loop_
_space_group_symop_operation_xyz
x,y,z
-x,y,-z
-x,-y,-z
x,-y,z
1/2+x,1/2+y,z
1/2-x,1/2+y,-z
1/2-x,1/2-y,-z
1/2+x,1/2-y,z
loop_
_atom_site_type_symbol
_atom_site_label
_atom_site_fract_x
_atom_site_fract_y
_atom_site_fract_z
Si Si1 0.128388 0.663668 0.915220
Si Si2 0.780828 0.731276 0.404262
Si Si3 0.828245 0.434339 0.967082
Si Si4 0.079585 0.222064 0.165198
Si Si5 0.938756 0.617681 0.552664
Si Si6 0.959043 0.677638 0.275944
Si Si7 0.834529 0.064874 0.685146
O O1 0.071772 0.654740 0.811477
O O2 0.972836 0.710740 0.867407
O O3 0.098698 0.603559 0.934895
O O4 0.372788 0.683617 0.046799
O O5 0.661762 0.708373 0.279046
O O6 0.862816 0.678644 0.488227
O O7 0.631168 0.771656 0.368707
O O8 0.000000 0.766301 0.500000
O O9 0.833789 0.500000 0.991306
O O10 0.585928 0.416418 0.818887
O O11 0.000000 0.422651 0.000000
O O12 0.243591 0.204955 0.194148
O O13 0.756344 0.572582 0.435094
O O14 0.958446 0.623485 0.639707
O O15 0.178509 0.602048 0.650141
O O16 0.811101 0.000000 0.694094
#
# Coordination Sequence:
#
# PCOD8098960 Si02
#       7
#     8   8   8   8   8   8   8
#     4  10  22  36  54  84 111 144 185 225 275 329
#     4  11  20  33  50  77 110 148 187 218 256 317
#     4  10  22  41  61  80 105 143 190 236 277 322
#     4  10  20  35  54  78 115 150 183 224 269 327
#     4  11  18  33  56  83 113 147 174 225 278 319
#     4  11  22  34  53  81 117 150 175 217 274 335
#     4  10  20  36  60  84 106 136 188 240 275 322
#
# _framework density 18.510085
#
# number of rings (size 3 to 8) (size 9 to 14) (size 15 to 20)
#    0.000    1.571    2.857    3.429    0.000    4.571 
#    2.571    1.429    0.000    3.429    0.000    3.000 
#    0.000    0.000    0.000    0.000    0.000    0.000 
#
# Total GULP energy -347042.050348 kJ/mol
# GULP energy per Si atom -12394.358941 kJ/mol
# Density = 1.846795 g / cm^3
# Si number density = 18.510085 Si / 1000 Ang^3
#
#
#
# Elastic Constant Matrix: (Units=GPa)
#
#
# Indices 1 2 3 4 5 6 
#
# 1 94.3981 53.4313 41.8482 0.0192 -7.3476 -0.0122
# 2 53.4313 87.5461 39.9396 0.0133 -7.8676 0.0155
# 3 41.8482 39.9396 91.7921 0.0873 -2.8570 0.0398
# 4 0.0192 0.0133 0.0873 34.1822 0.0183 -8.8056
# 5 -7.3476 -7.8676 -2.8570 0.0183 24.1375 -0.0284
# 6 -0.0122 0.0155 0.0398 -8.8056 -0.0284 34.8718
#
#
#
# Elastic Compliance Matrix: (Units=1/GPa)
#
#
# Indices 1 2 3 4 5 6 
#
# 1 0.017445 -0.008566 -0.004163 0.000008 0.002026 0.000018
# 2 -0.008566 0.018838 -0.004197 0.000006 0.003036 -0.000003
# 3 -0.004163 -0.004197 0.014590 -0.000040 -0.000908 -0.000027
# 4 0.000008 0.000006 -0.000040 0.031290 -0.000015 0.007901
# 5 0.002026 0.003036 -0.000908 -0.000015 0.042928 0.000032
# 6 0.000018 -0.000003 -0.000027 0.007901 0.000032 0.030672
#
#
# Mechanical properties :
#
#
# Convention : Reuss Voigt Hill
#
# Bulk Modulus (GPa) = 58.74968 60.46384 59.60676
# Shear Modulus (GPa) = 25.60307 27.87278 26.73793
#
# Velocity S-wave (km/s) = 3.72317 3.88469 3.80479
# Velocity P-wave (km/s) = 7.09160 7.27031 7.18151
#
# Compressibility (1/GPa) = 0.01702137
#
# Stress axis : x y z
#
# Youngs Moduli (GPa) = 57.32256 53.08425 68.53975
#
# Poissons Ratio (x) = 0.45471 0.28534
# Poissons Ratio (y) = 0.49102 0.28765
# Poissons Ratio (z) = 0.23864 0.22279
#
# Static dielectric constant tensor:
#      x y z
#    x 3.370530 -0.000010 0.066990 
#    y -0.000010 3.362230 -0.000050 
#    z 0.066990 -0.000050 3.849760 
# 
# 
# High freq. dielectric constant tensor:
#      x y z
#    x 1.703080 0.000000 0.005650 
#    y 0.000000 1.704840 0.000000 
#    z 0.005650 0.000000 1.738120 
# 
# From -- ./inp_files/307248.got.cif
#   From: 2010.06.25/outbox.cif.g09.slc.cpg/sg12_154_cif.got.tgz:307248.got - 2010.06.28 00:19:55.
