data_PCOD8098378
_publ_section_title
;
Structure prediction by ZEFSAII (Michael W. Deem and Ramdas Pophale) SiO2 
 PCOD8098378
Probable space group: C 2/M
;
_chemical_formula_sum "Si O2"
_cell_formula_units_Z 56
_cell_length_a 21.716091
_cell_length_b 13.948782
_cell_length_c 8.824632
_cell_angle_alpha 90.000000
_cell_angle_beta 94.822948
_cell_angle_gamma 90.000000
_cell_volume 2663.631198
_symmetry_space_group_name_H-M "C 2/M"
_symmetry_group_IT_number 12
_symmetry_cell_setting 'monoclinic'
loop_
_space_group_symop_operation_xyz
x,y,z
-x,y,-z
-x,-y,-z
x,-y,z
1/2+x,1/2+y,z
1/2-x,1/2+y,-z
1/2-x,1/2-y,-z
1/2+x,1/2-y,z
loop_
_atom_site_type_symbol
_atom_site_label
_atom_site_fract_x
_atom_site_fract_y
_atom_site_fract_z
Si Si1 0.006093 0.889376 0.171791
Si Si2 0.618431 0.705407 0.326987
Si Si3 0.059022 0.755232 0.611173
Si Si4 0.245356 0.604929 0.366990
Si Si5 0.631205 0.110709 0.827368
Si Si6 0.878643 0.605039 0.827319
Si Si7 0.263308 0.809354 0.321377
O O1 0.076594 0.875960 0.241695
O O2 0.958198 0.836372 0.271534
O O3 0.988070 0.000000 0.174479
O O4 0.000000 0.849388 0.000000
O O5 0.611038 0.702632 0.507339
O O6 0.591924 0.809167 0.264402
O O7 0.688897 0.686279 0.291369
O O8 0.085127 0.664100 0.704747
O O9 0.000000 0.723655 0.500000
O O10 0.279654 0.500000 0.384955
O O11 0.192994 0.595219 0.230084
O O12 0.286948 0.697639 0.332348
O O13 0.215106 0.633204 0.523530
O O14 0.702582 0.142217 0.813140
O O15 0.623616 0.000000 0.790388
O O16 0.614909 0.134533 0.996442
O O17 0.910352 0.500000 0.804923
#
# Coordination Sequence:
#
# PCOD8098378 Si02
#       7
#     8   8   8   8   8   8   8
#     4  10  22  42  65  87 116 153 192 238 288 338
#     4  10  21  37  60  87 118 152 192 240 288 345
#     4  10  22  39  61  88 114 149 196 240 286 341
#     4   9  17  31  49  73 109 148 187 228 276 338
#     4  11  22  37  57  83 118 154 193 242 293 347
#     4   9  19  35  56  81 112 154 194 234 287 342
#     4  10  20  34  56  86 116 153 193 235 292 348
#
# _framework density 21.023933
#
# number of rings (size 3 to 8) (size 9 to 14) (size 15 to 20)
#    0.000    2.143    0.000    3.857    0.000    8.000 
#    0.000    5.714    0.000   17.143    0.000    0.000 
#    0.000    0.000    0.000    0.000    0.000    0.000 
#
# Total GULP energy -346967.681719 kJ/mol
# GULP energy per Si atom -12391.702919 kJ/mol
# Density = 2.097608 g / cm^3
# Si number density = 21.023933 Si / 1000 Ang^3
#
#
#
# Elastic Constant Matrix: (Units=GPa)
#
#
# Indices 1 2 3 4 5 6 
#
# 1 77.7700 34.8781 27.1623 0.0000 -7.1453 0.0000
# 2 34.8781 106.8578 62.3626 0.0000 -7.9750 0.0000
# 3 27.1623 62.3626 116.2240 0.0000 -7.0141 0.0000
# 4 0.0000 0.0000 0.0000 30.5764 0.0000 3.5099
# 5 -7.1453 -7.9750 -7.0141 0.0000 26.6539 0.0000
# 6 0.0000 0.0000 0.0000 3.5099 0.0000 21.9240
#
#
#
# Elastic Compliance Matrix: (Units=1/GPa)
#
#
# Indices 1 2 3 4 5 6 
#
# 1 0.015366 -0.004103 -0.001234 0.000000 0.002567 0.000000
# 2 -0.004103 0.014847 -0.006916 0.000000 0.001522 0.000000
# 3 -0.001234 -0.006916 0.012660 0.000000 0.000931 0.000000
# 4 0.000000 0.000000 0.000000 0.033317 0.000000 -0.005334
# 5 0.002567 0.001522 0.000931 0.000000 0.038907 0.000000
# 6 0.000000 0.000000 0.000000 -0.005334 0.000000 0.046466
#
#
# Mechanical properties :
#
#
# Convention : Reuss Voigt Hill
#
# Bulk Modulus (GPa) = 54.45019 61.07308 57.76163
# Shear Modulus (GPa) = 26.01575 27.59410 26.80493
#
# Velocity S-wave (km/s) = 3.52154 3.62679 3.57455
# Velocity P-wave (km/s) = 6.51846 6.83012 6.67611
#
# Compressibility (1/GPa) = 0.01836541
#
# Stress axis : x y z
#
# Youngs Moduli (GPa) = 65.08024 67.35260 78.99161
#
# Poissons Ratio (x) = 0.27637 0.09751
# Poissons Ratio (y) = 0.26705 0.54629
# Poissons Ratio (z) = 0.08034 0.46579
#
# Static dielectric constant tensor:
#      x y z
#    x 3.499780 0.000000 -0.056890 
#    y 0.000000 4.093060 0.000000 
#    z -0.056890 0.000000 3.928830 
# 
# 
# High freq. dielectric constant tensor:
#      x y z
#    x 1.795170 0.000000 0.005190 
#    y 0.000000 1.831310 0.000000 
#    z 0.005190 0.000000 1.832680 
# 
# From -- ./inp_files/96465.got.cif
#   From: 2010.06.25/outbox.cif.g09.slc.cpg/sg12_49_cif.got.tgz:96465.got - 2010.06.28 00:19:55.
