data_PCOD8098136
_publ_section_title
;
Structure prediction by ZEFSAII (Michael W. Deem and Ramdas Pophale) SiO2 
 PCOD8098136
Probable space group: C 2/M
;
_chemical_formula_sum "Si O2"
_cell_formula_units_Z 56
_cell_length_a 9.100361
_cell_length_b 12.775039
_cell_length_c 27.655142
_cell_angle_alpha 90.000000
_cell_angle_beta 118.519462
_cell_angle_gamma 90.000000
_cell_volume 2824.978352
_symmetry_space_group_name_H-M "C 2/M"
_symmetry_group_IT_number 12
_symmetry_cell_setting 'monoclinic'
loop_
_space_group_symop_operation_xyz
x,y,z
-x,y,-z
-x,-y,-z
x,-y,z
1/2+x,1/2+y,z
1/2-x,1/2+y,-z
1/2-x,1/2-y,-z
1/2+x,1/2-y,z
loop_
_atom_site_type_symbol
_atom_site_label
_atom_site_fract_x
_atom_site_fract_y
_atom_site_fract_z
Si Si1 0.598241 0.305616 0.911295
Si Si2 0.314857 0.622512 0.349584
Si Si3 0.867011 0.748286 0.595195
Si Si4 0.740466 0.756936 0.837436
Si Si5 0.367879 0.882892 0.018406
Si Si6 0.901388 0.620154 0.779439
Si Si7 0.847475 0.610342 0.508394
O O1 0.691104 0.318382 0.874503
O O2 0.400870 0.329870 0.875865
O O3 0.683334 0.379085 0.965006
O O4 0.622033 0.184488 0.931421
O O5 0.342037 0.500000 0.368935
O O6 0.245526 0.696580 0.381013
O O7 0.488204 0.677510 0.360147
O O8 0.187037 0.628171 0.285712
O O9 0.926944 0.652409 0.571273
O O10 0.768718 0.813388 0.539801
O O11 0.790436 0.683052 0.800692
O O12 0.585756 0.831933 0.800926
O O13 0.412308 0.000000 0.040761
O O14 0.500000 0.838666 0.000000
O O15 0.916682 0.500000 0.798782
O O16 0.751588 0.500000 0.504340
O O17 0.000000 0.580868 0.500000
#
# Coordination Sequence:
#
# PCOD8098136 Si02
#       7
#     8   8   8   8   8   8   8
#     4  10  20  36  57  86 117 148 190 236 280 343
#     4  11  23  40  62  88 116 153 198 246 297 352
#     4  11  21  38  59  88 119 159 196 240 295 349
#     4  10  21  39  62  84 116 154 191 246 295 343
#     4  10  20  34  55  84 117 155 190 228 282 346
#     4  10  23  42  63  87 116 150 197 249 300 350
#     4  10  20  35  55  86 121 156 198 238 283 352
#
# _framework density 19.823160999999999
#
# number of rings (size 3 to 8) (size 9 to 14) (size 15 to 20)
#    0.000    1.714    2.857    1.714    0.000    3.429 
#    0.000    5.000    0.000    8.571    0.000    0.000 
#    0.000    0.000    0.000    0.000    0.000    0.000 
#
# Total GULP energy -346947.788440 kJ/mol
# GULP energy per Si atom -12390.992444 kJ/mol
# Density = 1.977804 g / cm^3
# Si number density = 19.823161 Si / 1000 Ang^3
#
#
#
# Elastic Constant Matrix: (Units=GPa)
#
#
# Indices 1 2 3 4 5 6 
#
# 1 94.2162 36.1758 21.7900 0.0000 6.5783 0.0000
# 2 36.1758 110.8479 30.9858 0.0000 -1.3225 0.0000
# 3 21.7900 30.9858 73.4613 0.0000 9.2554 0.0000
# 4 0.0000 0.0000 0.0000 17.7179 0.0000 2.8932
# 5 6.5783 -1.3225 9.2554 0.0000 30.1382 0.0000
# 6 0.0000 0.0000 0.0000 2.8932 0.0000 8.6845
#
#
#
# Elastic Compliance Matrix: (Units=1/GPa)
#
#
# Indices 1 2 3 4 5 6 
#
# 1 0.012605 -0.003603 -0.001927 0.000000 -0.002317 0.000000
# 2 -0.003603 0.011356 -0.004040 0.000000 0.002525 0.000000
# 3 -0.001927 -0.004040 0.016496 0.000000 -0.004822 0.000000
# 4 0.000000 0.000000 0.000000 0.059687 0.000000 -0.019884
# 5 -0.002317 0.002525 -0.004822 0.000000 0.035278 0.000000
# 6 0.000000 0.000000 0.000000 -0.019884 0.000000 0.121772
#
#
# Mechanical properties :
#
#
# Convention : Reuss Voigt Hill
#
# Bulk Modulus (GPa) = 46.90888 50.71427 48.81158
# Shear Modulus (GPa) = 17.64049 23.94638 20.79344
#
# Velocity S-wave (km/s) = 2.98634 3.47940 3.24226
# Velocity P-wave (km/s) = 5.96708 6.46378 6.22039
#
# Compressibility (1/GPa) = 0.02131792
#
# Stress axis : x y z
#
# Youngs Moduli (GPa) = 79.33574 88.05587 60.62155
#
# Poissons Ratio (x) = 0.31722 0.11683
# Poissons Ratio (y) = 0.28581 0.24489
# Poissons Ratio (z) = 0.15290 0.35572
#
# Static dielectric constant tensor:
#      x y z
#    x 3.089010 0.000000 0.081270 
#    y 0.000000 3.702560 0.000000 
#    z 0.081270 0.000000 3.627760 
# 
# 
# High freq. dielectric constant tensor:
#      x y z
#    x 1.772690 0.000000 0.001750 
#    y 0.000000 1.770590 0.000000 
#    z 0.001750 0.000000 1.777580 
# 
# From -- ./inp_files/356198.got.cif
#   From: 2010.06.25/outbox.cif.g09.slc.cpg/sg12_179_cif.got.tgz:356198.got - 2010.06.28 00:19:55.
