data_PCOD8098099
_publ_section_title
;
Structure prediction by ZEFSAII (Michael W. Deem and Ramdas Pophale) SiO2 
 PCOD8098099
Probable space group: C 2/M
;
_chemical_formula_sum "Si O2"
_cell_formula_units_Z 48
_cell_length_a 20.226937
_cell_length_b 9.762451
_cell_length_c 25.745593
_cell_angle_alpha 90.000000
_cell_angle_beta 25.702203
_cell_angle_gamma 90.000000
_cell_volume 2204.829607
_symmetry_space_group_name_H-M "C 2/M"
_symmetry_group_IT_number 12
_symmetry_cell_setting 'monoclinic'
loop_
_space_group_symop_operation_xyz
x,y,z
-x,y,-z
-x,-y,-z
x,-y,z
1/2+x,1/2+y,z
1/2-x,1/2+y,-z
1/2-x,1/2-y,-z
1/2+x,1/2-y,z
loop_
_atom_site_type_symbol
_atom_site_label
_atom_site_fract_x
_atom_site_fract_y
_atom_site_fract_z
Si Si1 0.928048 0.853634 0.339983
Si Si2 0.687829 0.160856 0.274373
Si Si3 0.371978 0.155829 0.942123
Si Si4 0.859555 0.224268 0.498981
Si Si5 0.284799 0.151979 0.298255
Si Si6 0.748903 0.338606 0.136894
O O1 0.869136 0.869798 0.441267
O O2 0.799606 0.802936 0.392457
O O3 0.090020 0.775645 0.225666
O O4 0.971052 0.000000 0.287074
O O5 0.505529 0.175985 0.397237
O O6 0.734897 0.227432 0.295451
O O7 0.782968 0.244345 0.162961
O O8 0.730516 0.000000 0.242730
O O9 0.544470 0.184665 0.801369
O O10 0.323261 0.000000 0.964825
O O11 0.250000 0.250000 0.000000
O O12 0.373452 0.181783 0.003719
O O13 0.838382 0.142341 0.567569
O O14 0.284031 0.000000 0.272354
O O15 0.736170 0.500000 0.162847
#
# Coordination Sequence:
#
# PCOD8098099 Si02
#       6
#     8   8   8   8   8   8
#     4   9  17  31  54  82 110 145 185 228 282 338
#     4  11  24  39  58  85 116 153 197 246 295 339
#     4  10  22  40  63  91 119 151 191 238 291 345
#     4  10  20  34  55  83 116 151 189 235 285 342
#     4  11  24  40  59  84 117 157 197 235 284 351
#     4   9  19  38  61  84 115 153 193 236 287 349
#
# _framework density 21.770391
#
# number of rings (size 3 to 8) (size 9 to 14) (size 15 to 20)
#    0.000    2.000    0.000    3.000    0.000    6.667 
#    0.000    7.500    0.000    0.000    0.000    0.000 
#    0.000    0.000    0.000    0.000    0.000    0.000 
#
# Total GULP energy -297315.085341 kJ/mol
# GULP energy per Si atom -12388.128556 kJ/mol
# Density = 2.172084 g / cm^3
# Si number density = 21.770391 Si / 1000 Ang^3
#
#
#
# Elastic Constant Matrix: (Units=GPa)
#
#
# Indices 1 2 3 4 5 6 
#
# 1 65.2718 39.3320 4.3130 0.0017 1.4910 -0.0011
# 2 39.3320 120.4173 18.8218 0.0096 3.5171 0.0049
# 3 4.3130 18.8218 72.8149 0.0123 17.9190 0.0068
# 4 0.0017 0.0096 0.0123 25.4367 0.0012 -2.0089
# 5 1.4910 3.5171 17.9190 0.0012 27.6178 -0.0002
# 6 -0.0011 0.0049 0.0068 -2.0089 -0.0002 24.0211
#
#
#
# Elastic Compliance Matrix: (Units=1/GPa)
#
#
# Indices 1 2 3 4 5 6 
#
# 1 0.019103 -0.006324 0.000665 0.000001 -0.000657 0.000002
# 2 -0.006324 0.010752 -0.002561 -0.000003 0.000634 -0.000002
# 3 0.000665 -0.002561 0.016999 -0.000007 -0.010739 -0.000005
# 4 0.000001 -0.000003 -0.000007 0.039575 0.000003 0.003310
# 5 -0.000657 0.000634 -0.010739 0.000003 0.043131 0.000003
# 6 0.000002 -0.000002 -0.000005 0.003310 0.000003 0.041907
#
#
# Mechanical properties :
#
#
# Convention : Reuss Voigt Hill
#
# Bulk Modulus (GPa) = 32.88007 42.60420 37.74214
# Shear Modulus (GPa) = 25.24706 28.48426 26.86566
#
# Velocity S-wave (km/s) = 3.40913 3.62110 3.51671
# Velocity P-wave (km/s) = 5.53463 6.09060 5.81926
#
# Compressibility (1/GPa) = 0.03041356
#
# Stress axis : x y z
#
# Youngs Moduli (GPa) = 52.34912 93.00713 58.82814
#
# Poissons Ratio (x) = 0.58820 -0.03912
# Poissons Ratio (y) = 0.33107 0.15063
# Poissons Ratio (z) = -0.03481 0.23815
#
# Static dielectric constant tensor:
#      x y z
#    x 3.770630 0.000000 0.057240 
#    y 0.000000 3.682910 0.000010 
#    z 0.057240 0.000010 4.059290 
# 
# 
# High freq. dielectric constant tensor:
#      x y z
#    x 1.847140 0.000000 0.002820 
#    y 0.000000 1.833330 0.000000 
#    z 0.002820 0.000000 1.864740 
# 
# From -- ./inp_files/365375.got.cif
#   From: 2010.06.25/outbox.cif.g09.slc.cpg/sg12_183_cif.got.tgz:365375.got - 2010.06.28 00:19:55.
