data_PCOD8098290
_publ_section_title
;
Structure prediction by ZEFSAII (Michael W. Deem and Ramdas Pophale) SiO2 
 PCOD8098290
Probable space group: C 2/M
;
_chemical_formula_sum "Si O2"
_cell_formula_units_Z 56
_cell_length_a 32.966999
_cell_length_b 9.157215
_cell_length_c 11.002035
_cell_angle_alpha 90.000000
_cell_angle_beta 120.162545
_cell_angle_gamma 90.000000
_cell_volume 2871.658628
_symmetry_space_group_name_H-M "C 2/M"
_symmetry_group_IT_number 12
_symmetry_cell_setting 'monoclinic'
loop_
_space_group_symop_operation_xyz
x,y,z
-x,y,-z
-x,-y,-z
x,-y,z
1/2+x,1/2+y,z
1/2-x,1/2+y,-z
1/2-x,1/2-y,-z
1/2+x,1/2-y,z
loop_
_atom_site_type_symbol
_atom_site_label
_atom_site_fract_x
_atom_site_fract_y
_atom_site_fract_z
Si Si1 0.661106 0.168937 0.387026
Si Si2 0.124629 0.829528 0.687699
Si Si3 0.507338 0.169395 0.873769
Si Si4 0.710218 0.829795 0.711380
Si Si5 0.923762 0.829785 0.636737
Si Si6 0.696379 0.830093 0.179402
Si Si7 0.896387 0.332048 0.108373
O O1 0.695722 0.201488 0.550708
O O2 0.613648 0.261008 0.326832
O O3 0.687741 0.217133 0.305525
O O4 0.646133 0.000000 0.358338
O O5 0.173994 0.746683 0.748041
O O6 0.091038 0.796191 0.523510
O O7 0.098162 0.769787 0.766039
O O8 0.135081 0.000000 0.716806
O O9 0.474355 0.259084 0.733217
O O10 0.560832 0.199699 0.917816
O O11 0.493896 0.000000 0.842076
O O12 0.500000 0.225018 0.000000
O O13 0.761287 0.763451 0.811576
O O14 0.710997 0.000000 0.743781
O O15 0.926448 0.000000 0.667965
O O16 0.709565 0.000000 0.191223
O O17 0.650766 0.791495 0.033283
O O18 0.896334 0.500000 0.150724
#
# Coordination Sequence:
#
# PCOD8098290 Si02
#       7
#     8   8   8   8   8   8   8
#     4   9  18  34  56  82 113 147 182 223 272 329
#     4  10  22  40  58  78 109 147 185 227 275 322
#     4  10  21  39  62  86 113 145 179 217 269 330
#     4  10  20  34  56  84 111 143 185 228 271 326
#     4  10  21  36  57  84 112 144 182 227 276 322
#     4  10  20  35  55  80 112 147 182 225 278 327
#     4  10  22  38  57  81 108 143 187 228 266 321
#
# _framework density 19.500926
#
# number of rings (size 3 to 8) (size 9 to 14) (size 15 to 20)
#    0.000    2.143    0.000    2.571    0.000    7.714 
#    0.000    4.286    0.000    0.000    0.000    0.000 
#    0.000    0.000    0.000    0.000    0.000    0.000 
#
# Total GULP energy -347373.006147 kJ/mol
# GULP energy per Si atom -12406.178791 kJ/mol
# Density = 1.945654 g / cm^3
# Si number density = 19.500926 Si / 1000 Ang^3
#
#
#
# Elastic Constant Matrix: (Units=GPa)
#
#
# Indices 1 2 3 4 5 6 
#
# 1 114.4565 57.6680 63.0693 0.0000 2.4916 0.0000
# 2 57.6680 87.8557 51.7258 0.0000 6.2566 0.0000
# 3 63.0693 51.7258 79.5088 0.0000 9.0623 0.0000
# 4 0.0000 0.0000 0.0000 29.7785 0.0000 5.3434
# 5 2.4916 6.2566 9.0623 0.0000 37.4855 0.0000
# 6 0.0000 0.0000 0.0000 5.3434 0.0000 35.2474
#
#
#
# Elastic Compliance Matrix: (Units=1/GPa)
#
#
# Indices 1 2 3 4 5 6 
#
# 1 0.017040 -0.005245 -0.010360 0.000000 0.002247 0.000000
# 2 -0.005245 0.020064 -0.008793 0.000000 -0.000875 0.000000
# 3 -0.010360 -0.008793 0.027014 0.000000 -0.004375 0.000000
# 4 0.000000 0.000000 0.000000 0.034520 0.000000 -0.005233
# 5 0.002247 -0.000875 -0.004375 0.000000 0.027731 0.000000
# 6 0.000000 0.000000 0.000000 -0.005233 0.000000 0.029164
#
#
# Mechanical properties :
#
#
# Convention : Reuss Voigt Hill
#
# Bulk Modulus (GPa) = 65.26697 69.63860 67.45278
# Shear Modulus (GPa) = 23.87342 27.79280 25.83311
#
# Velocity S-wave (km/s) = 3.50268 3.77928 3.64361
# Velocity P-wave (km/s) = 7.06397 7.40486 7.23642
#
# Compressibility (1/GPa) = 0.01532169
#
# Stress axis : x y z
#
# Youngs Moduli (GPa) = 58.68693 49.83974 37.01718
#
# Poissons Ratio (x) = 0.26141 0.38351
# Poissons Ratio (y) = 0.30781 0.32549
# Poissons Ratio (z) = 0.60802 0.43824
#
# Static dielectric constant tensor:
#      x y z
#    x 3.506040 0.000000 -0.024580 
#    y 0.000000 3.506310 0.000000 
#    z -0.024580 0.000000 3.532570 
# 
# 
# High freq. dielectric constant tensor:
#      x y z
#    x 1.762290 0.000000 0.001360 
#    y 0.000000 1.757440 0.000000 
#    z 0.001360 0.000000 1.759170 
# 
# From -- ./inp_files/180620.got.cif
#   From: 2010.06.25/outbox.cif.g09.slc.cpg/sg12_91_cif.got.tgz:180620.got - 2010.06.28 00:19:55.
