data_PCOD8098141
_publ_section_title
;
Structure prediction by ZEFSAII (Michael W. Deem and Ramdas Pophale) SiO2 
 PCOD8098141
Probable space group: C 2/M
;
_chemical_formula_sum "Si O2"
_cell_formula_units_Z 40
_cell_length_a 9.110798
_cell_length_b 25.808024
_cell_length_c 12.146820
_cell_angle_alpha 90.000000
_cell_angle_beta 139.617702
_cell_angle_gamma 90.000000
_cell_volume 1850.424695
_symmetry_space_group_name_H-M "C 2/M"
_symmetry_group_IT_number 12
_symmetry_cell_setting 'monoclinic'
loop_
_space_group_symop_operation_xyz
x,y,z
-x,y,-z
-x,-y,-z
x,-y,z
1/2+x,1/2+y,z
1/2-x,1/2+y,-z
1/2-x,1/2-y,-z
1/2+x,1/2-y,z
loop_
_atom_site_type_symbol
_atom_site_label
_atom_site_fract_x
_atom_site_fract_y
_atom_site_fract_z
Si Si1 0.732899 0.440274 0.569473
Si Si2 0.877513 0.802511 0.046740
Si Si3 0.445266 0.554507 0.843144
Si Si4 0.743568 0.859225 0.617551
Si Si5 0.895223 0.398493 0.056891
O O1 0.500000 0.434492 0.500000
O O2 0.758798 0.500000 0.539027
O O3 0.730441 0.394254 0.477019
O O4 0.936203 0.430300 0.769966
O O5 0.057547 0.816624 0.248653
O O6 0.750000 0.750000 0.000000
O O7 0.684204 0.846083 0.927524
O O8 0.000000 0.797685 0.000000
O O9 0.349235 0.500000 0.743753
O O10 0.258037 0.598758 0.724382
O O11 0.500000 0.550432 0.000000
O O12 0.673108 0.567033 0.904926
O O13 0.500000 0.832093 0.500000
O O14 0.000000 0.383495 0.000000
#
# Coordination Sequence:
#
# PCOD8098141 Si02
#       5
#     8   8   8   8   8
#     4  11  23  37  57  91 132 170 210 257 307 359
#     4  11  24  45  69  92 119 158 208 258 316 380
#     4  10  20  34  55  84 120 167 214 251 297 362
#     4  11  22  39  61  89 124 160 199 255 312 365
#     4  11  22  39  62  88 125 171 216 260 308 368
#
# _framework density 21.616658999999999
#
# number of rings (size 3 to 8) (size 9 to 14) (size 15 to 20)
#    0.000    1.200    0.000    9.000    0.000    6.400 
#    0.000    5.000    0.000    0.000    0.000    0.000 
#    0.000    0.000    0.000    0.000    0.000    0.000 
#
# Total GULP energy -247772.966246 kJ/mol
# GULP energy per Si atom -12388.648312 kJ/mol
# Density = 2.156746 g / cm^3
# Si number density = 21.616659 Si / 1000 Ang^3
#
#
#
# Elastic Constant Matrix: (Units=GPa)
#
#
# Indices 1 2 3 4 5 6 
#
# 1 127.3266 40.7347 28.6882 0.0000 -2.8307 0.0000
# 2 40.7347 114.3318 35.1601 0.0000 0.6472 0.0000
# 3 28.6882 35.1601 97.2721 0.0000 6.1065 0.0000
# 4 0.0000 0.0000 0.0000 5.6414 0.0000 -17.0133
# 5 -2.8307 0.6472 6.1065 0.0000 35.3641 0.0000
# 6 0.0000 0.0000 0.0000 -17.0133 0.0000 20.9903
#
#
#
# Elastic Compliance Matrix: (Units=1/GPa)
#
#
# Indices 1 2 3 4 5 6 
#
# 1 0.009149 -0.002717 -0.001785 0.000000 0.001090 0.000000
# 2 -0.002717 0.010654 -0.003057 0.000000 0.000115 0.000000
# 3 -0.001785 -0.003057 0.012048 0.000000 -0.002167 0.000000
# 4 0.000000 0.000000 0.000000 -0.122723 0.000000 -0.099471
# 5 0.001090 0.000115 -0.002167 0.000000 0.028737 0.000000
# 6 0.000000 0.000000 0.000000 -0.099471 0.000000 -0.032983
#
#
# Mechanical properties :
#
#
# Convention : Reuss Voigt Hill
#
# Bulk Modulus (GPa) = 59.75954 60.89963 60.32958
# Shear Modulus (GPa) = -67.18402 28.02231 -19.58085
#
# Velocity S-wave (km/s) = -5.58097 3.60436 -3.01295
# Velocity P-wave (km/s) = 3.71813 6.74949 3.98316
#
# Compressibility (1/GPa) = 0.01673373
#
# Stress axis : x y z
#
# Youngs Moduli (GPa) = 109.29612 93.86175 83.00269
#
# Poissons Ratio (x) = 0.25503 0.14814
# Poissons Ratio (y) = 0.29697 0.25373
# Poissons Ratio (z) = 0.19506 0.28692
#
# Static dielectric constant tensor:
#      x y z
#    x 1.615470 0.000000 -1.984260 
#    y 0.000000 4.195990 0.000000 
#    z -1.984260 0.000000 2.482930 
# 
# 
# High freq. dielectric constant tensor:
#      x y z
#    x 1.856950 0.000000 0.007390 
#    y 0.000000 1.837110 0.000000 
#    z 0.007390 0.000000 1.856980 
# 
# From -- ./inp_files/125483.got.cif
#   From: 2010.06.25/outbox.cif.g09.slc.cpg/sg12_63_cif.got.tgz:125483.got - 2010.06.28 00:19:55.
