data_PCOD8098961
_publ_section_title
;
Structure prediction by ZEFSAII (Michael W. Deem and Ramdas Pophale) SiO2 
 PCOD8098961
Probable space group: C 2/M
;
_chemical_formula_sum "Si O2"
_cell_formula_units_Z 64
_cell_length_a 27.052812
_cell_length_b 12.608599
_cell_length_c 15.344950
_cell_angle_alpha 90.000000
_cell_angle_beta 138.966098
_cell_angle_gamma 90.000000
_cell_volume 3436.236752
_symmetry_space_group_name_H-M "C 2/M"
_symmetry_group_IT_number 12
_symmetry_cell_setting 'monoclinic'
loop_
_space_group_symop_operation_xyz
x,y,z
-x,y,-z
-x,-y,-z
x,-y,z
1/2+x,1/2+y,z
1/2-x,1/2+y,-z
1/2-x,1/2-y,-z
1/2+x,1/2-y,z
loop_
_atom_site_type_symbol
_atom_site_label
_atom_site_fract_x
_atom_site_fract_y
_atom_site_fract_z
Si Si1 0.822227 0.123242 0.271288
Si Si2 0.931602 0.260053 0.091610
Si Si3 0.036239 0.780021 0.459601
Si Si4 0.545913 0.378102 0.149371
Si Si5 0.823592 0.624505 0.825627
Si Si6 0.940935 0.377833 0.657529
Si Si7 0.828622 0.718447 0.647581
Si Si8 0.108652 0.124523 0.813604
O O1 0.893851 0.145407 0.426092
O O2 0.747768 0.171698 0.216314
O O3 0.834958 0.161957 0.188652
O O4 0.809634 0.000000 0.252145
O O5 0.873203 0.199779 0.078961
O O6 0.994413 0.171611 0.155565
O O7 0.974491 0.357745 0.194711
O O8 0.893377 0.307028 0.954544
O O9 0.068587 0.683869 0.445766
O O10 0.000000 0.733053 0.500000
O O11 0.977225 0.853213 0.329475
O O12 0.561217 0.500000 0.191135
O O13 0.627253 0.321511 0.257363
O O14 0.500000 0.362492 0.000000
O O15 0.837501 0.500000 0.860822
O O16 0.813165 0.642096 0.709056
O O17 0.930211 0.500000 0.621886
O O18 0.878175 0.343905 0.643528
O O19 0.750000 0.750000 0.500000
O O20 0.118359 0.000000 0.848909
#
# Coordination Sequence:
#
# PCOD8098961 Si02
#       8
#     8   8   8   8   8   8   8   8
#     4   9  18  32  52  79 107 138 176 220 272 328
#     4  10  20  35  54  79 104 140 182 224 268 323
#     4   9  17  32  54  79 107 138 174 219 273 328
#     4  10  20  37  59  83 109 141 181 225 276 331
#     4  11  22  36  54  75 106 146 184 221 268 325
#     4  10  21  35  53  77 106 140 182 224 265 319
#     4  11  23  39  58  83 112 142 183 230 280 330
#     4   9  17  31  54  81 107 135 173 223 274 323
#
# _framework density 18.625026999999999
#
# number of rings (size 3 to 8) (size 9 to 14) (size 15 to 20)
#    0.000    2.125    1.250    2.250    0.000    3.250 
#    0.000    5.000    0.000    0.750    0.000    0.000 
#    0.000    0.000    0.000    0.000    0.000    0.000 
#
# Total GULP energy -396704.095486 kJ/mol
# GULP energy per Si atom -12397.002984 kJ/mol
# Density = 1.858264 g / cm^3
# Si number density = 18.625027 Si / 1000 Ang^3
#
#
#
# Elastic Constant Matrix: (Units=GPa)
#
#
# Indices 1 2 3 4 5 6 
#
# 1 115.0502 35.4775 24.4671 0.0000 -6.0852 0.0000
# 2 35.4775 65.1173 16.8457 0.0000 -0.8213 0.0000
# 3 24.4671 16.8457 71.9171 0.0000 -4.5227 0.0000
# 4 0.0000 0.0000 0.0000 22.3464 0.0000 -5.3119
# 5 -6.0852 -0.8213 -4.5227 0.0000 29.4649 0.0000
# 6 0.0000 0.0000 0.0000 -5.3119 0.0000 27.5560
#
#
#
# Elastic Compliance Matrix: (Units=1/GPa)
#
#
# Indices 1 2 3 4 5 6 
#
# 1 0.010927 -0.005320 -0.002361 0.000000 0.001746 0.000000
# 2 -0.005320 0.018938 -0.002688 0.000000 -0.000983 0.000000
# 3 -0.002361 -0.002688 0.015452 0.000000 0.001809 0.000000
# 4 0.000000 0.000000 0.000000 0.046899 0.000000 0.009041
# 5 0.001746 -0.000983 0.001809 0.000000 0.034550 0.000000
# 6 0.000000 0.000000 0.000000 0.009041 0.000000 0.038032
#
#
# Mechanical properties :
#
#
# Convention : Reuss Voigt Hill
#
# Bulk Modulus (GPa) = 40.68728 45.07391 42.88059
# Shear Modulus (GPa) = 25.80907 27.55975 26.68441
#
# Velocity S-wave (km/s) = 3.72656 3.85088 3.78923
# Velocity P-wave (km/s) = 6.35683 6.63518 6.49750
#
# Compressibility (1/GPa) = 0.02457771
#
# Stress axis : x y z
#
# Youngs Moduli (GPa) = 91.51621 52.80250 64.71787
#
# Poissons Ratio (x) = 0.28093 0.15283
# Poissons Ratio (y) = 0.48690 0.17395
# Poissons Ratio (z) = 0.21611 0.14193
#
# Static dielectric constant tensor:
#      x y z
#    x 3.810300 0.000000 -0.071050 
#    y 0.000000 3.256550 0.000000 
#    z -0.071050 0.000000 3.291590 
# 
# 
# High freq. dielectric constant tensor:
#      x y z
#    x 1.737110 0.000000 -0.009340 
#    y 0.000000 1.711100 0.000000 
#    z -0.009340 0.000000 1.711850 
# 
# From -- ./inp_files/245980.got.cif
#   From: 2010.06.25/outbox.cif.g09.slc.cpg/sg12_123_cif.got.tgz:245980.got - 2010.06.28 00:19:55.
