data_PCOD8098228
_publ_section_title
;
Structure prediction by ZEFSAII (Michael W. Deem and Ramdas Pophale) SiO2 
 PCOD8098228
Probable space group: C 2/M
;
_chemical_formula_sum "Si O2"
_cell_formula_units_Z 44
_cell_length_a 20.935335
_cell_length_b 14.076960
_cell_length_c 23.733115
_cell_angle_alpha 90.000000
_cell_angle_beta 18.843634
_cell_angle_gamma 90.000000
_cell_volume 2259.060928
_symmetry_space_group_name_H-M "C 2/M"
_symmetry_group_IT_number 12
_symmetry_cell_setting 'monoclinic'
loop_
_space_group_symop_operation_xyz
x,y,z
-x,y,-z
-x,-y,-z
x,-y,z
1/2+x,1/2+y,z
1/2-x,1/2+y,-z
1/2-x,1/2-y,-z
1/2+x,1/2-y,z
loop_
_atom_site_type_symbol
_atom_site_label
_atom_site_fract_x
_atom_site_fract_y
_atom_site_fract_z
Si Si1 0.276841 0.257096 0.357229
Si Si2 0.060972 0.892895 0.180787
Si Si3 0.000000 0.332722 0.500000
Si Si4 0.541962 0.234363 0.285951
Si Si5 0.776292 0.106861 0.170205
Si Si6 0.495827 0.105634 0.781357
O O1 0.390897 0.352402 0.281726
O O2 0.423352 0.166392 0.232791
O O3 0.172520 0.269557 0.384209
O O4 0.112493 0.230041 0.539831
O O5 0.106285 0.827064 0.197080
O O6 0.003407 0.000000 0.247788
O O7 0.259564 0.895077 0.978478
O O8 0.883329 0.392359 0.645071
O O9 0.724156 0.183031 0.165439
O O10 0.436716 0.158191 0.332308
O O11 0.767984 0.000000 0.152223
O O12 0.000000 0.132212 0.000000
O O13 0.584999 0.000000 0.709072
#
# Coordination Sequence:
#
# PCOD8098228 Si02
#       6
#     8   8   4   8   8   8
#     4  10  21  36  55  80 110 146 180 225 277 322
#     4  10  21  34  56  83 108 142 182 225 278 324
#     4  10  23  38  55  82 116 152 183 224 273 332
#     4  10  20  35  54  81 110 140 182 226 275 327
#     4  10  22  36  56  83 112 151 185 221 274 331
#     4  10  20  34  56  82 108 142 182 228 274 326
#
# _framework density 19.477118999999998
#
# number of rings (size 3 to 8) (size 9 to 14) (size 15 to 20)
#    0.000    2.000    0.000    5.182    5.091    6.545 
#    0.000    0.455    0.000    1.636    0.000    0.000 
#    0.000    0.000    0.000    0.000    0.000    0.000 
#
# Total GULP energy -272693.035426 kJ/mol
# GULP energy per Si atom -12395.137974 kJ/mol
# Density = 1.943279 g / cm^3
# Si number density = 19.477119 Si / 1000 Ang^3
#
#
#
# Elastic Constant Matrix: (Units=GPa)
#
#
# Indices 1 2 3 4 5 6 
#
# 1 109.3671 57.4637 15.1987 -0.0171 -23.5625 0.0068
# 2 57.4637 153.2379 10.6381 -0.0229 -15.8042 0.0028
# 3 15.1987 10.6381 37.8831 -0.0787 -15.9897 0.0032
# 4 -0.0171 -0.0229 -0.0787 17.1595 0.0195 6.3810
# 5 -23.5625 -15.8042 -15.9897 0.0195 33.4661 -0.0153
# 6 0.0068 0.0028 0.0032 6.3810 -0.0153 7.8633
#
#
#
# Elastic Compliance Matrix: (Units=1/GPa)
#
#
# Indices 1 2 3 4 5 6 
#
# 1 0.012860 -0.004061 -0.001261 -0.000010 0.006534 0.000012
# 2 -0.004061 0.008157 -0.000303 0.000005 0.000848 -0.000002
# 3 -0.001261 -0.000303 0.033261 0.000183 0.014860 -0.000132
# 4 -0.000010 0.000005 0.000183 0.083464 0.000003 -0.067730
# 5 0.006534 0.000848 0.014860 0.000003 0.041982 0.000067
# 6 0.000012 -0.000002 -0.000132 -0.067730 0.000067 0.182135
#
#
# Mechanical properties :
#
#
# Convention : Reuss Voigt Hill
#
# Bulk Modulus (GPa) = 23.24136 51.89878 37.57007
# Shear Modulus (GPa) = 12.90479 26.17696 19.54088
#
# Velocity S-wave (km/s) = 2.57682 3.67002 3.17089
# Velocity P-wave (km/s) = 4.56200 6.68301 5.72165
#
# Compressibility (1/GPa) = 0.04302674
#
# Stress axis : x y z
#
# Youngs Moduli (GPa) = 77.75849 122.59073 30.06544
#
# Poissons Ratio (x) = 0.49786 0.03792
# Poissons Ratio (y) = 0.31579 0.00912
# Poissons Ratio (z) = 0.09807 0.03720
#
# Static dielectric constant tensor:
#      x y z
#    x 3.576180 -0.000010 -0.146470 
#    y -0.000010 3.633480 0.000100 
#    z -0.146470 0.000100 3.617160 
# 
# 
# High freq. dielectric constant tensor:
#      x y z
#    x 1.742760 0.000000 -0.005550 
#    y 0.000000 1.749410 0.000010 
#    z -0.005550 0.000010 1.769520 
# 
# From -- ./inp_files/347357.got.cif
#   From: 2010.06.25/outbox.cif.g09.slc.cpg/sg12_174_cif.got.tgz:347357.got - 2010.06.28 00:19:55.
