data_PCOD8098327
_publ_section_title
;
Structure prediction by ZEFSAII (Michael W. Deem and Ramdas Pophale) SiO2 
 PCOD8098327
Probable space group: C 2/M
;
_chemical_formula_sum "Si O2"
_cell_formula_units_Z 48
_cell_length_a 14.873930
_cell_length_b 9.355762
_cell_length_c 19.272669
_cell_angle_alpha 90.000000
_cell_angle_beta 79.334258
_cell_angle_gamma 90.000000
_cell_volume 2635.591886
_symmetry_space_group_name_H-M "C 2/M"
_symmetry_group_IT_number 12
_symmetry_cell_setting 'monoclinic'
loop_
_space_group_symop_operation_xyz
x,y,z
-x,y,-z
-x,-y,-z
x,-y,z
1/2+x,1/2+y,z
1/2-x,1/2+y,-z
1/2-x,1/2-y,-z
1/2+x,1/2-y,z
loop_
_atom_site_type_symbol
_atom_site_label
_atom_site_fract_x
_atom_site_fract_y
_atom_site_fract_z
Si Si1 0.572881 0.333352 0.670432
Si Si2 0.474483 0.333996 0.167665
Si Si3 0.658624 0.335780 0.937394
Si Si4 0.244713 0.664698 0.430318
Si Si5 0.042327 0.334127 0.421643
Si Si6 0.868136 0.666837 0.923350
O O1 0.555844 0.500000 0.660847
O O2 0.563081 0.290965 0.751866
O O3 0.674393 0.287590 0.632517
O O4 0.498036 0.250364 0.636956
O O5 0.502166 0.500000 0.159666
O O6 0.393660 0.297603 0.125576
O O7 0.563808 0.239790 0.140628
O O8 0.642735 0.500000 0.961884
O O9 0.765751 0.305058 0.910309
O O10 0.617500 0.236898 0.003402
O O11 0.252823 0.500000 0.450018
O O12 0.250000 0.750000 0.500000
O O13 0.150256 0.695320 0.404558
O O14 0.017864 0.500000 0.415891
O O15 0.000000 0.277184 0.500000
O O16 0.890572 0.500000 0.925924
#
# Coordination Sequence:
#
# PCOD8098327 Si02
#       6
#     8   8   8   8   8   8
#     4  10  22  37  54  79 107 142 183 223 265 320
#     4  10  21  37  54  75 109 147 183 218 266 324
#     4   9  19  36  57  79 108 147 182 217 265 322
#     4  10  20  35  56  79 105 137 175 219 267 320
#     4  10  20  35  56  81 107 136 172 220 275 324
#     4  10  20  34  56  85 110 139 182 226 267 312
#
# _framework density 18.212228
#
# number of rings (size 3 to 8) (size 9 to 14) (size 15 to 20)
#    0.000    2.167    1.667    1.000    0.000    6.333 
#    0.000    3.333    0.000    0.000    0.000    0.000 
#    0.000    0.000    0.000    0.000    0.000    0.000 
#
# Total GULP energy -297701.275092 kJ/mol
# GULP energy per Si atom -12404.219796 kJ/mol
# Density = 1.817078 g / cm^3
# Si number density = 18.212228 Si / 1000 Ang^3
#
#
#
# Elastic Constant Matrix: (Units=GPa)
#
#
# Indices 1 2 3 4 5 6 
#
# 1 112.1102 52.3559 75.8927 0.0000 -8.1693 0.0000
# 2 52.3559 67.5874 64.0275 0.0000 -6.1193 0.0000
# 3 75.8927 64.0275 150.0808 0.0000 -10.2137 0.0000
# 4 0.0000 0.0000 0.0000 30.2859 0.0000 0.0736
# 5 -8.1693 -6.1193 -10.2137 0.0000 30.2666 0.0000
# 6 0.0000 0.0000 0.0000 0.0736 0.0000 32.0330
#
#
#
# Elastic Compliance Matrix: (Units=1/GPa)
#
#
# Indices 1 2 3 4 5 6 
#
# 1 0.015707 -0.007742 -0.004562 0.000000 0.001134 0.000000
# 2 -0.007742 0.028712 -0.008271 0.000000 0.000924 0.000000
# 3 -0.004562 -0.008271 0.012590 0.000000 0.001345 0.000000
# 4 0.000000 0.000000 0.000000 0.033019 0.000000 -0.000076
# 5 0.001134 0.000924 0.001345 0.000000 0.033987 0.000000
# 6 0.000000 0.000000 0.000000 -0.000076 0.000000 0.031218
#
#
# Mechanical properties :
#
#
# Convention : Reuss Voigt Hill
#
# Bulk Modulus (GPa) = 63.06088 79.37006 71.21547
# Shear Modulus (GPa) = 24.79295 27.68392 26.23844
#
# Velocity S-wave (km/s) = 3.69363 3.90304 3.79978
# Velocity P-wave (km/s) = 7.27264 7.99918 7.64455
#
# Compressibility (1/GPa) = 0.01585769
#
# Stress axis : x y z
#
# Youngs Moduli (GPa) = 63.66780 34.82816 79.42580
#
# Poissons Ratio (x) = 0.26965 0.36236
# Poissons Ratio (y) = 0.49293 0.65696
# Poissons Ratio (z) = 0.29047 0.28807
#
# Static dielectric constant tensor:
#      x y z
#    x 3.506220 0.000000 -0.127360 
#    y 0.000000 3.359900 0.000000 
#    z -0.127360 0.000000 3.354620 
# 
# 
# High freq. dielectric constant tensor:
#      x y z
#    x 1.717190 0.000000 -0.005850 
#    y 0.000000 1.703180 0.000000 
#    z -0.005850 0.000000 1.701910 
# 
# From -- ./inp_files/308302.got.cif
#   From: 2010.06.25/outbox.cif.g09.slc.cpg/sg12_155_cif.got.tgz:308302.got - 2010.06.28 00:19:55.
