data_PCOD8098805
_publ_section_title
;
Structure prediction by ZEFSAII (Michael W. Deem and Ramdas Pophale) SiO2 
 PCOD8098805
Probable space group: C 2/M
;
_chemical_formula_sum "Si O2"
_cell_formula_units_Z 56
_cell_length_a 24.669506
_cell_length_b 9.220724
_cell_length_c 13.997701
_cell_angle_alpha 90.000000
_cell_angle_beta 75.507543
_cell_angle_gamma 90.000000
_cell_volume 3082.751813
_symmetry_space_group_name_H-M "C 2/M"
_symmetry_group_IT_number 12
_symmetry_cell_setting 'monoclinic'
loop_
_space_group_symop_operation_xyz
x,y,z
-x,y,-z
-x,-y,-z
x,-y,z
1/2+x,1/2+y,z
1/2-x,1/2+y,-z
1/2-x,1/2-y,-z
1/2+x,1/2-y,z
loop_
_atom_site_type_symbol
_atom_site_label
_atom_site_fract_x
_atom_site_fract_y
_atom_site_fract_z
Si Si1 0.086185 0.666209 0.994617
Si Si2 0.690436 0.830465 0.423948
Si Si3 0.373594 0.171732 0.737099
Si Si4 0.317744 0.669598 0.381072
Si Si5 0.084886 0.165833 0.801469
Si Si6 0.037547 0.833299 0.193294
Si Si7 0.803399 0.337194 0.946816
O O1 0.065097 0.500000 0.005791
O O2 0.076208 0.732611 0.895811
O O3 0.051402 0.756004 0.087343
O O4 0.151967 0.673891 0.987889
O O5 0.651672 0.781429 0.353093
O O6 0.668026 0.748666 0.526500
O O7 0.755170 0.790186 0.373302
O O8 0.684583 0.000000 0.445727
O O9 0.432104 0.253954 0.730901
O O10 0.330005 0.223703 0.837332
O O11 0.384389 0.000000 0.740089
O O12 0.324334 0.500000 0.397225
O O13 0.361958 0.722294 0.282334
O O14 0.029212 0.176453 0.760781
O O15 0.094613 0.000000 0.831027
O O16 0.057493 0.000000 0.179374
O O17 0.783294 0.500000 0.937792
O O18 0.750000 0.250000 0.000000
#
# Coordination Sequence:
#
# PCOD8098805 Si02
#       7
#     8   8   8   8   8   8   8
#     4  10  21  35  51  75 106 141 176 212 257 306
#     4   9  18  35  57  78 103 134 170 212 261 315
#     4   9  19  35  54  75 102 138 174 210 259 311
#     4   9  19  35  55  79 105 133 167 215 265 308
#     4  10  21  35  54  78 105 137 176 216 260 308
#     4  10  20  35  53  77 105 138 178 215 253 308
#     4   9  19  32  47  72 104 134 169 208 249 303
#
# _framework density 18.165588
#
# number of rings (size 3 to 8) (size 9 to 14) (size 15 to 20)
#    0.000    2.571    0.000    2.143    2.000    6.857 
#    0.000    0.714    0.000    4.286    0.000    0.000 
#    0.000    0.000    0.000    0.000    0.000    0.000 
#
# Total GULP energy -347209.067071 kJ/mol
# GULP energy per Si atom -12400.323824 kJ/mol
# Density = 1.812424 g / cm^3
# Si number density = 18.165588 Si / 1000 Ang^3
#
#
#
# Elastic Constant Matrix: (Units=GPa)
#
#
# Indices 1 2 3 4 5 6 
#
# 1 88.0313 38.3606 49.4777 0.0000 10.5068 0.0000
# 2 38.3606 68.4116 34.5012 0.0000 7.8511 0.0000
# 3 49.4777 34.5012 79.2081 0.0000 20.2115 0.0000
# 4 0.0000 0.0000 0.0000 29.9645 0.0000 3.7380
# 5 10.5068 7.8511 20.2115 0.0000 30.7747 0.0000
# 6 0.0000 0.0000 0.0000 3.7380 0.0000 30.3639
#
#
#
# Elastic Compliance Matrix: (Units=1/GPa)
#
#
# Indices 1 2 3 4 5 6 
#
# 1 0.019341 -0.006066 -0.009790 0.000000 0.001374 0.000000
# 2 -0.006066 0.020647 -0.005272 0.000000 0.000266 0.000000
# 3 -0.009790 -0.005272 0.023835 0.000000 -0.010966 0.000000
# 4 0.000000 0.000000 0.000000 0.033893 0.000000 -0.004172
# 5 0.001374 0.000266 -0.010966 0.000000 0.039160 0.000000
# 6 0.000000 0.000000 0.000000 -0.004172 0.000000 0.033447
#
#
# Mechanical properties :
#
#
# Convention : Reuss Voigt Hill
#
# Bulk Modulus (GPa) = 46.36650 53.37001 49.86826
# Shear Modulus (GPa) = 22.75113 25.77473 24.26293
#
# Velocity S-wave (km/s) = 3.54281 3.77088 3.65862
# Velocity P-wave (km/s) = 6.50501 6.95722 6.73491
#
# Compressibility (1/GPa) = 0.02156729
#
# Stress axis : x y z
#
# Youngs Moduli (GPa) = 51.70284 48.43322 41.95466
#
# Poissons Ratio (x) = 0.29378 0.41074
# Poissons Ratio (y) = 0.31361 0.22120
# Poissons Ratio (z) = 0.50618 0.25536
#
# Static dielectric constant tensor:
#      x y z
#    x 3.498280 0.000000 0.086580 
#    y 0.000000 3.385040 0.000000 
#    z 0.086580 0.000000 3.252830 
# 
# 
# High freq. dielectric constant tensor:
#      x y z
#    x 1.710950 0.000000 0.005210 
#    y 0.000000 1.704540 0.000000 
#    z 0.005210 0.000000 1.685210 
# 
# From -- ./inp_files/180654.got.cif
#   From: 2010.06.25/outbox.cif.g09.slc.cpg/sg12_91_cif.got.tgz:180654.got - 2010.06.28 00:19:55.
