data_PCOD8098499
_publ_section_title
;
Structure prediction by ZEFSAII (Michael W. Deem and Ramdas Pophale) SiO2 
 PCOD8098499
Probable space group: C 2/M
;
_chemical_formula_sum "Si O2"
_cell_formula_units_Z 48
_cell_length_a 23.437414
_cell_length_b 8.965768
_cell_length_c 11.612587
_cell_angle_alpha 90.000000
_cell_angle_beta 77.793897
_cell_angle_gamma 90.000000
_cell_volume 2385.039421
_symmetry_space_group_name_H-M "C 2/M"
_symmetry_group_IT_number 12
_symmetry_cell_setting 'monoclinic'
loop_
_space_group_symop_operation_xyz
x,y,z
-x,y,-z
-x,-y,-z
x,-y,z
1/2+x,1/2+y,z
1/2-x,1/2+y,-z
1/2-x,1/2-y,-z
1/2+x,1/2-y,z
loop_
_atom_site_type_symbol
_atom_site_label
_atom_site_fract_x
_atom_site_fract_y
_atom_site_fract_z
Si Si1 0.910325 0.325699 0.760742
Si Si2 0.700959 0.830805 0.591830
Si Si3 0.974726 0.825051 0.272526
Si Si4 0.359972 0.323540 0.182921
Si Si5 0.686793 0.175746 0.019874
Si Si6 0.583445 0.832300 0.501446
O O1 0.923196 0.500000 0.762859
O O2 0.906790 0.268046 0.630758
O O3 0.964464 0.242403 0.799869
O O4 0.848965 0.288447 0.848287
O O5 0.750000 0.750000 0.500000
O O6 0.690689 0.738815 0.712860
O O7 0.644667 0.827215 0.537482
O O8 0.719215 0.000000 0.614751
O O9 0.923422 0.779456 0.206037
O O10 0.963093 0.763519 0.406481
O O11 0.980269 0.000000 0.278812
O O12 0.352188 0.500000 0.173916
O O13 0.352369 0.245049 0.064186
O O14 0.694615 0.000000 0.996944
O O15 0.750000 0.250000 0.000000
O O16 0.558853 0.000000 0.506987
#
# Coordination Sequence:
#
# PCOD8098499 Si02
#       6
#     8   8   8   8   8   8
#     4  10  22  39  60  86 119 160 197 237 295 361
#     4  10  20  34  57  87 117 155 200 245 299 358
#     4  10  21  37  60  91 121 152 194 248 299 345
#     4  10  22  41  61  83 119 158 197 249 300 351
#     4  11  25  43  63  88 118 157 203 248 298 355
#     4   9  19  36  57  84 120 158 192 235 296 361
#
# _framework density 20.125453
#
# number of rings (size 3 to 8) (size 9 to 14) (size 15 to 20)
#    0.000    2.000    0.000    2.500    2.333    7.333 
#    0.000    3.333    0.000    0.000    0.000    0.000 
#    0.000    0.000    0.000    0.000    0.000    0.000 
#
# Total GULP energy -297641.477359 kJ/mol
# GULP energy per Si atom -12401.728223 kJ/mol
# Density = 2.007965 g / cm^3
# Si number density = 20.125453 Si / 1000 Ang^3
#
#
#
# Elastic Constant Matrix: (Units=GPa)
#
#
# Indices 1 2 3 4 5 6 
#
# 1 85.0466 52.6873 59.1763 0.0000 -16.4698 0.0000
# 2 52.6873 97.1023 50.2113 0.0000 -6.9574 0.0000
# 3 59.1763 50.2113 107.5896 0.0000 0.1831 0.0000
# 4 0.0000 0.0000 0.0000 33.2043 0.0000 -4.0084
# 5 -16.4698 -6.9574 0.1831 0.0000 33.7551 0.0000
# 6 0.0000 0.0000 0.0000 -4.0084 0.0000 35.3527
#
#
#
# Elastic Compliance Matrix: (Units=1/GPa)
#
#
# Indices 1 2 3 4 5 6 
#
# 1 0.026389 -0.007900 -0.010847 0.000000 0.011307 0.000000
# 2 -0.007900 0.016215 -0.003222 0.000000 -0.000495 0.000000
# 3 -0.010847 -0.003222 0.016775 0.000000 -0.006048 0.000000
# 4 0.000000 0.000000 0.000000 0.030535 0.000000 0.003462
# 5 0.011307 -0.000495 -0.006048 0.000000 0.035073 0.000000
# 6 0.000000 0.000000 0.000000 0.003462 0.000000 0.028679
#
#
# Mechanical properties :
#
#
# Convention : Reuss Voigt Hill
#
# Bulk Modulus (GPa) = 64.75813 68.20982 66.48397
# Shear Modulus (GPa) = 24.66095 28.97332 26.81714
#
# Velocity S-wave (km/s) = 3.50431 3.79837 3.65430
# Velocity P-wave (km/s) = 6.97285 7.29402 7.13524
#
# Compressibility (1/GPa) = 0.01544208
#
# Stress axis : x y z
#
# Youngs Moduli (GPa) = 37.89415 61.67051 59.61393
#
# Poissons Ratio (x) = 0.48717 0.64664
# Poissons Ratio (y) = 0.29935 0.19206
# Poissons Ratio (z) = 0.41104 0.19869
#
# Static dielectric constant tensor:
#      x y z
#    x 3.757620 0.000000 0.135920 
#    y 0.000000 3.765430 0.000000 
#    z 0.135920 0.000000 3.885340 
# 
# 
# High freq. dielectric constant tensor:
#      x y z
#    x 1.793110 0.000000 -0.002830 
#    y 0.000000 1.788950 0.000000 
#    z -0.002830 0.000000 1.785260 
# 
# From -- ./inp_files/172948.got.cif
#   From: 2010.06.25/outbox.cif.g09.slc.cpg/sg12_87_cif.got.tgz:172948.got - 2010.06.28 00:19:55.
