data_PCOD8098663
_publ_section_title
;
Structure prediction by ZEFSAII (Michael W. Deem and Ramdas Pophale) SiO2 
 PCOD8098663
Probable space group: C 2/M
;
_chemical_formula_sum "Si O2"
_cell_formula_units_Z 60
_cell_length_a 8.965108
_cell_length_b 12.634344
_cell_length_c 25.276460
_cell_angle_alpha 90.000000
_cell_angle_beta 89.344380
_cell_angle_gamma 90.000000
_cell_volume 2862.833170
_symmetry_space_group_name_H-M "C 2/M"
_symmetry_group_IT_number 12
_symmetry_cell_setting 'monoclinic'
loop_
_space_group_symop_operation_xyz
x,y,z
-x,y,-z
-x,-y,-z
x,-y,z
1/2+x,1/2+y,z
1/2-x,1/2+y,-z
1/2-x,1/2-y,-z
1/2+x,1/2-y,z
loop_
_atom_site_type_symbol
_atom_site_label
_atom_site_fract_x
_atom_site_fract_y
_atom_site_fract_z
Si Si1 0.255533 0.694599 0.686770
Si Si2 0.676829 0.122681 0.382799
Si Si3 0.000000 0.250201 0.000000
Si Si4 0.859724 0.620225 0.417686
Si Si5 0.995719 0.239294 0.241811
Si Si6 0.662452 0.374561 0.511946
Si Si7 0.247665 0.622685 0.058929
Si Si8 0.761231 0.377909 0.816544
O O1 0.271822 0.818691 0.670573
O O2 0.248763 0.625688 0.633209
O O3 0.399142 0.664595 0.721623
O O4 0.105041 0.682909 0.721503
O O5 0.519172 0.171538 0.403405
O O6 0.798441 0.148257 0.427295
O O7 0.663891 0.000000 0.368803
O O8 0.901309 0.324326 0.962983
O O9 0.103610 0.176154 0.963942
O O10 0.891039 0.500000 0.433027
O O11 0.783261 0.676133 0.469517
O O12 0.097457 0.312838 0.204802
O O13 0.893398 0.163383 0.207243
O O14 0.500000 0.327588 0.500000
O O15 0.664052 0.500000 0.500976
O O16 0.248089 0.500000 0.042619
O O17 0.248072 0.638627 0.121259
O O18 0.782817 0.500000 0.801205
#
# Coordination Sequence:
#
# PCOD8098663 Si02
#       8
#     8   8   4   8   8   8   8   8
#     4  11  22  38  57  84 112 138 187 250 301 359
#     4  10  21  38  59  78 105 146 180 223 295 370
#     4  10  20  34  60  96 140 174 202 262 316 342
#     4  10  21  37  56  78 108 142 177 223 287 362
#     4  10  23  40  59  86 118 150 207 266 304 368
#     4   9  19  34  54  82 109 136 177 225 279 361
#     4  10  20  36  60  93 129 173 220 254 303 370
#     4  10  22  42  66  88 123 172 214 259 312 357
#
# _framework density 20.958259000000002
#
# number of rings (size 3 to 8) (size 9 to 14) (size 15 to 20)
#    0.000    2.000    1.333    1.600    1.867    5.333 
#    0.000    2.000    0.000   11.200    0.000    0.000 
#    0.000    0.000    0.000    0.000    0.000    0.000 
#
# Total GULP energy -372045.017609 kJ/mol
# GULP energy per Si atom -12401.500587 kJ/mol
# Density = 2.091056 g / cm^3
# Si number density = 20.958259 Si / 1000 Ang^3
#
#
#
# Elastic Constant Matrix: (Units=GPa)
#
#
# Indices 1 2 3 4 5 6 
#
# 1 144.4784 37.5619 50.7371 0.0000 3.2192 0.0000
# 2 37.5619 71.8807 35.8002 0.0000 -5.5546 0.0000
# 3 50.7371 35.8002 99.8991 0.0000 2.1301 0.0000
# 4 0.0000 0.0000 0.0000 30.9039 0.0000 2.1250
# 5 3.2192 -5.5546 2.1301 0.0000 30.8370 0.0000
# 6 0.0000 0.0000 0.0000 2.1250 0.0000 23.9513
#
#
#
# Elastic Compliance Matrix: (Units=1/GPa)
#
#
# Indices 1 2 3 4 5 6 
#
# 1 0.008948 -0.003070 -0.003417 0.000000 -0.001251 0.000000
# 2 -0.003070 0.018368 -0.005108 0.000000 0.003982 0.000000
# 3 -0.003417 -0.005108 0.013608 0.000000 -0.001503 0.000000
# 4 0.000000 0.000000 0.000000 0.032557 0.000000 -0.002889
# 5 -0.001251 0.003982 -0.001503 0.000000 0.033380 0.000000
# 6 0.000000 0.000000 0.000000 -0.002889 0.000000 0.042008
#
#
# Mechanical properties :
#
#
# Convention : Reuss Voigt Hill
#
# Bulk Modulus (GPa) = 56.39316 62.71737 59.55526
# Shear Modulus (GPa) = 28.09440 29.94904 29.02172
#
# Velocity S-wave (km/s) = 3.66525 3.78429 3.72525
# Velocity P-wave (km/s) = 6.69909 7.00602 6.85428
#
# Compressibility (1/GPa) = 0.01773265
#
# Stress axis : x y z
#
# Youngs Moduli (GPa) = 111.76111 54.44220 73.48444
#
# Poissons Ratio (x) = 0.16715 0.25113
# Poissons Ratio (y) = 0.34314 0.37536
# Poissons Ratio (z) = 0.38193 0.27809
#
# Static dielectric constant tensor:
#      x y z
#    x 4.059990 0.000000 -0.032470 
#    y 0.000000 3.726370 0.000000 
#    z -0.032470 0.000000 3.803350 
# 
# 
# High freq. dielectric constant tensor:
#      x y z
#    x 1.835960 0.000000 0.001580 
#    y 0.000000 1.819120 0.000000 
#    z 0.001580 0.000000 1.822680 
# 
# From -- ./inp_files/332620.got.cif
#   From: 2010.06.25/outbox.cif.g09.slc.cpg/sg12_167_cif.got.tgz:332620.got - 2010.06.28 00:19:55.
