data_PCOD8098108
_publ_section_title
;
Structure prediction by ZEFSAII (Michael W. Deem and Ramdas Pophale) SiO2 
 PCOD8098108
Probable space group: C 2/M
;
_chemical_formula_sum "Si O2"
_cell_formula_units_Z 64
_cell_length_a 24.829580
_cell_length_b 9.387792
_cell_length_c 14.367719
_cell_angle_alpha 90.000000
_cell_angle_beta 82.402000
_cell_angle_gamma 90.000000
_cell_volume 3319.638421
_symmetry_space_group_name_H-M "C 2/M"
_symmetry_group_IT_number 12
_symmetry_cell_setting 'monoclinic'
loop_
_space_group_symop_operation_xyz
x,y,z
-x,y,-z
-x,-y,-z
x,-y,z
1/2+x,1/2+y,z
1/2-x,1/2+y,-z
1/2-x,1/2-y,-z
1/2+x,1/2-y,z
loop_
_atom_site_type_symbol
_atom_site_label
_atom_site_fract_x
_atom_site_fract_y
_atom_site_fract_z
Si Si1 0.858553 0.837178 0.158693
Si Si2 0.493179 0.168959 0.604201
Si Si3 0.707067 0.841372 0.956199
Si Si4 0.554601 0.339950 0.024511
Si Si5 0.872816 0.666286 0.666900
Si Si6 0.104699 0.666437 0.671547
Si Si7 0.881156 0.344621 0.866172
Si Si8 0.305791 0.832989 0.507593
O O1 0.807781 0.742580 0.134943
O O2 0.881915 0.765273 0.244679
O O3 0.840216 0.000000 0.183710
O O4 0.901814 0.834477 0.066749
O O5 0.500000 0.232811 0.500000
O O6 0.434757 0.226689 0.652999
O O7 0.544882 0.218417 0.653292
O O8 0.493851 0.000000 0.600842
O O9 0.728646 0.000000 0.925259
O O10 0.750000 0.750000 0.000000
O O11 0.657859 0.856312 0.037914
O O12 0.541806 0.500000 0.058431
O O13 0.571634 0.263234 0.115998
O O14 0.500000 0.264784 0.000000
O O15 0.874902 0.500000 0.642870
O O16 0.851090 0.701858 0.776584
O O17 0.832284 0.729739 0.597773
O O18 0.104648 0.500000 0.700278
O O19 0.149684 0.694379 0.582297
O O20 0.907643 0.500000 0.840855
O O21 0.250000 0.750000 0.500000
O O22 0.291522 0.000000 0.518889
#
# Coordination Sequence:
#
# PCOD8098108 Si02
#       8
#     8   8   8   8   8   8   8   8
#     4  10  21  36  54  77 107 145 184 221 270 326
#     4   9  15  28  53  81 107 139 176 219 272 323
#     4  10  20  36  56  79 108 141 182 230 277 324
#     4   9  19  35  51  71 106 146 176 208 260 322
#     4   9  17  32  53  79 109 139 174 219 270 324
#     4  10  20  34  55  84 112 140 182 232 275 324
#     4   9  19  33  52  80 106 132 175 223 263 311
#     4  10  21  37  56  79 111 146 181 221 270 327
#
# _framework density 19.279207
#
# number of rings (size 3 to 8) (size 9 to 14) (size 15 to 20)
#    0.000    2.500    1.250    0.750    1.750    2.750 
#    0.000    1.875    0.000    1.125    0.000    0.000 
#    0.000    0.000    0.000    0.000    0.000    0.000 
#
# Total GULP energy -396513.291194 kJ/mol
# GULP energy per Si atom -12391.040350 kJ/mol
# Density = 1.923533 g / cm^3
# Si number density = 19.279207 Si / 1000 Ang^3
#
#
#
# Elastic Constant Matrix: (Units=GPa)
#
#
# Indices 1 2 3 4 5 6 
#
# 1 121.8807 51.8696 34.7679 0.0000 40.1404 0.0000
# 2 51.8696 94.5893 42.0398 0.0000 28.5444 0.0000
# 3 34.7679 42.0398 95.6710 0.0000 42.1868 0.0000
# 4 0.0000 0.0000 0.0000 17.0632 0.0000 11.4581
# 5 40.1404 28.5444 42.1868 0.0000 38.6751 0.0000
# 6 0.0000 0.0000 0.0000 11.4581 0.0000 26.8679
#
#
#
# Elastic Compliance Matrix: (Units=1/GPa)
#
#
# Indices 1 2 3 4 5 6 
#
# 1 0.014218 -0.004842 0.003645 0.000000 -0.015160 0.000000
# 2 -0.004842 0.015708 -0.004329 0.000000 -0.001846 0.000000
# 3 0.003645 -0.004329 0.021752 0.000000 -0.024316 0.000000
# 4 0.000000 0.000000 0.000000 0.082123 0.000000 -0.035022
# 5 -0.015160 -0.001846 -0.024316 0.000000 0.069477 0.000000
# 6 0.000000 0.000000 0.000000 -0.035022 0.000000 0.052155
#
#
# Mechanical properties :
#
#
# Convention : Reuss Voigt Hill
#
# Bulk Modulus (GPa) = 24.61391 63.27727 43.94559
# Shear Modulus (GPa) = 17.85540 28.75215 23.30377
#
# Velocity S-wave (km/s) = 3.04657 3.86600 3.48048
# Velocity P-wave (km/s) = 5.01700 7.26778 6.24463
#
# Compressibility (1/GPa) = 0.04062743
#
# Stress axis : x y z
#
# Youngs Moduli (GPa) = 70.33203 63.66027 45.97248
#
# Poissons Ratio (x) = 0.30826 -0.16759
# Poissons Ratio (y) = 0.34057 0.19901
# Poissons Ratio (z) = -0.25639 0.27557
#
# Static dielectric constant tensor:
#      x y z
#    x 3.603620 0.000000 0.214670 
#    y 0.000000 3.498040 0.000000 
#    z 0.214670 0.000000 3.578760 
# 
# 
# High freq. dielectric constant tensor:
#      x y z
#    x 1.750470 0.000000 0.015830 
#    y 0.000000 1.720840 0.000000 
#    z 0.015830 0.000000 1.754320 
# 
# From -- ./inp_files/243943.got.cif
#   From: 2010.06.25/outbox.cif.g09.slc.cpg/sg12_122_cif.got.tgz:243943.got - 2010.06.28 00:19:55.
