data_PCOD8098965
_publ_section_title
;
Structure prediction by ZEFSAII (Michael W. Deem and Ramdas Pophale) SiO2 
 PCOD8098965
Probable space group: C 2/M
;
_chemical_formula_sum "Si O2"
_cell_formula_units_Z 56
_cell_length_a 14.981391
_cell_length_b 9.033509
_cell_length_c 24.506114
_cell_angle_alpha 90.000000
_cell_angle_beta 117.420794
_cell_angle_gamma 90.000000
_cell_volume 2943.906416
_symmetry_space_group_name_H-M "C 2/M"
_symmetry_group_IT_number 12
_symmetry_cell_setting 'monoclinic'
loop_
_space_group_symop_operation_xyz
x,y,z
-x,y,-z
-x,-y,-z
x,-y,z
1/2+x,1/2+y,z
1/2-x,1/2+y,-z
1/2-x,1/2-y,-z
1/2+x,1/2-y,z
loop_
_atom_site_type_symbol
_atom_site_label
_atom_site_fract_x
_atom_site_fract_y
_atom_site_fract_z
Si Si1 0.178932 0.672449 0.437216
Si Si2 0.852147 0.326708 0.011910
Si Si3 0.361737 0.824019 0.790304
Si Si4 0.937257 0.176479 0.131891
Si Si5 0.731045 0.326145 0.650317
Si Si6 0.473081 0.826921 0.432126
Si Si7 0.727544 0.171429 0.122615
O O1 0.198779 0.500000 0.449722
O O2 0.250000 0.750000 0.500000
O O3 0.204455 0.727382 0.383613
O O4 0.063540 0.711677 0.416702
O O5 0.851275 0.500000 0.026369
O O6 0.939597 0.245291 0.070883
O O7 0.750000 0.250000 0.000000
O O8 0.858906 0.304209 0.948156
O O9 0.467039 0.741228 0.809483
O O10 0.289477 0.777102 0.720800
O O11 0.311227 0.759577 0.831570
O O12 0.380430 0.000000 0.797818
O O13 0.836557 0.234545 0.134675
O O14 0.941585 0.000000 0.129285
O O15 0.714002 0.500000 0.644272
O O16 0.622916 0.251688 0.619987
O O17 0.500000 0.765826 0.500000
O O18 0.450054 0.000000 0.429196
O O19 0.745267 0.000000 0.138094
#
# Coordination Sequence:
#
# PCOD8098965 Si02
#       7
#     8   8   8   8   8   8   8
#     4  10  20  35  55  81 109 137 170 212 262 313
#     4   9  16  30  53  80 106 139 179 225 272 317
#     4  10  21  38  55  75 105 144 182 218 263 318
#     4  10  20  35  54  79 108 141 180 224 269 318
#     4  10  22  37  55  80 109 138 177 224 263 309
#     4  10  20  35  56  80 107 140 171 208 263 320
#     4   8  17  34  55  75 104 142 179 215 264 326
#
# _framework density 19.022344
#
# number of rings (size 3 to 8) (size 9 to 14) (size 15 to 20)
#    0.000    2.429    1.429    1.714    0.000    3.143 
#    0.000    7.143    0.000    0.000    0.000    0.000 
#    0.000    0.000    0.000    0.000    0.000    0.000 
#
# Total GULP energy -347109.295207 kJ/mol
# GULP energy per Si atom -12396.760543 kJ/mol
# Density = 1.897905 g / cm^3
# Si number density = 19.022344 Si / 1000 Ang^3
#
#
#
# Elastic Constant Matrix: (Units=GPa)
#
#
# Indices 1 2 3 4 5 6 
#
# 1 95.0605 27.7040 55.6050 0.0000 0.8440 0.0000
# 2 27.7040 48.8148 42.4251 0.0000 5.7178 0.0000
# 3 55.6050 42.4251 138.3744 0.0000 5.9311 0.0000
# 4 0.0000 0.0000 0.0000 30.3325 0.0000 9.9100
# 5 0.8440 5.7178 5.9311 0.0000 36.0041 0.0000
# 6 0.0000 0.0000 0.0000 9.9100 0.0000 25.6183
#
#
#
# Elastic Compliance Matrix: (Units=1/GPa)
#
#
# Indices 1 2 3 4 5 6 
#
# 1 0.014422 -0.004412 -0.004490 0.000000 0.001102 0.000000
# 2 -0.004412 0.029612 -0.007160 0.000000 -0.003420 0.000000
# 3 -0.004490 -0.007160 0.011252 0.000000 -0.000611 0.000000
# 4 0.000000 0.000000 0.000000 0.037737 0.000000 -0.014598
# 5 0.001102 -0.003420 -0.000611 0.000000 0.028393 0.000000
# 6 0.000000 0.000000 0.000000 -0.014598 0.000000 0.044682
#
#
# Mechanical properties :
#
#
# Convention : Reuss Voigt Hill
#
# Bulk Modulus (GPa) = 43.17047 59.30198 51.23623
# Shear Modulus (GPa) = 24.27861 28.82535 26.55198
#
# Velocity S-wave (km/s) = 3.57644 3.89696 3.74014
# Velocity P-wave (km/s) = 6.30860 7.17572 6.75609
#
# Compressibility (1/GPa) = 0.02316398
#
# Stress axis : x y z
#
# Youngs Moduli (GPa) = 69.33864 33.76956 88.87009
#
# Poissons Ratio (x) = 0.14898 0.39903
# Poissons Ratio (y) = 0.30591 0.63628
# Poissons Ratio (z) = 0.31133 0.24178
#
# Static dielectric constant tensor:
#      x y z
#    x 3.586520 0.000000 -0.230120 
#    y 0.000000 3.328840 0.000000 
#    z -0.230120 0.000000 4.050850 
# 
# 
# High freq. dielectric constant tensor:
#      x y z
#    x 1.739590 0.000000 -0.000270 
#    y 0.000000 1.721470 0.000000 
#    z -0.000270 0.000000 1.742710 
# 
# From -- ./inp_files/339066.got.cif
#   From: 2010.06.25/outbox.cif.g09.slc.cpg/sg12_170_cif.got.tgz:339066.got - 2010.06.28 00:19:55.
