data_PCOD8098842
_publ_section_title
;
Structure prediction by ZEFSAII (Michael W. Deem and Ramdas Pophale) SiO2 
 PCOD8098842
Probable space group: C 2/M
;
_chemical_formula_sum "Si O2"
_cell_formula_units_Z 64
_cell_length_a 32.500542
_cell_length_b 9.438097
_cell_length_c 11.339463
_cell_angle_alpha 90.000000
_cell_angle_beta 87.350016
_cell_angle_gamma 90.000000
_cell_volume 3474.584294
_symmetry_space_group_name_H-M "C 2/M"
_symmetry_group_IT_number 12
_symmetry_cell_setting 'monoclinic'
loop_
_space_group_symop_operation_xyz
x,y,z
-x,y,-z
-x,-y,-z
x,-y,z
1/2+x,1/2+y,z
1/2-x,1/2+y,-z
1/2-x,1/2-y,-z
1/2+x,1/2-y,z
loop_
_atom_site_type_symbol
_atom_site_label
_atom_site_fract_x
_atom_site_fract_y
_atom_site_fract_z
Si Si1 0.660703 0.164648 0.356842
Si Si2 0.385589 0.164495 0.197265
Si Si3 0.041331 0.837174 0.433882
Si Si4 0.078900 0.335330 0.231772
Si Si5 0.623434 0.665081 0.564822
Si Si6 0.546349 0.167912 0.988962
Si Si7 0.729729 0.164872 0.168901
Si Si8 0.697661 0.838001 0.920896
O O1 0.625115 0.199363 0.266584
O O2 0.656394 0.260526 0.473779
O O3 0.703542 0.203990 0.288376
O O4 0.658892 0.000000 0.394307
O O5 0.375097 0.261982 0.308948
O O6 0.349709 0.186237 0.105884
O O7 0.388343 0.000000 0.236263
O O8 0.428348 0.216294 0.130743
O O9 0.046239 0.746269 0.316129
O O10 0.078116 0.811236 0.519996
O O11 0.000000 0.782738 0.500000
O O12 0.038160 0.000000 0.396233
O O13 0.068691 0.500000 0.245372
O O14 0.072177 0.281878 0.099505
O O15 0.634884 0.500000 0.575124
O O16 0.543628 0.000000 0.987911
O O17 0.500000 0.232649 0.000000
O O18 0.772759 0.247816 0.168663
O O19 0.740098 0.000000 0.165731
O O20 0.703819 0.208550 0.055905
O O21 0.710618 0.000000 0.901260
#
# Coordination Sequence:
#
# PCOD8098842 Si02
#       8
#     8   8   8   8   8   8   8   8
#     4   9  17  32  53  76 101 131 168 210 257 301
#     4  10  20  35  54  73 104 141 169 203 254 309
#     4   9  19  34  50  68  96 132 166 207 257 299
#     4   9  17  30  50  75  99 124 163 209 248 294
#     4  10  21  35  51  73 100 134 175 214 253 300
#     4   9  18  31  49  76 104 130 163 207 253 296
#     4   9  17  31  54  80 106 133 167 210 252 301
#     4   9  18  32  51  79 108 137 167 202 254 306
#
# _framework density 18.41947
#
# number of rings (size 3 to 8) (size 9 to 14) (size 15 to 20)
#    0.000    2.750    0.000    1.125    1.750    4.750 
#    0.000    1.250    0.000    3.750    0.000    0.000 
#    0.000    0.000    0.000    0.000    0.000    0.000 
#
# Total GULP energy -396781.359587 kJ/mol
# GULP energy per Si atom -12399.417487 kJ/mol
# Density = 1.837755 g / cm^3
# Si number density = 18.419470 Si / 1000 Ang^3
#
#
#
# Elastic Constant Matrix: (Units=GPa)
#
#
# Indices 1 2 3 4 5 6 
#
# 1 85.6155 32.5386 33.8126 0.0000 -26.1827 0.0000
# 2 32.5386 58.5163 42.7924 0.0000 -14.2707 0.0000
# 3 33.8126 42.7924 97.7984 0.0000 -17.8367 0.0000
# 4 0.0000 0.0000 0.0000 20.5435 0.0000 -4.5628
# 5 -26.1827 -14.2707 -17.8367 0.0000 29.6892 0.0000
# 6 0.0000 0.0000 0.0000 -4.5628 0.0000 25.3981
#
#
#
# Elastic Compliance Matrix: (Units=1/GPa)
#
#
# Indices 1 2 3 4 5 6 
#
# 1 0.018365 -0.006175 -0.001387 0.000000 0.012395 0.000000
# 2 -0.006175 0.028247 -0.009817 0.000000 0.002234 0.000000
# 3 -0.001387 -0.009817 0.015629 0.000000 0.003448 0.000000
# 4 0.000000 0.000000 0.000000 0.050700 0.000000 0.009108
# 5 0.012395 0.002234 0.003448 0.000000 0.047758 0.000000
# 6 0.000000 0.000000 0.000000 0.009108 0.000000 0.041009
#
#
# Mechanical properties :
#
#
# Convention : Reuss Voigt Hill
#
# Bulk Modulus (GPa) = 36.38684 51.13528 43.76106
# Shear Modulus (GPa) = 20.35590 23.97859 22.16724
#
# Velocity S-wave (km/s) = 3.32795 3.61197 3.47287
# Velocity P-wave (km/s) = 5.87916 6.72435 6.31591
#
# Compressibility (1/GPa) = 0.02748247
#
# Stress axis : x y z
#
# Youngs Moduli (GPa) = 54.45034 35.40190 63.98326
#
# Poissons Ratio (x) = 0.21861 0.08875
# Poissons Ratio (y) = 0.33624 0.62815
# Poissons Ratio (z) = 0.07552 0.34755
#
# Static dielectric constant tensor:
#      x y z
#    x 3.445710 0.000000 -0.141680 
#    y 0.000000 3.238890 0.000000 
#    z -0.141680 0.000000 3.391390 
# 
# 
# High freq. dielectric constant tensor:
#      x y z
#    x 1.711940 0.000000 -0.010880 
#    y 0.000000 1.694680 0.000000 
#    z -0.010880 0.000000 1.711610 
# 
# From -- ./inp_files/187406.got.cif
#   From: 2010.06.25/outbox.cif.g09.slc.cpg/sg12_94_cif.got.tgz:187406.got - 2010.06.28 00:19:55.
