data_PCOD8098796
_publ_section_title
;
Structure prediction by ZEFSAII (Michael W. Deem and Ramdas Pophale) SiO2 
 PCOD8098796
Probable space group: C 2/M
;
_chemical_formula_sum "Si O2"
_cell_formula_units_Z 56
_cell_length_a 14.974644
_cell_length_b 8.406428
_cell_length_c 25.966346
_cell_angle_alpha 90.000000
_cell_angle_beta 122.912575
_cell_angle_gamma 90.000000
_cell_volume 2744.099602
_symmetry_space_group_name_H-M "C 2/M"
_symmetry_group_IT_number 12
_symmetry_cell_setting 'monoclinic'
loop_
_space_group_symop_operation_xyz
x,y,z
-x,y,-z
-x,-y,-z
x,-y,z
1/2+x,1/2+y,z
1/2-x,1/2+y,-z
1/2-x,1/2-y,-z
1/2+x,1/2-y,z
loop_
_atom_site_type_symbol
_atom_site_label
_atom_site_fract_x
_atom_site_fract_y
_atom_site_fract_z
Si Si1 0.415468 0.315082 0.311696
Si Si2 0.895495 0.312571 0.997134
Si Si3 0.777973 0.816864 0.427627
Si Si4 0.205622 0.687521 0.297102
Si Si5 0.020829 0.813951 0.778500
Si Si6 0.171063 0.685663 0.911872
Si Si7 0.403543 0.688628 0.559437
O O1 0.437287 0.500000 0.312967
O O2 0.291468 0.277621 0.279553
O O3 0.455914 0.239318 0.270917
O O4 0.480342 0.259897 0.383282
O O5 0.908698 0.500000 0.001195
O O6 0.784846 0.266434 0.934583
O O7 0.884028 0.248745 0.052580
O O8 0.000000 0.240112 0.000000
O O9 0.756043 0.736868 0.365384
O O10 0.676972 0.787980 0.431378
O O11 0.883560 0.761226 0.493034
O O12 0.793186 0.000000 0.419300
O O13 0.179733 0.500000 0.293872
O O14 0.102099 0.783109 0.247563
O O15 0.092203 0.719245 0.840745
O O16 0.047316 0.000000 0.790987
O O17 0.192196 0.500000 0.924243
O O18 0.381443 0.500000 0.558659
#
# Coordination Sequence:
#
# PCOD8098796 Si02
#       7
#     8   8   8   8   8   8   8
#     4   9  19  34  53  74 101 140 181 221 268 327
#     4   9  19  38  63  89 117 148 180 214 258 312
#     4   9  17  28  49  76  99 127 168 225 278 322
#     4  10  20  35  53  76 103 135 180 229 276 319
#     4  11  22  38  56  76 108 149 185 218 263 319
#     4  10  21  37  59  87 116 146 180 221 263 303
#     4   9  16  30  50  72  99 132 172 215 272 335
#
# _framework density 20.407423000000001
#
# number of rings (size 3 to 8) (size 9 to 14) (size 15 to 20)
#    0.000    2.429    1.429    0.857    0.000    2.571 
#    0.000   10.714    0.000    0.000    0.000    5.000 
#    0.000    0.000    0.000    0.000    0.000    0.000 
#
# Total GULP energy -346920.389146 kJ/mol
# GULP energy per Si atom -12390.013898 kJ/mol
# Density = 2.036097 g / cm^3
# Si number density = 20.407423 Si / 1000 Ang^3
#
#
#
# Elastic Constant Matrix: (Units=GPa)
#
#
# Indices 1 2 3 4 5 6 
#
# 1 120.4246 5.8109 51.6283 0.0000 16.2147 0.0000
# 2 5.8109 9.4163 4.6103 0.0000 -3.7092 0.0000
# 3 51.6283 4.6103 130.2041 0.0000 22.0259 0.0000
# 4 0.0000 0.0000 0.0000 20.7460 0.0000 2.8452
# 5 16.2147 -3.7092 22.0259 0.0000 15.7947 0.0000
# 6 0.0000 0.0000 0.0000 2.8452 0.0000 23.8453
#
#
#
# Elastic Compliance Matrix: (Units=1/GPa)
#
#
# Indices 1 2 3 4 5 6 
#
# 1 0.011201 -0.009993 -0.002284 0.000000 -0.010660 0.000000
# 2 -0.009993 0.140785 -0.010929 0.000000 0.058561 0.000000
# 3 -0.002284 -0.010929 0.011792 0.000000 -0.016666 0.000000
# 4 0.000000 0.000000 0.000000 0.049004 0.000000 -0.005847
# 5 -0.010660 0.058561 -0.016666 0.000000 0.111249 0.000000
# 6 0.000000 0.000000 0.000000 -0.005847 0.000000 0.042635
#
#
# Mechanical properties :
#
#
# Convention : Reuss Voigt Hill
#
# Bulk Modulus (GPa) = 8.52036 42.68268 25.60152
# Shear Modulus (GPa) = 11.05705 25.27690 18.16698
#
# Velocity S-wave (km/s) = 2.33022 3.52321 2.98688
# Velocity P-wave (km/s) = 3.37995 6.12465 4.94649
#
# Compressibility (1/GPa) = 0.11736597
#
# Stress axis : x y z
#
# Youngs Moduli (GPa) = 89.27988 7.10301 84.80152
#
# Poissons Ratio (x) = 0.07098 0.19370
# Poissons Ratio (y) = 0.89217 0.92680
# Poissons Ratio (z) = 0.20393 0.07763
#
# Static dielectric constant tensor:
#      x y z
#    x 3.723960 0.000000 -0.056190 
#    y 0.000000 3.367870 0.000000 
#    z -0.056190 0.000000 3.930560 
# 
# 
# High freq. dielectric constant tensor:
#      x y z
#    x 1.792050 0.000000 0.004980 
#    y 0.000000 1.763420 0.000000 
#    z 0.004980 0.000000 1.804820 
# 
# From -- ./inp_files/339058.got.cif
#   From: 2010.06.25/outbox.cif.g09.slc.cpg/sg12_170_cif.got.tgz:339058.got - 2010.06.28 00:19:55.
