data_PCOD8098574
_publ_section_title
;
Structure prediction by ZEFSAII (Michael W. Deem and Ramdas Pophale) SiO2 
 PCOD8098574
Probable space group: C 2/M
;
_chemical_formula_sum "Si O2"
_cell_formula_units_Z 64
_cell_length_a 31.326468
_cell_length_b 8.733905
_cell_length_c 26.480010
_cell_angle_alpha 90.000000
_cell_angle_beta 152.926940
_cell_angle_gamma 90.000000
_cell_volume 3297.387290
_symmetry_space_group_name_H-M "C 2/M"
_symmetry_group_IT_number 12
_symmetry_cell_setting 'monoclinic'
loop_
_space_group_symop_operation_xyz
x,y,z
-x,y,-z
-x,-y,-z
x,-y,z
1/2+x,1/2+y,z
1/2-x,1/2+y,-z
1/2-x,1/2-y,-z
1/2+x,1/2-y,z
loop_
_atom_site_type_symbol
_atom_site_label
_atom_site_fract_x
_atom_site_fract_y
_atom_site_fract_z
Si Si1 0.464870 0.818751 0.227121
Si Si2 0.674203 0.181373 0.457620
Si Si3 0.317989 0.318266 0.424316
Si Si4 0.365305 0.181855 0.824815
Si Si5 0.841044 0.682724 0.004541
Si Si6 0.505057 0.319163 0.563117
Si Si7 0.362755 0.181237 0.219355
Si Si8 0.938733 0.682045 0.007231
O O1 0.571424 0.762626 0.331145
O O2 0.429161 0.760315 0.243822
O O3 0.460828 0.000000 0.221298
O O4 0.398439 0.753317 0.113070
O O5 0.750000 0.250000 0.500000
O O6 0.691372 0.238955 0.531917
O O7 0.682023 0.000000 0.464896
O O8 0.314351 0.500000 0.427709
O O9 0.231205 0.255403 0.299748
O O10 0.411881 0.266365 0.494448
O O11 0.377689 0.241544 0.895268
O O12 0.363445 0.000000 0.823120
O O13 0.453729 0.239215 0.884532
O O14 0.835298 0.500000 0.998301
O O15 0.738228 0.750234 0.897648
O O16 0.894055 0.747794 0.011124
O O17 0.500000 0.262367 0.500000
O O18 0.518584 0.500000 0.579490
O O19 0.595432 0.242476 0.684073
O O20 0.355730 0.000000 0.214063
O O21 0.937393 0.500000 0.006881
#
# Coordination Sequence:
#
# PCOD8098574 Si02
#       8
#     8   8   8   8   8   8   8   8
#     4   9  20  38  58  80 110 147 188 235 286 336
#     4  11  23  40  60  85 118 153 193 236 283 342
#     4  10  20  35  59  87 116 149 188 235 289 341
#     4   8  15  28  49  80 112 141 176 223 275 332
#     4  10  20  34  58  84 105 140 189 239 284 331
#     4  10  22  38  59  88 118 150 194 246 289 334
#     4  11  22  39  57  79 114 152 186 230 288 349
#     4   8  15  28  50  80 110 138 177 229 279 322
#
# _framework density 19.409306000000001
#
# number of rings (size 3 to 8) (size 9 to 14) (size 15 to 20)
#    0.000    2.375    1.250    1.875    3.500    0.250 
#    0.000    1.875    0.000    0.000    0.000    1.750 
#    0.000    0.000    0.000    0.000    0.000    0.000 
#
# Total GULP energy -396772.566918 kJ/mol
# GULP energy per Si atom -12399.142716 kJ/mol
# Density = 1.936513 g / cm^3
# Si number density = 19.409306 Si / 1000 Ang^3
#
#
#
# Elastic Constant Matrix: (Units=GPa)
#
#
# Indices 1 2 3 4 5 6 
#
# 1 135.6007 23.2053 61.6733 0.0000 -10.7807 0.0000
# 2 23.2053 26.8297 24.5757 0.0000 -3.5989 0.0000
# 3 61.6733 24.5757 171.5228 0.0000 -8.1343 0.0000
# 4 0.0000 0.0000 0.0000 21.5127 0.0000 -2.3014
# 5 -10.7807 -3.5989 -8.1343 0.0000 31.7890 0.0000
# 6 0.0000 0.0000 0.0000 -2.3014 0.0000 21.3018
#
#
#
# Elastic Compliance Matrix: (Units=1/GPa)
#
#
# Indices 1 2 3 4 5 6 
#
# 1 0.009683 -0.005763 -0.002562 0.000000 0.001976 0.000000
# 2 -0.005763 0.046683 -0.004513 0.000000 0.002176 0.000000
# 3 -0.002562 -0.004513 0.007423 0.000000 0.000519 0.000000
# 4 0.000000 0.000000 0.000000 0.047028 0.000000 0.005081
# 5 0.001976 0.002176 0.000519 0.000000 0.032507 0.000000
# 6 0.000000 0.000000 0.000000 0.005081 0.000000 0.047493
#
#
# Mechanical properties :
#
#
# Convention : Reuss Voigt Hill
#
# Bulk Modulus (GPa) = 26.23895 61.42907 43.83401
# Shear Modulus (GPa) = 21.81524 29.88730 25.85127
#
# Velocity S-wave (km/s) = 3.35618 3.92834 3.65348
# Velocity P-wave (km/s) = 5.34479 7.23145 6.35848
#
# Compressibility (1/GPa) = 0.03811127
#
# Stress axis : x y z
#
# Youngs Moduli (GPa) = 103.27058 21.42123 134.72114
#
# Poissons Ratio (x) = 0.12345 0.34520
# Poissons Ratio (y) = 0.59516 0.60803
# Poissons Ratio (z) = 0.26461 0.09668
#
# Static dielectric constant tensor:
#      x y z
#    x 3.792710 0.000000 -0.013760 
#    y 0.000000 3.096220 0.000000 
#    z -0.013760 0.000000 3.856290 
# 
# 
# High freq. dielectric constant tensor:
#      x y z
#    x 1.766880 0.000000 -0.000410 
#    y 0.000000 1.711150 0.000000 
#    z -0.000410 0.000000 1.773300 
# 
# From -- ./inp_files/353482.got.cif
#   From: 2010.06.25/outbox.cif.g09.slc.cpg/sg12_177_cif.got.tgz:353482.got - 2010.06.28 00:19:55.
