data_PCOD8098086
_publ_section_title
;
Structure prediction by ZEFSAII (Michael W. Deem and Ramdas Pophale) SiO2 
 PCOD8098086
Probable space group: C 2/M
;
_chemical_formula_sum "Si O2"
_cell_formula_units_Z 40
_cell_length_a 14.593153
_cell_length_b 21.159023
_cell_length_c 14.266557
_cell_angle_alpha 90.000000
_cell_angle_beta 152.086431
_cell_angle_gamma 90.000000
_cell_volume 2062.238242
_symmetry_space_group_name_H-M "C 2/M"
_symmetry_group_IT_number 12
_symmetry_cell_setting 'monoclinic'
loop_
_space_group_symop_operation_xyz
x,y,z
-x,y,-z
-x,-y,-z
x,-y,z
1/2+x,1/2+y,z
1/2-x,1/2+y,-z
1/2-x,1/2-y,-z
1/2+x,1/2-y,z
loop_
_atom_site_type_symbol
_atom_site_label
_atom_site_fract_x
_atom_site_fract_y
_atom_site_fract_z
Si Si1 0.033956 0.572897 0.887998
Si Si2 0.288824 0.624245 0.263446
Si Si3 0.373637 0.287996 0.745250
Si Si4 0.596921 0.825578 0.357079
Si Si5 0.724550 0.768886 0.804882
O O1 0.993731 0.500000 0.830775
O O2 0.865483 0.603717 0.798359
O O3 0.017062 0.610460 0.773828
O O4 0.243719 0.581257 0.130034
O O5 0.500000 0.612394 0.500000
O O6 0.255859 0.694477 0.195303
O O7 0.349798 0.216013 0.685775
O O8 0.299962 0.337477 0.598407
O O9 0.239168 0.299807 0.715316
O O10 0.601510 0.296770 0.973618
O O11 0.472755 0.784373 0.319378
#
# Coordination Sequence:
#
# PCOD8098086 Si02
#       5
#     8   8   8   8   8
#     4  11  24  40  54  80 122 157 195 231 268 347
#     4  11  21  36  59  83 115 156 189 230 289 340
#     4  10  20  34  55  83 115 145 182 235 291 336
#     4  11  21  34  57  86 112 151 187 232 293 333
#     4  11  20  35  56  88 119 143 180 243 294 341
#
# _framework density 19.396401000000001
#
# number of rings (size 3 to 8) (size 9 to 14) (size 15 to 20)
#    0.000    1.200    4.000    4.800    2.800    1.600 
#    0.000    0.000    0.000    2.400    0.000    2.800 
#    0.000    0.000    0.000    0.000    0.000    0.000 
#
# Total GULP energy -247793.131544 kJ/mol
# GULP energy per Si atom -12389.656577 kJ/mol
# Density = 1.935225 g / cm^3
# Si number density = 19.396401 Si / 1000 Ang^3
#
#
#
# Elastic Constant Matrix: (Units=GPa)
#
#
# Indices 1 2 3 4 5 6 
#
# 1 52.5503 21.3070 45.6744 0.0000 -9.5418 0.0000
# 2 21.3070 89.0034 43.4881 0.0000 -12.7058 0.0000
# 3 45.6744 43.4881 150.4580 0.0000 -27.6206 0.0000
# 4 0.0000 0.0000 0.0000 17.0068 0.0000 -0.6593
# 5 -9.5418 -12.7058 -27.6206 0.0000 31.3792 0.0000
# 6 0.0000 0.0000 0.0000 -0.6593 0.0000 14.7118
#
#
#
# Elastic Compliance Matrix: (Units=1/GPa)
#
#
# Indices 1 2 3 4 5 6 
#
# 1 0.026449 -0.002764 -0.007108 0.000000 0.000667 0.000000
# 2 -0.002764 0.013519 -0.002645 0.000000 0.002305 0.000000
# 3 -0.007108 -0.002645 0.010705 0.000000 0.006190 0.000000
# 4 0.000000 0.000000 0.000000 0.058902 0.000000 0.002640
# 5 0.000667 0.002305 0.006190 0.000000 0.038453 0.000000
# 6 0.000000 0.000000 0.000000 0.002640 0.000000 0.068091
#
#
# Mechanical properties :
#
#
# Convention : Reuss Voigt Hill
#
# Bulk Modulus (GPa) = 39.00270 56.99453 47.99861
# Shear Modulus (GPa) = 20.02414 24.72238 22.37326
#
# Velocity S-wave (km/s) = 3.21653 3.57401 3.39997
# Velocity P-wave (km/s) = 5.82637 6.81757 6.34137
#
# Compressibility (1/GPa) = 0.02563925
#
# Stress axis : x y z
#
# Youngs Moduli (GPa) = 37.80891 73.97155 93.41351
#
# Poissons Ratio (x) = 0.20442 0.66396
# Poissons Ratio (y) = 0.10449 0.24711
# Poissons Ratio (z) = 0.26874 0.19568
#
# Static dielectric constant tensor:
#      x y z
#    x 3.555530 0.000000 -0.287240 
#    y 0.000000 3.130630 0.000000 
#    z -0.287240 0.000000 4.090410 
# 
# 
# High freq. dielectric constant tensor:
#      x y z
#    x 1.747980 0.000000 -0.016060 
#    y 0.000000 1.694710 0.000000 
#    z -0.016060 0.000000 1.785910 
# 
# From -- ./inp_files/216931.got.cif
#   From: 2010.06.25/outbox.cif.g09.slc.cpg/sg12_109_cif.got.tgz:216931.got - 2010.06.28 00:19:55.
