data_PCOD8099411
_publ_section_title
;
Structure prediction by ZEFSAII (Michael W. Deem and Ramdas Pophale) SiO2 
 PCOD8099411
Probable space group: C 2/M
;
_chemical_formula_sum "Si O2"
_cell_formula_units_Z 64
_cell_length_a 14.405146
_cell_length_b 9.089606
_cell_length_c 26.742830
_cell_angle_alpha 90.000000
_cell_angle_beta 104.428592
_cell_angle_gamma 90.000000
_cell_volume 3391.183561
_symmetry_space_group_name_H-M "C 2/M"
_symmetry_group_IT_number 12
_symmetry_cell_setting 'monoclinic'
loop_
_space_group_symop_operation_xyz
x,y,z
-x,y,-z
-x,-y,-z
x,-y,z
1/2+x,1/2+y,z
1/2-x,1/2+y,-z
1/2-x,1/2-y,-z
1/2+x,1/2-y,z
loop_
_atom_site_type_symbol
_atom_site_label
_atom_site_fract_x
_atom_site_fract_y
_atom_site_fract_z
Si Si1 0.462118 0.327621 0.917511
Si Si2 0.651932 0.671442 0.000503
Si Si3 0.719723 0.170716 0.741895
Si Si4 0.311433 0.331023 0.360864
Si Si5 0.389312 0.172541 0.810903
Si Si6 0.468074 0.671138 0.622794
Si Si7 0.499549 0.169390 0.725706
Si Si8 0.797771 0.673363 0.553248
O O1 0.455203 0.500000 0.904169
O O2 0.568640 0.286014 0.950256
O O3 0.443058 0.232379 0.866320
O O4 0.383717 0.284584 0.948906
O O5 0.672427 0.500000 0.000851
O O6 0.750000 0.750000 0.000000
O O7 0.737593 0.234963 0.688970
O O8 0.786379 0.250858 0.791258
O O9 0.612010 0.201890 0.745001
O O10 0.745257 0.000000 0.744420
O O11 0.291270 0.500000 0.344292
O O12 0.423913 0.298647 0.380045
O O13 0.265847 0.287057 0.407227
O O14 0.454010 0.213545 0.772070
O O15 0.373700 0.000000 0.814543
O O16 0.441308 0.500000 0.618094
O O17 0.451145 0.732132 0.676353
O O18 0.403011 0.759077 0.574828
O O19 0.479722 0.000000 0.708997
O O20 0.805245 0.500000 0.544957
O O21 0.750000 0.750000 0.500000
#
# Coordination Sequence:
#
# PCOD8099411 Si02
#       8
#     8   8   8   8   8   8   8   8
#     4   9  20  38  55  77 110 144 178 217 266 318
#     4   9  19  37  60  81 105 140 180 223 268 315
#     4  10  20  35  56  80 107 141 179 217 260 314
#     4   9  20  38  57  77 106 141 174 214 264 316
#     4  11  22  35  53  79 112 145 177 218 264 310
#     4  10  20  36  58  81 104 135 176 217 260 313
#     4   9  20  37  54  76 108 143 176 212 260 314
#     4  11  23  38  55  77 106 138 173 216 266 317
#
# _framework density 18.872467
#
# number of rings (size 3 to 8) (size 9 to 14) (size 15 to 20)
#    0.000    2.250    0.000    3.000    0.000    8.500 
#    0.000    7.500    0.000    0.000    0.000    0.000 
#    0.000    0.000    0.000    0.000    0.000    0.000 
#
# Total GULP energy -396926.485221 kJ/mol
# GULP energy per Si atom -12403.952663 kJ/mol
# Density = 1.882951 g / cm^3
# Si number density = 18.872467 Si / 1000 Ang^3
#
#
#
# Elastic Constant Matrix: (Units=GPa)
#
#
# Indices 1 2 3 4 5 6 
#
# 1 87.0614 39.0227 40.0521 0.0000 10.2383 0.0000
# 2 39.0227 84.5633 53.4708 0.0000 11.8567 0.0000
# 3 40.0521 53.4708 111.0018 0.0000 17.9996 0.0000
# 4 0.0000 0.0000 0.0000 40.3202 0.0000 3.0474
# 5 10.2383 11.8567 17.9996 0.0000 22.5697 0.0000
# 6 0.0000 0.0000 0.0000 3.0474 0.0000 32.8560
#
#
#
# Elastic Compliance Matrix: (Units=1/GPa)
#
#
# Indices 1 2 3 4 5 6 
#
# 1 0.015238 -0.004999 -0.002751 0.000000 -0.002092 0.000000
# 2 -0.004999 0.018796 -0.006911 0.000000 -0.002095 0.000000
# 3 -0.002751 -0.006911 0.014402 0.000000 -0.006607 0.000000
# 4 0.000000 0.000000 0.000000 0.024977 0.000000 -0.002317
# 5 -0.002092 -0.002095 -0.006607 0.000000 0.051626 0.000000
# 6 0.000000 0.000000 0.000000 -0.002317 0.000000 0.030651
#
#
# Mechanical properties :
#
#
# Convention : Reuss Voigt Hill
#
# Bulk Modulus (GPa) = 52.31571 60.85753 56.58662
# Shear Modulus (GPa) = 26.12567 29.15459 27.64013
#
# Velocity S-wave (km/s) = 3.72469 3.93469 3.83113
# Velocity P-wave (km/s) = 6.80284 7.27730 7.04406
#
# Compressibility (1/GPa) = 0.01911472
#
# Stress axis : x y z
#
# Youngs Moduli (GPa) = 65.62333 53.20342 69.43574
#
# Poissons Ratio (x) = 0.26597 0.19102
# Poissons Ratio (y) = 0.32806 0.47984
# Poissons Ratio (z) = 0.18053 0.36767
#
# Static dielectric constant tensor:
#      x y z
#    x 3.617400 0.000000 0.059980 
#    y 0.000000 3.465910 0.000000 
#    z 0.059980 0.000000 3.415330 
# 
# 
# High freq. dielectric constant tensor:
#      x y z
#    x 1.741690 0.000000 0.006830 
#    y 0.000000 1.737590 0.000000 
#    z 0.006830 0.000000 1.731320 
# 
# From -- ./inp_files/359759.got.cif
#   From: 2010.06.25/outbox.cif.g09.slc.cpg/sg12_180_cif.got.tgz:359759.got - 2010.06.28 00:19:55.
