data_PCOD8099970
_publ_section_title
;
Structure prediction by ZEFSAII (Michael W. Deem and Ramdas Pophale) SiO2 
 PCOD8099970
Probable space group: C 2/M
;
_chemical_formula_sum "Si O2"
_cell_formula_units_Z 56
_cell_length_a 15.200563
_cell_length_b 8.927211
_cell_length_c 24.136675
_cell_angle_alpha 90.000000
_cell_angle_beta 117.335511
_cell_angle_gamma 90.000000
_cell_volume 2909.568681
_symmetry_space_group_name_H-M "C 2/M"
_symmetry_group_IT_number 12
_symmetry_cell_setting 'monoclinic'
loop_
_space_group_symop_operation_xyz
x,y,z
-x,y,-z
-x,-y,-z
x,-y,z
1/2+x,1/2+y,z
1/2-x,1/2+y,-z
1/2-x,1/2-y,-z
1/2+x,1/2-y,z
loop_
_atom_site_type_symbol
_atom_site_label
_atom_site_fract_x
_atom_site_fract_y
_atom_site_fract_z
Si Si1 0.509143 0.676591 0.848499
Si Si2 0.342155 0.822747 0.496347
Si Si3 0.513374 0.671003 0.382606
Si Si4 0.191083 0.171905 0.628029
Si Si5 0.728550 0.324099 0.935677
Si Si6 0.394015 0.323573 0.706733
Si Si7 0.575687 0.176060 0.068859
O O1 0.503852 0.500000 0.853652
O O2 0.622834 0.732349 0.882341
O O3 0.462839 0.729106 0.777106
O O4 0.446159 0.746576 0.879574
O O5 0.250000 0.750000 0.500000
O O6 0.441586 0.776077 0.556840
O O7 0.345923 0.764865 0.435154
O O8 0.330935 0.000000 0.492759
O O9 0.547036 0.500000 0.403589
O O10 0.394383 0.684237 0.350101
O O11 0.551084 0.725041 0.333714
O O12 0.290312 0.239057 0.682546
O O13 0.209332 0.000000 0.615830
O O14 0.729301 0.500000 0.945944
O O15 0.812976 0.278773 0.916167
O O16 0.750000 0.250000 0.000000
O O17 0.373889 0.500000 0.702202
O O18 0.562847 0.000000 0.073208
O O19 0.500000 0.234752 0.000000
#
# Coordination Sequence:
#
# PCOD8099970 Si02
#       7
#     8   8   8   8   8   8   8
#     4  10  22  38  58  85 115 153 197 238 288 348
#     4  12  23  37  61  91 122 156 197 247 300 348
#     4  10  22  40  62  87 119 157 198 244 295 353
#     4  11  23  39  62  91 119 155 202 245 295 352
#     4  10  20  35  57  84 115 148 187 233 288 349
#     4  10  22  41  60  81 116 159 198 240 293 350
#     4  10  20  35  57  86 116 147 185 234 292 345
#
# _framework density 19.246838
#
# number of rings (size 3 to 8) (size 9 to 14) (size 15 to 20)
#    0.000    1.571    2.857    2.143    0.000    5.429 
#    0.000    2.857    0.000    0.000    0.000    0.000 
#    0.000    0.000    0.000    0.000    0.000    0.000 
#
# Total GULP energy -347303.601408 kJ/mol
# GULP energy per Si atom -12403.700050 kJ/mol
# Density = 1.920303 g / cm^3
# Si number density = 19.246838 Si / 1000 Ang^3
#
#
#
# Elastic Constant Matrix: (Units=GPa)
#
#
# Indices 1 2 3 4 5 6 
#
# 1 142.5290 38.4485 67.5432 0.0000 20.1153 0.0000
# 2 38.4485 65.6533 48.2591 0.0000 8.6005 0.0000
# 3 67.5432 48.2591 147.4944 0.0000 17.8345 0.0000
# 4 0.0000 0.0000 0.0000 29.6378 0.0000 0.2254
# 5 20.1153 8.6005 17.8345 0.0000 24.3253 0.0000
# 6 0.0000 0.0000 0.0000 0.2254 0.0000 31.0797
#
#
#
# Elastic Compliance Matrix: (Units=1/GPa)
#
#
# Indices 1 2 3 4 5 6 
#
# 1 0.009930 -0.002980 -0.002970 0.000000 -0.004980 0.000000
# 2 -0.002980 0.021089 -0.005412 0.000000 -0.001024 0.000000
# 3 -0.002970 -0.005412 0.010295 0.000000 -0.003178 0.000000
# 4 0.000000 0.000000 0.000000 0.033743 0.000000 -0.000245
# 5 -0.004980 -0.001024 -0.003178 0.000000 0.047920 0.000000
# 6 0.000000 0.000000 0.000000 -0.000245 0.000000 0.032177
#
#
# Mechanical properties :
#
#
# Convention : Reuss Voigt Hill
#
# Bulk Modulus (GPa) = 53.79017 73.79759 63.79388
# Shear Modulus (GPa) = 27.16286 30.43694 28.79990
#
# Velocity S-wave (km/s) = 3.76079 3.98100 3.87246
# Velocity P-wave (km/s) = 6.84589 7.71732 7.29463
#
# Compressibility (1/GPa) = 0.01859076
#
# Stress axis : x y z
#
# Youngs Moduli (GPa) = 100.70029 47.41886 97.13326
#
# Poissons Ratio (x) = 0.14130 0.28852
# Poissons Ratio (y) = 0.30006 0.52565
# Poissons Ratio (z) = 0.29912 0.25661
#
# Static dielectric constant tensor:
#      x y z
#    x 3.877420 0.000000 0.161460 
#    y 0.000000 3.505080 0.000000 
#    z 0.161460 0.000000 3.550980 
# 
# 
# High freq. dielectric constant tensor:
#      x y z
#    x 1.765590 0.000000 0.004160 
#    y 0.000000 1.743300 0.000000 
#    z 0.004160 0.000000 1.743810 
# 
# From -- ./inp_files/308995.got.cif
#   From: 2010.06.25/outbox.cif.g09.slc.cpg/sg12_155_cif.got.tgz:308995.got - 2010.06.28 00:19:55.
