data_PCOD8099723
_publ_section_title
;
Structure prediction by ZEFSAII (Michael W. Deem and Ramdas Pophale) SiO2 
 PCOD8099723
Probable space group: C 2/M
;
_chemical_formula_sum "Si O2"
_cell_formula_units_Z 52
_cell_length_a 9.717112
_cell_length_b 26.686996
_cell_length_c 11.581609
_cell_angle_alpha 90.000000
_cell_angle_beta 69.041041
_cell_angle_gamma 90.000000
_cell_volume 2804.638053
_symmetry_space_group_name_H-M "C 2/M"
_symmetry_group_IT_number 12
_symmetry_cell_setting 'monoclinic'
loop_
_space_group_symop_operation_xyz
x,y,z
-x,y,-z
-x,-y,-z
x,-y,z
1/2+x,1/2+y,z
1/2-x,1/2+y,-z
1/2-x,1/2-y,-z
1/2+x,1/2-y,z
loop_
_atom_site_type_symbol
_atom_site_label
_atom_site_fract_x
_atom_site_fract_y
_atom_site_fract_z
Si Si1 0.106249 0.371161 0.141951
Si Si2 0.450989 0.443320 0.730865
Si Si3 0.214737 0.202215 0.352343
Si Si4 0.703946 0.131137 0.863896
Si Si5 0.000000 0.124122 0.500000
Si Si6 0.975841 0.299742 0.631843
Si Si7 0.363436 0.444041 0.109656
O O1 0.111846 0.332959 0.248143
O O2 0.206338 0.417909 0.145561
O O3 0.939071 0.387938 0.165288
O O4 0.169902 0.348670 0.002975
O O5 0.403728 0.500000 0.710838
O O6 0.313369 0.416277 0.835127
O O7 0.506091 0.411897 0.606687
O O8 0.593110 0.444881 0.769771
O O9 0.228614 0.179196 0.220139
O O10 0.116151 0.250779 0.370844
O O11 0.369994 0.217825 0.360066
O O12 0.143222 0.159855 0.456252
O O13 0.000000 0.327697 0.500000
O O14 0.342898 0.500000 0.065197
O O15 0.500000 0.417769 0.000000
#
# Coordination Sequence:
#
# PCOD8099723 Si02
#       7
#     8   8   8   8   4   8   8
#     4  10  21  37  57  80 112 148 179 230 274 322
#     4  10  20  35  57  84 112 145 186 226 269 328
#     4  10  22  38  56  82 107 145 186 228 270 331
#     4   9  20  38  56  80 111 146 188 223 272 325
#     4  10  21  36  60  78 116 146 183 226 276 322
#     4  11  23  37  57  80 109 142 188 225 274 332
#     4  10  20  35  56  85 112 140 183 226 273 327
#
# _framework density 18.540717000000001
#
# number of rings (size 3 to 8) (size 9 to 14) (size 15 to 20)
#    0.000    2.000    2.308    0.692    2.154    2.462 
#    0.000    1.538    0.000    0.462    0.000    0.000 
#    0.000    0.000    0.000    0.000    0.000    0.000 
#
# Total GULP energy -322283.078116 kJ/mol
# GULP energy per Si atom -12395.503004 kJ/mol
# Density = 1.849852 g / cm^3
# Si number density = 18.540717 Si / 1000 Ang^3
#
#
#
# Elastic Constant Matrix: (Units=GPa)
#
#
# Indices 1 2 3 4 5 6 
#
# 1 72.8678 38.4280 29.8440 0.0000 -0.8816 0.0000
# 2 38.4280 86.2234 55.0246 0.0000 1.8005 0.0000
# 3 29.8440 55.0246 129.3723 0.0000 -0.9598 0.0000
# 4 0.0000 0.0000 0.0000 25.0339 0.0000 -4.0386
# 5 -0.8816 1.8005 -0.9598 0.0000 24.3184 0.0000
# 6 0.0000 0.0000 0.0000 -4.0386 0.0000 26.4038
#
#
#
# Elastic Compliance Matrix: (Units=1/GPa)
#
#
# Indices 1 2 3 4 5 6 
#
# 1 0.018070 -0.007444 -0.000994 0.000000 0.001167 0.000000
# 2 -0.007444 0.019036 -0.006393 0.000000 -0.001932 0.000000
# 3 -0.000994 -0.006393 0.010685 0.000000 0.000859 0.000000
# 4 0.000000 0.000000 0.000000 0.040956 0.000000 0.006265
# 5 0.001167 -0.001932 0.000859 0.000000 0.041340 0.000000
# 6 0.000000 0.000000 0.000000 0.006265 0.000000 0.038832
#
#
# Mechanical properties :
#
#
# Convention : Reuss Voigt Hill
#
# Bulk Modulus (GPa) = 55.16197 59.45075 57.30636
# Shear Modulus (GPa) = 24.43514 26.16235 25.29874
#
# Velocity S-wave (km/s) = 3.63425 3.76050 3.69792
# Velocity P-wave (km/s) = 6.88671 7.14071 7.01486
#
# Compressibility (1/GPa) = 0.01812843
#
# Stress axis : x y z
#
# Youngs Moduli (GPa) = 55.33985 52.53306 93.59311
#
# Poissons Ratio (x) = 0.39103 0.09302
# Poissons Ratio (y) = 0.41193 0.59838
# Poissons Ratio (z) = 0.05500 0.33587
#
# Static dielectric constant tensor:
#      x y z
#    x 3.447130 0.000000 -0.014450 
#    y 0.000000 3.263260 0.000000 
#    z -0.014450 0.000000 3.803130 
# 
# 
# High freq. dielectric constant tensor:
#      x y z
#    x 1.723270 0.000000 0.001680 
#    y 0.000000 1.700010 0.000000 
#    z 0.001680 0.000000 1.735640 
# 
# From -- ./inp_files/123602.got.cif
#   From: 2010.06.25/outbox.cif.g09.slc.cpg/sg12_62_cif.got.tgz:123602.got - 2010.06.28 00:19:55.
