data_PCOD8099955
_publ_section_title
;
Structure prediction by ZEFSAII (Michael W. Deem and Ramdas Pophale) SiO2 
 PCOD8099955
Probable space group: C 2/M
;
_chemical_formula_sum "Si O2"
_cell_formula_units_Z 56
_cell_length_a 21.068427
_cell_length_b 9.391385
_cell_length_c 29.403889
_cell_angle_alpha 90.000000
_cell_angle_beta 149.987859
_cell_angle_gamma 90.000000
_cell_volume 2910.019454
_symmetry_space_group_name_H-M "C 2/M"
_symmetry_group_IT_number 12
_symmetry_cell_setting 'monoclinic'
loop_
_space_group_symop_operation_xyz
x,y,z
-x,y,-z
-x,-y,-z
x,-y,z
1/2+x,1/2+y,z
1/2-x,1/2+y,-z
1/2-x,1/2-y,-z
1/2+x,1/2-y,z
loop_
_atom_site_type_symbol
_atom_site_label
_atom_site_fract_x
_atom_site_fract_y
_atom_site_fract_z
Si Si1 0.435651 0.664350 0.412576
Si Si2 0.147782 0.662025 0.213976
Si Si3 0.977393 0.660183 0.771236
Si Si4 0.500081 0.668240 0.052161
Si Si5 0.740316 0.661879 0.039557
Si Si6 0.424055 0.162700 0.576397
Si Si7 0.369756 0.337883 0.627068
O O1 0.500000 0.708143 0.500000
O O2 0.467152 0.500000 0.420711
O O3 0.285518 0.692959 0.321030
O O4 0.490073 0.765246 0.407899
O O5 0.138757 0.500000 0.191351
O O6 0.044713 0.693686 0.189271
O O7 0.117547 0.760875 0.151927
O O8 0.927941 0.500000 0.729607
O O9 0.898981 0.774653 0.694377
O O10 0.125714 0.673847 0.851269
O O11 0.519386 0.500000 0.066322
O O12 0.500000 0.721432 0.000000
O O13 0.368137 0.717892 0.993529
O O14 0.711158 0.500000 0.007345
O O15 0.750000 0.750000 0.000000
O O16 0.444879 0.245783 0.636418
O O17 0.279488 0.172996 0.471745
O O18 0.467205 0.000000 0.610085
O O19 0.417306 0.500000 0.653461
#
# Coordination Sequence:
#
# PCOD8099955 Si02
#       7
#     8   8   8   8   8   8   8
#     4  10  21  37  58  83 115 154 192 233 285 346
#     4  10  21  37  58  85 115 150 193 239 288 343
#     4  10  20  35  57  84 113 147 192 238 285 341
#     4  10  22  39  58  84 119 156 194 241 299 354
#     4  10  20  36  59  83 111 149 190 234 285 342
#     4  10  21  37  56  79 112 150 189 236 286 338
#     4  10  21  36  56  83 112 146 189 235 285 342
#
# _framework density 19.243856999999998
#
# number of rings (size 3 to 8) (size 9 to 14) (size 15 to 20)
#    0.000    2.000    1.429    1.714    0.000    6.286 
#    0.000    1.429    0.000    0.000    0.000    0.000 
#    0.000    0.000    0.000    0.000    0.000    0.000 
#
# Total GULP energy -347278.165363 kJ/mol
# GULP energy per Si atom -12402.791620 kJ/mol
# Density = 1.920006 g / cm^3
# Si number density = 19.243857 Si / 1000 Ang^3
#
#
#
# Elastic Constant Matrix: (Units=GPa)
#
#
# Indices 1 2 3 4 5 6 
#
# 1 113.9549 46.4254 45.2372 0.0002 -0.9450 0.0001
# 2 46.4254 82.6746 45.6203 0.0003 -3.7405 0.0001
# 3 45.2372 45.6203 85.1314 0.0011 -16.3664 0.0008
# 4 0.0002 0.0003 0.0011 32.5386 0.0001 -3.2455
# 5 -0.9450 -3.7405 -16.3664 0.0001 27.3015 0.0000
# 6 0.0001 0.0001 0.0008 -3.2455 0.0000 34.0981
#
#
#
# Elastic Compliance Matrix: (Units=1/GPa)
#
#
# Indices 1 2 3 4 5 6 
#
# 1 0.012495 -0.004495 -0.004822 0.000000 -0.003074 0.000000
# 2 -0.004495 0.019106 -0.008337 0.000000 -0.002536 0.000000
# 3 -0.004822 -0.008337 0.020938 -0.000001 0.011243 0.000000
# 4 0.000000 0.000000 -0.000001 0.031027 0.000000 0.002953
# 5 -0.003074 -0.002536 0.011243 0.000000 0.042914 0.000000
# 6 0.000000 0.000000 0.000000 0.002953 0.000000 0.029608
#
#
# Mechanical properties :
#
#
# Convention : Reuss Voigt Hill
#
# Bulk Modulus (GPa) = 58.03688 61.81408 59.92548
# Shear Modulus (GPa) = 25.36263 28.41950 26.89107
#
# Velocity S-wave (km/s) = 3.63431 3.84710 3.74222
# Velocity P-wave (km/s) = 6.91629 7.20588 7.06257
#
# Compressibility (1/GPa) = 0.01723042
#
# Stress axis : x y z
#
# Youngs Moduli (GPa) = 80.02953 52.34070 47.75988
#
# Poissons Ratio (x) = 0.23527 0.23030
# Poissons Ratio (y) = 0.35973 0.39819
# Poissons Ratio (z) = 0.38590 0.43638
#
# Static dielectric constant tensor:
#      x y z
#    x 3.535110 0.000000 0.084960 
#    y 0.000000 3.554330 0.000000 
#    z 0.084960 0.000000 3.471340 
# 
# 
# High freq. dielectric constant tensor:
#      x y z
#    x 1.749000 0.000000 0.002030 
#    y 0.000000 1.748580 0.000000 
#    z 0.002030 0.000000 1.745580 
# 
# From -- ./inp_files/380790.got.cif
#   From: 2010.06.25/outbox.cif.g09.slc.cpg/sg12_191_cif.got.tgz:380790.got - 2010.06.28 00:19:55.
