data_PCOD8099614
_publ_section_title
;
Structure prediction by ZEFSAII (Michael W. Deem and Ramdas Pophale) SiO2 
 PCOD8099614
Probable space group: C 2/M
;
_chemical_formula_sum "Si O2"
_cell_formula_units_Z 64
_cell_length_a 31.243713
_cell_length_b 8.719099
_cell_length_c 19.789941
_cell_angle_alpha 90.000000
_cell_angle_beta 142.508775
_cell_angle_gamma 90.000000
_cell_volume 3281.248939
_symmetry_space_group_name_H-M "C 2/M"
_symmetry_group_IT_number 12
_symmetry_cell_setting 'monoclinic'
loop_
_space_group_symop_operation_xyz
x,y,z
-x,y,-z
-x,-y,-z
x,-y,z
1/2+x,1/2+y,z
1/2-x,1/2+y,-z
1/2-x,1/2-y,-z
1/2+x,1/2-y,z
loop_
_atom_site_type_symbol
_atom_site_label
_atom_site_fract_x
_atom_site_fract_y
_atom_site_fract_z
Si Si1 0.201399 0.318293 0.737705
Si Si2 0.205142 0.318403 0.504001
Si Si3 0.284532 0.181359 0.727137
Si Si4 0.809600 0.318279 0.121220
Si Si5 0.049623 0.317557 0.503390
Si Si6 0.461381 0.182450 0.268101
Si Si7 0.438098 0.817249 0.875201
Si Si8 0.945622 0.681758 0.733839
O O1 0.209694 0.500000 0.741272
O O2 0.265057 0.235671 0.778235
O O3 0.203459 0.266254 0.818231
O O4 0.128792 0.258641 0.613518
O O5 0.212543 0.500000 0.512553
O O6 0.250000 0.250000 0.500000
O O7 0.230022 0.256080 0.606962
O O8 0.125110 0.265069 0.392477
O O9 0.363222 0.239580 0.809678
O O10 0.279836 0.000000 0.714944
O O11 0.808937 0.500000 0.114779
O O12 0.884335 0.251693 0.188602
O O13 0.750000 0.250000 0.000000
O O14 0.049821 0.500000 0.507062
O O15 0.000000 0.251232 0.500000
O O16 0.018703 0.257246 0.393892
O O17 0.487366 0.237684 0.226538
O O18 0.458815 0.000000 0.269087
O O19 0.449636 0.749038 0.814327
O O20 0.440398 0.000000 0.876859
O O21 0.500000 0.751313 0.000000
O O22 0.945598 0.500000 0.739437
#
# Coordination Sequence:
#
# PCOD8099614 Si02
#       8
#     8   8   8   8   8   8   8   8
#     4  10  20  35  56  83 111 142 179 226 279 327
#     4  11  20  34  57  85 115 148 180 221 276 333
#     4  11  22  36  55  83 114 145 183 227 278 333
#     4  10  21  36  55  80 110 143 182 226 271 321
#     4   9  14  26  51  80 105 130 170 225 272 312
#     4   9  16  28  50  79 105 132 174 225 269 313
#     4   9  18  33  51  74 105 138 179 233 275 306
#     4   9  17  30  51  80 107 134 176 225 270 315
#
# _framework density 19.504767999999999
#
# number of rings (size 3 to 8) (size 9 to 14) (size 15 to 20)
#    0.000    2.250    2.500    1.500    0.000    3.500 
#    0.000    2.500    0.000    5.625    0.000    0.000 
#    0.000    0.000    0.000    0.000    0.000    0.000 
#
# Total GULP energy -396744.066962 kJ/mol
# GULP energy per Si atom -12398.252093 kJ/mol
# Density = 1.946037 g / cm^3
# Si number density = 19.504768 Si / 1000 Ang^3
#
#
#
# Elastic Constant Matrix: (Units=GPa)
#
#
# Indices 1 2 3 4 5 6 
#
# 1 191.7281 21.9861 88.4134 0.0000 -10.6842 0.0000
# 2 21.9861 25.8349 20.9267 0.0000 -2.8478 0.0000
# 3 88.4134 20.9267 167.4354 0.0000 -5.2780 0.0000
# 4 0.0000 0.0000 0.0000 23.4563 0.0000 -1.0116
# 5 -10.6842 -2.8478 -5.2780 0.0000 19.3625 0.0000
# 6 0.0000 0.0000 0.0000 -1.0116 0.0000 24.9028
#
#
#
# Elastic Compliance Matrix: (Units=1/GPa)
#
#
# Indices 1 2 3 4 5 6 
#
# 1 0.007278 -0.003180 -0.003363 0.000000 0.002631 0.000000
# 2 -0.003180 0.044924 -0.003816 0.000000 0.003813 0.000000
# 3 -0.003363 -0.003816 0.008219 0.000000 -0.000176 0.000000
# 4 0.000000 0.000000 0.000000 0.042707 0.000000 0.001735
# 5 0.002631 0.003813 -0.000176 0.000000 0.053611 0.000000
# 6 0.000000 0.000000 0.000000 0.001735 0.000000 0.040227
#
#
# Mechanical properties :
#
#
# Convention : Reuss Voigt Hill
#
# Bulk Modulus (GPa) = 25.18533 71.96120 48.57326
# Shear Modulus (GPa) = 21.65280 30.45579 26.05429
#
# Velocity S-wave (km/s) = 3.33547 3.95581 3.65881
# Velocity P-wave (km/s) = 5.27013 7.60518 6.54267
#
# Compressibility (1/GPa) = 0.03970566
#
# Stress axis : x y z
#
# Youngs Moduli (GPa) = 137.40843 22.25967 121.66386
#
# Poissons Ratio (x) = 0.07078 0.40910
# Poissons Ratio (y) = 0.43690 0.46423
# Poissons Ratio (z) = 0.46204 0.08494
#
# Static dielectric constant tensor:
#      x y z
#    x 3.919310 0.000000 0.042030 
#    y 0.000000 3.008180 0.000000 
#    z 0.042030 0.000000 3.136440 
# 
# 
# High freq. dielectric constant tensor:
#      x y z
#    x 1.780740 0.000000 -0.002440 
#    y 0.000000 1.701610 0.000000 
#    z -0.002440 0.000000 1.760680 
# 
# From -- ./inp_files/295780.got.cif
#   From: 2010.06.25/outbox.cif.g09.slc.cpg/sg12_148_cif.got.tgz:295780.got - 2010.06.28 00:19:55.
