data_PCOD8099797
_publ_section_title
;
Structure prediction by ZEFSAII (Michael W. Deem and Ramdas Pophale) SiO2 
 PCOD8099797
Probable space group: C 2/M
;
_chemical_formula_sum "Si O2"
_cell_formula_units_Z 36
_cell_length_a 10.036677
_cell_length_b 22.337170
_cell_length_c 8.885926
_cell_angle_alpha 90.000000
_cell_angle_beta 110.218219
_cell_angle_gamma 90.000000
_cell_volume 1869.394682
_symmetry_space_group_name_H-M "C 2/M"
_symmetry_group_IT_number 12
_symmetry_cell_setting 'monoclinic'
loop_
_space_group_symop_operation_xyz
x,y,z
-x,y,-z
-x,-y,-z
x,-y,z
1/2+x,1/2+y,z
1/2-x,1/2+y,-z
1/2-x,1/2-y,-z
1/2+x,1/2-y,z
loop_
_atom_site_type_symbol
_atom_site_label
_atom_site_fract_x
_atom_site_fract_y
_atom_site_fract_z
Si Si1 0.994753 0.000000 0.744008
Si Si2 0.629028 0.114970 0.950881
Si Si3 0.500000 0.401938 0.500000
Si Si4 0.193246 0.818280 0.737030
Si Si5 0.276527 0.500000 0.926969
Si Si6 0.987836 0.268952 0.820038
O O1 0.969009 0.941410 0.634470
O O2 0.885387 0.000000 0.835481
O O3 0.151365 0.000000 0.879130
O O4 0.683724 0.060013 0.872436
O O5 0.569629 0.168306 0.822323
O O6 0.500000 0.089708 0.000000
O O7 0.753678 0.141883 0.102822
O O8 0.638444 0.361224 0.583028
O O9 0.057633 0.780055 0.740103
O O10 0.319872 0.776973 0.719657
O O11 0.000000 0.250217 0.000000
#
# Coordination Sequence:
#
# PCOD8099797 Si02
#       6
#     4   8   4   8   4   8
#     4  10  24  36  57  84 115 146 196 235 285 328
#     4   9  18  34  59  87 114 144 189 237 285 329
#     4  11  22  40  54  82 122 157 178 234 292 351
#     4  10  20  35  57  80 116 156 184 227 289 338
#     4  11  19  38  59  90 103 148 201 240 269 334
#     4   9  19  35  55  88 114 147 190 238 275 330
#
# _framework density 19.257570999999999
#
# number of rings (size 3 to 8) (size 9 to 14) (size 15 to 20)
#    0.000    2.667    2.222    3.000    0.000    4.444 
#    0.000    0.000    0.000    9.333    0.000    0.000 
#    0.000    0.000    0.000    0.000    0.000    0.000 
#
# Total GULP energy -223138.209129 kJ/mol
# GULP energy per Si atom -12396.567174 kJ/mol
# Density = 1.921374 g / cm^3
# Si number density = 19.257571 Si / 1000 Ang^3
#
#
#
# Elastic Constant Matrix: (Units=GPa)
#
#
# Indices 1 2 3 4 5 6 
#
# 1 105.5666 61.5487 37.4794 0.0000 10.4246 0.0000
# 2 61.5487 100.6327 37.1191 0.0000 -3.3986 0.0000
# 3 37.4794 37.1191 66.0273 0.0000 4.6812 0.0000
# 4 0.0000 0.0000 0.0000 10.2217 0.0000 98.6602
# 5 10.4246 -3.3986 4.6812 0.0000 20.5643 0.0000
# 6 0.0000 0.0000 0.0000 98.6602 0.0000 -632.3986
#
#
#
# Elastic Compliance Matrix: (Units=1/GPa)
#
#
# Indices 1 2 3 4 5 6 
#
# 1 0.017294 -0.009492 -0.003809 0.000000 -0.009469 0.000000
# 2 -0.009492 0.018036 -0.005391 0.000000 0.009020 0.000000
# 3 -0.003809 -0.005391 0.020597 0.000000 -0.003649 0.000000
# 4 0.000000 0.000000 0.000000 0.039042 0.000000 0.006091
# 5 -0.009469 0.009020 -0.003649 0.000000 0.055749 0.000000
# 6 0.000000 0.000000 0.000000 0.006091 0.000000 -0.000631
#
#
# Mechanical properties :
#
#
# Convention : Reuss Voigt Hill
#
# Bulk Modulus (GPa) = 53.93010 60.50233 57.21621
# Shear Modulus (GPa) = 25.81954 -111.25055 -42.71551
#
# Velocity S-wave (km/s) = 3.66559 -7.60889 -4.71480
# Velocity P-wave (km/s) = 6.78092 6.76077 0.36939
#
# Compressibility (1/GPa) = 0.01854252
#
# Stress axis : x y z
#
# Youngs Moduli (GPa) = 57.82215 55.44535 48.55151
#
# Poissons Ratio (x) = 0.52630 0.18494
# Poissons Ratio (y) = 0.54886 0.26173
# Poissons Ratio (z) = 0.22026 0.29889
#
# Static dielectric constant tensor:
#      x y z
#    x 3.480900 0.000000 0.263820 
#    y 0.000000 3.566170 0.000000 
#    z 0.263820 0.000000 3.288130 
# 
# 
# High freq. dielectric constant tensor:
#      x y z
#    x 1.748560 0.000000 0.017230 
#    y 0.000000 1.756520 0.000000 
#    z 0.017230 0.000000 1.718320 
# 
# From -- ./inp_files/39581.got.cif
#   From: 2010.06.25/outbox.cif.g09.slc.cpg/sg12_20_cif.got.tgz:39581.got - 2010.06.28 00:19:55.
