data_PCOD8099912
_publ_section_title
;
Structure prediction by ZEFSAII (Michael W. Deem and Ramdas Pophale) SiO2 
 PCOD8099912
Probable space group: C 2/M
;
_chemical_formula_sum "Si O2"
_cell_formula_units_Z 56
_cell_length_a 19.476272
_cell_length_b 8.999436
_cell_length_c 27.346697
_cell_angle_alpha 90.000000
_cell_angle_beta 141.448367
_cell_angle_gamma 90.000000
_cell_volume 2987.219504
_symmetry_space_group_name_H-M "C 2/M"
_symmetry_group_IT_number 12
_symmetry_cell_setting 'monoclinic'
loop_
_space_group_symop_operation_xyz
x,y,z
-x,y,-z
-x,-y,-z
x,-y,z
1/2+x,1/2+y,z
1/2-x,1/2+y,-z
1/2-x,1/2-y,-z
1/2+x,1/2-y,z
loop_
_atom_site_type_symbol
_atom_site_label
_atom_site_fract_x
_atom_site_fract_y
_atom_site_fract_z
Si Si1 0.191573 0.669528 0.010530
Si Si2 0.153408 0.830141 0.473770
Si Si3 0.625870 0.329175 0.569736
Si Si4 0.746818 0.823907 0.723768
Si Si5 0.599665 0.326934 0.821397
Si Si6 0.424257 0.324607 0.302981
Si Si7 0.521229 0.824901 0.156050
O O1 0.198823 0.500000 0.000096
O O2 0.061584 0.711677 0.936229
O O3 0.250000 0.750000 0.000000
O O4 0.266279 0.701819 0.100266
O O5 0.250000 0.750000 0.500000
O O6 0.174242 0.809319 0.542716
O O7 0.034027 0.767646 0.391663
O O8 0.157703 0.000000 0.460074
O O9 0.500000 0.276228 0.500000
O O10 0.633553 0.500000 0.592066
O O11 0.695659 0.225660 0.643845
O O12 0.678565 0.760184 0.731132
O O13 0.869727 0.763387 0.796104
O O14 0.748106 0.000000 0.727120
O O15 0.572993 0.500000 0.816466
O O16 0.564495 0.280307 0.747489
O O17 0.530747 0.229667 0.821522
O O18 0.405298 0.500000 0.299342
O O19 0.546853 0.000000 0.175008
#
# Coordination Sequence:
#
# PCOD8099912 Si02
#       7
#     8   8   8   8   8   8   8
#     4   8  15  30  53  82 111 143 181 223 273 327
#     4  10  22  38  58  83 112 145 180 222 271 327
#     4  10  20  40  63  80 106 146 186 222 272 332
#     4  12  25  38  56  82 112 146 190 236 275 323
#     4   9  18  34  59  87 114 143 182 232 279 327
#     4  10  21  40  59  79 112 150 183 224 281 334
#     4  10  20  35  57  83 114 149 186 226 274 333
#
# _framework density 18.746531000000001
#
# number of rings (size 3 to 8) (size 9 to 14) (size 15 to 20)
#    0.000    2.143    1.429    1.714    2.000    2.571 
#    0.000    0.714    0.000    4.286    0.000    0.000 
#    0.000    0.000    0.000    0.000    0.000    0.000 
#
# Total GULP energy -347026.838072 kJ/mol
# GULP energy per Si atom -12393.815645 kJ/mol
# Density = 1.870386 g / cm^3
# Si number density = 18.746531 Si / 1000 Ang^3
#
#
#
# Elastic Constant Matrix: (Units=GPa)
#
#
# Indices 1 2 3 4 5 6 
#
# 1 85.2881 37.9642 28.0912 0.0000 19.8597 0.0000
# 2 37.9642 74.8331 35.1584 0.0000 13.8800 0.0001
# 3 28.0912 35.1584 78.2465 0.0000 19.8690 0.0000
# 4 0.0000 0.0000 0.0000 22.5277 0.0000 2.9641
# 5 19.8597 13.8800 19.8690 0.0000 33.1364 0.0000
# 6 0.0000 0.0001 0.0000 2.9641 0.0000 31.8289
#
#
#
# Elastic Compliance Matrix: (Units=1/GPa)
#
#
# Indices 1 2 3 4 5 6 
#
# 1 0.016594 -0.006590 -0.001382 0.000000 -0.006356 0.000000
# 2 -0.006590 0.019810 -0.006407 0.000000 -0.000507 0.000000
# 3 -0.001382 -0.006407 0.018005 0.000000 -0.007284 0.000000
# 4 0.000000 0.000000 0.000000 0.044941 0.000000 -0.004185
# 5 -0.006356 -0.000507 -0.007284 0.000000 0.038567 0.000000
# 6 0.000000 0.000000 0.000000 -0.004185 0.000000 0.031808
#
#
# Mechanical properties :
#
#
# Convention : Reuss Voigt Hill
#
# Bulk Modulus (GPa) = 38.98537 48.97726 43.98132
# Shear Modulus (GPa) = 24.15081 26.64219 25.39650
#
# Velocity S-wave (km/s) = 3.59316 3.77394 3.68466
# Velocity P-wave (km/s) = 6.16892 6.72108 6.45091
#
# Compressibility (1/GPa) = 0.02565064
#
# Stress axis : x y z
#
# Youngs Moduli (GPa) = 60.26419 50.47865 55.54112
#
# Poissons Ratio (x) = 0.33265 0.07677
# Poissons Ratio (y) = 0.39714 0.35584
# Poissons Ratio (z) = 0.08330 0.32341
#
# Static dielectric constant tensor:
#      x y z
#    x 3.244940 0.000000 -0.042130 
#    y 0.000000 3.374370 0.000000 
#    z -0.042130 0.000000 4.459130 
# 
# 
# High freq. dielectric constant tensor:
#      x y z
#    x 1.710080 0.000000 0.006220 
#    y 0.000000 1.722370 0.000000 
#    z 0.006220 0.000000 1.747000 
# 
# From -- ./inp_files/363210.got.cif
#   From: 2010.06.25/outbox.cif.g09.slc.cpg/sg12_182_cif.got.tgz:363210.got - 2010.06.28 00:19:55.
