data_PCOD8099553
_publ_section_title
;
Structure prediction by ZEFSAII (Michael W. Deem and Ramdas Pophale) SiO2 
 PCOD8099553
Probable space group: C 2/M
;
_chemical_formula_sum "Si O2"
_cell_formula_units_Z 64
_cell_length_a 32.054914
_cell_length_b 8.826564
_cell_length_c 19.288426
_cell_angle_alpha 90.000000
_cell_angle_beta 144.118581
_cell_angle_gamma 90.000000
_cell_volume 3198.614758
_symmetry_space_group_name_H-M "C 2/M"
_symmetry_group_IT_number 12
_symmetry_cell_setting 'monoclinic'
loop_
_space_group_symop_operation_xyz
x,y,z
-x,y,-z
-x,-y,-z
x,-y,z
1/2+x,1/2+y,z
1/2-x,1/2+y,-z
1/2-x,1/2-y,-z
1/2+x,1/2-y,z
loop_
_atom_site_type_symbol
_atom_site_label
_atom_site_fract_x
_atom_site_fract_y
_atom_site_fract_z
Si Si1 0.040562 0.820636 0.485648
Si Si2 0.316250 0.823595 0.673053
Si Si3 0.401177 0.826575 0.054632
Si Si4 0.246457 0.674053 0.068887
Si Si5 0.165762 0.176625 0.160537
Si Si6 0.023364 0.321012 0.322070
Si Si7 0.846441 0.823474 0.573991
Si Si8 0.812558 0.322215 0.284588
O O1 0.000642 0.754812 0.364347
O O2 0.120686 0.759565 0.591360
O O3 0.000000 0.763940 0.500000
O O4 0.041629 0.000000 0.482889
O O5 0.349115 0.768408 0.789507
O O6 0.232518 0.787525 0.559233
O O7 0.355714 0.733443 0.665116
O O8 0.331789 0.000000 0.683351
O O9 0.468663 0.767723 0.188963
O O10 0.411053 0.000000 0.044567
O O11 0.333225 0.807552 0.011711
O O12 0.393329 0.725245 0.975280
O O13 0.270132 0.500000 0.096210
O O14 0.301977 0.759838 0.192972
O O15 0.250000 0.750000 0.000000
O O16 0.243957 0.219267 0.238092
O O17 0.158386 0.000000 0.165919
O O18 0.021325 0.500000 0.329242
O O19 0.101898 0.268324 0.406805
O O20 0.864956 0.000000 0.595190
O O21 0.826541 0.500000 0.300245
#
# Coordination Sequence:
#
# PCOD8099553 Si02
#       8
#     8   8   8   8   8   8   8   8
#     4  11  25  41  57  83 114 150 192 238 289 342
#     4  10  20  35  59  88 120 153 189 235 284 339
#     4   9  21  39  57  80 111 151 193 233 285 345
#     4  10  20  35  56  82 110 144 188 239 289 339
#     4  10  20  35  58  87 115 147 189 238 287 336
#     4  11  23  40  61  84 115 155 193 234 286 348
#     4  10  21  37  59  89 120 154 191 234 286 339
#     4  10  21  37  57  82 111 146 188 234 286 343
#
# _framework density 20.008662000000001
#
# number of rings (size 3 to 8) (size 9 to 14) (size 15 to 20)
#    0.000    1.875    0.000    3.375    1.750    7.500 
#    0.000    0.625    0.000    3.750    0.000    0.000 
#    0.000    0.000    0.000    0.000    0.000    0.000 
#
# Total GULP energy -396982.279271 kJ/mol
# GULP energy per Si atom -12405.696227 kJ/mol
# Density = 1.996312 g / cm^3
# Si number density = 20.008662 Si / 1000 Ang^3
#
#
#
# Elastic Constant Matrix: (Units=GPa)
#
#
# Indices 1 2 3 4 5 6 
#
# 1 76.2026 30.8388 33.0967 0.0000 -23.8110 0.0000
# 2 30.8388 70.8060 31.2561 0.0000 -8.8599 0.0000
# 3 33.0967 31.2561 92.1665 0.0000 -18.7456 0.0000
# 4 0.0000 0.0000 0.0000 34.4125 0.0000 -8.5965
# 5 -23.8110 -8.8599 -18.7456 0.0000 34.1244 0.0000
# 6 0.0000 0.0000 0.0000 -8.5965 0.0000 33.1224
#
#
#
# Elastic Compliance Matrix: (Units=1/GPa)
#
#
# Indices 1 2 3 4 5 6 
#
# 1 0.020337 -0.006171 -0.002983 0.000000 0.010950 0.000000
# 2 -0.006171 0.018539 -0.004467 0.000000 -0.001946 0.000000
# 3 -0.002983 -0.004467 0.014384 0.000000 0.004660 0.000000
# 4 0.000000 0.000000 0.000000 0.031074 0.000000 0.008065
# 5 0.010950 -0.001946 0.004660 0.000000 0.039000 0.000000
# 6 0.000000 0.000000 0.000000 0.008065 0.000000 0.032284
#
#
# Mechanical properties :
#
#
# Convention : Reuss Voigt Hill
#
# Bulk Modulus (GPa) = 38.43460 47.72870 43.08165
# Shear Modulus (GPa) = 26.10517 29.93077 28.01797
#
# Velocity S-wave (km/s) = 3.61597 3.87187 3.74611
# Velocity P-wave (km/s) = 6.05676 6.62528 6.34739
#
# Compressibility (1/GPa) = 0.02601822
#
# Stress axis : x y z
#
# Youngs Moduli (GPa) = 49.17044 53.94020 69.52188
#
# Poissons Ratio (x) = 0.33285 0.20741
# Poissons Ratio (y) = 0.30341 0.31056
# Poissons Ratio (z) = 0.14670 0.24095
#
# Static dielectric constant tensor:
#      x y z
#    x 3.566570 0.000000 -0.140630 
#    y 0.000000 3.686440 0.000000 
#    z -0.140630 0.000000 3.752250 
# 
# 
# High freq. dielectric constant tensor:
#      x y z
#    x 1.774800 0.000000 -0.017220 
#    y 0.000000 1.790290 0.000000 
#    z -0.017220 0.000000 1.781620 
# 
# From -- ./inp_files/295690.got.cif
#   From: 2010.06.25/outbox.cif.g09.slc.cpg/sg12_148_cif.got.tgz:295690.got - 2010.06.28 00:19:55.
