data_PCOD8099187
_publ_section_title
;
Structure prediction by ZEFSAII (Michael W. Deem and Ramdas Pophale) SiO2 
 PCOD8099187
Probable space group: C 2/M
;
_chemical_formula_sum "Si O2"
_cell_formula_units_Z 64
_cell_length_a 20.346202
_cell_length_b 9.019346
_cell_length_c 19.287876
_cell_angle_alpha 90.000000
_cell_angle_beta 82.188971
_cell_angle_gamma 90.000000
_cell_volume 3506.666622
_symmetry_space_group_name_H-M "C 2/M"
_symmetry_group_IT_number 12
_symmetry_cell_setting 'monoclinic'
loop_
_space_group_symop_operation_xyz
x,y,z
-x,y,-z
-x,-y,-z
x,-y,z
1/2+x,1/2+y,z
1/2-x,1/2+y,-z
1/2-x,1/2-y,-z
1/2+x,1/2-y,z
loop_
_atom_site_type_symbol
_atom_site_label
_atom_site_fract_x
_atom_site_fract_y
_atom_site_fract_z
Si Si1 0.312500 0.827106 0.456498
Si Si2 0.911870 0.670560 0.078180
Si Si3 0.431341 0.171778 0.542515
Si Si4 0.938588 0.670519 0.915893
Si Si5 0.279465 0.325696 0.329887
Si Si6 0.842701 0.171773 0.825742
Si Si7 0.856549 0.172528 0.665353
Si Si8 0.206792 0.826399 0.829592
O O1 0.250000 0.750000 0.500000
O O2 0.376410 0.795170 0.493022
O O3 0.326461 0.755952 0.378691
O O4 0.297793 0.000000 0.450272
O O5 0.895245 0.500000 0.097088
O O6 0.857356 0.774525 0.120028
O O7 0.983771 0.712539 0.098612
O O8 0.910692 0.698978 0.996466
O O9 0.500000 0.224536 0.500000
O O10 0.419607 0.269506 0.613183
O O11 0.433310 0.000000 0.564110
O O12 0.928421 0.500000 0.896242
O O13 0.899317 0.773049 0.868859
O O14 0.280207 0.500000 0.343566
O O15 0.205298 0.267420 0.352986
O O16 0.303809 0.284172 0.249396
O O17 0.868836 0.203224 0.744594
O O18 0.772961 0.251825 0.850408
O O19 0.830108 0.000000 0.840945
O O20 0.843227 0.000000 0.652918
O O21 0.215953 0.000000 0.838194
#
# Coordination Sequence:
#
# PCOD8099187 Si02
#       8
#     8   8   8   8   8   8   8   8
#     4  11  21  34  57  83 107 139 182 226 268 320
#     4   9  19  37  59  82 111 144 182 226 271 321
#     4  10  22  39  56  77 108 143 181 223 267 321
#     4   9  19  37  59  82 109 146 185 221 268 328
#     4  10  20  35  55  80 109 142 180 224 270 323
#     4  10  21  36  56  83 112 143 183 227 271 325
#     4  10  20  35  56  80 107 142 180 223 273 321
#     4  10  21  36  56  82 112 146 184 226 274 322
#
# _framework density 18.250951000000001
#
# number of rings (size 3 to 8) (size 9 to 14) (size 15 to 20)
#    0.000    2.125    1.250    2.625    0.000    5.250 
#    2.250    1.250    0.000    0.000    0.000    0.000 
#    0.000    0.000    0.000    0.000    0.000    0.000 
#
# Total GULP energy -396892.922991 kJ/mol
# GULP energy per Si atom -12402.903843 kJ/mol
# Density = 1.820941 g / cm^3
# Si number density = 18.250951 Si / 1000 Ang^3
#
#
#
# Elastic Constant Matrix: (Units=GPa)
#
#
# Indices 1 2 3 4 5 6 
#
# 1 110.2254 54.9423 61.6221 0.0000 -6.4506 0.0000
# 2 54.9423 88.8569 52.5758 0.0000 2.8469 0.0000
# 3 61.6221 52.5758 92.5413 0.0000 1.9103 0.0000
# 4 0.0000 0.0000 0.0000 36.3009 0.0000 -0.5772
# 5 -6.4506 2.8469 1.9103 0.0000 30.2201 0.0000
# 6 0.0000 0.0000 0.0000 -0.5772 0.0000 32.5179
#
#
#
# Elastic Compliance Matrix: (Units=1/GPa)
#
#
# Indices 1 2 3 4 5 6 
#
# 1 0.016622 -0.005754 -0.007894 0.000000 0.004589 0.000000
# 2 -0.005754 0.018974 -0.006895 0.000000 -0.002580 0.000000
# 3 -0.007894 -0.006895 0.020028 0.000000 -0.002301 0.000000
# 4 0.000000 0.000000 0.000000 0.027555 0.000000 0.000489
# 5 0.004589 -0.002580 -0.002301 0.000000 0.034459 0.000000
# 6 0.000000 0.000000 0.000000 0.000489 0.000000 0.030761
#
#
# Mechanical properties :
#
#
# Convention : Reuss Voigt Hill
#
# Bulk Modulus (GPa) = 68.78857 69.98934 69.38895
# Shear Modulus (GPa) = 25.72914 27.97333 26.85124
#
# Velocity S-wave (km/s) = 3.75873 3.91923 3.83981
# Velocity P-wave (km/s) = 7.52394 7.67542 7.60005
#
# Compressibility (1/GPa) = 0.01453730
#
# Stress axis : x y z
#
# Youngs Moduli (GPa) = 60.15985 52.70259 49.93109
#
# Poissons Ratio (x) = 0.30325 0.39417
# Poissons Ratio (y) = 0.34616 0.34428
# Poissons Ratio (z) = 0.47492 0.36339
#
# Static dielectric constant tensor:
#      x y z
#    x 3.381840 0.000000 0.061370 
#    y 0.000000 3.390310 0.000000 
#    z 0.061370 0.000000 3.539800 
# 
# 
# High freq. dielectric constant tensor:
#      x y z
#    x 1.695490 0.000000 0.001460 
#    y 0.000000 1.715560 0.000000 
#    z 0.001460 0.000000 1.714300 
# 
# From -- ./inp_files/281337.got.cif
#   From: 2010.06.25/outbox.cif.g09.slc.cpg/sg12_141_cif.got.tgz:281337.got - 2010.06.28 00:19:55.
