data_PCOD8099562
_publ_section_title
;
Structure prediction by ZEFSAII (Michael W. Deem and Ramdas Pophale) SiO2 
 PCOD8099562
Probable space group: C 2/M
;
_chemical_formula_sum "Si O2"
_cell_formula_units_Z 64
_cell_length_a 27.609238
_cell_length_b 9.522561
_cell_length_c 21.914802
_cell_angle_alpha 90.000000
_cell_angle_beta 36.676911
_cell_angle_gamma 90.000000
_cell_volume 3441.436050
_symmetry_space_group_name_H-M "C 2/M"
_symmetry_group_IT_number 12
_symmetry_cell_setting 'monoclinic'
loop_
_space_group_symop_operation_xyz
x,y,z
-x,y,-z
-x,-y,-z
x,-y,z
1/2+x,1/2+y,z
1/2-x,1/2+y,-z
1/2-x,1/2-y,-z
1/2+x,1/2-y,z
loop_
_atom_site_type_symbol
_atom_site_label
_atom_site_fract_x
_atom_site_fract_y
_atom_site_fract_z
Si Si1 0.143847 0.338008 0.503678
Si Si2 0.601678 0.663948 0.660485
Si Si3 0.677186 0.338507 0.712830
Si Si4 0.406854 0.835610 0.097255
Si Si5 0.170710 0.336830 0.952315
Si Si6 0.356256 0.337414 0.783251
Si Si7 0.914936 0.836966 0.856871
Si Si8 0.009960 0.664615 0.420018
O O1 0.134612 0.500000 0.532121
O O2 0.146966 0.247698 0.561749
O O3 0.226468 0.313865 0.382912
O O4 0.070510 0.288571 0.534670
O O5 0.612683 0.500000 0.635666
O O6 0.642241 0.707764 0.682899
O O7 0.507965 0.708029 0.755943
O O8 0.655093 0.500000 0.748460
O O9 0.636867 0.244050 0.804438
O O10 0.364098 0.792495 0.077733
O O11 0.398940 0.000000 0.118578
O O12 0.500000 0.788278 0.000000
O O13 0.155935 0.500000 0.981040
O O14 0.265078 0.298972 0.857557
O O15 0.124272 0.250843 0.050051
O O16 0.376787 0.500000 0.750606
O O17 0.368753 0.299514 0.841320
O O18 0.413204 0.245188 0.683484
O O19 0.906985 0.000000 0.881781
O O20 0.026454 0.500000 0.396419
O O21 0.000000 0.708633 0.500000
#
# Coordination Sequence:
#
# PCOD8099562 Si02
#       8
#     8   8   8   8   8   8   8   8
#     4  10  21  37  56  83 114 145 185 229 273 325
#     4  10  20  36  57  83 114 146 184 228 274 326
#     4  10  22  37  57  84 113 145 185 231 274 324
#     4  10  22  40  58  81 113 147 185 227 273 329
#     4  10  22  37  56  82 111 144 185 231 276 327
#     4  10  21  38  57  82 113 143 184 232 275 327
#     4  10  20  35  56  82 111 144 182 227 277 328
#     4  10  22  38  57  82 114 149 186 226 272 328
#
# _framework density 18.596888
#
# number of rings (size 3 to 8) (size 9 to 14) (size 15 to 20)
#    0.000    2.000    1.250    1.500    1.750    3.500 
#    0.000    0.000    0.000    0.000    0.000    0.000 
#    0.000    0.000    0.000    0.000    0.000    0.000 
#
# Total GULP energy -396975.878421 kJ/mol
# GULP energy per Si atom -12405.496201 kJ/mol
# Density = 1.855456 g / cm^3
# Si number density = 18.596888 Si / 1000 Ang^3
#
#
#
# Elastic Constant Matrix: (Units=GPa)
#
#
# Indices 1 2 3 4 5 6 
#
# 1 100.6968 33.2867 53.9031 0.0083 2.9636 0.0255
# 2 33.2867 54.0145 56.1143 -0.0107 15.5582 0.0088
# 3 53.9031 56.1143 118.3444 0.0003 13.1396 0.0135
# 4 0.0083 -0.0107 0.0003 39.8622 -0.0005 10.6090
# 5 2.9636 15.5582 13.1396 -0.0005 33.9141 -0.0059
# 6 0.0255 0.0088 0.0135 10.6090 -0.0059 14.6673
#
#
#
# Elastic Compliance Matrix: (Units=1/GPa)
#
#
# Indices 1 2 3 4 5 6 
#
# 1 0.013722 -0.004771 -0.004282 0.000000 0.002648 -0.000016
# 2 -0.004771 0.042101 -0.016397 0.000017 -0.012544 -0.000020
# 3 -0.004282 -0.016397 0.018076 -0.000005 0.000893 0.000005
# 4 0.000000 0.000017 -0.000005 0.031067 -0.000010 -0.022471
# 5 0.002648 -0.012544 0.000893 -0.000010 0.034664 0.000023
# 6 -0.000016 -0.000020 0.000005 -0.022471 0.000023 0.084433
#
#
# Mechanical properties :
#
#
# Convention : Reuss Voigt Hill
#
# Bulk Modulus (GPa) = 43.47882 62.18488 52.83185
# Shear Modulus (GPa) = 17.69110 26.33882 22.01496
#
# Velocity S-wave (km/s) = 3.08765 3.76746 3.44437
# Velocity P-wave (km/s) = 6.01181 7.24127 6.65499
#
# Compressibility (1/GPa) = 0.02299971
#
# Stress axis : x y z
#
# Youngs Moduli (GPa) = 72.87544 23.75239 55.32205
#
# Poissons Ratio (x) = 0.11331 0.23689
# Poissons Ratio (y) = 0.34766 0.90712
# Poissons Ratio (z) = 0.31206 0.38947
#
# Static dielectric constant tensor:
#      x y z
#    x 3.821990 0.000010 -0.249630 
#    y 0.000010 3.341840 0.000020 
#    z -0.249630 0.000020 3.390190 
# 
# 
# High freq. dielectric constant tensor:
#      x y z
#    x 1.739050 0.000000 -0.007390 
#    y 0.000000 1.716130 0.000000 
#    z -0.007390 0.000000 1.728450 
# 
# From -- ./inp_files/353271.got.cif
#   From: 2010.06.25/outbox.cif.g09.slc.cpg/sg12_177_cif.got.tgz:353271.got - 2010.06.28 00:19:55.
