data_PCOD8099534
_publ_section_title
;
Structure prediction by ZEFSAII (Michael W. Deem and Ramdas Pophale) SiO2 
 PCOD8099534
Probable space group: C 2/M
;
_chemical_formula_sum "Si O2"
_cell_formula_units_Z 48
_cell_length_a 30.643019
_cell_length_b 8.730211
_cell_length_c 17.902604
_cell_angle_alpha 90.000000
_cell_angle_beta 30.915379
_cell_angle_gamma 90.000000
_cell_volume 2460.608659
_symmetry_space_group_name_H-M "C 2/M"
_symmetry_group_IT_number 12
_symmetry_cell_setting 'monoclinic'
loop_
_space_group_symop_operation_xyz
x,y,z
-x,y,-z
-x,-y,-z
x,-y,z
1/2+x,1/2+y,z
1/2-x,1/2+y,-z
1/2-x,1/2-y,-z
1/2+x,1/2-y,z
loop_
_atom_site_type_symbol
_atom_site_label
_atom_site_fract_x
_atom_site_fract_y
_atom_site_fract_z
Si Si1 0.245799 0.320332 0.087561
Si Si2 0.590992 0.822260 0.082437
Si Si3 0.170292 0.175820 0.577730
Si Si4 0.589869 0.679272 0.402597
Si Si5 0.000705 0.824811 0.083067
Si Si6 0.578061 0.820918 0.580187
O O1 0.243600 0.500000 0.081423
O O2 0.161218 0.268863 0.253120
O O3 0.250000 0.250000 0.000000
O O4 0.327379 0.274374 0.015524
O O5 0.565155 0.777836 0.036355
O O6 0.514718 0.781611 0.250938
O O7 0.614300 0.000000 0.051226
O O8 0.250000 0.250000 0.500000
O O9 0.093772 0.190262 0.747750
O O10 0.150328 0.269558 0.531985
O O11 0.188666 0.000000 0.529652
O O12 0.500000 0.727312 0.500000
O O13 0.607246 0.500000 0.368874
O O14 0.591681 0.724359 0.486083
O O15 0.032805 0.000000 0.038675
O O16 0.000000 0.761205 0.000000
O O17 0.588095 0.000000 0.548541
#
# Coordination Sequence:
#
# PCOD8099534 Si02
#       6
#     8   8   8   8   8   8
#     4  12  25  41  62  87 118 153 191 235 284 340
#     4  10  21  38  60  86 117 152 193 239 287 341
#     4  10  20  35  56  81 113 151 192 240 291 343
#     4  11  24  41  62  88 117 150 190 236 287 342
#     4   9  19  36  57  81 111 150 194 238 286 338
#     4  10  21  38  60  85 115 152 193 238 290 344
#
# _framework density 19.507369000000001
#
# number of rings (size 3 to 8) (size 9 to 14) (size 15 to 20)
#    0.000    1.667    0.000    4.500    0.000    8.333 
#    0.000    5.000    0.000    0.000    0.000    0.000 
#    0.000    0.000    0.000    0.000    0.000    0.000 
#
# Total GULP energy -297739.421825 kJ/mol
# GULP energy per Si atom -12405.809243 kJ/mol
# Density = 1.946297 g / cm^3
# Si number density = 19.507369 Si / 1000 Ang^3
#
#
#
# Elastic Constant Matrix: (Units=GPa)
#
#
# Indices 1 2 3 4 5 6 
#
# 1 140.9404 51.1933 73.2397 0.0025 0.3131 -0.0011
# 2 51.1933 109.4467 56.2028 -0.0029 -9.2526 0.0012
# 3 73.2397 56.2028 90.9440 -0.0011 -3.1366 -0.0011
# 4 0.0025 -0.0029 -0.0011 31.0083 -0.0009 2.1298
# 5 0.3131 -9.2526 -3.1366 -0.0009 41.2504 0.0005
# 6 -0.0011 0.0012 -0.0011 2.1298 0.0005 37.8526
#
#
#
# Elastic Compliance Matrix: (Units=1/GPa)
#
#
# Indices 1 2 3 4 5 6 
#
# 1 0.012316 -0.001080 -0.009287 -0.000001 -0.001042 0.000000
# 2 -0.001080 0.013716 -0.007520 0.000001 0.002513 -0.000001
# 3 -0.009287 -0.007520 0.023127 0.000001 0.000142 0.000001
# 4 -0.000001 0.000001 0.000001 0.032375 0.000001 -0.001822
# 5 -0.001042 0.002513 0.000142 0.000001 0.024825 0.000000
# 6 0.000000 -0.000001 0.000001 -0.001822 0.000000 0.026521
#
#
# Mechanical properties :
#
#
# Convention : Reuss Voigt Hill
#
# Bulk Modulus (GPa) = 74.70907 78.06695 76.38801
# Shear Modulus (GPa) = 28.88275 32.73529 30.80902
#
# Velocity S-wave (km/s) = 3.85204 4.10090 3.97842
# Velocity P-wave (km/s) = 7.62662 7.90755 7.76835
#
# Compressibility (1/GPa) = 0.01338526
#
# Stress axis : x y z
#
# Youngs Moduli (GPa) = 81.19816 72.90680 43.23948
#
# Poissons Ratio (x) = 0.07872 0.40155
# Poissons Ratio (y) = 0.08767 0.32517
# Poissons Ratio (z) = 0.75406 0.54828
#
# Static dielectric constant tensor:
#      x y z
#    x 3.700910 0.000010 -0.014320 
#    y 0.000010 3.734380 0.000000 
#    z -0.014320 0.000000 3.548660 
# 
# 
# High freq. dielectric constant tensor:
#      x y z
#    x 1.775340 0.000000 -0.000260 
#    y 0.000000 1.772040 0.000000 
#    z -0.000260 0.000000 1.758730 
# 
# From -- ./inp_files/295377.got.cif
#   From: 2010.06.25/outbox.cif.g09.slc.cpg/sg12_148_cif.got.tgz:295377.got - 2010.06.28 00:19:55.
