data_PCOD8099335
_publ_section_title
;
Structure prediction by ZEFSAII (Michael W. Deem and Ramdas Pophale) SiO2 
 PCOD8099335
Probable space group: C 2/M
;
_chemical_formula_sum "Si O2"
_cell_formula_units_Z 56
_cell_length_a 33.320698
_cell_length_b 9.133014
_cell_length_c 11.072082
_cell_angle_alpha 90.000000
_cell_angle_beta 119.787865
_cell_angle_gamma 90.000000
_cell_volume 2924.236740
_symmetry_space_group_name_H-M "C 2/M"
_symmetry_group_IT_number 12
_symmetry_cell_setting 'monoclinic'
loop_
_space_group_symop_operation_xyz
x,y,z
-x,y,-z
-x,-y,-z
x,-y,z
1/2+x,1/2+y,z
1/2-x,1/2+y,-z
1/2-x,1/2-y,-z
1/2+x,1/2-y,z
loop_
_atom_site_type_symbol
_atom_site_label
_atom_site_fract_x
_atom_site_fract_y
_atom_site_fract_z
Si Si1 0.192084 0.328454 0.171898
Si Si2 0.284602 0.171900 0.281218
Si Si3 0.666103 0.831147 0.400452
Si Si4 0.582748 0.671746 0.377864
Si Si5 0.990608 0.826090 0.120106
Si Si6 0.631336 0.331669 0.692286
Si Si7 0.393287 0.670256 0.074708
O O1 0.195666 0.500000 0.150880
O O2 0.236152 0.248831 0.179711
O O3 0.191254 0.293715 0.313157
O O4 0.146444 0.266732 0.042626
O O5 0.299477 0.212523 0.439841
O O6 0.322756 0.232854 0.245349
O O7 0.279022 0.000000 0.252151
O O8 0.618819 0.740906 0.337900
O O9 0.652232 0.000000 0.388434
O O10 0.585572 0.500000 0.360853
O O11 0.531432 0.729606 0.269841
O O12 0.595199 0.715711 0.533807
O O13 0.941732 0.768040 0.096503
O O14 0.989273 0.000000 0.116393
O O15 0.000000 0.764211 0.000000
O O16 0.646466 0.500000 0.697186
O O17 0.605860 0.306593 0.780308
O O18 0.385462 0.500000 0.029836
#
# Coordination Sequence:
#
# PCOD8099335 Si02
#       7
#     8   8   8   8   8   8   8
#     4  11  22  35  52  76 106 137 172 215 260 306
#     4  10  20  35  56  78 102 135 172 211 259 312
#     4   9  19  34  52  78 108 135 167 210 259 311
#     4   9  17  31  54  79 104 137 173 212 256 301
#     4   9  17  30  51  80 108 134 169 211 254 303
#     4   9  19  35  53  76 104 135 175 217 255 299
#     4  10  21  36  53  74 104 140 176 214 255 303
#
# _framework density 19.150296000000001
#
# number of rings (size 3 to 8) (size 9 to 14) (size 15 to 20)
#    0.000    2.429    0.000    2.143    0.000    4.571 
#    0.000    3.571    0.000    2.571    0.000    5.000 
#    0.000    0.000    0.000    0.000    0.000    0.000 
#
# Total GULP energy -347263.537291 kJ/mol
# GULP energy per Si atom -12402.269189 kJ/mol
# Density = 1.910671 g / cm^3
# Si number density = 19.150296 Si / 1000 Ang^3
#
#
#
# Elastic Constant Matrix: (Units=GPa)
#
#
# Indices 1 2 3 4 5 6 
#
# 1 150.1675 50.2614 71.7974 0.0000 17.4271 0.0000
# 2 50.2614 59.0034 39.4664 0.0000 8.3134 0.0000
# 3 71.7974 39.4664 71.2329 0.0000 17.6632 0.0000
# 4 0.0000 0.0000 0.0000 24.5618 0.0000 1.8062
# 5 17.4271 8.3134 17.6632 0.0000 38.1387 0.0000
# 6 0.0000 0.0000 0.0000 1.8062 0.0000 26.5020
#
#
#
# Elastic Compliance Matrix: (Units=1/GPa)
#
#
# Indices 1 2 3 4 5 6 
#
# 1 0.013361 -0.003772 -0.011374 0.000000 -0.000016 0.000000
# 2 -0.003772 0.028039 -0.012026 0.000000 0.001181 0.000000
# 3 -0.011374 -0.012026 0.034148 0.000000 -0.007997 0.000000
# 4 0.000000 0.000000 0.000000 0.040919 0.000000 -0.002789
# 5 -0.000016 0.001181 -0.007997 0.000000 0.029673 0.000000
# 6 0.000000 0.000000 0.000000 -0.002789 0.000000 0.037923
#
#
# Mechanical properties :
#
#
# Convention : Reuss Voigt Hill
#
# Bulk Modulus (GPa) = 47.15799 67.05047 57.10423
# Shear Modulus (GPa) = 20.36874 25.76575 23.06724
#
# Velocity S-wave (km/s) = 3.26486 3.67202 3.47441
# Velocity P-wave (km/s) = 6.23627 7.28471 6.78079
#
# Compressibility (1/GPa) = 0.02120531
#
# Stress axis : x y z
#
# Youngs Moduli (GPa) = 74.84241 35.66489 29.28437
#
# Poissons Ratio (x) = 0.13453 0.33307
# Poissons Ratio (y) = 0.28230 0.35217
# Poissons Ratio (z) = 0.85122 0.42890
#
# Static dielectric constant tensor:
#      x y z
#    x 3.572850 0.000000 0.014810 
#    y 0.000000 3.315750 0.000000 
#    z 0.014810 0.000000 3.622010 
# 
# 
# High freq. dielectric constant tensor:
#      x y z
#    x 1.746470 0.000000 0.002390 
#    y 0.000000 1.725030 0.000000 
#    z 0.002390 0.000000 1.748560 
# 
# From -- ./inp_files/180621.got.cif
#   From: 2010.06.25/outbox.cif.g09.slc.cpg/sg12_91_cif.got.tgz:180621.got - 2010.06.28 00:19:55.
