data_PCOD8099673
_publ_section_title
;
Structure prediction by ZEFSAII (Michael W. Deem and Ramdas Pophale) SiO2 
 PCOD8099673
Probable space group: C 2/M
;
_chemical_formula_sum "Si O2"
_cell_formula_units_Z 44
_cell_length_a 28.579111
_cell_length_b 12.299671
_cell_length_c 10.915041
_cell_angle_alpha 90.000000
_cell_angle_beta 39.443696
_cell_angle_gamma 90.000000
_cell_volume 2437.585547
_symmetry_space_group_name_H-M "C 2/M"
_symmetry_group_IT_number 12
_symmetry_cell_setting 'monoclinic'
loop_
_space_group_symop_operation_xyz
x,y,z
-x,y,-z
-x,-y,-z
x,-y,z
1/2+x,1/2+y,z
1/2-x,1/2+y,-z
1/2-x,1/2-y,-z
1/2+x,1/2-y,z
loop_
_atom_site_type_symbol
_atom_site_label
_atom_site_fract_x
_atom_site_fract_y
_atom_site_fract_z
Si Si1 0.844817 0.628581 0.684537
Si Si2 0.138950 0.376274 0.076977
Si Si3 0.500000 0.272296 0.000000
Si Si4 0.511521 0.875620 0.743445
Si Si5 0.259242 0.734173 0.288114
Si Si6 0.841971 0.126388 0.337927
O O1 0.849161 0.500000 0.683966
O O2 0.844389 0.676159 0.823546
O O3 0.915567 0.671923 0.467636
O O4 0.771730 0.665355 0.762616
O O5 0.166436 0.500000 0.017674
O O6 0.052132 0.367948 0.229000
O O7 0.180441 0.316504 0.883920
O O8 0.508587 0.196055 0.099666
O O9 0.428352 0.348116 0.152349
O O10 0.522696 0.000000 0.764926
O O11 0.193113 0.800469 0.484531
O O12 0.298562 0.651052 0.300515
O O13 0.831933 0.000000 0.390276
#
# Coordination Sequence:
#
# PCOD8099673 Si02
#       6
#     8   8   4   8   8   8
#     4  10  20  35  57  83 111 143 178 221 271 325
#     4  10  20  35  57  83 111 143 178 221 271 325
#     4  12  20  40  56  78 108 148 190 220 276 318
#     4  10  20  35  56  84 111 140 184 227 268 322
#     4  11  21  38  56  82 113 139 180 224 278 327
#     4  11  24  38  57  80 108 146 185 229 271 323
#
# _framework density 18.050649
#
# number of rings (size 3 to 8) (size 9 to 14) (size 15 to 20)
#    0.000    1.455    3.636    2.727    0.000    2.182 
#    0.000    0.000    0.000    0.000    0.000    2.545 
#    0.000    0.000    0.000    0.000    0.000    0.000 
#
# Total GULP energy -272860.670338 kJ/mol
# GULP energy per Si atom -12402.757743 kJ/mol
# Density = 1.800956 g / cm^3
# Si number density = 18.050649 Si / 1000 Ang^3
#
#
#
# Elastic Constant Matrix: (Units=GPa)
#
#
# Indices 1 2 3 4 5 6 
#
# 1 87.1003 20.9432 9.7064 0.0000 1.8311 0.0000
# 2 20.9432 40.8396 19.4523 0.0000 -0.7155 0.0000
# 3 9.7064 19.4523 68.0519 0.0000 -8.0977 0.0000
# 4 0.0000 0.0000 0.0000 277.2768 0.0000 -255.6454
# 5 1.8311 -0.7155 -8.0977 0.0000 33.6118 0.0000
# 6 0.0000 0.0000 0.0000 -255.6454 0.0000 273.8738
#
#
#
# Elastic Compliance Matrix: (Units=1/GPa)
#
#
# Indices 1 2 3 4 5 6 
#
# 1 0.013121 -0.006718 -0.000055 0.000000 -0.000871 0.000000
# 2 -0.006718 0.031848 -0.008258 0.000000 -0.000946 0.000000
# 3 -0.000055 -0.008258 0.017545 0.000000 0.004054 0.000000
# 4 0.000000 0.000000 0.000000 0.025876 0.000000 0.024153
# 5 -0.000871 -0.000946 0.004054 0.000000 0.030756 0.000000
# 6 0.000000 0.000000 0.000000 0.024153 0.000000 0.026197
#
#
# Mechanical properties :
#
#
# Convention : Reuss Voigt Hill
#
# Bulk Modulus (GPa) = 30.81378 32.91063 31.86221
# Shear Modulus (GPa) = 26.84993 126.67845 76.76419
#
# Velocity S-wave (km/s) = 3.86097 8.38641 6.52836
# Velocity P-wave (km/s) = 6.08144 10.58526 8.63225
#
# Compressibility (1/GPa) = 0.03245301
#
# Stress axis : x y z
#
# Youngs Moduli (GPa) = 76.21546 31.39950 56.99508
#
# Poissons Ratio (x) = 0.21093 0.00313
# Poissons Ratio (y) = 0.51199 0.47066
# Poissons Ratio (z) = 0.00418 0.25929
#
# Static dielectric constant tensor:
#      x y z
#    x 3.393060 0.000000 0.032670 
#    y 0.000000 3.112730 0.000000 
#    z 0.032670 0.000000 3.399310 
# 
# 
# High freq. dielectric constant tensor:
#      x y z
#    x 1.712130 0.000000 -0.000930 
#    y 0.000000 1.681990 0.000000 
#    z -0.000930 0.000000 1.707110 
# 
# From -- ./inp_files/103005.got.cif
#   From: 2010.06.25/outbox.cif.g09.slc.cpg/sg12_52_cif.got.tgz:103005.got - 2010.06.28 00:19:55.
