data_PCOD8099056
_publ_section_title
;
Structure prediction by ZEFSAII (Michael W. Deem and Ramdas Pophale) SiO2 
 PCOD8099056
Probable space group: C 2/M
;
_chemical_formula_sum "Si O2"
_cell_formula_units_Z 56
_cell_length_a 23.033624
_cell_length_b 8.868989
_cell_length_c 19.272406
_cell_angle_alpha 90.000000
_cell_angle_beta 52.298875
_cell_angle_gamma 90.000000
_cell_volume 3115.049344
_symmetry_space_group_name_H-M "C 2/M"
_symmetry_group_IT_number 12
_symmetry_cell_setting 'monoclinic'
loop_
_space_group_symop_operation_xyz
x,y,z
-x,y,-z
-x,-y,-z
x,-y,z
1/2+x,1/2+y,z
1/2-x,1/2+y,-z
1/2-x,1/2-y,-z
1/2+x,1/2-y,z
loop_
_atom_site_type_symbol
_atom_site_label
_atom_site_fract_x
_atom_site_fract_y
_atom_site_fract_z
Si Si1 0.576952 0.325911 0.975511
Si Si2 0.202538 0.321820 0.095734
Si Si3 0.098009 0.176951 0.686558
Si Si4 0.222494 0.323309 0.828976
Si Si5 0.561296 0.674632 0.148844
Si Si6 0.237115 0.173940 0.676529
Si Si7 0.818840 0.326532 0.484256
O O1 0.593425 0.500000 0.945097
O O2 0.637406 0.221300 0.896033
O O3 0.500000 0.275108 0.000000
O O4 0.577148 0.298281 0.056933
O O5 0.210728 0.500000 0.084485
O O6 0.231107 0.267708 0.148781
O O7 0.117883 0.273836 0.151488
O O8 0.250000 0.250000 0.000000
O O9 0.162592 0.226759 0.691967
O O10 0.108658 0.251006 0.602210
O O11 0.020531 0.230835 0.774016
O O12 0.100307 0.000000 0.674031
O O13 0.232590 0.500000 0.834225
O O14 0.251647 0.278880 0.731841
O O15 0.571516 0.500000 0.161222
O O16 0.308841 0.194023 0.574528
O O17 0.228732 0.000000 0.705840
O O18 0.819168 0.500000 0.463451
O O19 0.750000 0.250000 0.500000
#
# Coordination Sequence:
#
# PCOD8099056 Si02
#       7
#     8   8   8   8   8   8   8
#     4  10  20  35  55  77 107 146 177 210 264 323
#     4  12  24  40  59  77 102 140 185 230 272 319
#     4   9  18  33  55  83 114 146 179 216 267 327
#     4  12  24  36  54  80 107 139 181 229 273 316
#     4  10  20  35  56  80 108 143 181 221 264 320
#     4   9  18  34  54  79 111 148 182 215 265 326
#     4   9  17  30  51  78 110 146 182 220 265 320
#
# _framework density 17.977243999999999
#
# number of rings (size 3 to 8) (size 9 to 14) (size 15 to 20)
#    0.000    1.857    1.429    4.714    0.000    6.000 
#    0.000    1.429    0.000    0.857    0.000    6.000 
#    0.000    0.000    0.000    0.000    0.000    0.000 
#
# Total GULP energy -347203.885064 kJ/mol
# GULP energy per Si atom -12400.138752 kJ/mol
# Density = 1.793633 g / cm^3
# Si number density = 17.977244 Si / 1000 Ang^3
#
#
#
# Elastic Constant Matrix: (Units=GPa)
#
#
# Indices 1 2 3 4 5 6 
#
# 1 73.6039 30.3299 14.7718 -0.0001 16.1729 0.0007
# 2 30.3299 87.7673 37.6060 -0.0003 9.2647 0.0020
# 3 14.7718 37.6060 90.1584 0.0000 14.6466 -0.0003
# 4 -0.0001 -0.0003 0.0000 33.8655 -0.0001 -0.4022
# 5 16.1729 9.2647 14.6466 -0.0001 16.2704 0.0000
# 6 0.0007 0.0020 -0.0003 -0.4022 0.0000 26.4642
#
#
#
# Elastic Compliance Matrix: (Units=1/GPa)
#
#
# Indices 1 2 3 4 5 6 
#
# 1 0.019484 -0.005744 0.002130 0.000000 -0.018014 0.000000
# 2 -0.005744 0.015706 -0.005956 0.000000 0.002128 -0.000001
# 3 0.002130 -0.005956 0.015250 0.000000 -0.012454 0.000001
# 4 0.000000 0.000000 0.000000 0.029534 0.000000 0.000449
# 5 -0.018014 0.002128 -0.012454 0.000000 0.089367 0.000000
# 6 0.000000 -0.000001 0.000001 0.000449 0.000000 0.037794
#
#
# Mechanical properties :
#
#
# Convention : Reuss Voigt Hill
#
# Bulk Modulus (GPa) = 31.94853 46.32721 39.13787
# Shear Modulus (GPa) = 21.12313 26.57483 23.84898
#
# Velocity S-wave (km/s) = 3.43154 3.84897 3.64623
# Velocity P-wave (km/s) = 5.78885 6.75119 6.28846
#
# Compressibility (1/GPa) = 0.03130035
#
# Stress axis : x y z
#
# Youngs Moduli (GPa) = 51.32436 63.66978 65.57395
#
# Poissons Ratio (x) = 0.36573 -0.13968
# Poissons Ratio (y) = 0.29482 0.39054
# Poissons Ratio (z) = -0.10933 0.37920
#
# Static dielectric constant tensor:
#      x y z
#    x 3.269630 0.000000 -0.057890 
#    y 0.000000 3.412940 0.000000 
#    z -0.057890 0.000000 3.710210 
# 
# 
# High freq. dielectric constant tensor:
#      x y z
#    x 1.670820 0.000000 0.001460 
#    y 0.000000 1.695880 0.000000 
#    z 0.001460 0.000000 1.705120 
# 
# From -- ./inp_files/280859.got.cif
#   From: 2010.06.25/outbox.cif.g09.slc.cpg/sg12_141_cif.got.tgz:280859.got - 2010.06.28 00:19:55.
