data_PCOD8099927
_publ_section_title
;
Structure prediction by ZEFSAII (Michael W. Deem and Ramdas Pophale) SiO2 
 PCOD8099927
Probable space group: C 2/M
;
_chemical_formula_sum "Si O2"
_cell_formula_units_Z 48
_cell_length_a 19.709670
_cell_length_b 9.242878
_cell_length_c 18.531529
_cell_angle_alpha 90.000000
_cell_angle_beta 43.547901
_cell_angle_gamma 90.000000
_cell_volume 2325.906866
_symmetry_space_group_name_H-M "C 2/M"
_symmetry_group_IT_number 12
_symmetry_cell_setting 'monoclinic'
loop_
_space_group_symop_operation_xyz
x,y,z
-x,y,-z
-x,-y,-z
x,-y,z
1/2+x,1/2+y,z
1/2-x,1/2+y,-z
1/2-x,1/2-y,-z
1/2+x,1/2-y,z
loop_
_atom_site_type_symbol
_atom_site_label
_atom_site_fract_x
_atom_site_fract_y
_atom_site_fract_z
Si Si1 0.082944 0.669488 0.491205
Si Si2 0.395935 0.171064 0.113942
Si Si3 0.119730 0.838399 0.137630
Si Si4 0.282666 0.666545 0.084698
Si Si5 0.805444 0.831617 0.310152
Si Si6 0.412717 0.662589 0.365553
O O1 0.067403 0.500000 0.512443
O O2 0.192143 0.705583 0.377476
O O3 0.070946 0.734749 0.579613
O O4 0.000000 0.731984 0.500000
O O5 0.309899 0.237534 0.131967
O O6 0.380436 0.235662 0.205503
O O7 0.385601 0.000000 0.125440
O O8 0.500000 0.218938 0.000000
O O9 0.176019 0.718884 0.140908
O O10 0.005238 0.825309 0.240913
O O11 0.159588 0.000000 0.125536
O O12 0.136706 0.808055 0.039888
O O13 0.275132 0.500000 0.114439
O O14 0.821652 0.794799 0.382980
O O15 0.829089 0.000000 0.277829
O O16 0.399386 0.500000 0.405734
#
# Coordination Sequence:
#
# PCOD8099927 Si02
#       6
#     8   8   8   8   8   8
#     4  10  23  41  61  89 123 156 200 254 303 358
#     4  11  24  39  58  87 123 158 199 248 297 352
#     4   9  19  35  55  84 118 153 198 249 299 354
#     4  10  20  35  57  83 117 160 201 244 297 355
#     4  10  22  41  63  88 122 162 204 248 299 359
#     4  10  21  38  62  88 117 156 202 250 300 356
#
# _framework density 20.637111999999998
#
# number of rings (size 3 to 8) (size 9 to 14) (size 15 to 20)
#    0.000    2.000    0.000    2.500    2.333    5.667 
#    0.000    0.000    0.000    0.000    0.000    0.000 
#    0.000    0.000    0.000    0.000    0.000    0.000 
#
# Total GULP energy -297625.407632 kJ/mol
# GULP energy per Si atom -12401.058651 kJ/mol
# Density = 2.059014 g / cm^3
# Si number density = 20.637112 Si / 1000 Ang^3
#
#
#
# Elastic Constant Matrix: (Units=GPa)
#
#
# Indices 1 2 3 4 5 6 
#
# 1 123.8766 44.2774 41.1977 0.0000 4.5928 0.0000
# 2 44.2774 68.2891 37.2610 -0.0001 4.9679 0.0001
# 3 41.1977 37.2610 71.4759 0.0000 4.1683 0.0000
# 4 0.0000 -0.0001 0.0000 29.2632 0.0000 6.2830
# 5 4.5928 4.9679 4.1683 0.0000 27.7495 0.0000
# 6 0.0000 0.0001 0.0000 6.2830 0.0000 32.1673
#
#
#
# Elastic Compliance Matrix: (Units=1/GPa)
#
#
# Indices 1 2 3 4 5 6 
#
# 1 0.011178 -0.005195 -0.003713 0.000000 -0.000362 0.000000
# 2 -0.005195 0.022999 -0.008883 0.000000 -0.001923 0.000000
# 3 -0.003713 -0.008883 0.020816 0.000000 -0.000922 0.000000
# 4 0.000000 0.000000 0.000000 0.035668 0.000000 -0.006967
# 5 -0.000362 -0.001923 -0.000922 0.000000 0.036579 0.000000
# 6 0.000000 0.000000 0.000000 -0.006967 0.000000 0.032448
#
#
# Mechanical properties :
#
#
# Convention : Reuss Voigt Hill
#
# Bulk Modulus (GPa) = 51.52133 56.56820 54.04477
# Shear Modulus (GPa) = 24.78429 27.22972 26.00701
#
# Velocity S-wave (km/s) = 3.46924 3.63637 3.55379
# Velocity P-wave (km/s) = 6.40836 6.71575 6.56386
#
# Compressibility (1/GPa) = 0.01940944
#
# Stress axis : x y z
#
# Youngs Moduli (GPa) = 89.46311 43.48069 48.04082
#
# Poissons Ratio (x) = 0.22588 0.17840
# Poissons Ratio (y) = 0.46476 0.42675
# Poissons Ratio (z) = 0.33221 0.38624
#
# Static dielectric constant tensor:
#      x y z
#    x 3.769470 0.000000 -0.085220 
#    y 0.000000 3.687640 0.000000 
#    z -0.085220 0.000000 3.650710 
# 
# 
# High freq. dielectric constant tensor:
#      x y z
#    x 1.813150 0.000000 -0.001970 
#    y 0.000000 1.801130 0.000000 
#    z -0.001970 0.000000 1.805190 
# 
# From -- ./inp_files/319550.got.cif
#   From: 2010.06.25/outbox.cif.g09.slc.cpg/sg12_160_cif.got.tgz:319550.got - 2010.06.28 00:19:55.
