data_PCOD8099401
_publ_section_title
;
Structure prediction by ZEFSAII (Michael W. Deem and Ramdas Pophale) SiO2 
 PCOD8099401
Probable space group: C 2/M
;
_chemical_formula_sum "Si O2"
_cell_formula_units_Z 48
_cell_length_a 16.049752
_cell_length_b 9.138833
_cell_length_c 21.050232
_cell_angle_alpha 90.000000
_cell_angle_beta 48.547603
_cell_angle_gamma 90.000000
_cell_volume 2314.147623
_symmetry_space_group_name_H-M "C 2/M"
_symmetry_group_IT_number 12
_symmetry_cell_setting 'monoclinic'
loop_
_space_group_symop_operation_xyz
x,y,z
-x,y,-z
-x,-y,-z
x,-y,z
1/2+x,1/2+y,z
1/2-x,1/2+y,-z
1/2-x,1/2-y,-z
1/2+x,1/2-y,z
loop_
_atom_site_type_symbol
_atom_site_label
_atom_site_fract_x
_atom_site_fract_y
_atom_site_fract_z
Si Si1 0.416922 0.324573 0.803687
Si Si2 0.618276 0.663654 0.405006
Si Si3 0.191391 0.340677 0.477119
Si Si4 0.819927 0.174048 0.097058
Si Si5 0.034891 0.337918 0.338515
Si Si6 0.491514 0.672477 0.904545
O O1 0.415973 0.500000 0.799510
O O2 0.295001 0.261152 0.849686
O O3 0.496038 0.252737 0.709608
O O4 0.466311 0.268389 0.846168
O O5 0.500000 0.659497 0.500000
O O6 0.663946 0.500000 0.373047
O O7 0.703215 0.755510 0.405159
O O8 0.622081 0.741225 0.334493
O O9 0.247346 0.500000 0.440503
O O10 0.250000 0.250000 0.500000
O O11 0.066065 0.359657 0.562824
O O12 0.888193 0.219071 0.127051
O O13 0.798051 0.000000 0.106422
O O14 0.892971 0.226879 0.000211
O O15 0.083011 0.500000 0.297397
O O16 0.487392 0.500000 0.905175
#
# Coordination Sequence:
#
# PCOD8099401 Si02
#       6
#     8   8   8   8   8   8
#     4  11  21  34  53  82 115 146 182 231 285 335
#     4   9  17  32  55  78 101 131 169 216 266 317
#     4  10  20  35  56  80 106 139 183 226 269 324
#     4   9  17  35  59  80 106 146 190 230 274 336
#     4  10  21  37  54  76 106 143 182 221 268 330
#     4   8  17  34  57  81 108 145 189 229 274 334
#
# _framework density 20.741978
#
# number of rings (size 3 to 8) (size 9 to 14) (size 15 to 20)
#    0.000    2.500    0.000    3.500    0.000    4.000 
#    3.000    4.167    0.000    0.000    0.000    0.000 
#    0.000    0.000    0.000    0.000    0.000    0.000 
#
# Total GULP energy -297380.899234 kJ/mol
# GULP energy per Si atom -12390.870801 kJ/mol
# Density = 2.069477 g / cm^3
# Si number density = 20.741978 Si / 1000 Ang^3
#
#
#
# Elastic Constant Matrix: (Units=GPa)
#
#
# Indices 1 2 3 4 5 6 
#
# 1 123.8103 58.8318 25.9574 0.0000 46.6977 0.0000
# 2 58.8318 152.6393 22.7116 0.0000 30.7118 0.0001
# 3 25.9574 22.7116 45.7221 0.0000 32.4866 0.0000
# 4 0.0000 0.0000 0.0000 27.8719 0.0000 3.5296
# 5 46.6977 30.7118 32.4866 0.0000 42.8984 0.0000
# 6 0.0000 0.0001 0.0000 3.5296 0.0000 32.6706
#
#
#
# Elastic Compliance Matrix: (Units=1/GPa)
#
#
# Indices 1 2 3 4 5 6 
#
# 1 0.015639 -0.003012 0.006887 0.000000 -0.020084 0.000000
# 2 -0.003012 0.008235 -0.001128 0.000000 -0.001763 0.000000
# 3 0.006887 -0.001128 0.050386 0.000000 -0.044846 0.000000
# 4 0.000000 0.000000 0.000000 0.036376 0.000000 -0.003930
# 5 -0.020084 -0.001763 -0.044846 0.000000 0.080397 0.000000
# 6 0.000000 0.000000 0.000000 -0.003930 0.000000 0.031033
#
#
# Mechanical properties :
#
#
# Convention : Reuss Voigt Hill
#
# Bulk Modulus (GPa) = 12.53852 59.68594 36.11223
# Shear Modulus (GPa) = 20.56295 34.99956 27.78125
#
# Velocity S-wave (km/s) = 3.15202 4.11223 3.66372
# Velocity P-wave (km/s) = 4.39375 7.16834 5.94517
#
# Compressibility (1/GPa) = 0.07975423
#
# Stress axis : x y z
#
# Youngs Moduli (GPa) = 63.94318 121.43776 19.84677
#
# Poissons Ratio (x) = 0.36572 -0.13669
# Poissons Ratio (y) = 0.19257 0.02239
# Poissons Ratio (z) = -0.44039 0.13702
#
# Static dielectric constant tensor:
#      x y z
#    x 3.490690 0.000000 0.864400 
#    y 0.000000 3.849780 0.000000 
#    z 0.864400 0.000000 3.395370 
# 
# 
# High freq. dielectric constant tensor:
#      x y z
#    x 1.810190 0.000000 0.023920 
#    y 0.000000 1.805800 0.000000 
#    z 0.023920 0.000000 1.795650 
# 
# From -- ./inp_files/313619.got.cif
#   From: 2010.06.25/outbox.cif.g09.slc.cpg/sg12_157_cif.got.tgz:313619.got - 2010.06.28 00:19:55.
