data_PCOD8099516
_publ_section_title
;
Structure prediction by ZEFSAII (Michael W. Deem and Ramdas Pophale) SiO2 
 PCOD8099516
Probable space group: C 2/M
;
_chemical_formula_sum "Si O2"
_cell_formula_units_Z 64
_cell_length_a 19.347321
_cell_length_b 9.155423
_cell_length_c 23.085796
_cell_angle_alpha 90.000000
_cell_angle_beta 121.407394
_cell_angle_gamma 90.000000
_cell_volume 3490.111184
_symmetry_space_group_name_H-M "C 2/M"
_symmetry_group_IT_number 12
_symmetry_cell_setting 'monoclinic'
loop_
_space_group_symop_operation_xyz
x,y,z
-x,y,-z
-x,-y,-z
x,-y,z
1/2+x,1/2+y,z
1/2-x,1/2+y,-z
1/2-x,1/2-y,-z
1/2+x,1/2-y,z
loop_
_atom_site_type_symbol
_atom_site_label
_atom_site_fract_x
_atom_site_fract_y
_atom_site_fract_z
Si Si1 0.247311 0.672490 0.321099
Si Si2 0.799113 0.172534 0.471401
Si Si3 0.088579 0.668862 0.808719
Si Si4 0.925749 0.669977 0.800974
Si Si5 0.829063 0.829431 0.056175
Si Si6 0.113815 0.329479 0.686941
Si Si7 0.492193 0.329475 0.062084
Si Si8 0.962936 0.336341 0.546754
O O1 0.256689 0.500000 0.320250
O O2 0.263937 0.723806 0.394053
O O3 0.157832 0.725296 0.263719
O O4 0.310362 0.743613 0.304913
O O5 0.750000 0.250000 0.500000
O O6 0.891541 0.220428 0.517773
O O7 0.792576 0.000000 0.476174
O O8 0.108357 0.500000 0.830120
O O9 0.149677 0.768644 0.871419
O O10 0.103402 0.710042 0.749172
O O11 0.995999 0.704961 0.785235
O O12 0.921407 0.500000 0.813643
O O13 0.941879 0.751048 0.868630
O O14 0.901713 0.793938 0.043738
O O15 0.811665 0.000000 0.053313
O O16 0.750000 0.750000 0.000000
O O17 0.129045 0.500000 0.682771
O O18 0.031293 0.279205 0.620302
O O19 0.511763 0.500000 0.073769
O O20 0.500000 0.270590 0.000000
O O21 0.932859 0.500000 0.551030
O O22 0.000000 0.340728 0.500000
#
# Coordination Sequence:
#
# PCOD8099516 Si02
#       8
#     8   8   8   8   8   8   8   8
#     4  10  22  38  56  80 113 146 180 230 280 326
#     4  11  24  39  58  83 113 148 188 234 283 336
#     4   9  19  36  57  79 106 143 186 222 267 325
#     4   9  19  36  56  78 106 142 181 221 267 319
#     4  10  20  35  56  81 111 142 177 222 271 320
#     4  10  21  36  58  83 109 147 186 227 275 331
#     4   9  19  36  56  79 107 140 177 219 265 314
#     4  10  20  37  60  83 112 146 186 234 282 333
#
# _framework density 18.337523000000001
#
# number of rings (size 3 to 8) (size 9 to 14) (size 15 to 20)
#    0.000    2.250    1.250    0.750    1.750    4.000 
#    0.000    3.750    0.000    0.000    0.000    0.000 
#    0.000    0.000    0.000    0.000    0.000    0.000 
#
# Total GULP energy -396892.905623 kJ/mol
# GULP energy per Si atom -12402.903301 kJ/mol
# Density = 1.829579 g / cm^3
# Si number density = 18.337523 Si / 1000 Ang^3
#
#
#
# Elastic Constant Matrix: (Units=GPa)
#
#
# Indices 1 2 3 4 5 6 
#
# 1 112.3142 49.8941 93.4916 0.0000 -2.4171 0.0000
# 2 49.8941 57.8599 60.9563 0.0000 3.4842 0.0000
# 3 93.4916 60.9563 170.7145 0.0000 5.9256 0.0000
# 4 0.0000 0.0000 0.0000 34.9541 0.0000 0.5900
# 5 -2.4171 3.4842 5.9256 0.0000 37.9180 0.0000
# 6 0.0000 0.0000 0.0000 0.5900 0.0000 34.2932
#
#
#
# Elastic Compliance Matrix: (Units=1/GPa)
#
#
# Indices 1 2 3 4 5 6 
#
# 1 0.019044 -0.008832 -0.007386 0.000000 0.003180 0.000000
# 2 -0.008832 0.031839 -0.006446 0.000000 -0.002481 0.000000
# 3 -0.007386 -0.006446 0.012267 0.000000 -0.001795 0.000000
# 4 0.000000 0.000000 0.000000 0.028617 0.000000 -0.000492
# 5 0.003180 -0.002481 -0.001795 0.000000 0.027084 0.000000
# 6 0.000000 0.000000 0.000000 -0.000492 0.000000 0.029169
#
#
# Mechanical properties :
#
#
# Convention : Reuss Voigt Hill
#
# Bulk Modulus (GPa) = 56.11055 83.28586 69.69820
# Shear Modulus (GPa) = 25.08930 30.53618 27.81274
#
# Velocity S-wave (km/s) = 3.70292 4.08515 3.89872
# Velocity P-wave (km/s) = 6.99624 8.23214 7.63922
#
# Compressibility (1/GPa) = 0.01782196
#
# Stress axis : x y z
#
# Youngs Moduli (GPa) = 52.51055 31.40762 81.52254
#
# Poissons Ratio (x) = 0.27740 0.60213
# Poissons Ratio (y) = 0.46378 0.52547
# Poissons Ratio (z) = 0.38784 0.20244
#
# Static dielectric constant tensor:
#      x y z
#    x 3.397030 0.000000 -0.023170 
#    y 0.000000 3.402920 0.000000 
#    z -0.023170 0.000000 3.633480 
# 
# 
# High freq. dielectric constant tensor:
#      x y z
#    x 1.713070 0.000000 -0.000510 
#    y 0.000000 1.707150 0.000000 
#    z -0.000510 0.000000 1.722600 
# 
# From -- ./inp_files/346178.got.cif
#   From: 2010.06.25/outbox.cif.g09.slc.cpg/sg12_174_cif.got.tgz:346178.got - 2010.06.28 00:19:55.
