data_PCOD8099742
_publ_section_title
;
Structure prediction by ZEFSAII (Michael W. Deem and Ramdas Pophale) SiO2 
 PCOD8099742
Probable space group: C 2/M
;
_chemical_formula_sum "Si O2"
_cell_formula_units_Z 56
_cell_length_a 28.760432
_cell_length_b 9.298706
_cell_length_c 11.492145
_cell_angle_alpha 90.000000
_cell_angle_beta 109.931438
_cell_angle_gamma 90.000000
_cell_volume 2889.306638
_symmetry_space_group_name_H-M "C 2/M"
_symmetry_group_IT_number 12
_symmetry_cell_setting 'monoclinic'
loop_
_space_group_symop_operation_xyz
x,y,z
-x,y,-z
-x,-y,-z
x,-y,z
1/2+x,1/2+y,z
1/2-x,1/2+y,-z
1/2-x,1/2-y,-z
1/2+x,1/2-y,z
loop_
_atom_site_type_symbol
_atom_site_label
_atom_site_fract_x
_atom_site_fract_y
_atom_site_fract_z
Si Si1 0.099369 0.666068 0.306316
Si Si2 0.822350 0.667504 0.123473
Si Si3 0.790761 0.333934 0.605624
Si Si4 0.505230 0.166561 0.370859
Si Si5 0.554922 0.663755 0.059336
Si Si6 0.735610 0.165118 0.156321
Si Si7 0.919165 0.835045 0.178572
O O1 0.099165 0.500000 0.270007
O O2 0.154632 0.711266 0.392988
O O3 0.061601 0.697113 0.379453
O O4 0.085651 0.749981 0.179086
O O5 0.829362 0.500000 0.157114
O O6 0.782176 0.731189 0.177653
O O7 0.873620 0.747420 0.193123
O O8 0.805757 0.695307 0.976621
O O9 0.780346 0.500000 0.573607
O O10 0.750000 0.250000 0.500000
O O11 0.788054 0.297544 0.740036
O O12 0.500000 0.211464 0.500000
O O13 0.470187 0.265945 0.264264
O O14 0.490848 0.000000 0.339337
O O15 0.550396 0.500000 0.099125
O O16 0.583672 0.674735 0.962694
O O17 0.500000 0.730346 0.000000
O O18 0.753681 0.000000 0.163856
O O19 0.916718 0.000000 0.218628
#
# Coordination Sequence:
#
# PCOD8099742 Si02
#       7
#     8   8   8   8   8   8   8
#     4  10  21  38  60  84 113 150 192 240 288 336
#     4  10  20  35  59  86 114 147 186 233 286 345
#     4  10  22  39  58  83 114 151 197 243 287 339
#     4  10  22  39  57  80 113 152 193 234 277 333
#     4  10  20  35  56  85 119 149 184 231 282 339
#     4   9  19  37  57  81 115 148 187 239 292 343
#     4  11  22  36  56  84 118 151 186 230 281 340
#
# _framework density 19.381810999999999
#
# number of rings (size 3 to 8) (size 9 to 14) (size 15 to 20)
#    0.000    2.000    1.429    1.714    0.000    5.714 
#    0.000    1.429    0.000    0.000    0.000    0.000 
#    0.000    0.000    0.000    0.000    0.000    0.000 
#
# Total GULP energy -347300.709522 kJ/mol
# GULP energy per Si atom -12403.596769 kJ/mol
# Density = 1.933770 g / cm^3
# Si number density = 19.381811 Si / 1000 Ang^3
#
#
#
# Elastic Constant Matrix: (Units=GPa)
#
#
# Indices 1 2 3 4 5 6 
#
# 1 147.7413 67.6005 51.5548 0.0000 12.2240 0.0000
# 2 67.6005 91.0772 44.1997 0.0000 7.6143 0.0000
# 3 51.5548 44.1997 87.0887 0.0000 3.0853 0.0000
# 4 0.0000 0.0000 0.0000 27.7619 0.0000 2.3264
# 5 12.2240 7.6143 3.0853 0.0000 30.6923 0.0000
# 6 0.0000 0.0000 0.0000 2.3264 0.0000 32.0814
#
#
#
# Elastic Compliance Matrix: (Units=1/GPa)
#
#
# Indices 1 2 3 4 5 6 
#
# 1 0.011026 -0.006437 -0.003172 0.000000 -0.002475 0.000000
# 2 -0.006437 0.018584 -0.005569 0.000000 -0.001487 0.000000
# 3 -0.003172 -0.005569 0.016151 0.000000 0.001021 0.000000
# 4 0.000000 0.000000 0.000000 0.036241 0.000000 -0.002628
# 5 -0.002475 -0.001487 0.001021 0.000000 0.033834 0.000000
# 6 0.000000 0.000000 0.000000 -0.002628 0.000000 0.031361
#
#
# Mechanical properties :
#
#
# Convention : Reuss Voigt Hill
#
# Bulk Modulus (GPa) = 64.91673 72.51301 68.71487
# Shear Modulus (GPa) = 27.36915 28.94396 28.15655
#
# Velocity S-wave (km/s) = 3.76187 3.86859 3.81561
# Velocity P-wave (km/s) = 7.24122 7.57950 7.41229
#
# Compressibility (1/GPa) = 0.01540435
#
# Stress axis : x y z
#
# Youngs Moduli (GPa) = 90.69621 53.80853 61.91753
#
# Poissons Ratio (x) = 0.34638 0.19642
# Poissons Ratio (y) = 0.58384 0.34480
# Poissons Ratio (z) = 0.28772 0.29964
#
# Static dielectric constant tensor:
#      x y z
#    x 3.699640 0.000000 -0.040660 
#    y 0.000000 3.536940 0.000000 
#    z -0.040660 0.000000 3.338120 
# 
# 
# High freq. dielectric constant tensor:
#      x y z
#    x 1.767560 0.000000 -0.001440 
#    y 0.000000 1.754020 0.000000 
#    z -0.001440 0.000000 1.739460 
# 
# From -- ./inp_files/186363.got.cif
#   From: 2010.06.25/outbox.cif.g09.slc.cpg/sg12_94_cif.got.tgz:186363.got - 2010.06.28 00:19:55.
