data_PCOD8099154
_publ_section_title
;
Structure prediction by ZEFSAII (Michael W. Deem and Ramdas Pophale) SiO2 
 PCOD8099154
Probable space group: C 2/M
;
_chemical_formula_sum "Si O2"
_cell_formula_units_Z 48
_cell_length_a 19.398359
_cell_length_b 8.623764
_cell_length_c 21.026117
_cell_angle_alpha 90.000000
_cell_angle_beta 133.942531
_cell_angle_gamma 90.000000
_cell_volume 2532.650496
_symmetry_space_group_name_H-M "C 2/M"
_symmetry_group_IT_number 12
_symmetry_cell_setting 'monoclinic'
loop_
_space_group_symop_operation_xyz
x,y,z
-x,y,-z
-x,-y,-z
x,-y,z
1/2+x,1/2+y,z
1/2-x,1/2+y,-z
1/2-x,1/2-y,-z
1/2+x,1/2-y,z
loop_
_atom_site_type_symbol
_atom_site_label
_atom_site_fract_x
_atom_site_fract_y
_atom_site_fract_z
Si Si1 0.993047 0.679456 0.264483
Si Si2 0.014293 0.180091 0.080975
Si Si3 0.146847 0.180829 0.921801
Si Si4 0.845658 0.321716 0.734722
Si Si5 0.857981 0.680473 0.403899
Si Si6 0.507834 0.319223 0.410188
O O1 0.982885 0.500000 0.276244
O O2 0.084656 0.711834 0.279460
O O3 0.897473 0.732947 0.167323
O O4 0.006144 0.780875 0.335247
O O5 0.916709 0.212677 0.056525
O O6 0.101637 0.276963 0.166210
O O7 0.042623 0.000000 0.101733
O O8 0.000000 0.237784 0.000000
O O9 0.153881 0.000000 0.910654
O O10 0.250000 0.250000 0.000000
O O11 0.814372 0.500000 0.717906
O O12 0.753803 0.215726 0.665894
O O13 0.874657 0.500000 0.402874
O O14 0.907206 0.772722 0.377636
O O15 0.904984 0.728100 0.500981
O O16 0.525792 0.500000 0.431523
#
# Coordination Sequence:
#
# PCOD8099154 Si02
#       6
#     8   8   8   8   8   8
#     4  10  21  38  58  81 111 146 185 228 277 329
#     4   9  19  36  56  78 106 142 183 226 272 323
#     4  10  20  35  55  79 109 144 183 228 277 327
#     4  10  21  37  57  82 112 145 184 229 273 322
#     4  11  22  38  59  82 112 147 183 223 272 328
#     4  11  22  38  59  83 112 143 182 229 275 325
#
# _framework density 18.952476999999998
#
# number of rings (size 3 to 8) (size 9 to 14) (size 15 to 20)
#    0.000    1.833    0.000    5.500    0.000    5.000 
#    0.000    5.000    0.000    0.000    0.000    0.000 
#    0.000    0.000    0.000    0.000    0.000    0.000 
#
# Total GULP energy -297735.874493 kJ/mol
# GULP energy per Si atom -12405.661437 kJ/mol
# Density = 1.890934 g / cm^3
# Si number density = 18.952477 Si / 1000 Ang^3
#
#
#
# Elastic Constant Matrix: (Units=GPa)
#
#
# Indices 1 2 3 4 5 6 
#
# 1 68.4384 28.0674 64.8625 0.0000 -1.7414 0.0000
# 2 28.0674 77.0385 30.8384 0.0000 3.1415 0.0000
# 3 64.8625 30.8384 114.7731 0.0000 0.0978 0.0000
# 4 0.0000 0.0000 0.0000 38.7118 0.0000 1.3043
# 5 -1.7414 3.1415 0.0978 0.0000 42.7128 0.0000
# 6 0.0000 0.0000 0.0000 1.3043 0.0000 30.3682
#
#
#
# Elastic Compliance Matrix: (Units=1/GPa)
#
#
# Indices 1 2 3 4 5 6 
#
# 1 0.033318 -0.005237 -0.017424 0.000000 0.001783 0.000000
# 2 -0.005237 0.015416 -0.001182 0.000000 -0.001345 0.000000
# 3 -0.017424 -0.001182 0.018878 0.000000 -0.000667 0.000000
# 4 0.000000 0.000000 0.000000 0.025869 0.000000 -0.001111
# 5 0.001783 -0.001345 -0.000667 0.000000 0.023585 0.000000
# 6 0.000000 0.000000 0.000000 -0.001111 0.000000 0.032977
#
#
# Mechanical properties :
#
#
# Convention : Reuss Voigt Hill
#
# Bulk Modulus (GPa) = 50.18098 56.42074 53.30086
# Shear Modulus (GPa) = 24.46542 31.45734 27.96138
#
# Velocity S-wave (km/s) = 3.59678 4.07849 3.84518
# Velocity P-wave (km/s) = 6.61694 7.21200 6.92087
#
# Compressibility (1/GPa) = 0.01992787
#
# Stress axis : x y z
#
# Youngs Moduli (GPa) = 30.01379 64.86665 52.97278
#
# Poissons Ratio (x) = 0.33969 0.92298
# Poissons Ratio (y) = 0.15718 0.06259
# Poissons Ratio (z) = 0.52295 0.07664
#
# Static dielectric constant tensor:
#      x y z
#    x 3.394290 0.000000 -0.035500 
#    y 0.000000 3.590400 0.000000 
#    z -0.035500 0.000000 3.487790 
# 
# 
# High freq. dielectric constant tensor:
#      x y z
#    x 1.732550 0.000000 -0.000260 
#    y 0.000000 1.751250 0.000000 
#    z -0.000260 0.000000 1.743140 
# 
# From -- ./inp_files/320300.got.cif
#   From: 2010.06.25/outbox.cif.g09.slc.cpg/sg12_161_cif.got.tgz:320300.got - 2010.06.28 00:19:55.
