data_PCOD8099903
_publ_section_title
;
Structure prediction by ZEFSAII (Michael W. Deem and Ramdas Pophale) SiO2 
 PCOD8099903
Probable space group: C 2/M
;
_chemical_formula_sum "Si O2"
_cell_formula_units_Z 64
_cell_length_a 18.738061
_cell_length_b 8.927720
_cell_length_c 20.492082
_cell_angle_alpha 90.000000
_cell_angle_beta 98.425558
_cell_angle_gamma 90.000000
_cell_volume 3391.083679
_symmetry_space_group_name_H-M "C 2/M"
_symmetry_group_IT_number 12
_symmetry_cell_setting 'monoclinic'
loop_
_space_group_symop_operation_xyz
x,y,z
-x,y,-z
-x,-y,-z
x,-y,z
1/2+x,1/2+y,z
1/2-x,1/2+y,-z
1/2-x,1/2-y,-z
1/2+x,1/2-y,z
loop_
_atom_site_type_symbol
_atom_site_label
_atom_site_fract_x
_atom_site_fract_y
_atom_site_fract_z
Si Si1 0.584979 0.673795 0.596626
Si Si2 0.777284 0.324039 0.068868
Si Si3 0.333466 0.171427 0.283063
Si Si4 0.058667 0.323881 0.224471
Si Si5 0.806539 0.169500 0.812804
Si Si6 0.672066 0.675923 0.478137
Si Si7 0.091762 0.322342 0.836256
Si Si8 0.059254 0.678766 0.373255
O O1 0.567075 0.500000 0.604475
O O2 0.648550 0.724882 0.653475
O O3 0.616840 0.705165 0.529744
O O4 0.511369 0.765567 0.597330
O O5 0.776500 0.500000 0.057679
O O6 0.727031 0.278796 0.122997
O O7 0.858666 0.264985 0.096840
O O8 0.750000 0.250000 0.000000
O O9 0.249384 0.183420 0.254331
O O10 0.378411 0.236518 0.228545
O O11 0.355248 0.000000 0.302126
O O12 0.056766 0.500000 0.228960
O O13 0.128001 0.276527 0.194117
O O14 0.054392 0.262665 0.297813
O O15 0.990800 0.267756 0.171285
O O16 0.834490 0.000000 0.821979
O O17 0.683988 0.500000 0.467283
O O18 0.750000 0.750000 0.500000
O O19 0.633166 0.751266 0.410958
O O20 0.100592 0.500000 0.836149
O O21 0.063154 0.500000 0.378843
#
# Coordination Sequence:
#
# PCOD8099903 Si02
#       8
#     8   8   8   8   8   8   8   8
#     4  11  23  38  58  84 113 144 186 237 286 337
#     4   9  18  35  59  82 111 148 189 228 268 324
#     4   9  17  34  57  79 105 144 188 226 272 333
#     4  10  20  35  57  83 113 144 183 233 279 331
#     4   9  20  35  54  82 115 149 183 226 281 332
#     4  11  26  44  59  81 115 150 190 240 291 344
#     4   8  15  33  56  79 108 144 183 224 266 321
#     4  11  23  40  62  85 111 149 193 234 285 346
#
# _framework density 18.873021999999999
#
# number of rings (size 3 to 8) (size 9 to 14) (size 15 to 20)
#    0.000    2.250    1.250    3.000    1.750    5.500 
#    0.000    3.125    0.000    3.750    0.000    0.000 
#    0.000    0.000    0.000    0.000    0.000    0.000 
#
# Total GULP energy -396679.182594 kJ/mol
# GULP energy per Si atom -12396.224456 kJ/mol
# Density = 1.883007 g / cm^3
# Si number density = 18.873022 Si / 1000 Ang^3
#
#
#
# Elastic Constant Matrix: (Units=GPa)
#
#
# Indices 1 2 3 4 5 6 
#
# 1 135.1835 43.7497 58.7145 0.0000 18.1953 0.0000
# 2 43.7497 54.8986 42.0713 0.0000 8.3258 0.0000
# 3 58.7145 42.0713 105.3446 0.0000 26.1653 0.0000
# 4 0.0000 0.0000 0.0000 31.8292 0.0000 0.7083
# 5 18.1953 8.3258 26.1653 0.0000 28.4110 0.0000
# 6 0.0000 0.0000 0.0000 0.7083 0.0000 34.5822
#
#
#
# Elastic Compliance Matrix: (Units=1/GPa)
#
#
# Indices 1 2 3 4 5 6 
#
# 1 0.011037 -0.006015 -0.003152 0.000000 -0.002402 0.000000
# 2 -0.006015 0.029670 -0.009457 0.000000 0.003867 0.000000
# 3 -0.003152 -0.009457 0.017941 0.000000 -0.011732 0.000000
# 4 0.000000 0.000000 0.000000 0.031432 0.000000 -0.000644
# 5 -0.002402 0.003867 -0.011732 0.000000 0.046408 0.000000
# 6 0.000000 0.000000 0.000000 -0.000644 0.000000 0.028930
#
#
# Mechanical properties :
#
#
# Convention : Reuss Voigt Hill
#
# Bulk Modulus (GPa) = 46.73402 64.94421 55.83911
# Shear Modulus (GPa) = 23.83236 29.02387 26.42812
#
# Velocity S-wave (km/s) = 3.55741 3.92580 3.74613
# Velocity P-wave (km/s) = 6.45675 7.41856 6.95430
#
# Compressibility (1/GPa) = 0.02139769
#
# Stress axis : x y z
#
# Youngs Moduli (GPa) = 90.60807 33.70413 55.73940
#
# Poissons Ratio (x) = 0.20273 0.17571
# Poissons Ratio (y) = 0.54501 0.52714
# Poissons Ratio (z) = 0.28563 0.31875
#
# Static dielectric constant tensor:
#      x y z
#    x 3.606400 0.000000 0.254220 
#    y 0.000000 3.290010 0.000000 
#    z 0.254220 0.000000 3.501060 
# 
# 
# High freq. dielectric constant tensor:
#      x y z
#    x 1.742640 0.000000 0.014270 
#    y 0.000000 1.717300 0.000000 
#    z 0.014270 0.000000 1.725740 
# 
# From -- ./inp_files/314208.got.cif
#   From: 2010.06.25/outbox.cif.g09.slc.cpg/sg12_158_cif.got.tgz:314208.got - 2010.06.28 00:19:55.
