data_PCOD8099414
_publ_section_title
;
Structure prediction by ZEFSAII (Michael W. Deem and Ramdas Pophale) SiO2 
 PCOD8099414
Probable space group: C 2/M
;
_chemical_formula_sum "Si O2"
_cell_formula_units_Z 56
_cell_length_a 31.701663
_cell_length_b 9.529416
_cell_length_c 20.030756
_cell_angle_alpha 90.000000
_cell_angle_beta 150.048222
_cell_angle_gamma 90.000000
_cell_volume 3021.217331
_symmetry_space_group_name_H-M "C 2/M"
_symmetry_group_IT_number 12
_symmetry_cell_setting 'monoclinic'
loop_
_space_group_symop_operation_xyz
x,y,z
-x,y,-z
-x,-y,-z
x,-y,z
1/2+x,1/2+y,z
1/2-x,1/2+y,-z
1/2-x,1/2-y,-z
1/2+x,1/2-y,z
loop_
_atom_site_type_symbol
_atom_site_label
_atom_site_fract_x
_atom_site_fract_y
_atom_site_fract_z
Si Si1 0.267904 0.159666 0.707453
Si Si2 0.208950 0.662868 0.885215
Si Si3 0.577513 0.339119 0.421624
Si Si4 0.998408 0.164778 0.822647
Si Si5 0.191622 0.835992 0.109440
Si Si6 0.568596 0.163404 0.149014
Si Si7 0.015009 0.663459 0.596027
O O1 0.177614 0.179431 0.548621
O O2 0.273142 0.256958 0.778618
O O3 0.338698 0.201214 0.750792
O O4 0.282317 0.000000 0.751083
O O5 0.227126 0.500000 0.923654
O O6 0.250833 0.710207 0.873490
O O7 0.110259 0.696560 0.747770
O O8 0.250000 0.750000 0.000000
O O9 0.553597 0.500000 0.404043
O O10 0.531822 0.287420 0.291843
O O11 0.548068 0.247053 0.443272
O O12 0.943406 0.247321 0.800986
O O13 0.983815 0.000000 0.813729
O O14 0.095782 0.207983 0.963083
O O15 0.199554 0.000000 0.134833
O O16 0.558542 0.000000 0.152928
O O17 0.500000 0.209616 0.000000
O O18 0.993030 0.500000 0.572650
O O19 0.000000 0.714448 0.500000
#
# Coordination Sequence:
#
# PCOD8099414 Si02
#       7
#     8   8   8   8   8   8   8
#     4  10  21  37  57  81 109 142 182 225 270 325
#     4  10  21  36  55  81 111 144 182 227 274 323
#     4  10  22  39  57  81 113 146 183 227 276 328
#     4  10  21  36  56  82 112 145 181 225 273 324
#     4  10  20  35  56  80 107 141 182 225 270 320
#     4  10  20  36  57  82 112 144 180 224 274 327
#     4  10  21  38  59  82 111 147 188 230 273 325
#
# _framework density 18.535575000000001
#
# number of rings (size 3 to 8) (size 9 to 14) (size 15 to 20)
#    0.000    2.000    1.429    1.714    0.000    6.286 
#    0.000    0.000    0.000    0.000    0.000    0.000 
#    0.000    0.000    0.000    0.000    0.000    0.000 
#
# Total GULP energy -347349.442941 kJ/mol
# GULP energy per Si atom -12405.337248 kJ/mol
# Density = 1.849339 g / cm^3
# Si number density = 18.535575 Si / 1000 Ang^3
#
#
#
# Elastic Constant Matrix: (Units=GPa)
#
#
# Indices 1 2 3 4 5 6 
#
# 1 109.5149 43.7756 27.6311 0.0000 4.9464 0.0000
# 2 43.7756 44.8460 22.7087 0.0000 -3.4161 0.0000
# 3 27.6311 22.7087 71.4155 0.0000 -3.0823 0.0000
# 4 0.0000 0.0000 0.0000 27.9140 0.0000 -2.0399
# 5 4.9464 -3.4161 -3.0823 0.0000 37.0183 0.0000
# 6 0.0000 0.0000 0.0000 -2.0399 0.0000 38.1490
#
#
#
# Elastic Compliance Matrix: (Units=1/GPa)
#
#
# Indices 1 2 3 4 5 6 
#
# 1 0.015537 -0.014679 -0.001497 0.000000 -0.003555 0.000000
# 2 -0.014679 0.040560 -0.006997 0.000000 0.005122 0.000000
# 3 -0.001497 -0.006997 0.016848 0.000000 0.000957 0.000000
# 4 0.000000 0.000000 0.000000 0.035965 0.000000 0.001923
# 5 -0.003555 0.005122 0.000957 0.000000 0.028041 0.000000
# 6 0.000000 0.000000 0.000000 0.001923 0.000000 0.026316
#
#
# Mechanical properties :
#
#
# Convention : Reuss Voigt Hill
#
# Bulk Modulus (GPa) = 37.59508 46.00080 41.79794
# Shear Modulus (GPa) = 22.88547 29.39366 26.13956
#
# Velocity S-wave (km/s) = 3.51761 3.98653 3.75939
# Velocity P-wave (km/s) = 6.06834 6.78685 6.43763
#
# Compressibility (1/GPa) = 0.02659923
#
# Stress axis : x y z
#
# Youngs Moduli (GPa) = 64.36265 24.65475 59.35406
#
# Poissons Ratio (x) = 0.36190 0.08887
# Poissons Ratio (y) = 0.94477 0.41530
# Poissons Ratio (z) = 0.09637 0.17251
#
# Static dielectric constant tensor:
#      x y z
#    x 3.276990 0.000000 0.082970 
#    y 0.000000 3.313410 0.000000 
#    z 0.082970 0.000000 3.545000 
# 
# 
# High freq. dielectric constant tensor:
#      x y z
#    x 1.724950 0.000000 0.006250 
#    y 0.000000 1.712910 0.000000 
#    z 0.006250 0.000000 1.732380 
# 
# From -- ./inp_files/275629.got.cif
#   From: 2010.06.25/outbox.cif.g09.slc.cpg/sg12_138_cif.got.tgz:275629.got - 2010.06.28 00:19:55.
