data_PCOD8099750
_publ_section_title
;
Structure prediction by ZEFSAII (Michael W. Deem and Ramdas Pophale) SiO2 
 PCOD8099750
Probable space group: C 2/M
;
_chemical_formula_sum "Si O2"
_cell_formula_units_Z 60
_cell_length_a 8.302590
_cell_length_b 27.313650
_cell_length_c 19.683922
_cell_angle_alpha 90.000000
_cell_angle_beta 139.742411
_cell_angle_gamma 90.000000
_cell_volume 2884.621043
_symmetry_space_group_name_H-M "C 2/M"
_symmetry_group_IT_number 12
_symmetry_cell_setting 'monoclinic'
loop_
_space_group_symop_operation_xyz
x,y,z
-x,y,-z
-x,-y,-z
x,-y,z
1/2+x,1/2+y,z
1/2-x,1/2+y,-z
1/2-x,1/2-y,-z
1/2+x,1/2-y,z
loop_
_atom_site_type_symbol
_atom_site_label
_atom_site_fract_x
_atom_site_fract_y
_atom_site_fract_z
Si Si1 0.107367 0.623595 0.105559
Si Si2 0.487562 0.947587 0.304952
Si Si3 0.912341 0.056970 0.714636
Si Si4 0.254929 0.907294 0.109706
Si Si5 0.152890 0.687823 0.791208
Si Si6 0.779106 0.645407 0.568953
Si Si7 0.005099 0.726412 0.887591
Si Si8 0.500000 0.113055 0.500000
O O1 0.354221 0.593906 0.206072
O O2 0.896052 0.613031 0.091138
O O3 0.130823 0.683423 0.111616
O O4 0.000000 0.604188 0.000000
O O5 0.222807 0.940310 0.256654
O O6 0.425605 0.946123 0.204547
O O7 0.694771 0.909486 0.394478
O O8 0.605490 0.000000 0.360268
O O9 0.720319 0.077799 0.597021
O O10 0.987026 0.000000 0.721680
O O11 0.201594 0.862964 0.146316
O O12 0.000000 0.930905 0.000000
O O13 0.037392 0.705142 0.823910
O O14 0.331802 0.727896 0.819254
O O15 0.951155 0.681513 0.667235
O O16 0.500000 0.661719 0.500000
O O17 0.870685 0.646141 0.518754
O O18 0.250000 0.750000 0.000000
#
# Coordination Sequence:
#
# PCOD8099750 Si02
#       8
#     8   8   8   8   8   8   8   4
#     4  11  23  37  62  94 127 169 214 266 333 395
#     4   9  20  38  59  88 119 162 212 263 326 384
#     4  10  22  41  63  93 129 164 218 276 327 396
#     4  10  20  35  56  85 124 164 206 255 320 390
#     4  10  22  39  61  92 126 160 212 272 319 390
#     4  10  23  43  65  92 129 166 220 279 329 393
#     4  11  22  39  66  96 127 167 214 262 323 399
#     4  10  23  40  72  94 126 182 228 274 341 380
#
# _framework density 20.799959999999999
#
# number of rings (size 3 to 8) (size 9 to 14) (size 15 to 20)
#    0.000    1.867    0.000    3.800    5.600    7.200 
#    0.000    0.667    1.467    0.000    0.000    0.000 
#    0.000    0.000    0.000    0.000    0.000    0.000 
#
# Total GULP energy -371676.014812 kJ/mol
# GULP energy per Si atom -12389.200494 kJ/mol
# Density = 2.075262 g / cm^3
# Si number density = 20.799960 Si / 1000 Ang^3
#
#
#
# Elastic Constant Matrix: (Units=GPa)
#
#
# Indices 1 2 3 4 5 6 
#
# 1 71.7280 29.4927 48.9224 0.0001 -11.3595 0.0000
# 2 29.4927 101.8597 54.1590 0.0000 8.9666 0.0000
# 3 48.9224 54.1590 149.0685 0.0001 -1.1711 0.0000
# 4 0.0001 0.0000 0.0001 24.3292 0.0001 4.4512
# 5 -11.3595 8.9666 -1.1711 0.0001 39.5191 0.0000
# 6 0.0000 0.0000 0.0000 4.4512 0.0000 30.9402
#
#
#
# Elastic Compliance Matrix: (Units=1/GPa)
#
#
# Indices 1 2 3 4 5 6 
#
# 1 0.019978 -0.003580 -0.005205 0.000000 0.006400 0.000000
# 2 -0.003580 0.013149 -0.003635 0.000000 -0.004120 0.000000
# 3 -0.005205 -0.003635 0.009734 0.000000 -0.000383 0.000000
# 4 0.000000 0.000000 0.000000 0.042214 0.000000 -0.006073
# 5 0.006400 -0.004120 -0.000383 0.000000 0.028067 0.000000
# 6 0.000000 0.000000 0.000000 -0.006073 0.000000 0.033194
#
#
# Mechanical properties :
#
#
# Convention : Reuss Voigt Hill
#
# Bulk Modulus (GPa) = 55.49194 65.31159 60.40177
# Shear Modulus (GPa) = 28.21920 31.62984 29.92452
#
# Velocity S-wave (km/s) = 3.68733 3.90381 3.79711
# Velocity P-wave (km/s) = 6.69816 7.19636 6.95172
#
# Compressibility (1/GPa) = 0.01802063
#
# Stress axis : x y z
#
# Youngs Moduli (GPa) = 50.05598 76.04944 102.73000
#
# Poissons Ratio (x) = 0.27226 0.53475
# Poissons Ratio (y) = 0.17920 0.37340
# Poissons Ratio (z) = 0.26056 0.27642
#
# Static dielectric constant tensor:
#      x y z
#    x 3.935470 0.000000 -0.184340 
#    y 0.000000 4.089720 0.000000 
#    z -0.184340 0.000000 3.715230 
# 
# 
# High freq. dielectric constant tensor:
#      x y z
#    x 1.814330 0.000000 -0.013460 
#    y 0.000000 1.810730 0.000000 
#    z -0.013460 0.000000 1.815920 
# 
# From -- ./inp_files/302764.got.cif
#   From: 2010.06.25/outbox.cif.g09.slc.cpg/sg12_152_cif.got.tgz:302764.got - 2010.06.28 00:19:55.
