data_PCOD8099309
_publ_section_title
;
Structure prediction by ZEFSAII (Michael W. Deem and Ramdas Pophale) SiO2 
 PCOD8099309
Probable space group: C 2/M
;
_chemical_formula_sum "Si O2"
_cell_formula_units_Z 56
_cell_length_a 28.645007
_cell_length_b 12.111661
_cell_length_c 8.888251
_cell_angle_alpha 90.000000
_cell_angle_beta 118.647975
_cell_angle_gamma 90.000000
_cell_volume 2706.179387
_symmetry_space_group_name_H-M "C 2/M"
_symmetry_group_IT_number 12
_symmetry_cell_setting 'monoclinic'
loop_
_space_group_symop_operation_xyz
x,y,z
-x,y,-z
-x,-y,-z
x,-y,z
1/2+x,1/2+y,z
1/2-x,1/2+y,-z
1/2-x,1/2-y,-z
1/2+x,1/2-y,z
loop_
_atom_site_type_symbol
_atom_site_label
_atom_site_fract_x
_atom_site_fract_y
_atom_site_fract_z
Si Si1 0.930400 0.128198 0.575254
Si Si2 0.157732 0.761565 0.375595
Si Si3 0.698879 0.125963 0.702366
Si Si4 0.431090 0.878120 0.846247
Si Si5 0.016116 0.288965 0.796777
Si Si6 0.885824 0.260362 0.231977
Si Si7 0.317368 0.372998 0.888578
O O1 0.888842 0.156178 0.642662
O O2 0.905487 0.173403 0.383749
O O3 0.989499 0.173675 0.704843
O O4 0.937735 0.000000 0.568187
O O5 0.196514 0.719208 0.567493
O O6 0.130183 0.647649 0.278624
O O7 0.187883 0.823142 0.288056
O O8 0.655228 0.151495 0.762969
O O9 0.757824 0.134876 0.865325
O O10 0.689397 0.000000 0.629724
O O11 0.465744 0.872381 0.743302
O O12 0.436152 0.000000 0.924355
O O13 0.453453 0.785893 0.995773
O O14 0.061071 0.324334 0.744880
O O15 0.858486 0.195014 0.052689
O O16 0.336337 0.500000 0.910225
#
# Coordination Sequence:
#
# PCOD8099309 Si02
#       7
#     8   8   8   8   8   8   8
#     4  10  22  38  58  85 119 158 192 234 289 348
#     4  10  20  40  61  88 116 152 195 245 286 347
#     4  10  23  40  61  87 119 155 195 243 295 345
#     4  10  20  37  59  85 117 149 189 238 291 344
#     4  10  20  35  55  85 114 150 195 235 282 343
#     4  11  22  39  59  85 123 152 195 238 289 350
#     4  11  22  39  62  89 117 153 197 245 295 343
#
# _framework density 20.693380999999999
#
# number of rings (size 3 to 8) (size 9 to 14) (size 15 to 20)
#    0.000    1.714    1.429    3.429    0.000    2.857 
#    0.000    2.857    0.000   13.714    0.000    0.000 
#    0.000    0.000    0.000    0.000    0.000    0.000 
#
# Total GULP energy -346907.876483 kJ/mol
# GULP energy per Si atom -12389.567017 kJ/mol
# Density = 2.064628 g / cm^3
# Si number density = 20.693381 Si / 1000 Ang^3
#
#
#
# Elastic Constant Matrix: (Units=GPa)
#
#
# Indices 1 2 3 4 5 6 
#
# 1 112.4240 24.8985 21.7806 0.0000 -6.5946 0.0000
# 2 24.8985 75.0324 27.3679 0.0000 -1.4053 0.0000
# 3 21.7806 27.3679 70.3385 0.0000 -2.3940 0.0000
# 4 0.0000 0.0000 0.0000 22.5872 0.0000 1.6052
# 5 -6.5946 -1.4053 -2.3940 0.0000 32.5034 0.0000
# 6 0.0000 0.0000 0.0000 1.6052 0.0000 17.3158
#
#
#
# Elastic Compliance Matrix: (Units=1/GPa)
#
#
# Indices 1 2 3 4 5 6 
#
# 1 0.009953 -0.002526 -0.002039 0.000000 0.001760 0.000000
# 2 -0.002526 0.016175 -0.005519 0.000000 -0.000220 0.000000
# 3 -0.002039 -0.005519 0.017016 0.000000 0.000601 0.000000
# 4 0.000000 0.000000 0.000000 0.044566 0.000000 -0.004131
# 5 0.001760 -0.000220 0.000601 0.000000 0.031158 0.000000
# 6 0.000000 0.000000 0.000000 -0.004131 0.000000 0.058134
#
#
# Mechanical properties :
#
#
# Convention : Reuss Voigt Hill
#
# Bulk Modulus (GPa) = 43.52399 45.09875 44.31137
# Shear Modulus (GPa) = 24.41079 26.73114 25.57096
#
# Velocity S-wave (km/s) = 3.43832 3.59802 3.51908
# Velocity P-wave (km/s) = 6.06969 6.25317 6.16211
#
# Compressibility (1/GPa) = 0.02297584
#
# Stress axis : x y z
#
# Youngs Moduli (GPa) = 100.47633 61.82549 58.76785
#
# Poissons Ratio (x) = 0.15616 0.11984
# Poissons Ratio (y) = 0.25379 0.32432
# Poissons Ratio (z) = 0.20489 0.34119
#
# Static dielectric constant tensor:
#      x y z
#    x 4.001480 0.000000 -0.009910 
#    y 0.000000 3.521540 0.000000 
#    z -0.009910 0.000000 3.745410 
# 
# 
# High freq. dielectric constant tensor:
#      x y z
#    x 1.823980 0.000000 0.006910 
#    y 0.000000 1.788980 0.000000 
#    z 0.006910 0.000000 1.804980 
# 
# From -- ./inp_files/110082.got.cif
#   From: 2010.06.25/outbox.cif.g09.slc.cpg/sg12_56_cif.got.tgz:110082.got - 2010.06.28 00:19:55.
