data_PCOD8099956
_publ_section_title
;
Structure prediction by ZEFSAII (Michael W. Deem and Ramdas Pophale) SiO2 
 PCOD8099956
Probable space group: C 2/M
;
_chemical_formula_sum "Si O2"
_cell_formula_units_Z 48
_cell_length_a 28.618148
_cell_length_b 12.910350
_cell_length_c 5.333952
_cell_angle_alpha 90.000000
_cell_angle_beta 72.164590
_cell_angle_gamma 90.000000
_cell_volume 1876.023830
_symmetry_space_group_name_H-M "C 2/M"
_symmetry_group_IT_number 12
_symmetry_cell_setting 'monoclinic'
loop_
_space_group_symop_operation_xyz
x,y,z
-x,y,-z
-x,-y,-z
x,-y,z
1/2+x,1/2+y,z
1/2-x,1/2+y,-z
1/2-x,1/2-y,-z
1/2+x,1/2-y,z
loop_
_atom_site_type_symbol
_atom_site_label
_atom_site_fract_x
_atom_site_fract_y
_atom_site_fract_z
Si Si1 0.814815 0.876467 0.027338
Si Si2 0.529667 0.672289 0.689365
Si Si3 0.361601 0.616417 0.449036
Si Si4 0.847305 0.620324 0.198939
Si Si5 0.450322 0.889132 0.228399
Si Si6 0.798016 0.376885 0.781402
O O1 0.844051 0.827410 0.219610
O O2 0.758407 0.843357 0.134681
O O3 0.821875 0.000000 0.016777
O O4 0.837810 0.829723 0.733073
O O5 0.500000 0.626733 0.500000
O O6 0.579656 0.609623 0.634343
O O7 0.543595 0.791745 0.597092
O O8 0.500000 0.663122 0.000000
O O9 0.340768 0.500000 0.472068
O O10 0.832874 0.500000 0.211907
O O11 0.906175 0.636027 0.107159
O O12 0.825242 0.668351 0.491580
O O13 0.823241 0.672974 0.990457
O O14 0.439039 0.000000 0.388121
O O15 0.500000 0.903944 0.000000
O O16 0.804000 0.500000 0.779698
#
# Coordination Sequence:
#
# PCOD8099956 Si02
#       6
#     8   8   8   8   8   8
#     4   9  17  31  54  82 112 148 187 226 269 322
#     4  11  24  40  59  83 112 147 184 229 283 331
#     4  10  20  35  57  84 113 148 187 225 270 325
#     4   9  17  29  49  77 107 140 178 224 274 321
#     4   9  20  39  61  84 111 145 187 232 279 333
#     4   9  16  28  49  79 110 141 181 222 267 324
#
# _framework density 25.586029
#
# number of rings (size 3 to 8) (size 9 to 14) (size 15 to 20)
#    0.000    2.500    0.000    2.000    0.000    7.667 
#    0.000    5.000    0.000    6.000    0.000    0.000 
#    0.000    0.000    0.000    0.000    0.000    0.000 
#
# Total GULP energy -297572.405911 kJ/mol
# GULP energy per Si atom -12398.850246 kJ/mol
# Density = 2.552779 g / cm^3
# Si number density = 25.586029 Si / 1000 Ang^3
#
#
#
# Elastic Constant Matrix: (Units=GPa)
#
#
# Indices 1 2 3 4 5 6 
#
# 1 230.7192 4.4323 120.9831 0.0000 13.5413 0.0000
# 2 4.4323 35.4081 26.7136 0.0000 13.0472 0.0000
# 3 120.9831 26.7136 203.0741 0.0000 19.6291 0.0000
# 4 0.0000 0.0000 0.0000 -128.5002 0.0000 249.5376
# 5 13.5413 13.0472 19.6291 0.0000 54.6555 0.0000
# 6 0.0000 0.0000 0.0000 249.5376 0.0000 -342.8824
#
#
#
# Elastic Compliance Matrix: (Units=1/GPa)
#
#
# Indices 1 2 3 4 5 6 
#
# 1 0.006499 0.002583 -0.004140 0.000000 -0.000740 0.000000
# 2 0.002583 0.034563 -0.005414 0.000000 -0.006946 0.000000
# 3 -0.004140 -0.005414 0.008162 0.000000 -0.000613 0.000000
# 4 0.000000 0.000000 0.000000 0.018831 0.000000 0.013704
# 5 -0.000740 -0.006946 -0.000613 0.000000 0.020358 0.000000
# 6 0.000000 0.000000 0.000000 0.013704 0.000000 0.007057
#
#
# Mechanical properties :
#
#
# Convention : Reuss Voigt Hill
#
# Bulk Modulus (GPa) = 28.34344 85.93994 57.14169
# Shear Modulus (GPa) = 41.26323 -62.20726 -10.47201
#
# Velocity S-wave (km/s) = 4.02023 -4.93617 -2.02528
# Velocity P-wave (km/s) = 5.71414 1.08345 4.11250
#
# Compressibility (1/GPa) = 0.03528153
#
# Stress axis : x y z
#
# Youngs Moduli (GPa) = 153.86939 28.93282 122.51558
#
# Poissons Ratio (x) = -0.07472 0.50722
# Poissons Ratio (y) = -0.39737 0.66327
# Poissons Ratio (z) = 0.63703 0.15664
#
# Static dielectric constant tensor:
#      x y z
#    x 4.573220 0.000000 0.172370 
#    y 0.000000 4.843960 0.000000 
#    z 0.172370 0.000000 4.575220 
# 
# 
# High freq. dielectric constant tensor:
#      x y z
#    x 2.026690 0.000000 0.002910 
#    y 0.000000 2.053570 0.000000 
#    z 0.002910 0.000000 2.008110 
# 
# From -- ./inp_files/31400.got.cif
#   From: 2010.06.25/outbox.cif.g09.slc.cpg/sg12_16_cif.got.tgz:31400.got - 2010.06.28 00:19:55.
