data_PCOD8099582
_publ_section_title
;
Structure prediction by ZEFSAII (Michael W. Deem and Ramdas Pophale) SiO2 
 PCOD8099582
Probable space group: C 2/M
;
_chemical_formula_sum "Si O2"
_cell_formula_units_Z 56
_cell_length_a 19.851872
_cell_length_b 15.440686
_cell_length_c 16.145600
_cell_angle_alpha 90.000000
_cell_angle_beta 34.250748
_cell_angle_gamma 90.000000
_cell_volume 2785.405730
_symmetry_space_group_name_H-M "C 2/M"
_symmetry_group_IT_number 12
_symmetry_cell_setting 'monoclinic'
loop_
_space_group_symop_operation_xyz
x,y,z
-x,y,-z
-x,-y,-z
x,-y,z
1/2+x,1/2+y,z
1/2-x,1/2+y,-z
1/2-x,1/2-y,-z
1/2+x,1/2-y,z
loop_
_atom_site_type_symbol
_atom_site_label
_atom_site_fract_x
_atom_site_fract_y
_atom_site_fract_z
Si Si1 0.840900 0.594940 0.536331
Si Si2 0.158714 0.402751 0.652911
Si Si3 0.234919 0.721566 0.827040
Si Si4 0.852642 0.898677 0.588899
Si Si5 0.483998 0.750097 0.635588
Si Si6 0.602593 0.653895 0.840903
Si Si7 0.972555 0.260780 0.842247
O O1 0.902083 0.500000 0.485156
O O2 0.804511 0.612512 0.479008
O O3 0.715221 0.591850 0.712559
O O4 0.928250 0.670871 0.478365
O O5 0.119700 0.500000 0.712255
O O6 0.273078 0.376556 0.589892
O O7 0.043961 0.347100 0.791271
O O8 0.278036 0.628221 0.747247
O O9 0.356095 0.774418 0.725589
O O10 0.152201 0.763490 0.840718
O O11 0.159668 0.718284 0.988502
O O12 0.969795 0.839070 0.454140
O O13 0.889104 0.000000 0.557945
O O14 0.468085 0.738662 0.749941
O O15 0.540287 0.681657 0.818302
O O16 0.500000 0.606491 0.000000
#
# Coordination Sequence:
#
# PCOD8099582 Si02
#       7
#     8   8   8   8   8   8   8
#     4  10  20  36  60  85 112 150 196 242 289 342
#     4   9  18  33  56  87 114 145 196 241 281 343
#     4  11  22  36  55  85 120 152 192 239 290 348
#     4  11  22  36  60  90 121 155 193 240 297 354
#     4  11  22  38  59  83 118 158 197 238 284 350
#     4  10  20  35  56  82 113 144 188 239 294 341
#     4  10  20  37  59  81 112 162 193 234 293 344
#
# _framework density 20.104792
#
# number of rings (size 3 to 8) (size 9 to 14) (size 15 to 20)
#    0.000    1.714    2.857    1.714    0.000    4.286 
#    0.000    2.857    0.000    4.286    0.000    0.000 
#    0.000    0.000    0.000    0.000    0.000    0.000 
#
# Total GULP energy -347035.850244 kJ/mol
# GULP energy per Si atom -12394.137509 kJ/mol
# Density = 2.005903 g / cm^3
# Si number density = 20.104792 Si / 1000 Ang^3
#
#
#
# Elastic Constant Matrix: (Units=GPa)
#
#
# Indices 1 2 3 4 5 6 
#
# 1 72.0171 12.0977 25.6866 0.0000 -3.8130 0.0000
# 2 12.0977 76.5573 47.5821 0.0000 2.8804 0.0000
# 3 25.6866 47.5821 133.2351 0.0000 -4.7572 0.0000
# 4 0.0000 0.0000 0.0000 15.8101 0.0000 8.1912
# 5 -3.8130 2.8804 -4.7572 0.0000 34.9305 0.0000
# 6 0.0000 0.0000 0.0000 8.1912 0.0000 15.1305
#
#
#
# Elastic Compliance Matrix: (Units=1/GPa)
#
#
# Indices 1 2 3 4 5 6 
#
# 1 0.015006 -0.000841 -0.002544 0.000000 0.001361 0.000000
# 2 -0.000841 0.017008 -0.005994 0.000000 -0.002311 0.000000
# 3 -0.002544 -0.005994 0.010194 0.000000 0.001605 0.000000
# 4 0.000000 0.000000 0.000000 0.087907 0.000000 -0.047590
# 5 0.001361 -0.002311 0.001605 0.000000 0.029186 0.000000
# 6 0.000000 0.000000 0.000000 -0.047590 0.000000 0.091855
#
#
# Mechanical properties :
#
#
# Convention : Reuss Voigt Hill
#
# Bulk Modulus (GPa) = 42.64617 50.28248 46.46433
# Shear Modulus (GPa) = 18.00301 26.27043 22.13672
#
# Velocity S-wave (km/s) = 2.99567 3.61872 3.32183
# Velocity P-wave (km/s) = 5.76397 6.52109 6.15419
#
# Compressibility (1/GPa) = 0.02344876
#
# Stress axis : x y z
#
# Youngs Moduli (GPa) = 66.63837 58.79751 98.09697
#
# Poissons Ratio (x) = 0.04947 0.24956
# Poissons Ratio (y) = 0.05607 0.58801
# Poissons Ratio (z) = 0.16953 0.35244
#
# Static dielectric constant tensor:
#      x y z
#    x 3.777300 0.000000 0.061480 
#    y 0.000000 3.384220 0.000000 
#    z 0.061480 0.000000 3.815390 
# 
# 
# High freq. dielectric constant tensor:
#      x y z
#    x 1.796680 0.000000 0.002050 
#    y 0.000000 1.758940 0.000000 
#    z 0.002050 0.000000 1.792250 
# 
# From -- ./inp_files/284538.got.cif
#   From: 2010.06.25/outbox.cif.g09.slc.cpg/sg12_143_cif.got.tgz:284538.got - 2010.06.28 00:19:55.
