data_PCOD8100735
_publ_section_title
;
Structure prediction by ZEFSAII (Michael W. Deem and Ramdas Pophale) SiO2 
 PCOD8100735
Probable space group: C 2/M
;
_chemical_formula_sum "Si O2"
_cell_formula_units_Z 56
_cell_length_a 28.985579
_cell_length_b 8.721921
_cell_length_c 11.112084
_cell_angle_alpha 90.000000
_cell_angle_beta 68.539771
_cell_angle_gamma 90.000000
_cell_volume 2614.485114
_symmetry_space_group_name_H-M "C 2/M"
_symmetry_group_IT_number 12
_symmetry_cell_setting 'monoclinic'
loop_
_space_group_symop_operation_xyz
x,y,z
-x,y,-z
-x,-y,-z
x,-y,z
1/2+x,1/2+y,z
1/2-x,1/2+y,-z
1/2-x,1/2-y,-z
1/2+x,1/2-y,z
loop_
_atom_site_type_symbol
_atom_site_label
_atom_site_fract_x
_atom_site_fract_y
_atom_site_fract_z
Si Si1 0.043911 0.680734 0.380492
Si Si2 0.625379 0.322455 0.927872
Si Si3 0.530896 0.180874 0.128675
Si Si4 0.628356 0.825721 0.470846
Si Si5 0.081992 0.673938 0.764603
Si Si6 0.730975 0.678248 0.393128
Si Si7 0.275941 0.818722 0.094401
O O1 0.034876 0.500000 0.384910
O O2 0.041099 0.748537 0.250727
O O3 0.098246 0.718852 0.380189
O O4 0.000000 0.757579 0.500000
O O5 0.635312 0.500000 0.940075
O O6 0.624585 0.279361 0.786499
O O7 0.666404 0.229486 0.963819
O O8 0.569677 0.271361 0.011077
O O9 0.474391 0.218343 0.145195
O O10 0.540968 0.000000 0.109581
O O11 0.588614 0.809183 0.615865
O O12 0.672676 0.707294 0.441569
O O13 0.649115 0.000000 0.445299
O O14 0.092372 0.500000 0.795653
O O15 0.742902 0.500000 0.389846
O O16 0.750000 0.750000 0.500000
O O17 0.754492 0.742543 0.244369
O O18 0.270282 0.000000 0.090985
O O19 0.250000 0.750000 0.000000
#
# Coordination Sequence:
#
# PCOD8100735 Si02
#       7
#     8   8   8   8   8   8   8
#     4   9  16  32  58  90 121 154 199 247 296 358
#     4  12  26  41  60  87 123 163 208 256 309 370
#     4  10  20  36  61  90 122 162 207 251 301 363
#     4  10  20  35  62  95 125 158 200 250 305 365
#     4  10  20  37  61  91 126 163 208 255 300 362
#     4  11  25  44  67  96 128 162 209 263 318 380
#     4  11  26  48  70  94 126 165 214 268 321 380
#
# _framework density 21.419132999999999
#
# number of rings (size 3 to 8) (size 9 to 14) (size 15 to 20)
#    0.000    1.571    1.429    3.429    2.000    8.571 
#    0.000    0.000    0.000    0.857    0.000    0.000 
#    0.000    0.000    0.000    0.000    0.000    0.000 
#
# Total GULP energy -347080.967640 kJ/mol
# GULP energy per Si atom -12395.748844 kJ/mol
# Density = 2.137038 g / cm^3
# Si number density = 21.419133 Si / 1000 Ang^3
#
#
#
# Elastic Constant Matrix: (Units=GPa)
#
#
# Indices 1 2 3 4 5 6 
#
# 1 113.5236 36.7632 43.8353 0.0000 15.1096 0.0000
# 2 36.7632 62.2344 31.5228 0.0000 7.7782 0.0000
# 3 43.8353 31.5228 92.6368 0.0000 15.5888 0.0000
# 4 0.0000 0.0000 0.0000 19.5681 0.0000 4.2014
# 5 15.1096 7.7782 15.5888 0.0000 41.6461 0.0000
# 6 0.0000 0.0000 0.0000 4.2014 0.0000 32.4567
#
#
#
# Elastic Compliance Matrix: (Units=1/GPa)
#
#
# Indices 1 2 3 4 5 6 
#
# 1 0.012141 -0.005049 -0.003676 0.000000 -0.002086 0.000000
# 2 -0.005049 0.021574 -0.004890 0.000000 -0.000367 0.000000
# 3 -0.003676 -0.004890 0.014749 0.000000 -0.003274 0.000000
# 4 0.000000 0.000000 0.000000 0.052565 0.000000 -0.006804
# 5 -0.002086 -0.000367 -0.003274 0.000000 0.026063 0.000000
# 6 0.000000 0.000000 0.000000 -0.006804 0.000000 0.031691
#
#
# Mechanical properties :
#
#
# Convention : Reuss Voigt Hill
#
# Bulk Modulus (GPa) = 47.09579 54.73750 50.91665
# Shear Modulus (GPa) = 25.89459 29.15241 27.52350
#
# Velocity S-wave (km/s) = 3.48076 3.69324 3.58857
# Velocity P-wave (km/s) = 6.17978 6.61797 6.40263
#
# Compressibility (1/GPa) = 0.02123332
#
# Stress axis : x y z
#
# Youngs Moduli (GPa) = 82.36637 46.35239 67.80036
#
# Poissons Ratio (x) = 0.23405 0.24922
# Poissons Ratio (y) = 0.41590 0.33156
# Poissons Ratio (z) = 0.30276 0.22667
#
# Static dielectric constant tensor:
#      x y z
#    x 3.890100 0.000000 0.180990 
#    y 0.000000 3.496720 0.000000 
#    z 0.180990 0.000000 4.243800 
# 
# 
# High freq. dielectric constant tensor:
#      x y z
#    x 1.856160 0.000000 0.012760 
#    y 0.000000 1.801370 0.000000 
#    z 0.012760 0.000000 1.853930 
# 
# From -- ./inp_files/180749.got.cif
#   From: 2010.06.25/outbox.cif.g09.slc.cpg/sg12_91_cif.got.tgz:180749.got - 2010.06.28 00:19:55.
