data_PCOD8100227
_publ_section_title
;
Structure prediction by ZEFSAII (Michael W. Deem and Ramdas Pophale) SiO2 
 PCOD8100227
Probable space group: C 2/M
;
_chemical_formula_sum "Si O2"
_cell_formula_units_Z 56
_cell_length_a 18.820535
_cell_length_b 8.631003
_cell_length_c 22.637303
_cell_angle_alpha 90.000000
_cell_angle_beta 128.406700
_cell_angle_gamma 90.000000
_cell_volume 2881.534878
_symmetry_space_group_name_H-M "C 2/M"
_symmetry_group_IT_number 12
_symmetry_cell_setting 'monoclinic'
loop_
_space_group_symop_operation_xyz
x,y,z
-x,y,-z
-x,-y,-z
x,-y,z
1/2+x,1/2+y,z
1/2-x,1/2+y,-z
1/2-x,1/2-y,-z
1/2+x,1/2-y,z
loop_
_atom_site_type_symbol
_atom_site_label
_atom_site_fract_x
_atom_site_fract_y
_atom_site_fract_z
Si Si1 0.154432 0.182296 0.931748
Si Si2 0.492267 0.684866 0.929236
Si Si3 0.175431 0.180336 0.503815
Si Si4 0.165619 0.317357 0.626345
Si Si5 0.701949 0.317066 0.205214
Si Si6 0.359448 0.818238 0.201862
Si Si7 0.526464 0.679132 0.639061
O O1 0.076532 0.248895 0.934818
O O2 0.127657 0.226296 0.851749
O O3 0.160225 0.000000 0.941060
O O4 0.250000 0.250000 0.000000
O O5 0.491219 0.500000 0.927417
O O6 0.398708 0.753294 0.853537
O O7 0.500000 0.746291 0.000000
O O8 0.250000 0.250000 0.500000
O O9 0.182835 0.271378 0.568572
O O10 0.079370 0.209462 0.423647
O O11 0.192884 0.000000 0.524570
O O12 0.149860 0.500000 0.624152
O O13 0.252966 0.263593 0.709883
O O14 0.076442 0.232717 0.605067
O O15 0.695204 0.500000 0.200088
O O16 0.765319 0.263663 0.183400
O O17 0.441858 0.778462 0.288313
O O18 0.359440 0.000000 0.188414
O O19 0.548090 0.500000 0.662015
#
# Coordination Sequence:
#
# PCOD8100227 Si02
#       7
#     8   8   8   8   8   8   8
#     4  11  22  35  55  81 110 145 183 227 277 329
#     4   9  17  31  53  78 103 137 181 223 264 316
#     4  11  24  39  56  80 112 149 190 238 286 334
#     4  10  20  35  58  85 113 147 186 230 281 340
#     4   8  16  32  54  80 106 135 177 224 267 318
#     4  10  20  36  59  84 110 141 179 226 277 331
#     4  10  21  38  59  83 112 147 187 230 279 337
#
# _framework density 19.434086000000001
#
# number of rings (size 3 to 8) (size 9 to 14) (size 15 to 20)
#    0.000    2.143    0.000    4.286    0.000    7.429 
#    0.000    2.857    0.000   15.429    0.000    0.000 
#    0.000    0.000    0.000    0.000    0.000    0.000 
#
# Total GULP energy -347241.507786 kJ/mol
# GULP energy per Si atom -12401.482421 kJ/mol
# Density = 1.938985 g / cm^3
# Si number density = 19.434086 Si / 1000 Ang^3
#
#
#
# Elastic Constant Matrix: (Units=GPa)
#
#
# Indices 1 2 3 4 5 6 
#
# 1 149.2158 30.7322 73.5414 0.0000 5.0121 0.0000
# 2 30.7322 42.1703 29.1690 0.0000 10.2172 0.0000
# 3 73.5414 29.1690 99.0037 0.0000 7.6031 0.0000
# 4 0.0000 0.0000 0.0000 31.6401 0.0000 -3.3203
# 5 5.0121 10.2172 7.6031 0.0000 39.0899 0.0000
# 6 0.0000 0.0000 0.0000 -3.3203 0.0000 29.3184
#
#
#
# Elastic Compliance Matrix: (Units=1/GPa)
#
#
# Indices 1 2 3 4 5 6 
#
# 1 0.010878 -0.003134 -0.007221 0.000000 0.000829 0.000000
# 2 -0.003134 0.032227 -0.006650 0.000000 -0.006728 0.000000
# 3 -0.007221 -0.006650 0.017480 0.000000 -0.000736 0.000000
# 4 0.000000 0.000000 0.000000 0.031986 0.000000 0.003622
# 5 0.000829 -0.006728 -0.000736 0.000000 0.027377 0.000000
# 6 0.000000 0.000000 0.000000 0.003622 0.000000 0.034519
#
#
# Mechanical properties :
#
#
# Convention : Reuss Voigt Hill
#
# Bulk Modulus (GPa) = 37.62848 61.91945 49.77396
# Shear Modulus (GPa) = 25.33754 30.47283 27.90518
#
# Velocity S-wave (km/s) = 3.61469 3.96411 3.79342
# Velocity P-wave (km/s) = 6.06840 7.27204 6.69732
#
# Compressibility (1/GPa) = 0.02657562
#
# Stress axis : x y z
#
# Youngs Moduli (GPa) = 91.92829 31.02955 57.20759
#
# Poissons Ratio (x) = 0.09724 0.41308
# Poissons Ratio (y) = 0.28808 0.38046
# Poissons Ratio (z) = 0.66379 0.20636
#
# Static dielectric constant tensor:
#      x y z
#    x 3.749340 0.000000 0.104980 
#    y 0.000000 2.907190 0.000000 
#    z 0.104980 0.000000 3.747930 
# 
# 
# High freq. dielectric constant tensor:
#      x y z
#    x 1.759180 0.000000 0.000400 
#    y 0.000000 1.739330 0.000000 
#    z 0.000400 0.000000 1.770480 
# 
# From -- ./inp_files/342581.got.cif
#   From: 2010.06.25/outbox.cif.g09.slc.cpg/sg12_172_cif.got.tgz:342581.got - 2010.06.28 00:19:55.
