data_PCOD8100536
_publ_section_title
;
Structure prediction by ZEFSAII (Michael W. Deem and Ramdas Pophale) SiO2 
 PCOD8100536
Probable space group: C 2/M
;
_chemical_formula_sum "Si O2"
_cell_formula_units_Z 64
_cell_length_a 15.314311
_cell_length_b 8.774832
_cell_length_c 23.895090
_cell_angle_alpha 90.000000
_cell_angle_beta 90.467256
_cell_angle_gamma 90.000000
_cell_volume 3210.927514
_symmetry_space_group_name_H-M "C 2/M"
_symmetry_group_IT_number 12
_symmetry_cell_setting 'monoclinic'
loop_
_space_group_symop_operation_xyz
x,y,z
-x,y,-z
-x,-y,-z
x,-y,z
1/2+x,1/2+y,z
1/2-x,1/2+y,-z
1/2-x,1/2-y,-z
1/2+x,1/2-y,z
loop_
_atom_site_type_symbol
_atom_site_label
_atom_site_fract_x
_atom_site_fract_y
_atom_site_fract_z
Si Si1 0.390356 0.821879 0.356368
Si Si2 0.606553 0.674819 0.759427
Si Si3 0.237759 0.820652 0.439698
Si Si4 0.994437 0.681180 0.062634
Si Si5 0.090259 0.678739 0.366196
Si Si6 0.671616 0.820729 0.869494
Si Si7 0.097187 0.175458 0.249517
Si Si8 0.346867 0.820000 0.861783
O O1 0.362686 0.728355 0.301398
O O2 0.322420 0.774238 0.403847
O O3 0.488623 0.778010 0.376112
O O4 0.385517 0.000000 0.341759
O O5 0.634564 0.500000 0.768708
O O6 0.652099 0.780460 0.805249
O O7 0.503668 0.697472 0.765497
O O8 0.250000 0.750000 0.500000
O O9 0.147918 0.759203 0.413485
O O10 0.230011 0.000000 0.445101
O O11 0.998002 0.500000 0.061166
O O12 0.905632 0.738017 0.090857
O O13 0.074984 0.743952 0.099487
O O14 0.000000 0.748459 0.000000
O O15 0.105494 0.500000 0.370396
O O16 0.122029 0.735456 0.305830
O O17 0.757362 0.731635 0.890792
O O18 0.686307 0.000000 0.875085
O O19 0.152464 0.244901 0.199360
O O20 0.122622 0.000000 0.258218
O O21 0.352448 0.000000 0.855152
#
# Coordination Sequence:
#
# PCOD8100536 Si02
#       8
#     8   8   8   8   8   8   8   8
#     4   9  21  40  61  85 118 159 199 240 297 360
#     4  10  20  35  59  89 122 154 196 247 297 356
#     4  11  24  42  62  87 120 159 203 250 297 357
#     4   9  20  40  63  85 116 160 205 248 297 358
#     4  10  21  39  62  88 118 156 200 245 296 356
#     4  11  22  37  59  87 120 158 198 244 302 359
#     4  10  20  36  59  88 123 157 194 245 300 358
#     4  11  22  37  59  88 119 156 200 246 297 357
#
# _framework density 19.931934999999999
#
# number of rings (size 3 to 8) (size 9 to 14) (size 15 to 20)
#    0.000    1.875    1.250    2.250    1.750    3.500 
#    0.000    2.500    0.000    5.250    0.000    0.000 
#    0.000    0.000    0.000    0.000    0.000    0.000 
#
# Total GULP energy -396941.040086 kJ/mol
# GULP energy per Si atom -12404.407503 kJ/mol
# Density = 1.988657 g / cm^3
# Si number density = 19.931935 Si / 1000 Ang^3
#
#
#
# Elastic Constant Matrix: (Units=GPa)
#
#
# Indices 1 2 3 4 5 6 
#
# 1 101.2353 26.7073 53.4821 0.0000 -16.1541 0.0000
# 2 26.7073 54.7267 28.6067 0.0000 -8.2368 0.0000
# 3 53.4821 28.6067 122.4300 0.0000 -12.5254 0.0000
# 4 0.0000 0.0000 0.0000 21.1818 0.0000 -0.0583
# 5 -16.1541 -8.2368 -12.5254 0.0000 23.6946 0.0000
# 6 0.0000 0.0000 0.0000 -0.0583 0.0000 33.0556
#
#
#
# Elastic Compliance Matrix: (Units=1/GPa)
#
#
# Indices 1 2 3 4 5 6 
#
# 1 0.014313 -0.003573 -0.004806 0.000000 0.005975 0.000000
# 2 -0.003573 0.022267 -0.003276 0.000000 0.003572 0.000000
# 3 -0.004806 -0.003276 0.011186 0.000000 0.001498 0.000000
# 4 0.000000 0.000000 0.000000 0.047211 0.000000 0.000083
# 5 0.005975 0.003572 0.001498 0.000000 0.048311 0.000000
# 6 0.000000 0.000000 0.000000 0.000083 0.000000 0.030252
#
#
# Mechanical properties :
#
#
# Convention : Reuss Voigt Hill
#
# Bulk Modulus (GPa) = 40.89271 55.10937 48.00104
# Shear Modulus (GPa) = 24.38979 26.89277 25.64128
#
# Velocity S-wave (km/s) = 3.50187 3.67717 3.59059
# Velocity P-wave (km/s) = 6.07549 6.76296 6.42842
#
# Compressibility (1/GPa) = 0.02445424
#
# Stress axis : x y z
#
# Youngs Moduli (GPa) = 69.86478 44.91003 89.39514
#
# Poissons Ratio (x) = 0.16048 0.42967
# Poissons Ratio (y) = 0.24965 0.29289
# Poissons Ratio (z) = 0.33580 0.14714
#
# Static dielectric constant tensor:
#      x y z
#    x 3.836480 0.000000 -0.018280 
#    y 0.000000 3.532760 0.000000 
#    z -0.018280 0.000000 3.614940 
# 
# 
# High freq. dielectric constant tensor:
#      x y z
#    x 1.789510 0.000000 -0.000180 
#    y 0.000000 1.772810 0.000000 
#    z -0.000180 0.000000 1.772270 
# 
# From -- ./inp_files/338687.got.cif
#   From: 2010.06.25/outbox.cif.g09.slc.cpg/sg12_170_cif.got.tgz:338687.got - 2010.06.28 00:19:55.
