data_PCOD8100562
_publ_section_title
;
Structure prediction by ZEFSAII (Michael W. Deem and Ramdas Pophale) SiO2 
 PCOD8100562
Probable space group: C 2/M
;
_chemical_formula_sum "Si O2"
_cell_formula_units_Z 48
_cell_length_a 15.089344
_cell_length_b 10.552198
_cell_length_c 15.811122
_cell_angle_alpha 90.000000
_cell_angle_beta 66.193944
_cell_angle_gamma 90.000000
_cell_volume 2303.338053
_symmetry_space_group_name_H-M "C 2/M"
_symmetry_group_IT_number 12
_symmetry_cell_setting 'monoclinic'
loop_
_space_group_symop_operation_xyz
x,y,z
-x,y,-z
-x,-y,-z
x,-y,z
1/2+x,1/2+y,z
1/2-x,1/2+y,-z
1/2-x,1/2-y,-z
1/2+x,1/2-y,z
loop_
_atom_site_type_symbol
_atom_site_label
_atom_site_fract_x
_atom_site_fract_y
_atom_site_fract_z
Si Si1 0.675753 0.637953 0.032809
Si Si2 0.107591 0.730443 0.212762
Si Si3 0.913815 0.360775 0.232391
Si Si4 0.570686 0.644183 0.400914
Si Si5 0.672510 0.358534 0.849658
Si Si6 0.737847 0.140850 0.572258
O O1 0.726354 0.500000 0.022485
O O2 0.610046 0.657590 0.141104
O O3 0.750000 0.750000 0.000000
O O4 0.622188 0.642534 0.962191
O O5 0.062009 0.781887 0.316841
O O6 0.211856 0.666626 0.187238
O O7 0.028897 0.633907 0.204602
O O8 0.884060 0.500000 0.206911
O O9 0.880835 0.248923 0.183122
O O10 0.863816 0.339415 0.342306
O O11 0.500000 0.704060 0.500000
O O12 0.538028 0.500000 0.397195
O O13 0.680919 0.654112 0.387649
O O14 0.659206 0.500000 0.814741
O O15 0.750000 0.250000 0.500000
O O16 0.743822 0.000000 0.527722
#
# Coordination Sequence:
#
# PCOD8100562 Si02
#       6
#     8   8   8   8   8   8
#     4   9  20  37  62  93 125 166 211 260 312 371
#     4  11  21  39  64  90 125 164 208 256 316 366
#     4  11  24  41  63  91 126 166 210 257 312 373
#     4  10  20  35  59  90 124 160 203 252 308 373
#     4  10  22  41  62  90 126 162 209 260 310 369
#     4  10  21  39  59  87 122 160 204 256 307 370
#
# _framework density 20.839320000000001
#
# number of rings (size 3 to 8) (size 9 to 14) (size 15 to 20)
#    0.000    1.833    1.667    2.000    0.000    6.000 
#    0.000    2.500    0.000    3.500    0.000    0.000 
#    0.000    0.000    0.000    0.000    0.000    0.000 
#
# Total GULP energy -297343.406383 kJ/mol
# GULP energy per Si atom -12389.308599 kJ/mol
# Density = 2.079189 g / cm^3
# Si number density = 20.839320 Si / 1000 Ang^3
#
#
#
# Elastic Constant Matrix: (Units=GPa)
#
#
# Indices 1 2 3 4 5 6 
#
# 1 84.8415 33.4283 19.3036 0.0000 3.8170 0.0000
# 2 33.4283 168.9041 68.0338 0.0000 25.5474 0.0000
# 3 19.3036 68.0338 135.0707 0.0000 9.8950 0.0000
# 4 0.0000 0.0000 0.0000 29.0471 0.0000 2.9283
# 5 3.8170 25.5474 9.8950 0.0000 20.2002 0.0000
# 6 0.0000 0.0000 0.0000 2.9283 0.0000 27.2248
#
#
#
# Elastic Compliance Matrix: (Units=1/GPa)
#
#
# Indices 1 2 3 4 5 6 
#
# 1 0.012850 -0.002409 -0.000693 0.000000 0.000958 0.000000
# 2 -0.002409 0.009307 -0.003645 0.000000 -0.009530 0.000000
# 3 -0.000693 -0.003645 0.009326 0.000000 0.000173 0.000000
# 4 0.000000 0.000000 0.000000 0.034804 0.000000 -0.003744
# 5 0.000958 -0.009530 0.000173 0.000000 0.061291 0.000000
# 6 0.000000 0.000000 0.000000 -0.003744 0.000000 0.037134
#
#
# Mechanical properties :
#
#
# Convention : Reuss Voigt Hill
#
# Bulk Modulus (GPa) = 55.59203 70.03867 62.81535
# Shear Modulus (GPa) = 27.14374 33.16445 30.15410
#
# Velocity S-wave (km/s) = 3.61297 3.99361 3.80805
# Velocity P-wave (km/s) = 6.64373 7.41263 7.03869
#
# Compressibility (1/GPa) = 0.01798819
#
# Stress axis : x y z
#
# Youngs Moduli (GPa) = 77.81821 107.44508 107.22552
#
# Poissons Ratio (x) = 0.25882 0.07435
# Poissons Ratio (y) = 0.18746 0.39089
# Poissons Ratio (z) = 0.05396 0.39169
#
# Static dielectric constant tensor:
#      x y z
#    x 3.608590 0.000000 -0.105510 
#    y 0.000000 3.915060 0.000000 
#    z -0.105510 0.000000 4.201080 
# 
# 
# High freq. dielectric constant tensor:
#      x y z
#    x 1.799010 0.000000 -0.006430 
#    y 0.000000 1.821160 0.000000 
#    z -0.006430 0.000000 1.822410 
# 
# From -- ./inp_files/212500.got.cif
#   From: 2010.06.25/outbox.cif.g09.slc.cpg/sg12_107_cif.got.tgz:212500.got - 2010.06.28 00:19:55.
