data_PCOD8100588
_publ_section_title
;
Structure prediction by ZEFSAII (Michael W. Deem and Ramdas Pophale) SiO2 
 PCOD8100588
Probable space group: C 2/M
;
_chemical_formula_sum "Si O2"
_cell_formula_units_Z 48
_cell_length_a 28.158297
_cell_length_b 23.145059
_cell_length_c 12.119070
_cell_angle_alpha 90.000000
_cell_angle_beta 161.087739
_cell_angle_gamma 90.000000
_cell_volume 2559.997994
_symmetry_space_group_name_H-M "C 2/M"
_symmetry_group_IT_number 12
_symmetry_cell_setting 'monoclinic'
loop_
_space_group_symop_operation_xyz
x,y,z
-x,y,-z
-x,-y,-z
x,-y,z
1/2+x,1/2+y,z
1/2-x,1/2+y,-z
1/2-x,1/2-y,-z
1/2+x,1/2-y,z
loop_
_atom_site_type_symbol
_atom_site_label
_atom_site_fract_x
_atom_site_fract_y
_atom_site_fract_z
Si Si1 0.773838 0.000000 0.518177
Si Si2 0.572153 0.377361 0.401302
Si Si3 0.798450 0.622884 0.701840
Si Si4 0.520400 0.789101 0.240203
Si Si5 0.190841 0.807585 0.258382
Si Si6 0.891782 0.220156 0.360008
Si Si7 0.510586 0.500000 0.212507
O O1 0.676086 0.942423 0.285747
O O2 0.894316 0.000000 0.688396
O O3 0.845186 0.000000 0.798308
O O4 0.669275 0.371153 0.505785
O O5 0.647469 0.340886 0.665614
O O6 0.548290 0.445298 0.373467
O O7 0.409838 0.353137 0.026621
O O8 0.755395 0.663675 0.507494
O O9 0.952402 0.646129 0.090267
O O10 0.680010 0.787243 0.538413
O O11 0.530110 0.765076 0.385730
O O12 0.407399 0.747955 0.924476
O O13 0.000000 0.204279 0.500000
O O14 0.750000 0.250000 0.000000
#
# Coordination Sequence:
#
# PCOD8100588 Si02
#       7
#     4   8   8   8   8   8   4
#     4   9  18  32  56  82 115 156 176 205 262 330
#     4  10  20  35  60  83 108 146 187 229 272 324
#     4  11  20  35  55  83 117 148 179 213 264 339
#     4  11  23  36  54  81 109 147 185 227 280 331
#     4  11  21  35  52  82 117 147 176 218 272 339
#     4  11  22  39  57  77 105 141 189 242 288 319
#     4   9  16  34  56  85 112 143 187 218 259 331
#
# _framework density 18.750014
#
# number of rings (size 3 to 8) (size 9 to 14) (size 15 to 20)
#    0.000    1.500    1.667    6.500    0.000    2.667 
#    0.000    2.917    0.000    1.000    0.000    4.667 
#    0.000    0.000    0.000    0.000    0.000    0.000 
#
# Total GULP energy -297505.747759 kJ/mol
# GULP energy per Si atom -12396.072823 kJ/mol
# Density = 1.870734 g / cm^3
# Si number density = 18.750014 Si / 1000 Ang^3
#
#
#
# Elastic Constant Matrix: (Units=GPa)
#
#
# Indices 1 2 3 4 5 6 
#
# 1 76.5704 33.6352 16.6388 0.0000 -4.7538 0.0000
# 2 33.6352 146.4450 54.9292 0.0000 -20.3334 0.0000
# 3 16.6388 54.9292 71.6123 0.0000 1.4293 0.0000
# 4 0.0000 0.0000 0.0000 26.7126 0.0000 0.2524
# 5 -4.7538 -20.3334 1.4293 0.0000 32.7331 0.0000
# 6 0.0000 0.0000 0.0000 0.2524 0.0000 22.3903
#
#
#
# Elastic Compliance Matrix: (Units=1/GPa)
#
#
# Indices 1 2 3 4 5 6 
#
# 1 0.014597 -0.002836 -0.001224 0.000000 0.000411 0.000000
# 2 -0.002836 0.011629 -0.008404 0.000000 0.007179 0.000000
# 3 -0.001224 -0.008404 0.020821 0.000000 -0.006307 0.000000
# 4 0.000000 0.000000 0.000000 0.037439 0.000000 -0.000422
# 5 0.000411 0.007179 -0.006307 0.000000 0.035345 0.000000
# 6 0.000000 0.000000 0.000000 -0.000422 0.000000 0.044667
#
#
# Mechanical properties :
#
#
# Convention : Reuss Voigt Hill
#
# Bulk Modulus (GPa) = 45.21289 56.11488 50.66389
# Shear Modulus (GPa) = 25.40650 28.99551 27.20100
#
# Velocity S-wave (km/s) = 3.68504 3.93673 3.81296
# Velocity P-wave (km/s) = 6.50169 7.11735 6.81647
#
# Compressibility (1/GPa) = 0.02211759
#
# Stress axis : x y z
#
# Youngs Moduli (GPa) = 68.50542 85.99229 48.02922
#
# Poissons Ratio (x) = 0.24391 0.05880
# Poissons Ratio (y) = 0.19431 0.40364
# Poissons Ratio (z) = 0.08387 0.72269
#
# Static dielectric constant tensor:
#      x y z
#    x 3.229490 0.000000 -0.076990 
#    y 0.000000 3.932460 0.000000 
#    z -0.076990 0.000000 3.545710 
# 
# 
# High freq. dielectric constant tensor:
#      x y z
#    x 1.707890 0.000000 0.005940 
#    y 0.000000 1.736310 0.000000 
#    z 0.005940 0.000000 1.720160 
# 
# From -- ./inp_files/122483.got.cif
#   From: 2010.06.25/outbox.cif.g09.slc.cpg/sg12_62_cif.got.tgz:122483.got - 2010.06.28 00:19:55.
