data_PCOD8100856
_publ_section_title
;
Structure prediction by ZEFSAII (Michael W. Deem and Ramdas Pophale) SiO2 
 PCOD8100856
Probable space group: C 2/M
;
_chemical_formula_sum "Si O2"
_cell_formula_units_Z 56
_cell_length_a 14.850634
_cell_length_b 9.189643
_cell_length_c 24.212282
_cell_angle_alpha 90.000000
_cell_angle_beta 116.511735
_cell_angle_gamma 90.000000
_cell_volume 2956.828815
_symmetry_space_group_name_H-M "C 2/M"
_symmetry_group_IT_number 12
_symmetry_cell_setting 'monoclinic'
loop_
_space_group_symop_operation_xyz
x,y,z
-x,y,-z
-x,-y,-z
x,-y,z
1/2+x,1/2+y,z
1/2-x,1/2+y,-z
1/2-x,1/2-y,-z
1/2+x,1/2-y,z
loop_
_atom_site_type_symbol
_atom_site_label
_atom_site_fract_x
_atom_site_fract_y
_atom_site_fract_z
Si Si1 0.902397 0.834868 0.679362
Si Si2 0.387086 0.666398 0.304291
Si Si3 0.187998 0.827034 0.230678
Si Si4 0.071648 0.163056 0.565125
Si Si5 0.067484 0.827733 0.092588
Si Si6 0.778302 0.336699 0.561750
Si Si7 0.847661 0.172723 0.000538
O O1 0.859951 0.772296 0.725044
O O2 0.869215 0.740170 0.618076
O O3 0.023171 0.828038 0.715468
O O4 0.864747 0.000000 0.659756
O O5 0.350614 0.500000 0.304157
O O6 0.298405 0.761067 0.254476
O O7 0.427220 0.734766 0.373674
O O8 0.119343 0.766356 0.162120
O O9 0.195442 0.000000 0.230428
O O10 0.185441 0.163120 0.577332
O O11 0.000000 0.244636 0.500000
O O12 0.027315 0.000000 0.559644
O O13 0.950710 0.776308 0.059580
O O14 0.065828 0.000000 0.091496
O O15 0.134463 0.777717 0.058241
O O16 0.810408 0.500000 0.554245
O O17 0.750000 0.250000 0.500000
O O18 0.830975 0.000000 0.000866
O O19 0.750000 0.250000 0.000000
#
# Coordination Sequence:
#
# PCOD8100856 Si02
#       7
#     8   8   8   8   8   8   8
#     4  10  21  36  55  77 105 139 177 221 269 324
#     4  10  20  36  55  77 106 141 178 219 273 328
#     4  10  20  36  56  79 110 145 184 225 266 320
#     4   9  17  31  51  72  97 131 168 208 263 325
#     4   8  17  34  54  77 111 154 183 212 271 333
#     4  11  21  34  54  77 104 137 174 220 273 330
#     4   9  17  33  57  82 111 146 187 226 265 316
#
# _framework density 18.939209999999999
#
# number of rings (size 3 to 8) (size 9 to 14) (size 15 to 20)
#    0.000    2.429    1.429    2.143    0.000    4.000 
#    0.000    4.286    0.000    2.143    0.000    0.000 
#    0.000    0.000    0.000    0.000    0.000    0.000 
#
# Total GULP energy -347066.505582 kJ/mol
# GULP energy per Si atom -12395.232342 kJ/mol
# Density = 1.889610 g / cm^3
# Si number density = 18.939210 Si / 1000 Ang^3
#
#
#
# Elastic Constant Matrix: (Units=GPa)
#
#
# Indices 1 2 3 4 5 6 
#
# 1 115.2933 33.1395 49.3174 0.0000 7.4506 0.0000
# 2 33.1395 51.7023 39.7884 0.0000 -0.0434 0.0000
# 3 49.3174 39.7884 149.1923 0.0000 10.3311 0.0000
# 4 0.0000 0.0000 0.0000 22.1033 0.0000 4.6506
# 5 7.4506 -0.0434 10.3311 0.0000 25.3476 0.0000
# 6 0.0000 0.0000 0.0000 4.6506 0.0000 29.6339
#
#
#
# Elastic Compliance Matrix: (Units=1/GPa)
#
#
# Indices 1 2 3 4 5 6 
#
# 1 0.011354 -0.005693 -0.002061 0.000000 -0.002507 0.000000
# 2 -0.005693 0.027381 -0.005700 0.000000 0.004044 0.000000
# 3 -0.002061 -0.005700 0.009120 0.000000 -0.003121 0.000000
# 4 0.000000 0.000000 0.000000 0.046787 0.000000 -0.007343
# 5 -0.002507 0.004044 -0.003121 0.000000 0.041467 0.000000
# 6 0.000000 0.000000 0.000000 -0.007343 0.000000 0.034897
#
#
# Mechanical properties :
#
#
# Convention : Reuss Voigt Hill
#
# Bulk Modulus (GPa) = 47.74276 62.29759 55.02018
# Shear Modulus (GPa) = 24.40240 28.34647 26.37444
#
# Velocity S-wave (km/s) = 3.59341 3.87293 3.73578
# Velocity P-wave (km/s) = 6.51766 7.27766 6.90812
#
# Compressibility (1/GPa) = 0.02094558
#
# Stress axis : x y z
#
# Youngs Moduli (GPa) = 88.07743 36.52197 109.64366
#
# Poissons Ratio (x) = 0.20793 0.22599
# Poissons Ratio (y) = 0.50144 0.62500
# Poissons Ratio (z) = 0.18154 0.20819
#
# Static dielectric constant tensor:
#      x y z
#    x 3.635230 0.000000 -0.015160 
#    y 0.000000 3.181790 0.000000 
#    z -0.015160 0.000000 3.760570 
# 
# 
# High freq. dielectric constant tensor:
#      x y z
#    x 1.742830 0.000000 -0.000340 
#    y 0.000000 1.698280 0.000000 
#    z -0.000340 0.000000 1.737720 
# 
# From -- ./inp_files/339052.got.cif
#   From: 2010.06.25/outbox.cif.g09.slc.cpg/sg12_170_cif.got.tgz:339052.got - 2010.06.28 00:19:55.
