data_PCOD8100901
_publ_section_title
;
Structure prediction by ZEFSAII (Michael W. Deem and Ramdas Pophale) SiO2 
 PCOD8100901
Probable space group: C 2/M
;
_chemical_formula_sum "Si O2"
_cell_formula_units_Z 56
_cell_length_a 24.732541
_cell_length_b 15.751434
_cell_length_c 8.699752
_cell_angle_alpha 90.000000
_cell_angle_beta 122.933983
_cell_angle_gamma 90.000000
_cell_volume 2844.537506
_symmetry_space_group_name_H-M "C 2/M"
_symmetry_group_IT_number 12
_symmetry_cell_setting 'monoclinic'
loop_
_space_group_symop_operation_xyz
x,y,z
-x,y,-z
-x,-y,-z
x,-y,z
1/2+x,1/2+y,z
1/2-x,1/2+y,-z
1/2-x,1/2-y,-z
1/2+x,1/2-y,z
loop_
_atom_site_type_symbol
_atom_site_label
_atom_site_fract_x
_atom_site_fract_y
_atom_site_fract_z
Si Si1 0.112517 0.286876 0.562397
Si Si2 0.318678 0.593813 0.962327
Si Si3 0.059417 0.853685 0.686825
Si Si4 0.919191 0.405455 0.220918
Si Si5 0.752896 0.236594 0.684568
Si Si6 0.227128 0.594633 0.103498
Si Si7 0.997745 0.720772 0.819083
O O1 0.103512 0.197398 0.634253
O O2 0.076950 0.357847 0.610188
O O3 0.187303 0.304539 0.648378
O O4 0.077013 0.288517 0.343204
O O5 0.304538 0.500000 0.868707
O O6 0.391067 0.586438 0.144936
O O7 0.268506 0.615492 0.017863
O O8 0.309631 0.670087 0.823070
O O9 0.028435 0.794881 0.767062
O O10 0.000000 0.898952 0.500000
O O11 0.944252 0.500000 0.286970
O O12 0.963309 0.365005 0.156283
O O13 0.846777 0.402587 0.052884
O O14 0.750000 0.250000 0.500000
O O15 0.761560 0.332063 0.756480
O O16 0.245108 0.500000 0.195645
O O17 0.000000 0.744568 0.000000
#
# Coordination Sequence:
#
# PCOD8100901 Si02
#       7
#     8   8   8   8   8   8   8
#     4  10  20  36  55  84 111 151 203 239 288 363
#     4  11  22  39  64  91 119 155 205 253 297 362
#     4   9  19  38  61  83 113 151 197 248 293 352
#     4  10  20  37  58  80 113 154 196 246 298 351
#     4  12  24  36  62  90 125 163 194 247 312 358
#     4  10  21  39  63  89 116 152 200 250 295 357
#     4  10  22  35  56  83 116 151 201 247 296 356
#
# _framework density 19.686857
#
# number of rings (size 3 to 8) (size 9 to 14) (size 15 to 20)
#    0.000    1.714    2.857    3.429    4.000    2.286 
#    0.000    0.000    0.000    0.429    0.000    0.000 
#    0.000    0.000    0.000    0.000    0.000    0.000 
#
# Total GULP energy -347028.704181 kJ/mol
# GULP energy per Si atom -12393.882292 kJ/mol
# Density = 1.964205 g / cm^3
# Si number density = 19.686857 Si / 1000 Ang^3
#
#
#
# Elastic Constant Matrix: (Units=GPa)
#
#
# Indices 1 2 3 4 5 6 
#
# 1 51.2580 8.1181 31.9632 0.0000 8.8648 0.0000
# 2 8.1181 107.6635 46.9840 0.0000 -5.3369 0.0000
# 3 31.9632 46.9840 126.3104 0.0000 -2.3831 0.0000
# 4 0.0000 0.0000 0.0000 21.7809 0.0000 11.0534
# 5 8.8648 -5.3369 -2.3831 0.0000 32.8462 0.0000
# 6 0.0000 0.0000 0.0000 11.0534 0.0000 27.5979
#
#
#
# Elastic Compliance Matrix: (Units=1/GPa)
#
#
# Indices 1 2 3 4 5 6 
#
# 1 0.024772 0.000688 -0.006658 0.000000 -0.007057 0.000000
# 2 0.000688 0.011182 -0.004308 0.000000 0.001319 0.000000
# 3 -0.006658 -0.004308 0.011240 0.000000 0.001912 0.000000
# 4 0.000000 0.000000 0.000000 0.057624 0.000000 -0.023080
# 5 -0.007057 0.001319 0.001912 0.000000 0.032703 0.000000
# 6 0.000000 0.000000 0.000000 -0.023080 0.000000 0.045478
#
#
# Mechanical properties :
#
#
# Convention : Reuss Voigt Hill
#
# Bulk Modulus (GPa) = 37.54081 51.04029 44.29055
# Shear Modulus (GPa) = 23.53650 29.65611 26.59630
#
# Velocity S-wave (km/s) = 3.46142 3.88544 3.67954
# Velocity P-wave (km/s) = 5.92331 6.79052 6.37168
#
# Compressibility (1/GPa) = 0.02663767
#
# Stress axis : x y z
#
# Youngs Moduli (GPa) = 40.36778 89.42998 88.96436
#
# Poissons Ratio (x) = -0.06150 0.59229
# Poissons Ratio (y) = -0.02776 0.38330
# Poissons Ratio (z) = 0.26875 0.38531
#
# Static dielectric constant tensor:
#      x y z
#    x 4.562790 0.000000 -0.597250 
#    y 0.000000 3.798790 0.000000 
#    z -0.597250 0.000000 4.346430 
# 
# 
# High freq. dielectric constant tensor:
#      x y z
#    x 1.762930 0.000000 0.022020 
#    y 0.000000 1.758060 0.000000 
#    z 0.022020 0.000000 1.764980 
# 
# From -- ./inp_files/104705.got.cif
#   From: 2010.06.25/outbox.cif.g09.slc.cpg/sg12_53_cif.got.tgz:104705.got - 2010.06.28 00:19:55.
