data_PCOD8100344
_publ_section_title
;
Structure prediction by ZEFSAII (Michael W. Deem and Ramdas Pophale) SiO2 
 PCOD8100344
Probable space group: C 2/M
;
_chemical_formula_sum "Si O2"
_cell_formula_units_Z 56
_cell_length_a 19.580066
_cell_length_b 8.803509
_cell_length_c 27.918782
_cell_angle_alpha 90.000000
_cell_angle_beta 37.708942
_cell_angle_gamma 90.000000
_cell_volume 2943.538894
_symmetry_space_group_name_H-M "C 2/M"
_symmetry_group_IT_number 12
_symmetry_cell_setting 'monoclinic'
loop_
_space_group_symop_operation_xyz
x,y,z
-x,y,-z
-x,-y,-z
x,-y,z
1/2+x,1/2+y,z
1/2-x,1/2+y,-z
1/2-x,1/2-y,-z
1/2+x,1/2-y,z
loop_
_atom_site_type_symbol
_atom_site_label
_atom_site_fract_x
_atom_site_fract_y
_atom_site_fract_z
Si Si1 0.388172 0.171800 0.534990
Si Si2 0.348896 0.327828 0.302193
Si Si3 0.180615 0.320199 0.124489
Si Si4 0.079077 0.679476 0.000752
Si Si5 0.134844 0.824572 0.549396
Si Si6 0.988320 0.675883 0.301912
Si Si7 0.467919 0.677922 0.873748
O O1 0.500000 0.208986 0.500000
O O2 0.284209 0.193395 0.629401
O O3 0.385760 0.293029 0.494381
O O4 0.387320 0.000000 0.514784
O O5 0.379316 0.500000 0.300821
O O6 0.386672 0.214954 0.322960
O O7 0.412584 0.289898 0.217529
O O8 0.181835 0.500000 0.114645
O O9 0.302412 0.261613 0.070423
O O10 0.133514 0.241201 0.102519
O O11 0.103839 0.276000 0.212485
O O12 0.097608 0.500000 0.992225
O O13 0.023336 0.735506 0.080871
O O14 0.000000 0.725563 0.000000
O O15 0.250000 0.750000 0.500000
O O16 0.029593 0.762952 0.638350
O O17 0.145949 0.000000 0.553483
O O18 0.986014 0.500000 0.315111
O O19 0.445962 0.500000 0.894803
#
# Coordination Sequence:
#
# PCOD8100344 Si02
#       7
#     8   8   8   8   8   8   8
#     4  10  21  38  58  82 117 155 193 238 287 340
#     4   9  18  34  57  84 113 150 189 233 286 337
#     4  10  21  38  62  89 116 147 189 236 283 339
#     4  11  24  41  59  82 117 155 190 231 284 339
#     4  12  23  36  58  85 116 153 195 239 285 336
#     4  10  20  35  58  88 115 146 188 239 288 334
#     4  10  20  36  61  88 114 147 192 237 282 340
#
# _framework density 19.024719999999999
#
# number of rings (size 3 to 8) (size 9 to 14) (size 15 to 20)
#    0.000    1.714    1.429    3.429    0.000    3.714 
#    2.571    0.000    0.000    0.000    0.000    0.000 
#    0.000    0.000    0.000    0.000    0.000    0.000 
#
# Total GULP energy -347216.619984 kJ/mol
# GULP energy per Si atom -12400.593571 kJ/mol
# Density = 1.898142 g / cm^3
# Si number density = 19.024720 Si / 1000 Ang^3
#
#
#
# Elastic Constant Matrix: (Units=GPa)
#
#
# Indices 1 2 3 4 5 6 
#
# 1 101.4768 34.0295 66.3745 -0.0004 -4.2930 0.0016
# 2 34.0295 78.3817 37.8670 -0.0006 5.6235 0.0029
# 3 66.3745 37.8670 137.7383 0.0002 0.0489 -0.0007
# 4 -0.0004 -0.0006 0.0002 29.2354 -0.0002 5.5126
# 5 -4.2930 5.6235 0.0489 -0.0002 29.7322 0.0001
# 6 0.0016 0.0029 -0.0007 5.5126 0.0001 29.0166
#
#
#
# Elastic Compliance Matrix: (Units=1/GPa)
#
#
# Indices 1 2 3 4 5 6 
#
# 1 0.015444 -0.003831 -0.006390 0.000000 0.002965 -0.000001
# 2 -0.003831 0.015895 -0.002523 0.000001 -0.003555 -0.000002
# 3 -0.006390 -0.002523 0.011033 0.000000 -0.000464 0.000001
# 4 0.000000 0.000001 0.000000 0.035476 0.000000 -0.006740
# 5 0.002965 -0.003555 -0.000464 0.000000 0.034735 0.000000
# 6 -0.000001 -0.000002 0.000001 -0.006740 0.000000 0.035743
#
#
# Mechanical properties :
#
#
# Convention : Reuss Voigt Hill
#
# Bulk Modulus (GPa) = 59.22328 66.01541 62.61934
# Shear Modulus (GPa) = 27.86408 29.55191 28.70799
#
# Velocity S-wave (km/s) = 3.83119 3.94552 3.88878
# Velocity P-wave (km/s) = 7.12516 7.45193 7.29038
#
# Compressibility (1/GPa) = 0.01688525
#
# Stress axis : x y z
#
# Youngs Moduli (GPa) = 64.74862 62.91315 90.63479
#
# Poissons Ratio (x) = 0.24100 0.57919
# Poissons Ratio (y) = 0.24803 0.22864
# Poissons Ratio (z) = 0.41377 0.15871
#
# Static dielectric constant tensor:
#      x y z
#    x 2.982260 0.000000 -0.010130 
#    y 0.000000 3.592650 0.000000 
#    z -0.010130 0.000000 3.816270 
# 
# 
# High freq. dielectric constant tensor:
#      x y z
#    x 1.711400 0.000000 0.002550 
#    y 0.000000 1.748960 0.000000 
#    z 0.002550 0.000000 1.759990 
# 
# From -- ./inp_files/362932.got.cif
#   From: 2010.06.25/outbox.cif.g09.slc.cpg/sg12_182_cif.got.tgz:362932.got - 2010.06.28 00:19:55.
