data_PCOD8100624
_publ_section_title
;
Structure prediction by ZEFSAII (Michael W. Deem and Ramdas Pophale) SiO2 
 PCOD8100624
Probable space group: C 2/M
;
_chemical_formula_sum "Si O2"
_cell_formula_units_Z 48
_cell_length_a 10.425013
_cell_length_b 24.035723
_cell_length_c 9.422239
_cell_angle_alpha 90.000000
_cell_angle_beta 100.860429
_cell_angle_gamma 90.000000
_cell_volume 2318.669195
_symmetry_space_group_name_H-M "C 2/M"
_symmetry_group_IT_number 12
_symmetry_cell_setting 'monoclinic'
loop_
_space_group_symop_operation_xyz
x,y,z
-x,y,-z
-x,-y,-z
x,-y,z
1/2+x,1/2+y,z
1/2-x,1/2+y,-z
1/2-x,1/2-y,-z
1/2+x,1/2-y,z
loop_
_atom_site_type_symbol
_atom_site_label
_atom_site_fract_x
_atom_site_fract_y
_atom_site_fract_z
Si Si1 0.734419 0.566927 0.594468
Si Si2 0.927913 0.151267 0.275460
Si Si3 0.858361 0.259691 0.406076
Si Si4 0.640121 0.411939 0.003467
Si Si5 0.113900 0.439199 0.112491
Si Si6 0.219205 0.134085 0.316112
O O1 0.712490 0.500000 0.588982
O O2 0.608381 0.597833 0.634600
O O3 0.854360 0.585654 0.724888
O O4 0.766033 0.589305 0.444042
O O5 0.851037 0.207068 0.299717
O O6 0.081341 0.160963 0.334292
O O7 0.896561 0.141204 0.102725
O O8 0.750000 0.250000 0.500000
O O9 0.824101 0.316848 0.317635
O O10 0.000000 0.266923 0.500000
O O11 0.706204 0.396710 0.164994
O O12 0.500000 0.443751 0.000000
O O13 0.749617 0.446805 0.944091
O O14 0.055341 0.500000 0.128873
O O15 0.000000 0.405844 0.000000
#
# Coordination Sequence:
#
# PCOD8100624 Si02
#       6
#     8   8   8   8   8   8
#     4  10  20  35  60  89 119 157 197 241 295 352
#     4  10  20  40  60  83 121 156 198 242 291 357
#     4  12  22  38  63  89 117 156 195 246 299 352
#     4   9  21  38  58  82 116 154 194 245 294 343
#     4   9  19  37  58  80 116 161 197 236 292 353
#     4  11  22  37  59  92 119 149 197 253 294 342
#
# _framework density 20.701530999999999
#
# number of rings (size 3 to 8) (size 9 to 14) (size 15 to 20)
#    0.000    1.833    3.333    0.500    0.000    4.333 
#    0.000    3.333    0.000    3.500    0.000    0.000 
#    0.000    0.000    0.000    0.000    0.000    0.000 
#
# Total GULP energy -297342.199879 kJ/mol
# GULP energy per Si atom -12389.258328 kJ/mol
# Density = 2.065441 g / cm^3
# Si number density = 20.701531 Si / 1000 Ang^3
#
#
#
# Elastic Constant Matrix: (Units=GPa)
#
#
# Indices 1 2 3 4 5 6 
#
# 1 81.3167 23.7150 36.2339 0.0000 17.7488 0.0000
# 2 23.7150 106.1515 49.0421 0.0000 2.6374 0.0000
# 3 36.2339 49.0421 166.1418 0.0000 13.4135 0.0000
# 4 0.0000 0.0000 0.0000 14.8566 0.0000 1.4192
# 5 17.7488 2.6374 13.4135 0.0000 30.4396 0.0000
# 6 0.0000 0.0000 0.0000 1.4192 0.0000 15.2861
#
#
#
# Elastic Compliance Matrix: (Units=1/GPa)
#
#
# Indices 1 2 3 4 5 6 
#
# 1 0.015653 -0.002339 -0.002077 0.000000 -0.008009 0.000000
# 2 -0.002339 0.011265 -0.002951 0.000000 0.001688 0.000000
# 3 -0.002077 -0.002951 0.007491 0.000000 -0.001834 0.000000
# 4 0.000000 0.000000 0.000000 0.067912 0.000000 -0.006305
# 5 -0.008009 0.001688 -0.001834 0.000000 0.038184 0.000000
# 6 0.000000 0.000000 0.000000 -0.006305 0.000000 0.066004
#
#
# Mechanical properties :
#
#
# Convention : Reuss Voigt Hill
#
# Bulk Modulus (GPa) = 50.82491 63.51022 57.16757
# Shear Modulus (GPa) = 21.94891 28.42439 25.18665
#
# Velocity S-wave (km/s) = 3.25969 3.70950 3.49184
# Velocity P-wave (km/s) = 6.22672 7.00662 6.62815
#
# Compressibility (1/GPa) = 0.01967539
#
# Stress axis : x y z
#
# Youngs Moduli (GPa) = 63.88459 88.77416 133.49005
#
# Poissons Ratio (x) = 0.20760 0.27724
# Poissons Ratio (y) = 0.14940 0.39398
# Poissons Ratio (z) = 0.13268 0.26201
#
# Static dielectric constant tensor:
#      x y z
#    x 3.896840 0.000000 0.208250 
#    y 0.000000 3.910740 0.000000 
#    z 0.208250 0.000000 4.000060 
# 
# 
# High freq. dielectric constant tensor:
#      x y z
#    x 1.803940 0.000000 0.011040 
#    y 0.000000 1.784600 0.000000 
#    z 0.011040 0.000000 1.825770 
# 
# From -- ./inp_files/51463.got.cif
#   From: 2010.06.25/outbox.cif.g09.slc.cpg/sg12_26_cif.got.tgz:51463.got - 2010.06.28 00:19:55.
