data_PCOD8100481
_publ_section_title
;
Structure prediction by ZEFSAII (Michael W. Deem and Ramdas Pophale) SiO2 
 PCOD8100481
Probable space group: C 2/M
;
_chemical_formula_sum "Si O2"
_cell_formula_units_Z 64
_cell_length_a 26.389832
_cell_length_b 14.885264
_cell_length_c 19.785934
_cell_angle_alpha 90.000000
_cell_angle_beta 157.015841
_cell_angle_gamma 90.000000
_cell_volume 3034.902563
_symmetry_space_group_name_H-M "C 2/M"
_symmetry_group_IT_number 12
_symmetry_cell_setting 'monoclinic'
loop_
_space_group_symop_operation_xyz
x,y,z
-x,y,-z
-x,-y,-z
x,-y,z
1/2+x,1/2+y,z
1/2-x,1/2+y,-z
1/2-x,1/2-y,-z
1/2+x,1/2-y,z
loop_
_atom_site_type_symbol
_atom_site_label
_atom_site_fract_x
_atom_site_fract_y
_atom_site_fract_z
Si Si1 0.199811 0.895372 0.101043
Si Si2 0.409886 0.902383 0.953993
Si Si3 0.008864 0.398644 0.798708
Si Si4 0.198769 0.101119 0.866021
Si Si5 0.990478 0.899986 0.246130
Si Si6 0.150730 0.221178 0.166932
Si Si7 0.880512 0.730436 0.543889
Si Si8 0.075095 0.271360 0.661079
O O1 0.061737 0.880723 0.893604
O O2 0.237270 0.000000 0.150065
O O3 0.187734 0.859050 0.162335
O O4 0.309652 0.843334 0.194073
O O5 0.495764 0.884690 0.126169
O O6 0.337253 0.000000 0.872578
O O7 0.500000 0.907228 0.000000
O O8 0.314206 0.817205 0.826447
O O9 0.973525 0.500000 0.735598
O O10 0.901833 0.336003 0.632830
O O11 0.150507 0.371957 0.944169
O O12 0.128487 0.169594 0.728937
O O13 0.137558 0.108674 0.864803
O O14 0.184721 0.000000 0.819170
O O15 0.101866 0.831612 0.406263
O O16 0.050730 0.000000 0.325503
O O17 0.234727 0.215676 0.338323
O O18 0.000000 0.215560 0.000000
O O19 0.980606 0.708130 0.607256
O O20 0.000000 0.285397 0.500000
#
# Coordination Sequence:
#
# PCOD8100481 Si02
#       8
#     8   8   8   8   8   8   8   8
#     4  11  23  41  62  84 120 163 203 245 294 352
#     4   9  19  38  63  88 114 147 190 244 302 357
#     4  10  20  35  59  87 117 155 199 246 297 352
#     4   9  18  33  56  88 125 158 189 235 299 367
#     4   9  19  36  59  87 119 157 196 240 298 357
#     4  11  24  42  61  85 119 160 203 246 300 356
#     4  11  22  37  60  90 123 154 197 253 293 352
#     4  11  21  35  56  91 126 157 198 241 297 355
#
# _framework density 21.087990999999999
#
# number of rings (size 3 to 8) (size 9 to 14) (size 15 to 20)
#    0.000    1.875    1.250    3.000    0.000    5.250 
#    0.000    5.625    0.000    6.000    0.000    0.000 
#    0.000    0.000    0.000    0.000    0.000    0.000 
#
# Total GULP energy -396750.826951 kJ/mol
# GULP energy per Si atom -12398.463342 kJ/mol
# Density = 2.103999 g / cm^3
# Si number density = 21.087991 Si / 1000 Ang^3
#
#
#
# Elastic Constant Matrix: (Units=GPa)
#
#
# Indices 1 2 3 4 5 6 
#
# 1 54.2013 32.9625 35.5251 -0.0003 -16.9011 -0.0001
# 2 32.9625 115.6553 45.2410 -0.0002 -8.6009 0.0000
# 3 35.5251 45.2410 111.3424 -0.0003 -10.6138 -0.0002
# 4 -0.0003 -0.0002 -0.0003 19.3986 -0.0002 -13.0413
# 5 -16.9011 -8.6009 -10.6138 -0.0002 31.1523 -0.0001
# 6 -0.0001 0.0000 -0.0002 -13.0413 -0.0001 26.4643
#
#
#
# Elastic Compliance Matrix: (Units=1/GPa)
#
#
# Indices 1 2 3 4 5 6 
#
# 1 0.029451 -0.005059 -0.006151 0.000001 0.012486 0.000000
# 2 -0.005059 0.011214 -0.003007 0.000000 -0.000673 0.000000
# 3 -0.006151 -0.003007 0.012163 0.000000 -0.000023 0.000000
# 4 0.000001 0.000000 0.000000 0.077089 0.000001 0.037988
# 5 0.012486 -0.000673 -0.000023 0.000001 0.038681 0.000001
# 6 0.000000 0.000000 0.000000 0.037988 0.000001 0.056507
#
#
# Mechanical properties :
#
#
# Convention : Reuss Voigt Hill
#
# Bulk Modulus (GPa) = 40.99119 56.51735 48.75427
# Shear Modulus (GPa) = 19.10800 26.56773 22.83786
#
# Velocity S-wave (km/s) = 3.01343 3.55329 3.29444
# Velocity P-wave (km/s) = 5.62032 6.61010 6.13520
#
# Compressibility (1/GPa) = 0.02439549
#
# Stress axis : x y z
#
# Youngs Moduli (GPa) = 33.95441 89.17154 82.21473
#
# Poissons Ratio (x) = 0.45114 0.50569
# Poissons Ratio (y) = 0.17178 0.24719
# Poissons Ratio (z) = 0.20885 0.26810
#
# Static dielectric constant tensor:
#      x y z
#    x 3.827660 0.000000 -0.237720 
#    y 0.000000 4.214860 0.000000 
#    z -0.237720 0.000000 3.632150 
# 
# 
# High freq. dielectric constant tensor:
#      x y z
#    x 1.821590 0.000000 -0.019460 
#    y 0.000000 1.839760 0.000000 
#    z -0.019460 0.000000 1.802660 
# 
# From -- ./inp_files/330401.got.cif
#   From: 2010.06.25/outbox.cif.g09.slc.cpg/sg12_166_cif.got.tgz:330401.got - 2010.06.28 00:19:55.
