data_PCOD8100706
_publ_section_title
;
Structure prediction by ZEFSAII (Michael W. Deem and Ramdas Pophale) SiO2 
 PCOD8100706
Probable space group: C 2/M
;
_chemical_formula_sum "Si O2"
_cell_formula_units_Z 64
_cell_length_a 15.357262
_cell_length_b 8.624534
_cell_length_c 23.784962
_cell_angle_alpha 90.000000
_cell_angle_beta 88.502423
_cell_angle_gamma 90.000000
_cell_volume 3149.223817
_symmetry_space_group_name_H-M "C 2/M"
_symmetry_group_IT_number 12
_symmetry_cell_setting 'monoclinic'
loop_
_space_group_symop_operation_xyz
x,y,z
-x,y,-z
-x,-y,-z
x,-y,z
1/2+x,1/2+y,z
1/2-x,1/2+y,-z
1/2-x,1/2-y,-z
1/2+x,1/2-y,z
loop_
_atom_site_type_symbol
_atom_site_label
_atom_site_fract_x
_atom_site_fract_y
_atom_site_fract_z
Si Si1 0.327342 0.323835 0.252578
Si Si2 0.098222 0.819446 0.869135
Si Si3 0.595939 0.316355 0.139934
Si Si4 0.393745 0.677826 0.371426
Si Si5 0.576015 0.817851 0.374853
Si Si6 0.854960 0.819072 0.738489
Si Si7 0.235222 0.817437 0.439145
Si Si8 0.248026 0.317941 0.938462
O O1 0.291069 0.500000 0.250474
O O2 0.380172 0.281386 0.195767
O O3 0.392896 0.305485 0.303770
O O4 0.248506 0.204992 0.261247
O O5 0.157682 0.721857 0.909916
O O6 0.998593 0.767311 0.881766
O O7 0.111517 0.000000 0.882359
O O8 0.604826 0.500000 0.142072
O O9 0.608966 0.254511 0.202949
O O10 0.671055 0.246786 0.098392
O O11 0.381785 0.500000 0.390314
O O12 0.484593 0.740992 0.393359
O O13 0.315650 0.777384 0.397917
O O14 0.599386 0.778922 0.310531
O O15 0.647700 0.754731 0.416032
O O16 0.568239 0.000000 0.382469
O O17 0.875787 0.000000 0.728585
O O18 0.250000 0.750000 0.500000
O O19 0.223678 0.000000 0.442440
O O20 0.257967 0.500000 0.942896
O O21 0.250000 0.250000 0.000000
#
# Coordination Sequence:
#
# PCOD8100706 Si02
#       8
#     8   8   8   8   8   8   8   8
#     4  10  20  35  61  93 128 160 198 248 310 373
#     4  10  20  38  62  88 118 158 199 244 300 363
#     4   9  20  38  61  87 119 159 200 243 301 371
#     4  11  23  42  67  97 131 169 210 259 314 374
#     4  12  25  42  64  96 132 169 212 259 311 374
#     4  11  20  36  63  92 125 165 206 250 306 371
#     4  12  26  46  69  95 126 167 214 265 318 374
#     4  11  23  41  60  84 115 154 203 254 304 362
#
# _framework density 20.322469000000002
#
# number of rings (size 3 to 8) (size 9 to 14) (size 15 to 20)
#    0.000    1.250    2.500    4.125    0.000    3.500 
#    0.000    8.750    0.000    0.000    0.000    0.000 
#    0.000    0.000    0.000    0.000    0.000    0.000 
#
# Total GULP energy -396951.964283 kJ/mol
# GULP energy per Si atom -12404.748884 kJ/mol
# Density = 2.027621 g / cm^3
# Si number density = 20.322469 Si / 1000 Ang^3
#
#
#
# Elastic Constant Matrix: (Units=GPa)
#
#
# Indices 1 2 3 4 5 6 
#
# 1 99.6442 -73.9806 28.1079 0.0000 -4.9029 0.0000
# 2 -73.9806 -250.5665 2.3110 0.0000 -86.3607 0.0000
# 3 28.1079 2.3110 119.9058 0.0000 14.8809 0.0000
# 4 0.0000 0.0000 0.0000 32.0382 0.0000 1.5949
# 5 -4.9029 -86.3607 14.8809 0.0000 -10.6168 0.0000
# 6 0.0000 0.0000 0.0000 1.5949 0.0000 35.4631
#
#
#
# Elastic Compliance Matrix: (Units=1/GPa)
#
#
# Indices 1 2 3 4 5 6 
#
# 1 0.010208 0.000470 -0.001144 0.000000 -0.010138 0.000000
# 2 0.000470 0.002864 0.002345 0.000000 -0.020230 0.000000
# 3 -0.001144 0.002345 0.009255 0.000000 -0.005577 0.000000
# 4 0.000000 0.000000 0.000000 0.031283 0.000000 -0.001407
# 5 -0.010138 -0.020230 -0.005577 0.000000 0.067230 0.000000
# 6 0.000000 0.000000 0.000000 -0.001407 0.000000 0.028262
#
#
# Mechanical properties :
#
#
# Convention : Reuss Voigt Hill
#
# Bulk Modulus (GPa) = 38.95593 -13.12667 12.91463
# Shear Modulus (GPa) = 32.40091 12.21324 22.30708
#
# Velocity S-wave (km/s) = 3.99725 2.45413 3.31668
# Velocity P-wave (km/s) = 6.36510 1.24786 4.58648
#
# Compressibility (1/GPa) = 0.02567004
#
# Stress axis : x y z
#
# Youngs Moduli (GPa) = 97.95984 349.11198 108.05020
#
# Poissons Ratio (x) = -0.16399 0.12359
# Poissons Ratio (y) = -0.04601 -0.25341
# Poissons Ratio (z) = 0.11205 -0.81877
#
# Static dielectric constant tensor:
#      x y z
#    x 3.728390 0.000000 -0.118950 
#    y 0.000000 3.523640 0.000000 
#    z -0.118950 0.000000 3.779600 
# 
# 
# High freq. dielectric constant tensor:
#      x y z
#    x 1.805760 0.000000 0.003130 
#    y 0.000000 1.786060 0.000000 
#    z 0.003130 0.000000 1.796620 
# 
# From -- ./inp_files/338734.got.cif
#   From: 2010.06.25/outbox.cif.g09.slc.cpg/sg12_170_cif.got.tgz:338734.got - 2010.06.28 00:19:55.
