data_PCOD8100453
_publ_section_title
;
Structure prediction by ZEFSAII (Michael W. Deem and Ramdas Pophale) SiO2 
 PCOD8100453
Probable space group: C 2/M
;
_chemical_formula_sum "Si O2"
_cell_formula_units_Z 64
_cell_length_a 28.572492
_cell_length_b 9.025234
_cell_length_c 15.291808
_cell_angle_alpha 90.000000
_cell_angle_beta 54.441800
_cell_angle_gamma 90.000000
_cell_volume 3208.015471
_symmetry_space_group_name_H-M "C 2/M"
_symmetry_group_IT_number 12
_symmetry_cell_setting 'monoclinic'
loop_
_space_group_symop_operation_xyz
x,y,z
-x,y,-z
-x,-y,-z
x,-y,z
1/2+x,1/2+y,z
1/2-x,1/2+y,-z
1/2-x,1/2-y,-z
1/2+x,1/2-y,z
loop_
_atom_site_type_symbol
_atom_site_label
_atom_site_fract_x
_atom_site_fract_y
_atom_site_fract_z
Si Si1 0.123231 0.332743 0.003394
Si Si2 0.663971 0.323893 0.303914
Si Si3 0.992049 0.824994 0.909167
Si Si4 0.305735 0.167821 0.903634
Si Si5 0.305754 0.827340 0.403250
Si Si6 0.569042 0.172244 0.682795
Si Si7 0.946121 0.672841 0.498337
Si Si8 0.713757 0.174415 0.768003
O O1 0.106632 0.500000 0.991323
O O2 0.069009 0.226845 0.059397
O O3 0.144863 0.335743 0.078200
O O4 0.172530 0.261290 0.888174
O O5 0.661045 0.500000 0.299947
O O6 0.665493 0.255918 0.206292
O O7 0.608690 0.267376 0.415214
O O8 0.721031 0.266830 0.292652
O O9 0.040237 0.762345 0.792050
O O10 0.996153 0.000000 0.901059
O O11 0.000000 0.767141 0.000000
O O12 0.288987 0.000000 0.894701
O O13 0.250000 0.250000 0.000000
O O14 0.250000 0.750000 0.500000
O O15 0.363313 0.783429 0.393285
O O16 0.313069 0.776789 0.294866
O O17 0.293343 0.000000 0.422602
O O18 0.541169 0.206813 0.618049
O O19 0.562188 0.000000 0.713759
O O20 0.932042 0.500000 0.526986
O O21 0.000000 0.720698 0.500000
O O22 0.715726 0.000000 0.778429
#
# Coordination Sequence:
#
# PCOD8100453 Si02
#       8
#     8   8   8   8   8   8   8   8
#     4  10  21  39  62  85 116 158 204 243 296 364
#     4  11  22  38  60  87 122 158 200 249 304 366
#     4  11  25  42  61  91 128 160 199 256 313 359
#     4  11  22  38  61  90 124 161 201 252 307 361
#     4  10  20  35  59  86 114 147 193 242 292 355
#     4  10  22  41  64  88 118 162 210 251 301 367
#     4  10  23  42  61  85 119 158 206 260 308 358
#     4   9  18  35  57  84 115 150 188 237 291 353
#
# _framework density 19.950029000000001
#
# number of rings (size 3 to 8) (size 9 to 14) (size 15 to 20)
#    0.000    1.750    1.250    2.625    1.750    4.250 
#    0.000    1.250    0.000    0.000    0.000    0.000 
#    0.000    0.000    0.000    0.000    0.000    0.000 
#
# Total GULP energy -396832.166013 kJ/mol
# GULP energy per Si atom -12401.005188 kJ/mol
# Density = 1.990462 g / cm^3
# Si number density = 19.950029 Si / 1000 Ang^3
#
#
#
# Elastic Constant Matrix: (Units=GPa)
#
#
# Indices 1 2 3 4 5 6 
#
# 1 122.0906 38.8588 47.4310 0.0000 2.6264 0.0000
# 2 38.8588 73.0938 49.1565 0.0000 -2.9942 0.0002
# 3 47.4310 49.1565 116.4021 0.0000 -0.7610 0.0000
# 4 0.0000 0.0000 0.0000 38.9508 0.0000 -4.2248
# 5 2.6264 -2.9942 -0.7610 0.0000 35.5481 0.0000
# 6 0.0000 0.0002 0.0000 -4.2248 0.0000 26.2617
#
#
#
# Elastic Compliance Matrix: (Units=1/GPa)
#
#
# Indices 1 2 3 4 5 6 
#
# 1 0.010465 -0.003824 -0.002657 0.000000 -0.001152 0.000000
# 2 -0.003824 0.020578 -0.007120 0.000000 0.001863 0.000000
# 3 -0.002657 -0.007120 0.012679 0.000000 -0.000132 0.000000
# 4 0.000000 0.000000 0.000000 0.026129 0.000000 0.004204
# 5 -0.001152 0.001863 -0.000132 0.000000 0.028370 0.000000
# 6 0.000000 0.000000 0.000000 0.004204 0.000000 0.038755
#
#
# Mechanical properties :
#
#
# Convention : Reuss Voigt Hill
#
# Bulk Modulus (GPa) = 60.52780 64.71991 62.62386
# Shear Modulus (GPa) = 29.46640 31.89478 30.68059
#
# Velocity S-wave (km/s) = 3.84736 4.00275 3.92583
# Velocity P-wave (km/s) = 7.08109 7.33990 7.21166
#
# Compressibility (1/GPa) = 0.01652133
#
# Stress axis : x y z
#
# Youngs Moduli (GPa) = 95.56039 48.59451 78.86798
#
# Poissons Ratio (x) = 0.18581 0.20954
# Poissons Ratio (y) = 0.36540 0.56154
# Poissons Ratio (z) = 0.25389 0.34599
#
# Static dielectric constant tensor:
#      x y z
#    x 3.855620 0.000000 0.121530 
#    y 0.000000 3.540260 0.000000 
#    z 0.121530 0.000000 3.554500 
# 
# 
# High freq. dielectric constant tensor:
#      x y z
#    x 1.789890 0.000000 0.004390 
#    y 0.000000 1.763070 0.000000 
#    z 0.004390 0.000000 1.787470 
# 
# From -- ./inp_files/249782.got.cif
#   From: 2010.06.25/outbox.cif.g09.slc.cpg/sg12_125_cif.got.tgz:249782.got - 2010.06.28 00:19:55.
