data_PCOD8100221
_publ_section_title
;
Structure prediction by ZEFSAII (Michael W. Deem and Ramdas Pophale) SiO2 
 PCOD8100221
Probable space group: C 2/M
;
_chemical_formula_sum "Si O2"
_cell_formula_units_Z 64
_cell_length_a 12.731529
_cell_length_b 28.029224
_cell_length_c 9.377774
_cell_angle_alpha 90.000000
_cell_angle_beta 86.785842
_cell_angle_gamma 90.000000
_cell_volume 3341.240146
_symmetry_space_group_name_H-M "C 2/M"
_symmetry_group_IT_number 12
_symmetry_cell_setting 'monoclinic'
loop_
_space_group_symop_operation_xyz
x,y,z
-x,y,-z
-x,-y,-z
x,-y,z
1/2+x,1/2+y,z
1/2-x,1/2+y,-z
1/2-x,1/2-y,-z
1/2+x,1/2-y,z
loop_
_atom_site_type_symbol
_atom_site_label
_atom_site_fract_x
_atom_site_fract_y
_atom_site_fract_z
Si Si1 0.591894 0.874430 0.106169
Si Si2 0.598976 0.656294 0.813099
Si Si3 0.115686 0.881634 0.510909
Si Si4 0.285142 0.221832 0.857436
Si Si5 0.870975 0.186229 0.741450
Si Si6 0.254325 0.553839 0.687685
Si Si7 0.203049 0.110614 0.058274
Si Si8 0.988551 0.555054 0.333073
O O1 0.629358 0.820470 0.135463
O O2 0.559475 0.905789 0.246238
O O3 0.500000 0.871696 0.000000
O O4 0.689570 0.902025 0.029494
O O5 0.635472 0.626022 0.674799
O O6 0.676040 0.701355 0.808566
O O7 0.481562 0.676415 0.812870
O O8 0.611635 0.621142 0.949260
O O9 0.122843 0.831903 0.421474
O O10 0.204026 0.917542 0.451103
O O11 0.000000 0.904222 0.500000
O O12 0.339041 0.258445 0.742216
O O13 0.250000 0.250000 0.000000
O O14 0.784174 0.157592 0.841625
O O15 0.280524 0.500000 0.651585
O O16 0.318095 0.567832 0.828151
O O17 0.130354 0.563262 0.711172
O O18 0.022662 0.500000 0.296522
O O19 0.000000 0.564995 0.500000
#
# Coordination Sequence:
#
# PCOD8100221 Si02
#       8
#     8   8   8   8   8   8   8   8
#     4  11  22  36  58  86 118 153 198 245 284 350
#     4  10  21  37  60  84 116 156 200 240 291 359
#     4   9  21  40  62  84 115 159 197 239 300 357
#     4  11  23  34  57  91 116 157 200 244 298 346
#     4  10  20  39  59  82 120 159 194 240 302 354
#     4  10  21  39  62  87 120 154 195 248 302 355
#     4  10  20  35  58  85 112 155 196 236 294 349
#     4  10  23  41  61  85 119 161 195 240 308 361
#
# _framework density 19.154565000000002
#
# number of rings (size 3 to 8) (size 9 to 14) (size 15 to 20)
#    0.000    1.875    3.750    0.375    5.250    1.500 
#    0.000    2.500    0.000    9.750    0.000    0.000 
#    0.000    0.000    0.000    0.000    0.000    0.000 
#
# Total GULP energy -396545.568454 kJ/mol
# GULP energy per Si atom -12392.049014 kJ/mol
# Density = 1.911097 g / cm^3
# Si number density = 19.154565 Si / 1000 Ang^3
#
#
#
# Elastic Constant Matrix: (Units=GPa)
#
#
# Indices 1 2 3 4 5 6 
#
# 1 66.9034 39.1829 20.0867 0.0000 -8.2241 0.0000
# 2 39.1829 103.2541 37.1456 0.0000 -9.6464 0.0000
# 3 20.0867 37.1456 92.4230 0.0000 -0.9816 0.0000
# 4 0.0000 0.0000 0.0000 12.4870 0.0000 -9.6581
# 5 -8.2241 -9.6464 -0.9816 0.0000 31.9655 0.0000
# 6 0.0000 0.0000 0.0000 -9.6581 0.0000 27.5653
#
#
#
# Elastic Compliance Matrix: (Units=1/GPa)
#
#
# Indices 1 2 3 4 5 6 
#
# 1 0.019665 -0.006611 -0.001585 0.000000 0.003016 0.000000
# 2 -0.006611 0.013898 -0.004124 0.000000 0.002367 0.000000
# 3 -0.001585 -0.004124 0.012808 0.000000 -0.001259 0.000000
# 4 0.000000 0.000000 0.000000 0.109853 0.000000 0.038489
# 5 0.003016 0.002367 -0.001259 0.000000 0.032735 0.000000
# 6 0.000000 0.000000 0.000000 0.038489 0.000000 0.049763
#
#
# Mechanical properties :
#
#
# Convention : Reuss Voigt Hill
#
# Bulk Modulus (GPa) = 46.01394 50.60121 48.30758
# Shear Modulus (GPa) = 18.47702 25.48125 21.97914
#
# Velocity S-wave (km/s) = 3.10922 3.65128 3.39110
# Velocity P-wave (km/s) = 6.07982 6.65210 6.37239
#
# Compressibility (1/GPa) = 0.02173254
#
# Stress axis : x y z
#
# Youngs Moduli (GPa) = 50.85152 71.95220 78.07395
#
# Poissons Ratio (x) = 0.47564 0.12375
# Poissons Ratio (y) = 0.33616 0.32197
# Poissons Ratio (z) = 0.08060 0.29673
#
# Static dielectric constant tensor:
#      x y z
#    x 3.512400 0.000000 -0.124270 
#    y 0.000000 3.641730 0.000000 
#    z -0.124270 0.000000 3.547410 
# 
# 
# High freq. dielectric constant tensor:
#      x y z
#    x 1.747860 0.000000 -0.007380 
#    y 0.000000 1.730610 0.000000 
#    z -0.007380 0.000000 1.751350 
# 
# From -- ./inp_files/54724.got.cif
#   From: 2010.06.25/outbox.cif.g09.slc.cpg/sg12_28_cif.got.tgz:54724.got - 2010.06.28 00:19:55.
