data_PCOD8100500
_publ_section_title
;
Structure prediction by ZEFSAII (Michael W. Deem and Ramdas Pophale) SiO2 
 PCOD8100500
Probable space group: C 2/M
;
_chemical_formula_sum "Si O2"
_cell_formula_units_Z 40
_cell_length_a 22.795987
_cell_length_b 8.801659
_cell_length_c 15.170493
_cell_angle_alpha 90.000000
_cell_angle_beta 138.570064
_cell_angle_gamma 90.000000
_cell_volume 2014.123948
_symmetry_space_group_name_H-M "C 2/M"
_symmetry_group_IT_number 12
_symmetry_cell_setting 'monoclinic'
loop_
_space_group_symop_operation_xyz
x,y,z
-x,y,-z
-x,-y,-z
x,-y,z
1/2+x,1/2+y,z
1/2-x,1/2+y,-z
1/2-x,1/2-y,-z
1/2+x,1/2-y,z
loop_
_atom_site_type_symbol
_atom_site_label
_atom_site_fract_x
_atom_site_fract_y
_atom_site_fract_z
Si Si1 0.021346 0.177905 0.773456
Si Si2 0.067755 0.327325 0.002824
Si Si3 0.177447 0.321493 0.853510
Si Si4 0.730702 0.673181 0.735554
Si Si5 0.321909 0.679289 0.516488
O O1 0.079068 0.263963 0.765272
O O2 0.919834 0.233602 0.654786
O O3 0.028988 0.000000 0.763628
O O4 0.061421 0.215300 0.913628
O O5 0.046108 0.500000 0.948470
O O6 0.164010 0.315952 0.153423
O O7 0.000000 0.269705 0.000000
O O8 0.182748 0.500000 0.873050
O O9 0.194976 0.279991 0.772305
O O10 0.250000 0.250000 0.000000
O O11 0.700625 0.500000 0.720678
O O12 0.692650 0.733707 0.600230
O O13 0.311152 0.500000 0.510971
O O14 0.250000 0.750000 0.500000
#
# Coordination Sequence:
#
# PCOD8100500 Si02
#       5
#     8   8   8   8   8
#     4  11  23  39  61  90 124 162 204 251 306 362
#     4  10  20  35  59  88 117 157 207 254 303 359
#     4  12  24  40  63  91 123 159 203 257 311 366
#     4  10  21  39  62  88 122 163 206 250 303 361
#     4  10  23  42  64  91 126 167 205 250 303 361
#
# _framework density 19.859750999999999
#
# number of rings (size 3 to 8) (size 9 to 14) (size 15 to 20)
#    0.000    1.400    2.000    3.600    0.000    5.200 
#    0.000    4.000    0.000    0.000    0.000    0.000 
#    0.000    0.000    0.000    0.000    0.000    0.000 
#
# Total GULP energy -248106.880941 kJ/mol
# GULP energy per Si atom -12405.344047 kJ/mol
# Density = 1.981455 g / cm^3
# Si number density = 19.859751 Si / 1000 Ang^3
#
#
#
# Elastic Constant Matrix: (Units=GPa)
#
#
# Indices 1 2 3 4 5 6 
#
# 1 127.5413 45.2600 21.1053 0.0000 4.5090 0.0000
# 2 45.2600 90.8382 28.3563 0.0000 3.7797 0.0000
# 3 21.1053 28.3563 87.6188 0.0000 -1.7667 0.0000
# 4 0.0000 0.0000 0.0000 20.1130 0.0000 -1.2465
# 5 4.5090 3.7797 -1.7667 0.0000 36.5776 0.0000
# 6 0.0000 0.0000 0.0000 -1.2465 0.0000 39.0178
#
#
#
# Elastic Compliance Matrix: (Units=1/GPa)
#
#
# Indices 1 2 3 4 5 6 
#
# 1 0.009602 -0.004478 -0.000879 0.000000 -0.000763 0.000000
# 2 -0.004478 0.014412 -0.003608 0.000000 -0.001112 0.000000
# 3 -0.000879 -0.003608 0.012815 0.000000 0.001100 0.000000
# 4 0.000000 0.000000 0.000000 0.049818 0.000000 0.001592
# 5 -0.000763 -0.001112 0.001100 0.000000 0.027601 0.000000
# 6 0.000000 0.000000 0.000000 0.001592 0.000000 0.025680
#
#
# Mechanical properties :
#
#
# Convention : Reuss Voigt Hill
#
# Bulk Modulus (GPa) = 52.91348 55.04906 53.98127
# Shear Modulus (GPa) = 30.45840 33.22679 31.84260
#
# Velocity S-wave (km/s) = 3.92046 4.09476 4.00856
# Velocity P-wave (km/s) = 6.86985 7.08062 6.97603
#
# Compressibility (1/GPa) = 0.01889878
#
# Stress axis : x y z
#
# Youngs Moduli (GPa) = 104.14308 69.38500 78.03544
#
# Poissons Ratio (x) = 0.31071 0.06860
# Poissons Ratio (y) = 0.46636 0.28155
# Poissons Ratio (z) = 0.09155 0.25034
#
# Static dielectric constant tensor:
#      x y z
#    x 3.805980 0.000000 0.080150 
#    y 0.000000 3.552510 0.000000 
#    z 0.080150 0.000000 3.739080 
# 
# 
# High freq. dielectric constant tensor:
#      x y z
#    x 1.790670 0.000000 0.003730 
#    y 0.000000 1.767820 0.000000 
#    z 0.003730 0.000000 1.776610 
# 
# From -- ./inp_files/229638.got.cif
#   From: 2010.06.25/outbox.cif.g09.slc.cpg/sg12_115_cif.got.tgz:229638.got - 2010.06.28 00:19:55.
