data_PCOD8100419
_publ_section_title
;
Structure prediction by ZEFSAII (Michael W. Deem and Ramdas Pophale) SiO2 
 PCOD8100419
Probable space group: C 2/M
;
_chemical_formula_sum "Si O2"
_cell_formula_units_Z 48
_cell_length_a 14.611169
_cell_length_b 17.300181
_cell_length_c 14.790428
_cell_angle_alpha 90.000000
_cell_angle_beta 137.502251
_cell_angle_gamma 90.000000
_cell_volume 2525.696007
_symmetry_space_group_name_H-M "C 2/M"
_symmetry_group_IT_number 12
_symmetry_cell_setting 'monoclinic'
loop_
_space_group_symop_operation_xyz
x,y,z
-x,y,-z
-x,-y,-z
x,-y,z
1/2+x,1/2+y,z
1/2-x,1/2+y,-z
1/2-x,1/2-y,-z
1/2+x,1/2-y,z
loop_
_atom_site_type_symbol
_atom_site_label
_atom_site_fract_x
_atom_site_fract_y
_atom_site_fract_z
Si Si1 0.911278 0.089451 0.546230
Si Si2 0.150961 0.804288 0.143937
Si Si3 0.191684 0.852252 0.700383
Si Si4 0.731181 0.662194 0.011769
Si Si5 0.615064 0.086018 0.023575
Si Si6 0.554879 0.589756 0.228314
O O1 0.790308 0.115821 0.389769
O O2 0.033741 0.147792 0.611379
O O3 0.868927 0.099586 0.619964
O O4 0.950904 0.000000 0.556366
O O5 0.236538 0.730716 0.238415
O O6 0.231398 0.846115 0.120388
O O7 0.144485 0.865944 0.219742
O O8 0.000000 0.780833 0.000000
O O9 0.252158 0.911576 0.817640
O O10 0.750000 0.750000 0.000000
O O11 0.859741 0.622216 0.057073
O O12 0.594199 0.626100 0.871504
O O13 0.566263 0.000000 0.967984
O O14 0.500000 0.129705 0.000000
O O15 0.542198 0.500000 0.191039
#
# Coordination Sequence:
#
# PCOD8100419 Si02
#       6
#     8   8   8   8   8   8
#     4  10  20  35  59  83 109 146 187 231 277 323
#     4  10  22  35  56  83 113 148 181 228 280 327
#     4  11  19  34  54  81 114 140 184 227 277 329
#     4  11  20  34  55  79 112 149 176 225 280 323
#     4  11  22  34  54  82 112 145 181 223 280 340
#     4  10  21  37  57  83 111 145 191 231 272 330
#
# _framework density 19.004663000000001
#
# number of rings (size 3 to 8) (size 9 to 14) (size 15 to 20)
#    0.000    1.500    3.333    3.000    2.333    4.333 
#    0.000    0.000    0.000    0.000    0.000    2.333 
#    0.000    0.000    0.000    0.000    0.000    0.000 
#
# Total GULP energy -297362.355646 kJ/mol
# GULP energy per Si atom -12390.098152 kJ/mol
# Density = 1.896141 g / cm^3
# Si number density = 19.004663 Si / 1000 Ang^3
#
#
#
# Elastic Constant Matrix: (Units=GPa)
#
#
# Indices 1 2 3 4 5 6 
#
# 1 162.5875 63.3071 43.6804 -0.0001 -30.0493 0.0000
# 2 63.3071 121.5123 42.6235 0.0000 -13.4459 0.0000
# 3 43.6804 42.6235 75.5684 -0.0001 -25.9058 0.0000
# 4 -0.0001 0.0000 -0.0001 23.9918 -0.0001 -6.0508
# 5 -30.0493 -13.4459 -25.9058 -0.0001 33.3428 0.0000
# 6 0.0000 0.0000 0.0000 -6.0508 0.0000 26.2199
#
#
#
# Elastic Compliance Matrix: (Units=1/GPa)
#
#
# Indices 1 2 3 4 5 6 
#
# 1 0.008919 -0.003606 -0.001178 0.000000 0.005668 0.000000
# 2 -0.003606 0.011723 -0.005481 0.000000 -0.002781 0.000000
# 3 -0.001178 -0.005481 0.021651 0.000000 0.013549 0.000000
# 4 0.000000 0.000000 0.000000 0.044257 0.000000 0.010213
# 5 0.005668 -0.002781 0.013549 0.000000 0.044506 0.000000
# 6 0.000000 0.000000 0.000000 0.010213 0.000000 0.040496
#
#
# Mechanical properties :
#
#
# Convention : Reuss Voigt Hill
#
# Bulk Modulus (GPa) = 45.95282 73.21001 59.58142
# Shear Modulus (GPa) = 25.08327 30.71473 27.89900
#
# Velocity S-wave (km/s) = 3.63691 4.02452 3.83562
# Velocity P-wave (km/s) = 6.47058 7.75896 7.14387
#
# Compressibility (1/GPa) = 0.02176145
#
# Stress axis : x y z
#
# Youngs Moduli (GPa) = 112.12291 85.29946 46.18797
#
# Poissons Ratio (x) = 0.30760 0.05441
# Poissons Ratio (y) = 0.40433 0.25318
# Poissons Ratio (z) = 0.13209 0.46756
#
# Static dielectric constant tensor:
#      x y z
#    x 4.239970 0.000000 -0.375530 
#    y 0.000000 3.428910 0.000000 
#    z -0.375530 0.000000 3.606640 
# 
# 
# High freq. dielectric constant tensor:
#      x y z
#    x 1.742290 0.000000 -0.026150 
#    y 0.000000 1.737460 0.000000 
#    z -0.026150 0.000000 1.716950 
# 
# From -- ./inp_files/216512.got.cif
#   From: 2010.06.25/outbox.cif.g09.slc.cpg/sg12_109_cif.got.tgz:216512.got - 2010.06.28 00:19:55.
