data_PCOD8100838
_publ_section_title
;
Structure prediction by ZEFSAII (Michael W. Deem and Ramdas Pophale) SiO2 
 PCOD8100838
Probable space group: C 2/M
;
_chemical_formula_sum "Si O2"
_cell_formula_units_Z 56
_cell_length_a 19.729874
_cell_length_b 8.901686
_cell_length_c 24.661082
_cell_angle_alpha 90.000000
_cell_angle_beta 44.795384
_cell_angle_gamma 90.000000
_cell_volume 3051.667395
_symmetry_space_group_name_H-M "C 2/M"
_symmetry_group_IT_number 12
_symmetry_cell_setting 'monoclinic'
loop_
_space_group_symop_operation_xyz
x,y,z
-x,y,-z
-x,-y,-z
x,-y,z
1/2+x,1/2+y,z
1/2-x,1/2+y,-z
1/2-x,1/2-y,-z
1/2+x,1/2-y,z
loop_
_atom_site_type_symbol
_atom_site_label
_atom_site_fract_x
_atom_site_fract_y
_atom_site_fract_z
Si Si1 0.320240 0.677778 0.803593
Si Si2 0.491677 0.324815 0.941701
Si Si3 0.204194 0.321869 0.973667
Si Si4 0.179117 0.676933 0.789884
Si Si5 0.671273 0.674474 0.508866
Si Si6 0.803423 0.324432 0.343288
Si Si7 0.535013 0.677854 0.674921
O O1 0.326180 0.500000 0.803018
O O2 0.261281 0.739426 0.888624
O O3 0.266550 0.727176 0.779052
O O4 0.428127 0.745915 0.743071
O O5 0.473592 0.500000 0.941116
O O6 0.586673 0.272787 0.857441
O O7 0.500000 0.287547 0.000000
O O8 0.405390 0.229165 0.966288
O O9 0.209310 0.500000 0.974673
O O10 0.250000 0.250000 0.000000
O O11 0.156815 0.500000 0.808890
O O12 0.207777 0.722317 0.712676
O O13 0.683728 0.500000 0.510091
O O14 0.750000 0.750000 0.500000
O O15 0.699321 0.716850 0.430717
O O16 0.568396 0.721077 0.593713
O O17 0.825249 0.500000 0.336310
O O18 0.893353 0.242196 0.320312
O O19 0.533198 0.500000 0.684054
#
# Coordination Sequence:
#
# PCOD8100838 Si02
#       7
#     8   8   8   8   8   8   8
#     4   9  19  35  53  74 103 138 173 209 258 315
#     4  11  23  39  58  80 105 137 180 224 264 316
#     4  11  23  39  58  80 109 142 178 220 265 317
#     4  10  20  36  55  75 104 141 176 213 263 319
#     4   8  14  27  47  72 102 132 167 208 254 303
#     4   9  18  31  50  78 104 131 171 217 256 304
#     4   9  17  31  52  75 102 138 172 209 258 310
#
# _framework density 18.350624
#
# number of rings (size 3 to 8) (size 9 to 14) (size 15 to 20)
#    0.000    2.429    1.429    0.857    2.000    1.143 
#    0.000    2.143    0.000    4.286    0.000    0.000 
#    0.000   12.571    0.000    0.000    0.000    0.000 
#
# Total GULP energy -346963.854337 kJ/mol
# GULP energy per Si atom -12391.566226 kJ/mol
# Density = 1.830886 g / cm^3
# Si number density = 18.350624 Si / 1000 Ang^3
#
#
#
# Elastic Constant Matrix: (Units=GPa)
#
#
# Indices 1 2 3 4 5 6 
#
# 1 119.9955 26.0419 65.1768 0.0000 8.9106 -0.0008
# 2 26.0419 31.5145 20.5478 0.0001 6.0351 -0.0015
# 3 65.1768 20.5478 122.7686 -0.0001 18.4422 0.0001
# 4 0.0000 0.0001 -0.0001 20.6805 0.0001 -0.0490
# 5 8.9106 6.0351 18.4422 0.0001 32.7346 0.0000
# 6 -0.0008 -0.0015 0.0001 -0.0490 0.0000 21.5571
#
#
#
# Elastic Compliance Matrix: (Units=1/GPa)
#
#
# Indices 1 2 3 4 5 6 
#
# 1 0.012982 -0.007111 -0.005864 0.000000 0.001081 0.000000
# 2 -0.007111 0.039885 -0.002280 0.000000 -0.004133 0.000003
# 3 -0.005864 -0.002280 0.012385 0.000000 -0.004961 0.000000
# 4 0.000000 0.000000 0.000000 0.048355 0.000000 0.000110
# 5 0.001081 -0.004133 -0.004961 0.000000 0.033812 0.000000
# 6 0.000000 0.000003 0.000000 0.000110 0.000000 0.046389
#
#
# Mechanical properties :
#
#
# Convention : Reuss Voigt Hill
#
# Bulk Modulus (GPa) = 28.78251 55.31238 42.04745
# Shear Modulus (GPa) = 21.19557 25.82858 23.51207
#
# Velocity S-wave (km/s) = 3.40226 3.75574 3.58336
# Velocity P-wave (km/s) = 5.58146 7.00106 6.33117
#
# Compressibility (1/GPa) = 0.03474332
#
# Stress axis : x y z
#
# Youngs Moduli (GPa) = 77.03100 25.07180 80.73997
#
# Poissons Ratio (x) = 0.17829 0.47347
# Poissons Ratio (y) = 0.54777 0.18405
# Poissons Ratio (z) = 0.45172 0.05715
#
# Static dielectric constant tensor:
#      x y z
#    x 3.246730 0.000000 0.150790 
#    y 0.000000 4.224470 -0.000010 
#    z 0.150790 -0.000010 4.224420 
# 
# 
# High freq. dielectric constant tensor:
#      x y z
#    x 1.694620 0.000000 0.003850 
#    y 0.000000 1.694980 0.000000 
#    z 0.003850 0.000000 1.733990 
# 
# From -- ./inp_files/280405.got.cif
#   From: 2010.06.25/outbox.cif.g09.slc.cpg/sg12_141_cif.got.tgz:280405.got - 2010.06.28 00:19:55.
