data_PCOD8100126
_publ_section_title
;
Structure prediction by ZEFSAII (Michael W. Deem and Ramdas Pophale) SiO2 
 PCOD8100126
Probable space group: C 2/M
;
_chemical_formula_sum "Si O2"
_cell_formula_units_Z 56
_cell_length_a 22.317604
_cell_length_b 19.907226
_cell_length_c 18.243400
_cell_angle_alpha 90.000000
_cell_angle_beta 161.439301
_cell_angle_gamma 90.000000
_cell_volume 2579.961290
_symmetry_space_group_name_H-M "C 2/M"
_symmetry_group_IT_number 12
_symmetry_cell_setting 'monoclinic'
loop_
_space_group_symop_operation_xyz
x,y,z
-x,y,-z
-x,-y,-z
x,-y,z
1/2+x,1/2+y,z
1/2-x,1/2+y,-z
1/2-x,1/2-y,-z
1/2+x,1/2-y,z
loop_
_atom_site_type_symbol
_atom_site_label
_atom_site_fract_x
_atom_site_fract_y
_atom_site_fract_z
Si Si1 0.786876 0.329262 0.460347
Si Si2 0.063877 0.927600 0.715026
Si Si3 0.071308 0.655576 0.665719
Si Si4 0.657516 0.926184 0.239079
Si Si5 0.340691 0.697869 0.256306
Si Si6 0.425809 0.800712 0.775999
Si Si7 0.456613 0.422913 0.137421
O O1 0.685351 0.260984 0.315632
O O2 0.920416 0.302479 0.681222
O O3 0.626398 0.382754 0.296168
O O4 0.910866 0.363510 0.539437
O O5 0.185253 0.864810 0.829352
O O6 0.013703 0.920614 0.741741
O O7 0.863050 0.927719 0.439320
O O8 0.166281 0.000000 0.819136
O O9 0.114183 0.733440 0.733793
O O10 0.000000 0.647378 0.500000
O O11 0.254438 0.609667 0.885429
O O12 0.668199 0.871418 0.314490
O O13 0.607827 0.000000 0.213893
O O14 0.500000 0.902865 0.000000
O O15 0.500000 0.681429 0.500000
O O16 0.134837 0.705810 0.052339
O O17 0.457778 0.500000 0.110282
#
# Coordination Sequence:
#
# PCOD8100126 Si02
#       7
#     8   8   8   8   8   8   8
#     4  11  24  42  69 100 129 174 227 276 338 396
#     4  10  21  38  61  91 133 176 221 272 322 390
#     4  11  26  46  67 100 135 171 222 284 342 405
#     4  10  20  35  57  89 131 176 216 261 318 384
#     4  11  23  39  61  96 139 182 222 272 323 394
#     4  11  22  38  64  98 131 179 225 276 318 396
#     4  11  24  46  71  99 132 171 224 283 345 400
#
# _framework density 21.705750999999999
#
# number of rings (size 3 to 8) (size 9 to 14) (size 15 to 20)
#    0.000    1.286    2.857    2.571    2.000    4.571 
#    0.000    0.714    0.000    0.000    0.000    0.000 
#    0.000    0.000    0.000    0.000    0.000    0.000 
#
# Total GULP energy -347023.669535 kJ/mol
# GULP energy per Si atom -12393.702483 kJ/mol
# Density = 2.165635 g / cm^3
# Si number density = 21.705751 Si / 1000 Ang^3
#
#
#
# Elastic Constant Matrix: (Units=GPa)
#
#
# Indices 1 2 3 4 5 6 
#
# 1 56.4593 37.4876 21.0829 0.0002 14.4620 0.0000
# 2 37.4876 159.9716 43.5519 0.0002 5.9097 0.0000
# 3 21.0829 43.5519 119.9762 -0.0004 10.8941 -0.0002
# 4 0.0002 0.0002 -0.0004 26.0032 -0.0002 1.0577
# 5 14.4620 5.9097 10.8941 -0.0002 26.3681 0.0000
# 6 0.0000 0.0000 -0.0002 1.0577 0.0000 29.7407
#
#
#
# Elastic Compliance Matrix: (Units=1/GPa)
#
#
# Indices 1 2 3 4 5 6 
#
# 1 0.024531 -0.004917 -0.001459 0.000000 -0.011750 0.000000
# 2 -0.004917 0.007930 -0.002180 0.000000 0.001820 0.000000
# 3 -0.001459 -0.002180 0.009627 0.000000 -0.002689 0.000000
# 4 0.000000 0.000000 0.000000 0.038512 0.000000 -0.001370
# 5 -0.011750 0.001820 -0.002689 0.000000 0.045072 0.000000
# 6 0.000000 0.000000 0.000000 -0.001370 0.000000 0.033673
#
#
# Mechanical properties :
#
#
# Convention : Reuss Voigt Hill
#
# Bulk Modulus (GPa) = 40.03862 60.07241 50.05552
# Shear Modulus (GPa) = 27.05891 32.04138 29.55014
#
# Velocity S-wave (km/s) = 3.53459 3.84626 3.69371
# Velocity P-wave (km/s) = 5.92823 6.88919 6.42669
#
# Compressibility (1/GPa) = 0.02497589
#
# Stress axis : x y z
#
# Youngs Moduli (GPa) = 40.76406 126.10951 103.87772
#
# Poissons Ratio (x) = 0.62014 0.15154
# Poissons Ratio (y) = 0.20045 0.22642
# Poissons Ratio (z) = 0.05947 0.27488
#
# Static dielectric constant tensor:
#      x y z
#    x 3.552730 0.000000 -0.028520 
#    y 0.000000 4.199550 0.000000 
#    z -0.028520 0.000000 4.033850 
# 
# 
# High freq. dielectric constant tensor:
#      x y z
#    x 1.821070 0.000000 0.000830 
#    y 0.000000 1.867230 0.000000 
#    z 0.000830 0.000000 1.866520 
# 
# From -- ./inp_files/285997.got.cif
#   From: 2010.06.25/outbox.cif.g09.slc.cpg/sg12_143_cif.got.tgz:285997.got - 2010.06.28 00:19:55.
