data_PCOD8100921
_publ_section_title
;
Structure prediction by ZEFSAII (Michael W. Deem and Ramdas Pophale) SiO2 
 PCOD8100921
Probable space group: C 2/M
;
_chemical_formula_sum "Si O2"
_cell_formula_units_Z 56
_cell_length_a 25.929705
_cell_length_b 10.037436
_cell_length_c 17.212876
_cell_angle_alpha 90.000000
_cell_angle_beta 138.867757
_cell_angle_gamma 90.000000
_cell_volume 2946.911888
_symmetry_space_group_name_H-M "C 2/M"
_symmetry_group_IT_number 12
_symmetry_cell_setting 'monoclinic'
loop_
_space_group_symop_operation_xyz
x,y,z
-x,y,-z
-x,-y,-z
x,-y,z
1/2+x,1/2+y,z
1/2-x,1/2+y,-z
1/2-x,1/2-y,-z
1/2+x,1/2-y,z
loop_
_atom_site_type_symbol
_atom_site_label
_atom_site_fract_x
_atom_site_fract_y
_atom_site_fract_z
Si Si1 0.294092 0.849660 0.206562
Si Si2 0.623392 0.249995 0.000030
Si Si3 0.189086 0.153907 0.636502
Si Si4 0.635456 0.147788 0.179916
Si Si5 0.447448 0.653898 0.636552
Si Si6 0.044437 0.852213 0.179863
Si Si7 0.912437 0.650343 0.206510
O O1 0.326135 0.747273 0.306989
O O2 0.338723 0.818062 0.177458
O O3 0.311135 0.000000 0.254626
O O4 0.201793 0.837158 0.086003
O O5 0.549684 0.348432 0.924288
O O6 0.615853 0.162871 0.914074
O O7 0.625430 0.151525 0.075765
O O8 0.274629 0.181807 0.696794
O O9 0.126519 0.190285 0.499973
O O10 0.182327 0.000000 0.655722
O O11 0.577801 0.249994 0.155596
O O12 0.612989 0.000000 0.183210
O O13 0.473433 0.500000 0.655741
O O14 0.422190 0.681742 0.696840
O O15 0.519167 0.747289 0.693062
O O16 0.070171 0.000000 0.183097
O O17 0.943458 0.500000 0.254556
#
# Coordination Sequence:
#
# PCOD8100921 Si02
#       7
#     8   8   8   8   8   8   8
#     4  10  21  36  56  83 111 140 178 224 270 314
#     4  10  20  36  56  76 108 146 180 212 260 322
#     4   9  20  39  58  77 106 144 183 220 263 321
#     4  10  21  35  54  79 106 138 177 220 265 315
#     4   9  20  39  58  77 106 144 183 220 263 321
#     4  10  21  35  54  79 106 138 177 220 265 315
#     4  10  21  36  56  83 111 140 178 224 270 314
#
# _framework density 19.002942999999998
#
# number of rings (size 3 to 8) (size 9 to 14) (size 15 to 20)
#    0.000    2.286    0.000    1.714    0.000   10.286 
#    0.000    2.857    0.000    0.000    0.000    0.000 
#    0.000    0.000    0.000    0.000    0.000    0.000 
#
# Total GULP energy -347235.184088 kJ/mol
# GULP energy per Si atom -12401.256575 kJ/mol
# Density = 1.895969 g / cm^3
# Si number density = 19.002943 Si / 1000 Ang^3
#
#
#
# Elastic Constant Matrix: (Units=GPa)
#
#
# Indices 1 2 3 4 5 6 
#
# 1 124.4252 64.2876 56.4648 0.0000 0.4718 0.0000
# 2 64.2876 102.7566 44.6656 0.0000 0.2390 0.0000
# 3 56.4648 44.6656 137.8584 0.0000 -0.6526 0.0000
# 4 0.0000 0.0000 0.0000 25.8287 0.0000 -0.0257
# 5 0.4718 0.2390 -0.6526 0.0000 14.6378 0.0000
# 6 0.0000 0.0000 0.0000 -0.0257 0.0000 23.7341
#
#
#
# Elastic Compliance Matrix: (Units=1/GPa)
#
#
# Indices 1 2 3 4 5 6 
#
# 1 0.012933 -0.006735 -0.003117 0.000000 -0.000446 0.000000
# 2 -0.006735 0.014836 -0.002049 0.000000 -0.000117 0.000000
# 3 -0.003117 -0.002049 0.009197 0.000000 0.000544 0.000000
# 4 0.000000 0.000000 0.000000 0.038717 0.000000 0.000042
# 5 -0.000446 -0.000117 0.000544 0.000000 0.068357 0.000000
# 6 0.000000 0.000000 0.000000 0.000042 0.000000 0.042133
#
#
# Mechanical properties :
#
#
# Convention : Reuss Voigt Hill
#
# Bulk Modulus (GPa) = 75.96512 77.31959 76.64235
# Shear Modulus (GPa) = 23.32478 26.14827 24.73652
#
# Velocity S-wave (km/s) = 3.50727 3.71349 3.61185
# Velocity P-wave (km/s) = 7.51422 7.69176 7.60351
#
# Compressibility (1/GPa) = 0.01316394
#
# Stress axis : x y z
#
# Youngs Moduli (GPa) = 77.31989 67.40150 108.73216
#
# Poissons Ratio (x) = 0.45398 0.33893
# Poissons Ratio (y) = 0.52079 0.22277
# Poissons Ratio (z) = 0.24102 0.13809
#
# Static dielectric constant tensor:
#      x y z
#    x 3.424640 0.000000 -0.001890 
#    y 0.000000 3.450090 0.000000 
#    z -0.001890 0.000000 3.570950 
# 
# 
# High freq. dielectric constant tensor:
#      x y z
#    x 1.735530 0.000000 -0.000050 
#    y 0.000000 1.743360 0.000000 
#    z -0.000050 0.000000 1.739970 
# 
# From -- ./inp_files/292523.got.cif
#   From: 2010.06.25/outbox.cif.g09.slc.cpg/sg12_147_cif.got.tgz:292523.got - 2010.06.28 00:19:55.
