data_PCOD8100502
_publ_section_title
;
Structure prediction by ZEFSAII (Michael W. Deem and Ramdas Pophale) SiO2 
 PCOD8100502
Probable space group: C 2/M
;
_chemical_formula_sum "Si O2"
_cell_formula_units_Z 56
_cell_length_a 24.414050
_cell_length_b 15.229713
_cell_length_c 16.345614
_cell_angle_alpha 90.000000
_cell_angle_beta 27.165817
_cell_angle_gamma 90.000000
_cell_volume 2774.837213
_symmetry_space_group_name_H-M "C 2/M"
_symmetry_group_IT_number 12
_symmetry_cell_setting 'monoclinic'
loop_
_space_group_symop_operation_xyz
x,y,z
-x,y,-z
-x,-y,-z
x,-y,z
1/2+x,1/2+y,z
1/2-x,1/2+y,-z
1/2-x,1/2-y,-z
1/2+x,1/2-y,z
loop_
_atom_site_type_symbol
_atom_site_label
_atom_site_fract_x
_atom_site_fract_y
_atom_site_fract_z
Si Si1 0.539372 0.623059 0.361233
Si Si2 0.837453 0.901378 0.350980
Si Si3 0.750201 0.596796 0.967975
Si Si4 0.013239 0.322202 0.392962
Si Si5 0.256561 0.792748 0.667926
Si Si6 0.802907 0.903364 0.583062
Si Si7 0.884398 0.102754 0.011667
O O1 0.500000 0.578129 0.500000
O O2 0.551804 0.724563 0.361362
O O3 0.444085 0.596989 0.417986
O O4 0.671751 0.593994 0.155453
O O5 0.773410 0.826089 0.383139
O O6 0.781752 0.898057 0.514837
O O7 0.975973 0.877931 0.175473
O O8 0.820262 0.000000 0.336581
O O9 0.783522 0.500000 0.896472
O O10 0.879319 0.642248 0.806900
O O11 0.673541 0.639038 0.995568
O O12 0.000000 0.370036 0.500000
O O13 0.890518 0.327104 0.506277
O O14 0.243610 0.686290 0.697871
O O15 0.165313 0.838947 0.849362
O O16 0.750931 0.000000 0.682018
O O17 0.857561 0.000000 0.062502
#
# Coordination Sequence:
#
# PCOD8100502 Si02
#       7
#     8   8   8   8   8   8   8
#     4  10  21  38  63  83 111 153 205 249 285 337
#     4  10  20  37  61  87 116 150 198 250 292 339
#     4  11  21  35  57  85 121 156 189 239 302 353
#     4  10  21  37  54  85 121 159 189 231 293 356
#     4  11  21  35  58  88 121 156 198 232 292 359
#     4  10  21  38  58  83 114 150 196 249 294 337
#     4  10  20  35  59  88 118 151 192 244 295 346
#
# _framework density 20.181363999999999
#
# number of rings (size 3 to 8) (size 9 to 14) (size 15 to 20)
#    0.000    1.714    2.857    2.143    0.000    3.714 
#    0.000    0.000    0.000    1.714    0.000    2.000 
#    0.000    0.000    0.000    0.000    0.000    0.000 
#
# Total GULP energy -346928.146333 kJ/mol
# GULP energy per Si atom -12390.290940 kJ/mol
# Density = 2.013543 g / cm^3
# Si number density = 20.181364 Si / 1000 Ang^3
#
#
#
# Elastic Constant Matrix: (Units=GPa)
#
#
# Indices 1 2 3 4 5 6 
#
# 1 80.9479 23.1803 16.5896 0.0000 3.0317 0.0000
# 2 23.1803 78.7562 19.0056 0.0000 -5.6142 0.0000
# 3 16.5896 19.0056 61.2844 0.0000 9.0500 0.0000
# 4 0.0000 0.0000 0.0000 8.7212 0.0000 -0.3399
# 5 3.0317 -5.6142 9.0500 0.0000 28.1529 0.0000
# 6 0.0000 0.0000 0.0000 -0.3399 0.0000 21.6524
#
#
#
# Elastic Compliance Matrix: (Units=1/GPa)
#
#
# Indices 1 2 3 4 5 6 
#
# 1 0.013944 -0.003618 -0.002440 0.000000 -0.001439 0.000000
# 2 -0.003618 0.015180 -0.004444 0.000000 0.004845 0.000000
# 3 -0.002440 -0.004444 0.019367 0.000000 -0.006849 0.000000
# 4 0.000000 0.000000 0.000000 0.114734 0.000000 0.001801
# 5 -0.001439 0.004845 -0.006849 0.000000 0.038843 0.000000
# 6 0.000000 0.000000 0.000000 0.001801 0.000000 0.046213
#
#
# Mechanical properties :
#
#
# Convention : Reuss Voigt Hill
#
# Bulk Modulus (GPa) = 36.37992 37.61550 36.99771
# Shear Modulus (GPa) = 17.95678 22.51949 20.23814
#
# Velocity S-wave (km/s) = 2.98614 3.34407 3.17016
# Velocity P-wave (km/s) = 5.47312 5.79565 5.63669
#
# Compressibility (1/GPa) = 0.02748769
#
# Stress axis : x y z
#
# Youngs Moduli (GPa) = 71.71774 65.87612 51.63295
#
# Poissons Ratio (x) = 0.23832 0.12599
# Poissons Ratio (y) = 0.25945 0.22945
# Poissons Ratio (z) = 0.17500 0.29274
#
# Static dielectric constant tensor:
#      x y z
#    x 3.670010 0.000000 0.092210 
#    y 0.000000 3.889080 0.000000 
#    z 0.092210 0.000000 3.514940 
# 
# 
# High freq. dielectric constant tensor:
#      x y z
#    x 1.783540 0.000000 0.007320 
#    y 0.000000 1.793380 0.000000 
#    z 0.007320 0.000000 1.766720 
# 
# From -- ./inp_files/240874.got.cif
#   From: 2010.06.25/outbox.cif.g09.slc.cpg/sg12_121_cif.got.tgz:240874.got - 2010.06.28 00:19:55.
