data_PCOD8100289
_publ_section_title
;
Structure prediction by ZEFSAII (Michael W. Deem and Ramdas Pophale) SiO2 
 PCOD8100289
Probable space group: C 2/M
;
_chemical_formula_sum "Si O2"
_cell_formula_units_Z 40
_cell_length_a 30.503659
_cell_length_b 7.745836
_cell_length_c 15.205953
_cell_angle_alpha 90.000000
_cell_angle_beta 145.418783
_cell_angle_gamma 90.000000
_cell_volume 2039.183327
_symmetry_space_group_name_H-M "C 2/M"
_symmetry_group_IT_number 12
_symmetry_cell_setting 'monoclinic'
loop_
_space_group_symop_operation_xyz
x,y,z
-x,y,-z
-x,-y,-z
x,-y,z
1/2+x,1/2+y,z
1/2-x,1/2+y,-z
1/2-x,1/2-y,-z
1/2+x,1/2-y,z
loop_
_atom_site_type_symbol
_atom_site_label
_atom_site_fract_x
_atom_site_fract_y
_atom_site_fract_z
Si Si1 0.858056 0.694103 0.447445
Si Si2 0.561256 0.698474 0.030954
Si Si3 0.387183 0.500000 0.376897
Si Si4 0.937453 0.000000 0.272557
Si Si5 0.028232 0.307814 0.785998
Si Si6 0.228444 0.297067 0.366180
O O1 0.859215 0.500000 0.410260
O O2 0.789222 0.708646 0.402335
O O3 0.937367 0.736281 0.629796
O O4 0.846560 0.828462 0.348524
O O5 0.542466 0.500000 0.978721
O O6 0.553808 0.804621 0.929155
O O7 0.500000 0.772567 0.000000
O O8 0.645566 0.717636 0.210110
O O9 0.377819 0.500000 0.255742
O O10 0.476569 0.500000 0.548699
O O11 0.922612 0.828997 0.189754
O O12 0.045193 0.500000 0.777172
O O13 0.228667 0.500000 0.350857
O O14 0.250000 0.250000 0.500000
#
# Coordination Sequence:
#
# PCOD8100289 Si02
#       6
#     8   8   4   4   8   8
#     4  10  20  36  58  86 118 152 193 238 284 340
#     4  11  23  38  58  84 116 156 192 236 286 341
#     4   9  18  34  58  86 115 152 189 239 296 334
#     4   9  18  34  57  86 118 146 192 243 286 344
#     4  10  20  35  58  86 117 154 191 238 288 339
#     4  12  24  38  57  84 117 154 194 237 281 342
#
# _framework density 19.615694999999999
#
# number of rings (size 3 to 8) (size 9 to 14) (size 15 to 20)
#    0.000    1.600    2.000    3.600    0.000    5.600 
#    0.000    4.000    0.000    1.200    0.000    0.000 
#    0.000    0.000    0.000    0.000    0.000    0.000 
#
# Total GULP energy -248065.836990 kJ/mol
# GULP energy per Si atom -12403.291850 kJ/mol
# Density = 1.957105 g / cm^3
# Si number density = 19.615695 Si / 1000 Ang^3
#
#
#
# Elastic Constant Matrix: (Units=GPa)
#
#
# Indices 1 2 3 4 5 6 
#
# 1 153.2804 59.5733 55.2463 0.0000 -15.2073 0.0000
# 2 59.5733 134.3541 20.4469 0.0000 -10.0832 0.0000
# 3 55.2463 20.4469 74.0958 0.0000 -2.7387 0.0000
# 4 0.0000 0.0000 0.0000 24.2626 0.0000 -0.0412
# 5 -15.2073 -10.0832 -2.7387 0.0000 25.7892 0.0000
# 6 0.0000 0.0000 0.0000 -0.0412 0.0000 17.8601
#
#
#
# Elastic Compliance Matrix: (Units=1/GPa)
#
#
# Indices 1 2 3 4 5 6 
#
# 1 0.010769 -0.003398 -0.006933 0.000000 0.004285 0.000000
# 2 -0.003398 0.009052 0.000093 0.000000 0.001545 0.000000
# 3 -0.006933 0.000093 0.018563 0.000000 -0.002081 0.000000
# 4 0.000000 0.000000 0.000000 0.041216 0.000000 0.000095
# 5 0.004285 0.001545 -0.002081 0.000000 0.041686 0.000000
# 6 0.000000 0.000000 0.000000 0.000095 0.000000 0.055991
#
#
# Mechanical properties :
#
#
# Convention : Reuss Voigt Hill
#
# Bulk Modulus (GPa) = 55.84536 70.25149 63.04842
# Shear Modulus (GPa) = 24.54332 28.67995 26.61163
#
# Velocity S-wave (km/s) = 3.54108 3.82788 3.68727
# Velocity P-wave (km/s) = 6.72685 7.44504 7.09504
#
# Compressibility (1/GPa) = 0.01790659
#
# Stress axis : x y z
#
# Youngs Moduli (GPa) = 92.86150 110.47774 53.87108
#
# Poissons Ratio (x) = 0.37542 0.37349
# Poissons Ratio (y) = 0.31556 -0.00501
# Poissons Ratio (z) = 0.64382 -0.01027
#
# Static dielectric constant tensor:
#      x y z
#    x 3.645970 0.000000 -0.044040 
#    y 0.000000 3.822960 0.000000 
#    z -0.044040 0.000000 3.321690 
# 
# 
# High freq. dielectric constant tensor:
#      x y z
#    x 1.757560 0.000000 -0.004110 
#    y 0.000000 1.784590 0.000000 
#    z -0.004110 0.000000 1.738910 
# 
# From -- ./inp_files/250274.got.cif
#   From: 2010.06.25/outbox.cif.g09.slc.cpg/sg12_126_cif.got.tgz:250274.got - 2010.06.28 00:19:55.
