data_PCOD8101416
_publ_section_title
;
Structure prediction by ZEFSAII (Michael W. Deem and Ramdas Pophale) SiO2 
 PCOD8101416
Probable space group: C 2/M
;
_chemical_formula_sum "Si O2"
_cell_formula_units_Z 64
_cell_length_a 28.779081
_cell_length_b 9.260932
_cell_length_c 18.193966
_cell_angle_alpha 90.000000
_cell_angle_beta 43.108813
_cell_angle_gamma 90.000000
_cell_volume 3313.791057
_symmetry_space_group_name_H-M "C 2/M"
_symmetry_group_IT_number 12
_symmetry_cell_setting 'monoclinic'
loop_
_space_group_symop_operation_xyz
x,y,z
-x,y,-z
-x,-y,-z
x,-y,z
1/2+x,1/2+y,z
1/2-x,1/2+y,-z
1/2-x,1/2-y,-z
1/2+x,1/2-y,z
loop_
_atom_site_type_symbol
_atom_site_label
_atom_site_fract_x
_atom_site_fract_y
_atom_site_fract_z
Si Si1 0.437136 0.835025 0.525071
Si Si2 0.783765 0.669520 0.527713
Si Si3 0.060002 0.663896 0.645585
Si Si4 0.317710 0.331303 0.899562
Si Si5 0.936114 0.169902 0.029397
Si Si6 0.557885 0.671272 0.143423
Si Si7 0.213113 0.169400 0.759859
Si Si8 0.815806 0.168827 0.732344
O O1 0.500000 0.780562 0.500000
O O2 0.461885 0.821287 0.413365
O O3 0.373876 0.732559 0.613222
O O4 0.415963 0.000000 0.568003
O O5 0.773428 0.500000 0.529673
O O6 0.750000 0.750000 0.500000
O O7 0.862270 0.713713 0.437492
O O8 0.748353 0.720651 0.643977
O O9 0.050716 0.500000 0.683967
O O10 0.013832 0.767657 0.747106
O O11 0.305720 0.500000 0.927291
O O12 0.380351 0.273140 0.876530
O O13 0.333997 0.298426 0.795802
O O14 0.250000 0.250000 0.000000
O O15 0.931275 0.229522 0.951831
O O16 0.946934 0.000000 0.012219
O O17 0.866715 0.208550 0.152236
O O18 0.000000 0.238977 0.000000
O O19 0.553508 0.500000 0.152359
O O20 0.245267 0.254561 0.791595
O O21 0.224276 0.000000 0.761365
O O22 0.808968 0.000000 0.725008
#
# Coordination Sequence:
#
# PCOD8101416 Si02
#       8
#     8   8   8   8   8   8   8   8
#     4  10  20  36  58  82 111 151 195 231 275 340
#     4  10  22  38  59  86 115 149 192 239 287 343
#     4  10  21  38  56  83 119 150 189 233 278 343
#     4  10  22  38  56  84 116 151 195 239 285 343
#     4   9  19  35  59  87 109 139 189 241 284 333
#     4  10  21  37  58  85 115 148 190 236 286 341
#     4  10  20  39  63  84 114 152 193 240 285 340
#     4  11  22  35  55  84 118 148 185 238 289 340
#
# _framework density 19.313227000000001
#
# number of rings (size 3 to 8) (size 9 to 14) (size 15 to 20)
#    0.000    2.000    1.250    1.875    1.750    4.250 
#    0.000    0.625    0.000    0.750    0.000    0.000 
#    0.000    0.000    0.000    0.000    0.000    0.000 
#
# Total GULP energy -396886.984414 kJ/mol
# GULP energy per Si atom -12402.718263 kJ/mol
# Density = 1.926927 g / cm^3
# Si number density = 19.313227 Si / 1000 Ang^3
#
#
#
# Elastic Constant Matrix: (Units=GPa)
#
#
# Indices 1 2 3 4 5 6 
#
# 1 157.4717 35.8457 58.9746 0.0045 -5.1037 0.0035
# 2 35.8457 40.8290 35.5310 0.0588 -2.5491 -0.0223
# 3 58.9746 35.5310 124.9482 0.0331 -10.8353 -0.0122
# 4 0.0045 0.0588 0.0331 26.8761 -0.0164 -1.8110
# 5 -5.1037 -2.5491 -10.8353 -0.0164 31.6128 0.0044
# 6 0.0035 -0.0223 -0.0122 -1.8110 0.0044 29.9398
#
#
#
# Elastic Compliance Matrix: (Units=1/GPa)
#
#
# Indices 1 2 3 4 5 6 
#
# 1 0.008490 -0.005272 -0.002500 0.000013 0.000089 -0.000005
# 2 -0.005272 0.035831 -0.007754 -0.000067 -0.000620 0.000020
# 3 -0.002500 -0.007754 0.011645 0.000005 0.002963 -0.000001
# 4 0.000013 -0.000067 0.000005 0.037360 0.000017 0.002260
# 5 0.000089 -0.000620 0.002963 0.000017 0.032612 -0.000003
# 6 -0.000005 0.000020 -0.000001 0.002260 -0.000003 0.033537
#
#
# Mechanical properties :
#
#
# Convention : Reuss Voigt Hill
#
# Bulk Modulus (GPa) = 40.14080 64.88349 52.51215
# Shear Modulus (GPa) = 25.14674 30.54558 27.84616
#
# Velocity S-wave (km/s) = 3.61230 3.98123 3.80125
# Velocity P-wave (km/s) = 6.18284 7.40283 6.82017
#
# Compressibility (1/GPa) = 0.02491231
#
# Stress axis : x y z
#
# Youngs Moduli (GPa) = 117.79002 27.90904 85.87143
#
# Poissons Ratio (x) = 0.14714 0.21469
# Poissons Ratio (y) = 0.62102 0.66587
# Poissons Ratio (z) = 0.29449 0.21641
#
# Static dielectric constant tensor:
#      x y z
#    x 3.801100 -0.000030 0.010790 
#    y -0.000030 3.299430 -0.000010 
#    z 0.010790 -0.000010 3.524180 
# 
# 
# High freq. dielectric constant tensor:
#      x y z
#    x 1.766620 0.000000 -0.001720 
#    y 0.000000 1.727040 0.000000 
#    z -0.001720 0.000000 1.757400 
# 
# From -- ./inp_files/295604.got.cif
#   From: 2010.06.25/outbox.cif.g09.slc.cpg/sg12_148_cif.got.tgz:295604.got - 2010.06.28 00:19:55.
