data_PCOD8101305
_publ_section_title
;
Structure prediction by ZEFSAII (Michael W. Deem and Ramdas Pophale) SiO2 
 PCOD8101305
Probable space group: C 2/M
;
_chemical_formula_sum "Si O2"
_cell_formula_units_Z 64
_cell_length_a 12.120151
_cell_length_b 19.442966
_cell_length_c 14.011409
_cell_angle_alpha 90.000000
_cell_angle_beta 85.916935
_cell_angle_gamma 90.000000
_cell_volume 3293.431701
_symmetry_space_group_name_H-M "C 2/M"
_symmetry_group_IT_number 12
_symmetry_cell_setting 'monoclinic'
loop_
_space_group_symop_operation_xyz
x,y,z
-x,y,-z
-x,-y,-z
x,-y,z
1/2+x,1/2+y,z
1/2-x,1/2+y,-z
1/2-x,1/2-y,-z
1/2+x,1/2-y,z
loop_
_atom_site_type_symbol
_atom_site_label
_atom_site_fract_x
_atom_site_fract_y
_atom_site_fract_z
Si Si1 0.791951 0.083160 0.873121
Si Si2 0.147658 0.926772 0.715228
Si Si3 0.187079 0.685112 0.254267
Si Si4 0.467796 0.603235 0.099653
Si Si5 0.022875 0.854932 0.395765
Si Si6 0.767227 0.823284 0.046463
Si Si7 0.758556 0.334542 0.301544
Si Si8 0.475557 0.198924 0.393234
O O1 0.725223 0.110069 0.784645
O O2 0.915689 0.116430 0.853702
O O3 0.792014 0.000000 0.876728
O O4 0.739592 0.115185 0.973127
O O5 0.240155 0.870040 0.692276
O O6 0.116675 0.938363 0.828689
O O7 0.032013 0.905386 0.676175
O O8 0.189936 0.000000 0.672444
O O9 0.183747 0.667656 0.141531
O O10 0.244222 0.759126 0.258293
O O11 0.068358 0.679291 0.310228
O O12 0.396918 0.671537 0.073005
O O13 0.500000 0.562161 0.000000
O O14 0.153690 0.852355 0.372877
O O15 0.963447 0.780919 0.393601
O O16 0.000000 0.887509 0.500000
O O17 0.750000 0.750000 0.000000
O O18 0.863498 0.337069 0.365029
O O19 0.500000 0.173113 0.500000
#
# Coordination Sequence:
#
# PCOD8101305 Si02
#       8
#     8   8   8   8   8   8   8   8
#     4  11  22  38  61  93 128 163 203 255 321 378
#     4  11  21  36  57  88 125 158 198 254 312 369
#     4  10  22  38  62  90 124 163 212 251 305 369
#     4   9  20  33  56  87 123 155 197 240 308 366
#     4  10  22  35  60  93 123 154 200 255 319 372
#     4  10  20  36  57  90 127 167 203 246 299 365
#     4  11  21  39  65  91 127 159 206 263 311 375
#     4  10  23  40  65  91 118 163 213 265 314 374
#
# _framework density 19.432618000000002
#
# number of rings (size 3 to 8) (size 9 to 14) (size 15 to 20)
#    0.000    1.750    3.750    0.375    1.750    8.750 
#    2.250    1.250    0.000    1.500    0.000    0.000 
#    0.000    0.000    0.000    0.000    0.000    0.000 
#
# Total GULP energy -396515.634789 kJ/mol
# GULP energy per Si atom -12391.113587 kJ/mol
# Density = 1.938839 g / cm^3
# Si number density = 19.432618 Si / 1000 Ang^3
#
#
#
# Elastic Constant Matrix: (Units=GPa)
#
#
# Indices 1 2 3 4 5 6 
#
# 1 83.1756 51.2524 53.9694 0.0000 12.5997 0.0000
# 2 51.2524 116.6079 46.9765 0.0000 7.0103 0.0000
# 3 53.9694 46.9765 132.1740 0.0000 -2.3135 0.0000
# 4 0.0000 0.0000 0.0000 7.5830 0.0000 -4.1538
# 5 12.5997 7.0103 -2.3135 0.0000 33.6108 0.0000
# 6 0.0000 0.0000 0.0000 -4.1538 0.0000 3.1433
#
#
#
# Elastic Compliance Matrix: (Units=1/GPa)
#
#
# Indices 1 2 3 4 5 6 
#
# 1 0.021208 -0.006251 -0.006562 0.000000 -0.007098 0.000000
# 2 -0.006251 0.012038 -0.001731 0.000000 -0.000287 0.000000
# 3 -0.006562 -0.001731 0.010923 0.000000 0.003573 0.000000
# 4 0.000000 0.000000 0.000000 0.477603 0.000000 0.631151
# 5 -0.007098 -0.000287 0.003573 0.000000 0.032719 0.000000
# 6 0.000000 0.000000 0.000000 0.631151 0.000000 1.152205
#
#
# Mechanical properties :
#
#
# Convention : Reuss Voigt Hill
#
# Bulk Modulus (GPa) = 66.31183 70.70600 68.50892
# Shear Modulus (GPa) = 2.87222 20.85138 11.86180
#
# Velocity S-wave (km/s) = 1.21707 3.27924 2.47332
# Velocity P-wave (km/s) = 6.01440 7.12756 6.59451
#
# Compressibility (1/GPa) = 0.01508027
#
# Stress axis : x y z
#
# Youngs Moduli (GPa) = 47.15266 83.07142 91.55016
#
# Poissons Ratio (x) = 0.51928 0.60076
# Poissons Ratio (y) = 0.29475 0.15847
# Poissons Ratio (z) = 0.30942 0.14380
#
# Static dielectric constant tensor:
#      x y z
#    x 3.391110 0.000000 0.005970 
#    y 0.000000 3.355710 0.000000 
#    z 0.005970 0.000000 3.761720 
# 
# 
# High freq. dielectric constant tensor:
#      x y z
#    x 1.734290 0.000000 -0.002170 
#    y 0.000000 1.732840 0.000000 
#    z -0.002170 0.000000 1.774850 
# 
# From -- ./inp_files/206709.got.cif
#   From: 2010.06.25/outbox.cif.g09.slc.cpg/sg12_104_cif.got.tgz:206709.got - 2010.06.28 00:19:55.
