data_PCOD8101533
_publ_section_title
;
Structure prediction by ZEFSAII (Michael W. Deem and Ramdas Pophale) SiO2 
 PCOD8101533
Probable space group: C 2/M
;
_chemical_formula_sum "Si O2"
_cell_formula_units_Z 40
_cell_length_a 21.077745
_cell_length_b 14.765146
_cell_length_c 7.264511
_cell_angle_alpha 90.000000
_cell_angle_beta 124.904452
_cell_angle_gamma 90.000000
_cell_volume 1854.125030
_symmetry_space_group_name_H-M "C 2/M"
_symmetry_group_IT_number 12
_symmetry_cell_setting 'monoclinic'
loop_
_space_group_symop_operation_xyz
x,y,z
-x,y,-z
-x,-y,-z
x,-y,z
1/2+x,1/2+y,z
1/2-x,1/2+y,-z
1/2-x,1/2-y,-z
1/2+x,1/2-y,z
loop_
_atom_site_type_symbol
_atom_site_label
_atom_site_fract_x
_atom_site_fract_y
_atom_site_fract_z
Si Si1 0.854310 0.599579 0.044012
Si Si2 0.082281 0.402655 0.230459
Si Si3 0.178151 0.895631 0.774556
Si Si4 0.594394 0.283985 0.345618
Si Si5 0.920921 0.213005 0.111174
O O1 0.883260 0.500000 0.168993
O O2 0.852932 0.591105 0.819891
O O3 0.767909 0.619022 0.971021
O O4 0.907674 0.686789 0.180936
O O5 0.075130 0.500000 0.320885
O O6 0.104069 0.323668 0.410684
O O7 0.000000 0.375205 0.000000
O O8 0.158820 0.841600 0.555549
O O9 0.128799 0.860622 0.863841
O O10 0.158309 0.000000 0.707408
O O11 0.510336 0.315550 0.277173
O O12 0.605374 0.292024 0.144637
#
# Coordination Sequence:
#
# PCOD8101533 Si02
#       5
#     8   8   8   8   8
#     4   9  18  35  59  85 112 145 181 227 285 335
#     4   9  15  30  58  85 109 140 177 222 278 334
#     4  11  24  38  54  81 117 150 187 233 275 321
#     4  10  20  36  58  85 111 146 188 228 274 335
#     4  10  20  37  59  82 109 150 188 228 275 329
#
# _framework density 21.573516999999999
#
# number of rings (size 3 to 8) (size 9 to 14) (size 15 to 20)
#    0.000    2.200    4.000    1.200    0.000    5.600 
#    0.000    3.000    0.000   10.800    0.000    0.000 
#    0.000    0.000    0.000    0.000    0.000    0.000 
#
# Total GULP energy -247815.186003 kJ/mol
# GULP energy per Si atom -12390.759300 kJ/mol
# Density = 2.152441 g / cm^3
# Si number density = 21.573517 Si / 1000 Ang^3
#
#
#
# Elastic Constant Matrix: (Units=GPa)
#
#
# Indices 1 2 3 4 5 6 
#
# 1 85.0630 18.7895 -1.6474 0.0000 2.9465 0.0000
# 2 18.7895 135.0452 20.2034 0.0000 0.6485 0.0000
# 3 -1.6474 20.2034 19.9639 0.0000 -2.3846 0.0000
# 4 0.0000 0.0000 0.0000 9.0947 0.0000 -1.0695
# 5 2.9465 0.6485 -2.3846 0.0000 19.5623 0.0000
# 6 0.0000 0.0000 0.0000 -1.0695 0.0000 33.0268
#
#
#
# Elastic Compliance Matrix: (Units=1/GPa)
#
#
# Indices 1 2 3 4 5 6 
#
# 1 0.012342 -0.002165 0.003041 0.000000 -0.001417 0.000000
# 2 -0.002165 0.009143 -0.009568 0.000000 -0.001143 0.000000
# 3 0.003041 -0.009568 0.060894 0.000000 0.007282 0.000000
# 4 0.000000 0.000000 0.000000 0.110374 0.000000 0.003574
# 5 -0.001417 -0.001143 0.007282 0.000000 0.052258 0.000000
# 6 0.000000 0.000000 0.000000 0.003574 0.000000 0.030394
#
#
# Mechanical properties :
#
#
# Convention : Reuss Voigt Hill
#
# Bulk Modulus (GPa) = 15.38608 34.97368 25.17988
# Shear Modulus (GPa) = 15.90052 25.85189 20.87620
#
# Velocity S-wave (km/s) = 2.71779 3.46543 3.11413
# Velocity P-wave (km/s) = 4.12261 5.67968 4.96260
#
# Compressibility (1/GPa) = 0.06499381
#
# Stress axis : x y z
#
# Youngs Moduli (GPa) = 81.02253 109.37185 16.42196
#
# Poissons Ratio (x) = 0.23683 -0.04993
# Poissons Ratio (y) = 0.17544 0.15713
# Poissons Ratio (z) = -0.24636 1.04648
#
# Static dielectric constant tensor:
#      x y z
#    x 4.040150 0.000000 0.046850 
#    y 0.000000 4.196460 0.000000 
#    z 0.046850 0.000000 3.271000 
# 
# 
# High freq. dielectric constant tensor:
#      x y z
#    x 1.862330 0.000000 0.005730 
#    y 0.000000 1.861590 0.000000 
#    z 0.005730 0.000000 1.787600 
# 
# From -- ./inp_files/86090.got.cif
#   From: 2010.06.25/outbox.cif.g09.slc.cpg/sg12_44_cif.got.tgz:86090.got - 2010.06.28 00:19:55.
