data_PCOD8101592
_publ_section_title
;
Structure prediction by ZEFSAII (Michael W. Deem and Ramdas Pophale) SiO2 
 PCOD8101592
Probable space group: C 2/M
;
_chemical_formula_sum "Si O2"
_cell_formula_units_Z 56
_cell_length_a 28.539822
_cell_length_b 13.322806
_cell_length_c 9.224223
_cell_angle_alpha 90.000000
_cell_angle_beta 127.389682
_cell_angle_gamma 90.000000
_cell_volume 2786.658631
_symmetry_space_group_name_H-M "C 2/M"
_symmetry_group_IT_number 12
_symmetry_cell_setting 'monoclinic'
loop_
_space_group_symop_operation_xyz
x,y,z
-x,y,-z
-x,-y,-z
x,-y,z
1/2+x,1/2+y,z
1/2-x,1/2+y,-z
1/2-x,1/2-y,-z
1/2+x,1/2-y,z
loop_
_atom_site_type_symbol
_atom_site_label
_atom_site_fract_x
_atom_site_fract_y
_atom_site_fract_z
Si Si1 0.098565 0.216968 0.439855
Si Si2 0.017118 0.887307 0.727633
Si Si3 0.158922 0.385395 0.176865
Si Si4 0.129309 0.888203 0.767044
Si Si5 0.064041 0.771269 0.067456
Si Si6 0.818431 0.613281 0.449331
Si Si7 0.779462 0.767366 0.901568
O O1 0.141513 0.153478 0.627112
O O2 0.100625 0.183876 0.274566
O O3 0.121168 0.331962 0.490235
O O4 0.032268 0.199744 0.374222
O O5 0.058444 0.885716 0.662631
O O6 0.990183 0.000000 0.696803
O O7 0.057994 0.862628 0.943639
O O8 0.146072 0.500000 0.104915
O O9 0.097686 0.323664 0.061124
O O10 0.188301 0.382727 0.390375
O O11 0.204624 0.336547 0.148572
O O12 0.154604 0.000000 0.820147
O O13 0.160064 0.825855 0.951992
O O14 0.000000 0.731892 0.000000
O O15 0.822584 0.500000 0.399219
O O16 0.761007 0.666152 0.277768
O O17 0.750000 0.750000 0.000000
#
# Coordination Sequence:
#
# PCOD8101592 Si02
#       7
#     8   8   8   8   8   8   8
#     4  10  20  36  58  87 119 155 195 247 297 359
#     4  10  20  36  59  86 121 161 201 251 306 359
#     4  10  22  41  64  89 120 159 207 255 305 361
#     4  11  22  37  58  86 120 161 201 245 305 365
#     4   9  19  36  61  89 121 158 200 250 302 361
#     4  10  22  42  64  88 121 162 203 250 305 360
#     4  12  23  41  63  88 122 162 202 257 301 362
#
# _framework density 20.095751
#
# number of rings (size 3 to 8) (size 9 to 14) (size 15 to 20)
#    0.000    1.714    2.857    1.714    0.000    5.714 
#    0.000    2.143    0.000    0.857    0.000    0.000 
#    0.000    0.000    0.000    0.000    0.000    0.000 
#
# Total GULP energy -347023.917028 kJ/mol
# GULP energy per Si atom -12393.711322 kJ/mol
# Density = 2.005001 g / cm^3
# Si number density = 20.095751 Si / 1000 Ang^3
#
#
#
# Elastic Constant Matrix: (Units=GPa)
#
#
# Indices 1 2 3 4 5 6 
#
# 1 95.9116 61.2199 22.9088 0.0000 -5.9899 0.0000
# 2 61.2199 139.9678 44.9753 0.0000 -10.3526 0.0000
# 3 22.9088 44.9753 81.3799 0.0000 -6.2203 0.0000
# 4 0.0000 0.0000 0.0000 27.2380 0.0000 0.2999
# 5 -5.9899 -10.3526 -6.2203 0.0000 28.0043 0.0000
# 6 0.0000 0.0000 0.0000 0.2999 0.0000 35.0048
#
#
#
# Elastic Compliance Matrix: (Units=1/GPa)
#
#
# Indices 1 2 3 4 5 6 
#
# 1 0.014511 -0.006079 -0.000671 0.000000 0.000707 0.000000
# 2 -0.006079 0.011367 -0.004424 0.000000 0.001919 0.000000
# 3 -0.000671 -0.004424 0.015041 0.000000 0.001562 0.000000
# 4 0.000000 0.000000 0.000000 0.036717 0.000000 -0.000315
# 5 0.000707 0.001919 0.001562 0.000000 0.036916 0.000000
# 6 0.000000 0.000000 0.000000 -0.000315 0.000000 0.028570
#
#
# Mechanical properties :
#
#
# Convention : Reuss Voigt Hill
#
# Bulk Modulus (GPa) = 53.84812 63.94079 58.89446
# Shear Modulus (GPa) = 29.12714 30.59311 29.86012
#
# Velocity S-wave (km/s) = 3.81125 3.90598 3.85891
# Velocity P-wave (km/s) = 6.79864 7.22699 7.01609
#
# Compressibility (1/GPa) = 0.01857075
#
# Stress axis : x y z
#
# Youngs Moduli (GPa) = 68.91386 87.97553 66.48315
#
# Poissons Ratio (x) = 0.53479 0.04463
# Poissons Ratio (y) = 0.41891 0.29413
# Poissons Ratio (z) = 0.04626 0.38921
#
# Static dielectric constant tensor:
#      x y z
#    x 3.552740 0.000000 -0.016610 
#    y 0.000000 3.669180 0.000000 
#    z -0.016610 0.000000 4.051370 
# 
# 
# High freq. dielectric constant tensor:
#      x y z
#    x 1.772840 0.000000 -0.004100 
#    y 0.000000 1.768460 0.000000 
#    z -0.004100 0.000000 1.807030 
# 
# From -- ./inp_files/110557.got.cif
#   From: 2010.06.25/outbox.cif.g09.slc.cpg/sg12_56_cif.got.tgz:110557.got - 2010.06.28 00:19:55.
