data_PCOD8101817
_publ_section_title
;
Structure prediction by ZEFSAII (Michael W. Deem and Ramdas Pophale) SiO2 
 PCOD8101817
Probable space group: C 2/M
;
_chemical_formula_sum "Si O2"
_cell_formula_units_Z 40
_cell_length_a 27.338607
_cell_length_b 8.753678
_cell_length_c 18.508549
_cell_angle_alpha 90.000000
_cell_angle_beta 26.976341
_cell_angle_gamma 90.000000
_cell_volume 2009.249867
_symmetry_space_group_name_H-M "C 2/M"
_symmetry_group_IT_number 12
_symmetry_cell_setting 'monoclinic'
loop_
_space_group_symop_operation_xyz
x,y,z
-x,y,-z
-x,-y,-z
x,-y,z
1/2+x,1/2+y,z
1/2-x,1/2+y,-z
1/2-x,1/2-y,-z
1/2+x,1/2-y,z
loop_
_atom_site_type_symbol
_atom_site_label
_atom_site_fract_x
_atom_site_fract_y
_atom_site_fract_z
Si Si1 0.876318 0.324457 0.149678
Si Si2 0.415036 0.681390 0.669668
Si Si3 0.283380 0.178731 0.531376
Si Si4 0.676550 0.822098 0.946195
Si Si5 0.009849 0.819839 0.273034
O O1 0.852125 0.500000 0.202367
O O2 0.806560 0.214244 0.291038
O O3 0.846169 0.291588 0.107250
O O4 0.000000 0.283271 0.000000
O O5 0.500000 0.749453 0.500000
O O6 0.417754 0.500000 0.662459
O O7 0.295759 0.739634 0.807206
O O8 0.445481 0.740309 0.709136
O O9 0.250000 0.250000 0.500000
O O10 0.396239 0.243032 0.409092
O O11 0.294468 0.000000 0.505773
O O12 0.663059 0.000000 0.983805
O O13 0.592765 0.723966 0.101754
O O14 0.992927 0.000000 0.296249
#
# Coordination Sequence:
#
# PCOD8101817 Si02
#       5
#     8   8   8   8   8
#     4  10  21  38  61  88 118 154 194 236 288 348
#     4   9  18  34  57  84 115 156 201 242 288 343
#     4  12  25  41  62  87 117 151 191 239 291 348
#     4  10  20  36  59  86 120 159 198 241 290 345
#     4  11  22  37  59  86 118 155 198 244 290 344
#
# _framework density 19.907927000000001
#
# number of rings (size 3 to 8) (size 9 to 14) (size 15 to 20)
#    0.000    1.600    0.000    5.400    0.000    6.000 
#    0.000    1.000    0.000    4.200    0.000    0.000 
#    0.000    0.000    0.000    0.000    0.000    0.000 
#
# Total GULP energy -248106.809422 kJ/mol
# GULP energy per Si atom -12405.340471 kJ/mol
# Density = 1.986262 g / cm^3
# Si number density = 19.907927 Si / 1000 Ang^3
#
#
#
# Elastic Constant Matrix: (Units=GPa)
#
#
# Indices 1 2 3 4 5 6 
#
# 1 159.0345 55.0474 81.1723 -0.0019 -23.8882 0.0001
# 2 55.0474 84.0600 46.6197 -0.0022 -2.0920 0.0003
# 3 81.1723 46.6197 146.0387 -0.0032 -10.4387 0.0002
# 4 -0.0019 -0.0022 -0.0032 37.1499 -0.0002 -1.3249
# 5 -23.8882 -2.0920 -10.4387 -0.0002 41.7139 0.0000
# 6 0.0001 0.0003 0.0002 -1.3249 0.0000 22.2467
#
#
#
# Elastic Compliance Matrix: (Units=1/GPa)
#
#
# Indices 1 2 3 4 5 6 
#
# 1 0.010731 -0.004607 -0.004145 0.000000 0.004877 0.000000
# 2 -0.004607 0.016441 -0.002869 0.000000 -0.002532 0.000000
# 3 -0.004145 -0.002869 0.010067 0.000000 0.000002 0.000000
# 4 0.000000 0.000000 0.000000 0.026975 0.000000 0.001607
# 5 0.004877 -0.002532 0.000002 0.000000 0.026639 0.000000
# 6 0.000000 0.000000 0.000000 0.001607 0.000000 0.045046
#
#
# Mechanical properties :
#
#
# Convention : Reuss Voigt Hill
#
# Bulk Modulus (GPa) = 71.44088 83.86800 77.65444
# Shear Modulus (GPa) = 30.52360 33.97503 32.24931
#
# Velocity S-wave (km/s) = 3.91991 4.13559 4.02919
# Velocity P-wave (km/s) = 7.51340 8.06372 7.79342
#
# Compressibility (1/GPa) = 0.01399759
#
# Stress axis : x y z
#
# Youngs Moduli (GPa) = 93.18938 60.82303 99.32977
#
# Poissons Ratio (x) = 0.28020 0.41175
# Poissons Ratio (y) = 0.42931 0.28496
# Poissons Ratio (z) = 0.38629 0.17449
#
# Static dielectric constant tensor:
#      x y z
#    x 3.884270 0.000000 -0.072620 
#    y 0.000000 3.477300 0.000000 
#    z -0.072620 0.000000 3.773990 
# 
# 
# High freq. dielectric constant tensor:
#      x y z
#    x 1.799330 0.000000 -0.004060 
#    y 0.000000 1.754170 0.000000 
#    z -0.004060 0.000000 1.795380 
# 
# From -- ./inp_files/151939.got.cif
#   From: 2010.06.25/outbox.cif.g09.slc.cpg/sg12_76_cif.got.tgz:151939.got - 2010.06.28 00:19:55.
