data_PCOD8101586
_publ_section_title
;
Structure prediction by ZEFSAII (Michael W. Deem and Ramdas Pophale) SiO2 
 PCOD8101586
Probable space group: C 2/M
;
_chemical_formula_sum "Si O2"
_cell_formula_units_Z 40
_cell_length_a 22.745458
_cell_length_b 11.977654
_cell_length_c 7.948948
_cell_angle_alpha 90.000000
_cell_angle_beta 70.045129
_cell_angle_gamma 90.000000
_cell_volume 2035.571086
_symmetry_space_group_name_H-M "C 2/M"
_symmetry_group_IT_number 12
_symmetry_cell_setting 'monoclinic'
loop_
_space_group_symop_operation_xyz
x,y,z
-x,y,-z
-x,-y,-z
x,-y,z
1/2+x,1/2+y,z
1/2-x,1/2+y,-z
1/2-x,1/2-y,-z
1/2+x,1/2-y,z
loop_
_atom_site_type_symbol
_atom_site_label
_atom_site_fract_x
_atom_site_fract_y
_atom_site_fract_z
Si Si1 0.067583 0.266531 0.475793
Si Si2 0.343512 0.813394 0.895646
Si Si3 0.537782 0.000000 0.685923
Si Si4 0.261497 0.303602 0.227993
Si Si5 0.679372 0.372196 0.493118
Si Si6 0.411670 0.000000 0.990477
O O1 0.097598 0.267501 0.262637
O O2 0.059179 0.390284 0.563945
O O3 0.111653 0.190220 0.552794
O O4 0.000000 0.212397 0.500000
O O5 0.296040 0.869796 0.804643
O O6 0.366811 0.895412 0.016028
O O7 0.310831 0.714532 0.030435
O O8 0.463142 0.000000 0.789868
O O9 0.564841 0.000000 0.844812
O O10 0.294747 0.372808 0.341659
O O11 0.231113 0.187521 0.325907
O O12 0.671331 0.500000 0.441908
#
# Coordination Sequence:
#
# PCOD8101586 Si02
#       6
#     8   8   4   8   8   4
#     4  11  21  39  60  85 120 155 198 240 290 350
#     4  10  20  36  58  87 117 150 193 235 295 347
#     4  11  22  37  56  91 124 149 194 236 302 350
#     4   9  21  40  57  86 117 154 193 242 289 350
#     4  10  22  40  60  85 117 156 196 242 292 347
#     4  11  21  32  59  92 115 156 184 247 294 345
#
# _framework density 19.650506
#
# number of rings (size 3 to 8) (size 9 to 14) (size 15 to 20)
#    0.000    1.800    2.000    2.100    2.800    0.400 
#   10.800    1.000    0.000    1.200    0.000    0.000 
#    0.000    0.000    0.000    0.000    0.000    0.000 
#
# Total GULP energy -247814.105493 kJ/mol
# GULP energy per Si atom -12390.705275 kJ/mol
# Density = 1.960578 g / cm^3
# Si number density = 19.650506 Si / 1000 Ang^3
#
#
#
# Elastic Constant Matrix: (Units=GPa)
#
#
# Indices 1 2 3 4 5 6 
#
# 1 121.6309 29.9967 36.3900 0.0000 -4.2446 0.0000
# 2 29.9967 81.5616 12.8138 0.0000 -3.0040 0.0000
# 3 36.3900 12.8138 104.6665 0.0000 -8.5366 0.0000
# 4 0.0000 0.0000 0.0000 14.5674 0.0000 4.2517
# 5 -4.2446 -3.0040 -8.5366 0.0000 33.6477 0.0000
# 6 0.0000 0.0000 0.0000 4.2517 0.0000 32.5521
#
#
#
# Elastic Compliance Matrix: (Units=1/GPa)
#
#
# Indices 1 2 3 4 5 6 
#
# 1 0.009920 -0.003163 -0.003046 0.000000 0.000196 0.000000
# 2 -0.003163 0.013528 -0.000501 0.000000 0.000682 0.000000
# 3 -0.003046 -0.000501 0.010864 0.000000 0.002327 0.000000
# 4 0.000000 0.000000 0.000000 0.071367 0.000000 -0.009321
# 5 0.000196 0.000682 0.002327 0.000000 0.030396 0.000000
# 6 0.000000 0.000000 0.000000 -0.009321 0.000000 0.031937
#
#
# Mechanical properties :
#
#
# Convention : Reuss Voigt Hill
#
# Bulk Modulus (GPa) = 47.86258 51.80666 49.83462
# Shear Modulus (GPa) = 26.54009 31.39735 28.96872
#
# Velocity S-wave (km/s) = 3.67905 4.00157 3.84369
# Velocity P-wave (km/s) = 6.51590 6.91168 6.71671
#
# Compressibility (1/GPa) = 0.02089315
#
# Stress axis : x y z
#
# Youngs Moduli (GPa) = 100.81069 73.92298 92.04542
#
# Poissons Ratio (x) = 0.23378 0.28034
# Poissons Ratio (y) = 0.31881 0.04611
# Poissons Ratio (z) = 0.30703 0.03703
#
# Static dielectric constant tensor:
#      x y z
#    x 4.031590 0.000000 0.040070 
#    y 0.000000 3.303120 0.000000 
#    z 0.040070 0.000000 3.612420 
# 
# 
# High freq. dielectric constant tensor:
#      x y z
#    x 1.788430 0.000000 0.006140 
#    y 0.000000 1.725650 0.000000 
#    z 0.006140 0.000000 1.774930 
# 
# From -- ./inp_files/83414.got.cif
#   From: 2010.06.25/outbox.cif.g09.slc.cpg/sg12_42_cif.got.tgz:83414.got - 2010.06.28 00:19:55.
