data_PCOD8101770
_publ_section_title
;
Structure prediction by ZEFSAII (Michael W. Deem and Ramdas Pophale) SiO2 
 PCOD8101770
Probable space group: C 2/M
;
_chemical_formula_sum "Si O2"
_cell_formula_units_Z 56
_cell_length_a 20.258387
_cell_length_b 9.150447
_cell_length_c 15.876384
_cell_angle_alpha 90.000000
_cell_angle_beta 81.099458
_cell_angle_gamma 90.000000
_cell_volume 2907.618523
_symmetry_space_group_name_H-M "C 2/M"
_symmetry_group_IT_number 12
_symmetry_cell_setting 'monoclinic'
loop_
_space_group_symop_operation_xyz
x,y,z
-x,y,-z
-x,-y,-z
x,-y,z
1/2+x,1/2+y,z
1/2-x,1/2+y,-z
1/2-x,1/2-y,-z
1/2+x,1/2-y,z
loop_
_atom_site_type_symbol
_atom_site_label
_atom_site_fract_x
_atom_site_fract_y
_atom_site_fract_z
Si Si1 0.937327 0.331339 0.457628
Si Si2 0.087818 0.172364 0.180030
Si Si3 0.073354 0.329736 0.011794
Si Si4 0.794143 0.330416 0.559849
Si Si5 0.645481 0.833789 0.828318
Si Si6 0.446663 0.672803 0.281408
Si Si7 0.288391 0.332219 0.732806
O O1 0.945217 0.500000 0.429633
O O2 0.871986 0.305131 0.526390
O O3 0.931999 0.235982 0.375610
O O4 0.000000 0.277393 0.500000
O O5 0.099247 0.244961 0.087764
O O6 0.146998 0.223848 0.229721
O O7 0.018610 0.226753 0.234390
O O8 0.088807 0.000000 0.166564
O O9 0.070962 0.500000 0.034493
O O10 0.124759 0.293040 0.927066
O O11 0.000000 0.273301 0.000000
O O12 0.774955 0.500000 0.562268
O O13 0.750000 0.250000 0.500000
O O14 0.776827 0.266443 0.653936
O O15 0.610014 0.726885 0.770326
O O16 0.724889 0.814687 0.806353
O O17 0.623583 0.000000 0.811546
O O18 0.443382 0.500000 0.287840
O O19 0.297451 0.500000 0.702052
#
# Coordination Sequence:
#
# PCOD8101770 Si02
#       7
#     8   8   8   8   8   8   8
#     4  10  22  39  58  81 110 146 188 232 278 330
#     4  10  22  38  57  84 118 151 183 230 289 337
#     4  10  20  36  59  86 113 147 191 233 275 330
#     4  11  23  39  60  85 114 150 190 233 281 335
#     4  10  21  38  59  82 111 148 190 231 273 329
#     4  11  22  35  56  85 113 144 185 232 281 333
#     4  10  22  40  59  82 115 152 188 230 282 337
#
# _framework density 19.259748999999999
#
# number of rings (size 3 to 8) (size 9 to 14) (size 15 to 20)
#    0.000    1.714    1.429    2.571    0.000    8.000 
#    0.000    0.000    0.000    0.000    0.000    0.000 
#    0.000    0.000    0.000    0.000    0.000    0.000 
#
# Total GULP energy -347377.694078 kJ/mol
# GULP energy per Si atom -12406.346217 kJ/mol
# Density = 1.921591 g / cm^3
# Si number density = 19.259749 Si / 1000 Ang^3
#
#
#
# Elastic Constant Matrix: (Units=GPa)
#
#
# Indices 1 2 3 4 5 6 
#
# 1 88.3151 25.2972 24.6301 0.0000 4.2604 0.0000
# 2 25.2972 60.7500 41.7807 0.0000 1.1898 0.0000
# 3 24.6301 41.7807 112.5567 0.0000 -1.8834 0.0000
# 4 0.0000 0.0000 0.0000 28.8448 0.0000 -4.3166
# 5 4.2604 1.1898 -1.8834 0.0000 35.6922 0.0000
# 6 0.0000 0.0000 0.0000 -4.3166 0.0000 23.1622
#
#
#
# Elastic Compliance Matrix: (Units=1/GPa)
#
#
# Indices 1 2 3 4 5 6 
#
# 1 0.013036 -0.004594 -0.001172 0.000000 -0.001465 0.000000
# 2 -0.004594 0.023772 -0.007830 0.000000 -0.000657 0.000000
# 3 -0.001172 -0.007830 0.012065 0.000000 0.001038 0.000000
# 4 0.000000 0.000000 0.000000 0.035663 0.000000 0.006646
# 5 -0.001465 -0.000657 0.001038 0.000000 0.028269 0.000000
# 6 0.000000 0.000000 0.000000 0.006646 0.000000 0.044412
#
#
# Mechanical properties :
#
#
# Convention : Reuss Voigt Hill
#
# Bulk Modulus (GPa) = 46.12212 49.44867 47.78539
# Shear Modulus (GPa) = 26.09128 28.86745 27.47937
#
# Velocity S-wave (km/s) = 3.68463 3.87570 3.78137
# Velocity P-wave (km/s) = 6.48856 6.76449 6.62796
#
# Compressibility (1/GPa) = 0.02168157
#
# Stress axis : x y z
#
# Youngs Moduli (GPa) = 76.70781 42.06704 82.88722
#
# Poissons Ratio (x) = 0.19325 0.09714
# Poissons Ratio (y) = 0.35239 0.64898
# Poissons Ratio (z) = 0.08990 0.32937
#
# Static dielectric constant tensor:
#      x y z
#    x 3.738250 0.000000 -0.047160 
#    y 0.000000 3.480440 0.000000 
#    z -0.047160 0.000000 3.578120 
# 
# 
# High freq. dielectric constant tensor:
#      x y z
#    x 1.760750 0.000000 -0.005180 
#    y 0.000000 1.745940 0.000000 
#    z -0.005180 0.000000 1.756540 
# 
# From -- ./inp_files/230874.got.cif
#   From: 2010.06.25/outbox.cif.g09.slc.cpg/sg12_116_cif.got.tgz:230874.got - 2010.06.28 00:19:55.
