data_PCOD8101292
_publ_section_title
;
Structure prediction by ZEFSAII (Michael W. Deem and Ramdas Pophale) SiO2 
 PCOD8101292
Probable space group: C 2/M
;
_chemical_formula_sum "Si O2"
_cell_formula_units_Z 64
_cell_length_a 31.638009
_cell_length_b 17.814774
_cell_length_c 12.782118
_cell_angle_alpha 90.000000
_cell_angle_beta 24.069639
_cell_angle_gamma 90.000000
_cell_volume 2938.253282
_symmetry_space_group_name_H-M "C 2/M"
_symmetry_group_IT_number 12
_symmetry_cell_setting 'monoclinic'
loop_
_space_group_symop_operation_xyz
x,y,z
-x,y,-z
-x,-y,-z
x,-y,z
1/2+x,1/2+y,z
1/2-x,1/2+y,-z
1/2-x,1/2-y,-z
1/2+x,1/2-y,z
loop_
_atom_site_type_symbol
_atom_site_label
_atom_site_fract_x
_atom_site_fract_y
_atom_site_fract_z
Si Si1 0.938141 0.417541 0.976173
Si Si2 0.705497 0.761951 0.393180
Si Si3 0.671700 0.082821 0.403341
Si Si4 0.000823 0.784569 0.253233
Si Si5 0.616492 0.166134 0.098268
Si Si6 0.302139 0.085434 0.894377
Si Si7 0.935330 0.912947 0.542990
Si Si8 0.396337 0.233026 0.171940
O O1 0.895649 0.500000 0.103375
O O2 0.061936 0.415984 0.709661
O O3 0.908611 0.402445 0.922310
O O4 0.888828 0.355822 0.164067
O O5 0.741472 0.848760 0.290775
O O6 0.592346 0.754729 0.596929
O O7 0.773543 0.700376 0.183580
O O8 0.699108 0.746023 0.533746
O O9 0.654071 0.096106 0.320014
O O10 0.724988 0.000000 0.299032
O O11 0.978870 0.867788 0.344194
O O12 0.029620 0.731363 0.286747
O O13 0.100102 0.780020 0.946851
O O14 0.625616 0.136534 0.195472
O O15 0.310849 0.000000 0.913151
O O16 0.182503 0.111364 0.169458
O O17 0.000000 0.893281 0.500000
O O18 0.946088 0.000000 0.489353
O O19 0.500000 0.253484 0.000000
#
# Coordination Sequence:
#
# PCOD8101292 Si02
#       8
#     8   8   8   8   8   8   8   8
#     4  10  20  36  57  87 118 147 188 234 288 349
#     4  11  21  39  59  84 118 154 196 236 287 341
#     4  10  21  37  55  82 118 147 187 236 285 344
#     4  10  21  39  57  90 116 148 195 240 284 340
#     4  11  22  37  61  84 116 155 189 239 288 346
#     4  10  22  39  59  84 115 154 192 233 291 346
#     4  10  22  41  62  83 114 156 198 238 281 335
#     4   9  18  36  59  84 116 153 189 235 290 341
#
# _framework density 21.781649000000002
#
# number of rings (size 3 to 8) (size 9 to 14) (size 15 to 20)
#    0.000    1.875    5.000    0.375    1.750    4.750 
#    0.000    1.875    0.000    6.375    0.000    0.000 
#    0.000    0.000    0.000    0.000    0.000    0.000 
#
# Total GULP energy -396692.118158 kJ/mol
# GULP energy per Si atom -12396.628692 kJ/mol
# Density = 2.173207 g / cm^3
# Si number density = 21.781649 Si / 1000 Ang^3
#
#
#
# Elastic Constant Matrix: (Units=GPa)
#
#
# Indices 1 2 3 4 5 6 
#
# 1 69.4207 22.8144 -8.8942 0.0000 8.3149 0.0000
# 2 22.8144 99.0505 19.0392 0.0000 15.2346 0.0000
# 3 -8.8942 19.0392 44.9875 0.0000 12.7943 0.0000
# 4 0.0000 0.0000 0.0000 28.9075 0.0000 9.1284
# 5 8.3149 15.2346 12.7943 0.0000 25.7663 0.0000
# 6 0.0000 0.0000 0.0000 9.1284 0.0000 30.2341
#
#
#
# Elastic Compliance Matrix: (Units=1/GPa)
#
#
# Indices 1 2 3 4 5 6 
#
# 1 0.017581 -0.004417 0.007238 0.000000 -0.006656 0.000000
# 2 -0.004417 0.012652 -0.005247 0.000000 -0.003450 0.000000
# 3 0.007238 -0.005247 0.029882 0.000000 -0.014071 0.000000
# 4 0.000000 0.000000 0.000000 0.038239 0.000000 -0.011545
# 5 -0.006656 -0.003450 -0.014071 0.000000 0.049985 0.000000
# 6 0.000000 0.000000 0.000000 -0.011545 0.000000 0.036561
#
#
# Mechanical properties :
#
#
# Convention : Reuss Voigt Hill
#
# Bulk Modulus (GPa) = 18.09491 31.04193 24.56842
# Shear Modulus (GPa) = 24.01848 29.01488 26.51668
#
# Velocity S-wave (km/s) = 3.32428 3.65373 3.49289
# Velocity P-wave (km/s) = 4.80208 5.66409 5.25080
#
# Compressibility (1/GPa) = 0.05526415
#
# Stress axis : x y z
#
# Youngs Moduli (GPa) = 56.87919 79.03639 33.46524
#
# Poissons Ratio (x) = 0.34911 -0.24223
# Poissons Ratio (y) = 0.25124 0.17558
# Poissons Ratio (z) = -0.41170 0.41468
#
# Static dielectric constant tensor:
#      x y z
#    x 4.010040 0.000000 0.009630 
#    y 0.000000 3.948540 0.000000 
#    z 0.009630 0.000000 3.863520 
# 
# 
# High freq. dielectric constant tensor:
#      x y z
#    x 1.861530 0.000000 0.000670 
#    y 0.000000 1.847590 0.000000 
#    z 0.000670 0.000000 1.847140 
# 
# From -- ./inp_files/190013.got.cif
#   From: 2010.06.25/outbox.cif.g09.slc.cpg/sg12_96_cif.got.tgz:190013.got - 2010.06.28 00:19:55.
