data_PCOD8101463
_publ_section_title
;
Structure prediction by ZEFSAII (Michael W. Deem and Ramdas Pophale) SiO2 
 PCOD8101463
Probable space group: C 2/M
;
_chemical_formula_sum "Si O2"
_cell_formula_units_Z 44
_cell_length_a 26.901672
_cell_length_b 17.300727
_cell_length_c 6.904357
_cell_angle_alpha 90.000000
_cell_angle_beta 133.579463
_cell_angle_gamma 90.000000
_cell_volume 2327.859146
_symmetry_space_group_name_H-M "C 2/M"
_symmetry_group_IT_number 12
_symmetry_cell_setting 'monoclinic'
loop_
_space_group_symop_operation_xyz
x,y,z
-x,y,-z
-x,-y,-z
x,-y,z
1/2+x,1/2+y,z
1/2-x,1/2+y,-z
1/2-x,1/2-y,-z
1/2+x,1/2-y,z
loop_
_atom_site_type_symbol
_atom_site_label
_atom_site_fract_x
_atom_site_fract_y
_atom_site_fract_z
Si Si1 0.822847 0.867171 0.771461
Si Si2 0.520725 0.586548 0.774127
Si Si3 0.731513 0.167183 0.868815
Si Si4 0.362278 0.206689 0.725152
Si Si5 0.000000 0.212984 0.000000
Si Si6 0.202351 0.586305 0.185648
O O1 0.794709 0.868249 0.915659
O O2 0.819278 0.780018 0.682277
O O3 0.773620 0.914624 0.496408
O O4 0.898351 0.902666 0.973023
O O5 0.500000 0.598646 0.500000
O O6 0.500301 0.500000 0.788724
O O7 0.477866 0.652986 0.770628
O O8 0.665618 0.175104 0.553120
O O9 0.750000 0.250000 0.000000
O O10 0.714722 0.109627 0.997212
O O11 0.440777 0.230080 0.909107
O O12 0.354814 0.140985 0.868865
O O13 0.172315 0.500000 0.105263
#
# Coordination Sequence:
#
# PCOD8101463 Si02
#       6
#     8   8   8   8   4   8
#     4  10  20  36  58  83 114 151 183 224 274 338
#     4  10  22  36  53  82 119 150 184 227 271 327
#     4  11  19  34  61  83 109 144 189 227 278 330
#     4  10  21  38  58  83 110 148 189 230 270 334
#     4  10  23  38  61  78 104 156 196 224 271 330
#     4  11  22  36  57  86 116 142 181 239 289 327
#
# _framework density 18.901488000000001
#
# number of rings (size 3 to 8) (size 9 to 14) (size 15 to 20)
#    0.000    1.636    3.636    1.909    2.545    3.636 
#    0.000    4.091    0.000    1.091    0.000    0.000 
#    0.000    0.000    0.000    0.000    0.000    0.000 
#
# Total GULP energy -272766.367261 kJ/mol
# GULP energy per Si atom -12398.471239 kJ/mol
# Density = 1.885847 g / cm^3
# Si number density = 18.901488 Si / 1000 Ang^3
#
#
#
# Elastic Constant Matrix: (Units=GPa)
#
#
# Indices 1 2 3 4 5 6 
#
# 1 100.1749 44.5767 36.3662 0.0000 -16.3112 0.0000
# 2 44.5767 113.7046 22.7821 0.0000 -12.5866 0.0000
# 3 36.3662 22.7821 76.0173 0.0000 -22.8144 0.0000
# 4 0.0000 0.0000 0.0000 8.9569 0.0000 -10.8605
# 5 -16.3112 -12.5866 -22.8144 0.0000 32.7510 0.0000
# 6 0.0000 0.0000 0.0000 -10.8605 0.0000 20.6925
#
#
#
# Elastic Compliance Matrix: (Units=1/GPa)
#
#
# Indices 1 2 3 4 5 6 
#
# 1 0.013954 -0.004292 -0.004803 0.000000 0.001955 0.000000
# 2 -0.004292 0.010790 -0.000730 0.000000 0.001501 0.000000
# 3 -0.004803 -0.000730 0.018799 0.000000 0.010423 0.000000
# 4 0.000000 0.000000 0.000000 0.307054 0.000000 0.161159
# 5 0.001955 0.001501 0.010423 0.000000 0.039344 0.000000
# 6 0.000000 0.000000 0.000000 0.161159 0.000000 0.132911
#
#
# Mechanical properties :
#
#
# Convention : Reuss Voigt Hill
#
# Bulk Modulus (GPa) = 41.85143 55.26075 48.55609
# Shear Modulus (GPa) = 9.08319 24.89154 16.98736
#
# Velocity S-wave (km/s) = 2.19453 3.63286 3.00114
# Velocity P-wave (km/s) = 5.34895 6.84811 6.14442
#
# Compressibility (1/GPa) = 0.02389404
#
# Stress axis : x y z
#
# Youngs Moduli (GPa) = 71.66311 92.68089 53.19293
#
# Poissons Ratio (x) = 0.39778 0.25547
# Poissons Ratio (y) = 0.30757 0.03883
# Poissons Ratio (z) = 0.34417 0.06766
#
# Static dielectric constant tensor:
#      x y z
#    x 3.504020 0.000000 -0.288200 
#    y 0.000000 3.512610 0.000000 
#    z -0.288200 0.000000 3.478590 
# 
# 
# High freq. dielectric constant tensor:
#      x y z
#    x 1.730360 0.000000 -0.022240 
#    y 0.000000 1.736190 0.000000 
#    z -0.022240 0.000000 1.730360 
# 
# From -- ./inp_files/20530.got.cif
#   From: 2010.06.25/outbox.cif.g09.slc.cpg/sg12_11_cif.got.tgz:20530.got - 2010.06.28 00:19:55.
