data_PCOD8101742
_publ_section_title
;
Structure prediction by ZEFSAII (Michael W. Deem and Ramdas Pophale) SiO2 
 PCOD8101742
Probable space group: C 2/M
;
_chemical_formula_sum "Si O2"
_cell_formula_units_Z 56
_cell_length_a 14.920960
_cell_length_b 15.936794
_cell_length_c 22.924502
_cell_angle_alpha 90.000000
_cell_angle_beta 29.802720
_cell_angle_gamma 90.000000
_cell_volume 2709.363447
_symmetry_space_group_name_H-M "C 2/M"
_symmetry_group_IT_number 12
_symmetry_cell_setting 'monoclinic'
loop_
_space_group_symop_operation_xyz
x,y,z
-x,y,-z
-x,-y,-z
x,-y,z
1/2+x,1/2+y,z
1/2-x,1/2+y,-z
1/2-x,1/2-y,-z
1/2+x,1/2-y,z
loop_
_atom_site_type_symbol
_atom_site_label
_atom_site_fract_x
_atom_site_fract_y
_atom_site_fract_z
Si Si1 0.556193 0.143982 0.904099
Si Si2 0.220435 0.655250 0.036798
Si Si3 0.104583 0.832856 0.844937
Si Si4 0.397148 0.595043 0.648127
Si Si5 0.630106 0.096876 0.212780
Si Si6 0.809198 0.253182 0.625912
Si Si7 0.225028 0.677876 0.559043
O O1 0.412124 0.111160 0.935973
O O2 0.560097 0.244469 0.900195
O O3 0.756591 0.106025 0.781142
O O4 0.500000 0.113128 0.000000
O O5 0.136200 0.649418 0.149137
O O6 0.250000 0.750000 0.000000
O O7 0.423384 0.617105 0.927267
O O8 0.203089 0.888053 0.838010
O O9 0.220399 0.817257 0.721131
O O10 0.388510 0.500000 0.629526
O O11 0.331071 0.658650 0.636738
O O12 0.603811 0.616932 0.545528
O O13 0.453285 0.122800 0.349343
O O14 0.622934 0.000000 0.199386
O O15 0.692793 0.233429 0.635258
O O16 0.000000 0.293459 0.500000
O O17 0.250000 0.750000 0.500000
#
# Coordination Sequence:
#
# PCOD8101742 Si02
#       7
#     8   8   8   8   8   8   8
#     4  10  20  36  59  85 114 154 200 245 293 354
#     4  10  21  37  59  86 120 160 203 246 294 357
#     4  10  20  37  58  83 118 158 202 243 288 351
#     4  10  21  36  55  83 116 147 185 239 302 356
#     4  12  24  38  60  92 125 156 198 254 306 353
#     4   9  19  35  58  84 110 149 197 246 294 349
#     4  11  22  37  61  87 115 154 198 245 298 359
#
# _framework density 20.669063000000001
#
# number of rings (size 3 to 8) (size 9 to 14) (size 15 to 20)
#    0.000    1.714    0.000    7.714    0.000    7.429 
#    0.000    0.000    0.000    6.429    0.000    0.000 
#    0.000    0.000    0.000    0.000    0.000    0.000 
#
# Total GULP energy -346925.000282 kJ/mol
# GULP energy per Si atom -12390.178582 kJ/mol
# Density = 2.062202 g / cm^3
# Si number density = 20.669063 Si / 1000 Ang^3
#
#
#
# Elastic Constant Matrix: (Units=GPa)
#
#
# Indices 1 2 3 4 5 6 
#
# 1 120.1341 20.5201 67.3278 -0.0017 -0.7506 0.0007
# 2 20.5201 68.1180 26.8150 -0.0042 5.9329 0.0011
# 3 67.3278 26.8150 151.7383 -0.0075 2.0544 0.0061
# 4 -0.0017 -0.0042 -0.0075 13.9353 0.0066 -3.5071
# 5 -0.7506 5.9329 2.0544 0.0066 38.7887 0.0001
# 6 0.0007 0.0011 0.0061 -3.5071 0.0001 16.8448
#
#
#
# Elastic Compliance Matrix: (Units=1/GPa)
#
#
# Indices 1 2 3 4 5 6 
#
# 1 0.011244 -0.001592 -0.004717 -0.000002 0.000711 0.000001
# 2 -0.001592 0.016205 -0.002125 0.000005 -0.002397 0.000001
# 3 -0.004717 -0.002125 0.009062 0.000003 -0.000246 -0.000002
# 4 -0.000002 0.000005 0.000003 0.075728 -0.000014 0.015767
# 5 0.000711 -0.002397 -0.000246 -0.000014 0.026174 -0.000003
# 6 0.000001 0.000001 -0.000002 0.015767 -0.000003 0.062648
#
#
# Mechanical properties :
#
#
# Convention : Reuss Voigt Hill
#
# Bulk Modulus (GPa) = 50.90894 63.25736 57.08315
# Shear Modulus (GPa) = 22.27380 28.93559 25.60470
#
# Velocity S-wave (km/s) = 3.28630 3.74565 3.52347
# Velocity P-wave (km/s) = 6.25170 7.02693 6.65062
#
# Compressibility (1/GPa) = 0.01964291
#
# Stress axis : x y z
#
# Youngs Moduli (GPa) = 88.93416 61.70835 110.34696
#
# Poissons Ratio (x) = 0.09825 0.52056
# Poissons Ratio (y) = 0.14159 0.23447
# Poissons Ratio (z) = 0.41954 0.13112
#
# Static dielectric constant tensor:
#      x y z
#    x 3.845360 -0.000070 -0.084570 
#    y -0.000070 3.375700 0.000030 
#    z -0.084570 0.000030 4.545330 
# 
# 
# High freq. dielectric constant tensor:
#      x y z
#    x 1.808740 0.000000 -0.005700 
#    y 0.000000 1.768490 0.000000 
#    z -0.005700 0.000000 1.833900 
# 
# From -- ./inp_files/340287.got.cif
#   From: 2010.06.25/outbox.cif.g09.slc.cpg/sg12_171_cif.got.tgz:340287.got - 2010.06.28 00:19:55.
