data_PCOD8101874
_publ_section_title
;
Structure prediction by ZEFSAII (Michael W. Deem and Ramdas Pophale) SiO2 
 PCOD8101874
Probable space group: C 2/M
;
_chemical_formula_sum "Si O2"
_cell_formula_units_Z 48
_cell_length_a 24.528947
_cell_length_b 8.471227
_cell_length_c 11.485007
_cell_angle_alpha 90.000000
_cell_angle_beta 74.960080
_cell_angle_gamma 90.000000
_cell_volume 2304.724802
_symmetry_space_group_name_H-M "C 2/M"
_symmetry_group_IT_number 12
_symmetry_cell_setting 'monoclinic'
loop_
_space_group_symop_operation_xyz
x,y,z
-x,y,-z
-x,-y,-z
x,-y,z
1/2+x,1/2+y,z
1/2-x,1/2+y,-z
1/2-x,1/2-y,-z
1/2+x,1/2-y,z
loop_
_atom_site_type_symbol
_atom_site_label
_atom_site_fract_x
_atom_site_fract_y
_atom_site_fract_z
Si Si1 0.635655 0.314854 0.308817
Si Si2 0.186938 0.814728 0.525266
Si Si3 0.414881 0.683713 0.999470
Si Si4 0.970699 0.316283 0.746657
Si Si5 0.585357 0.687007 0.735832
Si Si6 0.810435 0.684029 0.941438
O O1 0.645625 0.500000 0.282152
O O2 0.655231 0.261099 0.425415
O O3 0.569874 0.275971 0.321045
O O4 0.674161 0.213128 0.200985
O O5 0.250000 0.750000 0.500000
O O6 0.146323 0.755724 0.653056
O O7 0.193058 0.000000 0.525519
O O8 0.429922 0.500000 0.979332
O O9 0.422524 0.742977 0.127010
O O10 0.455372 0.778340 0.889627
O O11 0.350450 0.714558 0.002469
O O12 0.962916 0.500000 0.727439
O O13 0.035136 0.264518 0.687963
O O14 0.580645 0.500000 0.726139
O O15 0.815378 0.500000 0.968531
O O16 0.750000 0.750000 0.000000
#
# Coordination Sequence:
#
# PCOD8101874 Si02
#       6
#     8   8   8   8   8   8
#     4  10  21  40  62  86 118 156 198 245 298 354
#     4  10  24  43  63  88 118 157 201 247 298 353
#     4  10  20  36  59  88 121 156 195 240 298 359
#     4  11  22  37  60  91 122 155 197 248 300 349
#     4  10  22  40  61  87 120 160 198 239 298 359
#     4  11  22  36  57  85 118 155 198 245 296 352
#
# _framework density 20.826781
#
# number of rings (size 3 to 8) (size 9 to 14) (size 15 to 20)
#    0.000    1.667    0.000    6.500    2.333    6.000 
#    0.000    3.333    0.000    0.000    0.000    0.000 
#    0.000    0.000    0.000    0.000    0.000    0.000 
#
# Total GULP energy -297603.554048 kJ/mol
# GULP energy per Si atom -12400.148085 kJ/mol
# Density = 2.077938 g / cm^3
# Si number density = 20.826781 Si / 1000 Ang^3
#
#
#
# Elastic Constant Matrix: (Units=GPa)
#
#
# Indices 1 2 3 4 5 6 
#
# 1 155.5425 17.7666 59.0827 0.0000 -11.0570 0.0000
# 2 17.7666 48.0242 23.3404 0.0000 0.0482 0.0000
# 3 59.0827 23.3404 71.5067 0.0000 19.5641 0.0000
# 4 0.0000 0.0000 0.0000 21.0756 0.0000 -5.1261
# 5 -11.0570 0.0482 19.5641 0.0000 29.6365 0.0000
# 6 0.0000 0.0000 0.0000 -5.1261 0.0000 34.3432
#
#
#
# Elastic Compliance Matrix: (Units=1/GPa)
#
#
# Indices 1 2 3 4 5 6 
#
# 1 0.013461 0.002995 -0.016442 0.000000 0.015871 0.000000
# 2 0.002995 0.026472 -0.013924 0.000000 0.010266 0.000000
# 3 -0.016442 -0.013924 0.041234 0.000000 -0.033332 0.000000
# 4 0.000000 0.000000 0.000000 0.049236 0.000000 0.007349
# 5 0.015871 0.010266 -0.033332 0.000000 0.061650 0.000000
# 6 0.000000 0.000000 0.000000 0.007349 0.000000 0.030215
#
#
# Mechanical properties :
#
#
# Convention : Reuss Voigt Hill
#
# Bulk Modulus (GPa) = 37.84291 52.82809 45.33550
# Shear Modulus (GPa) = 17.49366 28.66997 23.08182
#
# Velocity S-wave (km/s) = 2.90135 3.71427 3.33269
# Velocity P-wave (km/s) = 5.42527 6.61928 6.05180
#
# Compressibility (1/GPa) = 0.02642503
#
# Stress axis : x y z
#
# Youngs Moduli (GPa) = 74.29079 37.77601 24.25160
#
# Poissons Ratio (x) = -0.11315 0.39874
# Poissons Ratio (y) = -0.22252 0.33769
# Poissons Ratio (z) = 1.22148 0.52601
#
# Static dielectric constant tensor:
#      x y z
#    x 3.981800 0.000000 0.014240 
#    y 0.000000 3.730140 0.000000 
#    z 0.014240 0.000000 3.879890 
# 
# 
# High freq. dielectric constant tensor:
#      x y z
#    x 1.830650 0.000000 -0.000240 
#    y 0.000000 1.811100 0.000000 
#    z -0.000240 0.000000 1.808100 
# 
# From -- ./inp_files/172144.got.cif
#   From: 2010.06.25/outbox.cif.g09.slc.cpg/sg12_87_cif.got.tgz:172144.got - 2010.06.28 00:19:55.
