data_PCOD8101100
_publ_section_title
;
Structure prediction by ZEFSAII (Michael W. Deem and Ramdas Pophale) SiO2 
 PCOD8101100
Probable space group: C 2/M
;
_chemical_formula_sum "Si O2"
_cell_formula_units_Z 56
_cell_length_a 19.663662
_cell_length_b 8.825838
_cell_length_c 17.229290
_cell_angle_alpha 90.000000
_cell_angle_beta 83.560329
_cell_angle_gamma 90.000000
_cell_volume 2971.247788
_symmetry_space_group_name_H-M "C 2/M"
_symmetry_group_IT_number 12
_symmetry_cell_setting 'monoclinic'
loop_
_space_group_symop_operation_xyz
x,y,z
-x,y,-z
-x,-y,-z
x,-y,z
1/2+x,1/2+y,z
1/2-x,1/2+y,-z
1/2-x,1/2-y,-z
1/2+x,1/2-y,z
loop_
_atom_site_type_symbol
_atom_site_label
_atom_site_fract_x
_atom_site_fract_y
_atom_site_fract_z
Si Si1 0.134763 0.820797 0.142210
Si Si2 0.442952 0.322225 0.563273
Si Si3 0.781717 0.677030 0.177696
Si Si4 0.372402 0.819310 0.305836
Si Si5 0.678345 0.321913 0.529060
Si Si6 0.178075 0.676703 0.991420
Si Si7 0.017190 0.180017 0.273964
O O1 0.205476 0.755695 0.171473
O O2 0.070286 0.769167 0.201148
O O3 0.139310 0.000000 0.134600
O O4 0.123387 0.753455 0.056734
O O5 0.500000 0.247126 0.500000
O O6 0.455843 0.500000 0.564283
O O7 0.368317 0.284642 0.539535
O O8 0.451097 0.259254 0.649068
O O9 0.771806 0.500000 0.190752
O O10 0.815989 0.742673 0.251462
O O11 0.834143 0.708250 0.098789
O O12 0.355463 0.750611 0.391209
O O13 0.445821 0.762344 0.267192
O O14 0.372231 0.000000 0.310900
O O15 0.685626 0.500000 0.542129
O O16 0.750000 0.250000 0.500000
O O17 0.180200 0.500000 0.009044
O O18 0.250000 0.750000 0.000000
O O19 0.005789 0.000000 0.276003
#
# Coordination Sequence:
#
# PCOD8101100 Si02
#       7
#     8   8   8   8   8   8   8
#     4   9  18  33  56  81 105 137 182 224 262 317
#     4   9  17  34  59  78  99 142 188 214 251 320
#     4   8  17  33  54  78 104 142 182 214 259 325
#     4  11  22  37  56  79 111 144 178 221 271 319
#     4  11  23  39  59  82 109 140 180 223 268 319
#     4   9  16  31  54  78 106 137 177 221 264 317
#     4  10  20  36  57  79 106 143 184 222 262 318
#
# _framework density 18.847300000000001
#
# number of rings (size 3 to 8) (size 9 to 14) (size 15 to 20)
#    0.000    2.429    1.429    2.143    2.000    0.571 
#    0.000   10.000    0.000    4.286    0.000    0.000 
#    0.000    0.000    0.000    0.000    0.000    0.000 
#
# Total GULP energy -347029.944284 kJ/mol
# GULP energy per Si atom -12393.926582 kJ/mol
# Density = 1.880440 g / cm^3
# Si number density = 18.847300 Si / 1000 Ang^3
#
#
#
# Elastic Constant Matrix: (Units=GPa)
#
#
# Indices 1 2 3 4 5 6 
#
# 1 99.0108 28.7957 26.9857 0.0000 -17.7063 0.0000
# 2 28.7957 48.7598 24.5970 0.0000 -6.7807 0.0000
# 3 26.9857 24.5970 71.2360 0.0000 -17.5052 0.0000
# 4 0.0000 0.0000 0.0000 27.9379 0.0000 -4.5803
# 5 -17.7063 -6.7807 -17.5052 0.0000 34.8767 0.0000
# 6 0.0000 0.0000 0.0000 -4.5803 0.0000 28.5783
#
#
#
# Elastic Compliance Matrix: (Units=1/GPa)
#
#
# Indices 1 2 3 4 5 6 
#
# 1 0.013226 -0.006313 -0.001691 0.000000 0.004639 0.000000
# 2 -0.006313 0.027859 -0.007625 0.000000 -0.001616 0.000000
# 3 -0.001691 -0.007625 0.019090 0.000000 0.007241 0.000000
# 4 0.000000 0.000000 0.000000 0.036760 0.000000 0.005892
# 5 0.004639 -0.001616 0.007241 0.000000 0.034348 0.000000
# 6 0.000000 0.000000 0.000000 0.005892 0.000000 0.035936
#
#
# Mechanical properties :
#
#
# Convention : Reuss Voigt Hill
#
# Bulk Modulus (GPa) = 34.58008 42.19592 38.38800
# Shear Modulus (GPa) = 24.02519 27.52047 25.77283
#
# Velocity S-wave (km/s) = 3.57421 3.82538 3.70192
# Velocity P-wave (km/s) = 5.95152 6.47675 6.21968
#
# Compressibility (1/GPa) = 0.02891838
#
# Stress axis : x y z
#
# Youngs Moduli (GPa) = 75.60686 35.89563 52.38224
#
# Poissons Ratio (x) = 0.22661 0.08856
# Poissons Ratio (y) = 0.47731 0.39940
# Poissons Ratio (z) = 0.12783 0.27370
#
# Static dielectric constant tensor:
#      x y z
#    x 3.444180 0.000000 -0.031130 
#    y 0.000000 3.273350 0.000000 
#    z -0.031130 0.000000 4.037320 
# 
# 
# High freq. dielectric constant tensor:
#      x y z
#    x 1.720490 0.000000 -0.007040 
#    y 0.000000 1.706770 0.000000 
#    z -0.007040 0.000000 1.746660 
# 
# From -- ./inp_files/230865.got.cif
#   From: 2010.06.25/outbox.cif.g09.slc.cpg/sg12_116_cif.got.tgz:230865.got - 2010.06.28 00:19:55.
