data_PCOD8101011
_publ_section_title
;
Structure prediction by ZEFSAII (Michael W. Deem and Ramdas Pophale) SiO2 
 PCOD8101011
Probable space group: C 2/M
;
_chemical_formula_sum "Si O2"
_cell_formula_units_Z 64
_cell_length_a 14.471517
_cell_length_b 8.941670
_cell_length_c 29.841567
_cell_angle_alpha 90.000000
_cell_angle_beta 119.267821
_cell_angle_gamma 90.000000
_cell_volume 3368.542980
_symmetry_space_group_name_H-M "C 2/M"
_symmetry_group_IT_number 12
_symmetry_cell_setting 'monoclinic'
loop_
_space_group_symop_operation_xyz
x,y,z
-x,y,-z
-x,-y,-z
x,-y,z
1/2+x,1/2+y,z
1/2-x,1/2+y,-z
1/2-x,1/2-y,-z
1/2+x,1/2-y,z
loop_
_atom_site_type_symbol
_atom_site_label
_atom_site_fract_x
_atom_site_fract_y
_atom_site_fract_z
Si Si1 0.374176 0.325365 0.767136
Si Si2 0.833819 0.673004 0.579386
Si Si3 0.555506 0.322742 0.312948
Si Si4 0.598740 0.327024 0.492762
Si Si5 0.039091 0.329024 0.131678
Si Si6 0.194906 0.674329 0.945152
Si Si7 0.246963 0.823191 0.864617
Si Si8 0.844384 0.676926 0.240541
O O1 0.389143 0.500000 0.773123
O O2 0.392846 0.267818 0.721376
O O3 0.461520 0.258746 0.821511
O O4 0.257370 0.276046 0.754561
O O5 0.861593 0.500000 0.593549
O O6 0.867655 0.769896 0.629719
O O7 0.708131 0.698374 0.545124
O O8 0.898872 0.728379 0.551484
O O9 0.540974 0.500000 0.311799
O O10 0.442468 0.243075 0.291296
O O11 0.500000 0.274441 0.500000
O O12 0.585306 0.500000 0.475762
O O13 0.052714 0.500000 0.148466
O O14 0.135026 0.277689 0.122780
O O15 0.930731 0.299770 0.079452
O O16 0.223898 0.500000 0.950409
O O17 0.235453 0.752381 0.910215
O O18 0.250000 0.750000 0.000000
O O19 0.162222 0.752487 0.810078
O O20 0.228764 0.000000 0.862531
O O21 0.855253 0.500000 0.237264
#
# Coordination Sequence:
#
# PCOD8101011 Si02
#       8
#     8   8   8   8   8   8   8   8
#     4   9  20  36  55  79 108 141 178 218 263 315
#     4  10  21  36  55  82 112 143 181 224 270 319
#     4  11  22  36  54  79 113 149 181 221 269 316
#     4   9  19  38  61  82 107 142 183 225 270 321
#     4   9  20  37  57  78 105 140 177 216 264 320
#     4  11  23  38  55  79 107 139 177 221 270 320
#     4  10  20  37  58  80 106 140 178 218 265 321
#     4  10  20  36  56  81 110 141 179 221 265 318
#
# _framework density 18.999312
#
# number of rings (size 3 to 8) (size 9 to 14) (size 15 to 20)
#    0.000    2.125    0.000    2.625    0.000    7.250 
#    0.000    5.000    0.000    0.000    0.000    0.000 
#    0.000    0.000    0.000    0.000    0.000    0.000 
#
# Total GULP energy -396913.489340 kJ/mol
# GULP energy per Si atom -12403.546542 kJ/mol
# Density = 1.895607 g / cm^3
# Si number density = 18.999312 Si / 1000 Ang^3
#
#
#
# Elastic Constant Matrix: (Units=GPa)
#
#
# Indices 1 2 3 4 5 6 
#
# 1 81.2299 31.3348 30.7222 0.0000 2.6684 0.0000
# 2 31.3348 71.8143 36.4525 0.0000 2.3433 0.0000
# 3 30.7222 36.4525 100.9113 0.0000 1.2909 0.0000
# 4 0.0000 0.0000 0.0000 40.2447 0.0000 -1.2221
# 5 2.6684 2.3433 1.2909 0.0000 20.7216 0.0000
# 6 0.0000 0.0000 0.0000 -1.2221 0.0000 28.2329
#
#
#
# Elastic Compliance Matrix: (Units=1/GPa)
#
#
# Indices 1 2 3 4 5 6 
#
# 1 0.015440 -0.005289 -0.002775 0.000000 -0.001217 0.000000
# 2 -0.005289 0.018913 -0.005207 0.000000 -0.001133 0.000000
# 3 -0.002775 -0.005207 0.012633 0.000000 0.000159 0.000000
# 4 0.000000 0.000000 0.000000 0.024881 0.000000 0.001077
# 5 -0.001217 -0.001133 0.000159 0.000000 0.048534 0.000000
# 6 0.000000 0.000000 0.000000 0.001077 0.000000 0.035466
#
#
# Mechanical properties :
#
#
# Convention : Reuss Voigt Hill
#
# Bulk Modulus (GPa) = 48.91215 50.10828 49.51022
# Shear Modulus (GPa) = 26.42374 28.20291 27.31332
#
# Velocity S-wave (km/s) = 3.73335 3.85699 3.79568
# Velocity P-wave (km/s) = 6.66213 6.80193 6.73239
#
# Compressibility (1/GPa) = 0.02044482
#
# Stress axis : x y z
#
# Youngs Moduli (GPa) = 64.76520 52.87464 79.15527
#
# Poissons Ratio (x) = 0.27965 0.21963
# Poissons Ratio (y) = 0.34254 0.41217
# Poissons Ratio (z) = 0.17970 0.27533
#
# Static dielectric constant tensor:
#      x y z
#    x 3.684190 0.000000 0.061720 
#    y 0.000000 3.538870 0.000000 
#    z 0.061720 0.000000 3.437040 
# 
# 
# High freq. dielectric constant tensor:
#      x y z
#    x 1.745780 0.000000 0.002670 
#    y 0.000000 1.746310 0.000000 
#    z 0.002670 0.000000 1.736250 
# 
# From -- ./inp_files/375610.got.cif
#   From: 2010.06.25/outbox.cif.g09.slc.cpg/sg12_188_cif.got.tgz:375610.got - 2010.06.28 00:19:55.
