data_PCOD8101539
_publ_section_title
;
Structure prediction by ZEFSAII (Michael W. Deem and Ramdas Pophale) SiO2 
 PCOD8101539
Probable space group: C 2/M
;
_chemical_formula_sum "Si O2"
_cell_formula_units_Z 60
_cell_length_a 24.067515
_cell_length_b 14.632655
_cell_length_c 15.704498
_cell_angle_alpha 90.000000
_cell_angle_beta 33.625029
_cell_angle_gamma 90.000000
_cell_volume 3062.643007
_symmetry_space_group_name_H-M "C 2/M"
_symmetry_group_IT_number 12
_symmetry_cell_setting 'monoclinic'
loop_
_space_group_symop_operation_xyz
x,y,z
-x,y,-z
-x,-y,-z
x,-y,z
1/2+x,1/2+y,z
1/2-x,1/2+y,-z
1/2-x,1/2-y,-z
1/2+x,1/2-y,z
loop_
_atom_site_type_symbol
_atom_site_label
_atom_site_fract_x
_atom_site_fract_y
_atom_site_fract_z
Si Si1 0.810902 0.217758 0.104327
Si Si2 0.500000 0.800421 0.500000
Si Si3 0.614133 0.895934 0.626117
Si Si4 0.683340 0.606611 0.542401
Si Si5 0.349470 0.752450 0.558655
Si Si6 0.389108 0.101443 0.941853
Si Si7 0.998460 0.105632 0.101690
Si Si8 0.163033 0.604052 0.187187
O O1 0.754346 0.211791 0.266966
O O2 0.750411 0.173413 0.103412
O O3 0.825471 0.326024 0.075350
O O4 0.916663 0.167388 0.965342
O O5 0.430756 0.734272 0.529848
O O6 0.436482 0.870222 0.636384
O O7 0.705028 0.863837 0.571045
O O8 0.610748 0.836662 0.546177
O O9 0.507740 0.884805 0.809080
O O10 0.632232 0.000000 0.574196
O O11 0.677811 0.500000 0.525983
O O12 0.659168 0.662014 0.487566
O O13 0.606483 0.630351 0.717627
O O14 0.361818 0.116114 0.879141
O O15 0.357354 0.000000 0.012621
O O16 0.025101 0.000000 0.082882
O O17 0.000000 0.128441 0.000000
O O18 0.194673 0.500000 0.168396
#
# Coordination Sequence:
#
# PCOD8101539 Si02
#       8
#     8   4   8   8   8   8   8   8
#     4  11  23  35  56  85 118 154 192 235 288 356
#     4  10  21  34  57  90 118 154 195 248 289 344
#     4  10  20  37  63  89 111 148 198 249 299 345
#     4  10  22  40  62  85 117 158 200 243 289 347
#     4  11  22  37  58  86 119 156 196 240 295 343
#     4  10  21  38  58  82 115 155 194 241 292 341
#     4  10  21  38  59  87 119 150 189 242 300 357
#     4  10  20  36  58  85 116 149 190 242 299 346
#
# _framework density 19.590921000000002
#
# number of rings (size 3 to 8) (size 9 to 14) (size 15 to 20)
#    0.000    1.733    1.333    3.000    0.000    5.333 
#    0.000    0.333    0.000    2.800    0.000    0.000 
#    0.000    0.000    0.000    0.000    0.000    0.000 
#
# Total GULP energy -371973.483535 kJ/mol
# GULP energy per Si atom -12399.116118 kJ/mol
# Density = 1.954633 g / cm^3
# Si number density = 19.590921 Si / 1000 Ang^3
#
#
#
# Elastic Constant Matrix: (Units=GPa)
#
#
# Indices 1 2 3 4 5 6 
#
# 1 81.2379 36.4560 21.2749 0.0000 -10.1517 0.0000
# 2 36.4560 76.3937 26.6830 0.0000 -12.9130 0.0000
# 3 21.2749 26.6830 49.2705 0.0000 -15.2524 0.0000
# 4 0.0000 0.0000 0.0000 27.2464 0.0000 13.5433
# 5 -10.1517 -12.9130 -15.2524 0.0000 25.2112 0.0000
# 6 0.0000 0.0000 0.0000 13.5433 0.0000 -94.6648
#
#
#
# Elastic Compliance Matrix: (Units=1/GPa)
#
#
# Indices 1 2 3 4 5 6 
#
# 1 0.016162 -0.006404 -0.003090 0.000000 0.001358 0.000000
# 2 -0.006404 0.018961 -0.006516 0.000000 0.003191 0.000000
# 3 -0.003090 -0.006516 0.029212 0.000000 0.013091 0.000000
# 4 0.000000 0.000000 0.000000 0.034265 0.000000 0.004902
# 5 0.001358 0.003191 0.013091 0.000000 0.049766 0.000000
# 6 0.000000 0.000000 0.000000 0.004902 0.000000 -0.009862
#
#
# Mechanical properties :
#
#
# Convention : Reuss Voigt Hill
#
# Bulk Modulus (GPa) = 30.94460 41.74776 36.34618
# Shear Modulus (GPa) = 27.57918 -0.27556 13.65181
#
# Velocity S-wave (km/s) = 3.75607 -0.37545 2.64264
# Velocity P-wave (km/s) = 5.88561 4.60088 5.28245
#
# Compressibility (1/GPa) = 0.03231582
#
# Stress axis : x y z
#
# Youngs Moduli (GPa) = 61.87226 52.73894 34.23295
#
# Poissons Ratio (x) = 0.33773 0.10579
# Poissons Ratio (y) = 0.39622 0.22305
# Poissons Ratio (z) = 0.19120 0.34363
#
# Static dielectric constant tensor:
#      x y z
#    x 3.571200 0.000000 -0.180350 
#    y 0.000000 3.591100 0.000000 
#    z -0.180350 0.000000 3.590360 
# 
# 
# High freq. dielectric constant tensor:
#      x y z
#    x 1.761280 0.000000 -0.011910 
#    y 0.000000 1.765280 0.000000 
#    z -0.011910 0.000000 1.763100 
# 
# From -- ./inp_files/293490.got.cif
#   From: 2010.06.25/outbox.cif.g09.slc.cpg/sg12_147_cif.got.tgz:293490.got - 2010.06.28 00:19:55.
