data_PCOD8101371
_publ_section_title
;
Structure prediction by ZEFSAII (Michael W. Deem and Ramdas Pophale) SiO2 
 PCOD8101371
Probable space group: C 2/M
;
_chemical_formula_sum "Si O2"
_cell_formula_units_Z 48
_cell_length_a 30.005708
_cell_length_b 8.991639
_cell_length_c 17.690499
_cell_angle_alpha 90.000000
_cell_angle_beta 147.880658
_cell_angle_gamma 90.000000
_cell_volume 2537.679912
_symmetry_space_group_name_H-M "C 2/M"
_symmetry_group_IT_number 12
_symmetry_cell_setting 'monoclinic'
loop_
_space_group_symop_operation_xyz
x,y,z
-x,y,-z
-x,-y,-z
x,-y,z
1/2+x,1/2+y,z
1/2-x,1/2+y,-z
1/2-x,1/2-y,-z
1/2+x,1/2-y,z
loop_
_atom_site_type_symbol
_atom_site_label
_atom_site_fract_x
_atom_site_fract_y
_atom_site_fract_z
Si Si1 0.165859 0.828219 0.901673
Si Si2 0.249390 0.675222 0.417837
Si Si3 0.087836 0.672337 0.400520
Si Si4 0.023664 0.668238 0.619003
Si Si5 0.562471 0.324895 0.896934
Si Si6 0.087705 0.327721 0.087427
O O1 0.095750 0.783960 0.741003
O O2 0.134730 0.783145 0.940576
O O3 0.183425 0.000000 0.920832
O O4 0.250000 0.750000 0.000000
O O5 0.261738 0.500000 0.444769
O O6 0.250000 0.750000 0.500000
O O7 0.324559 0.741758 0.476264
O O8 0.162051 0.713577 0.251549
O O9 0.101032 0.500000 0.398134
O O10 0.055349 0.692861 0.439343
O O11 0.023216 0.740096 0.246878
O O12 0.057516 0.500000 0.677000
O O13 0.000000 0.703220 0.500000
O O14 0.543621 0.500000 0.870087
O O15 0.597508 0.272558 0.027439
O O16 0.091471 0.500000 0.069092
O O17 0.000000 0.287523 0.000000
#
# Coordination Sequence:
#
# PCOD8101371 Si02
#       6
#     8   8   8   8   8   8
#     4  10  21  36  55  81 112 146 185 228 274 325
#     4  11  23  38  58  84 113 144 182 227 273 326
#     4  10  20  36  58  81 111 149 184 224 276 328
#     4   9  19  36  57  81 110 146 186 227 273 325
#     4  10  21  37  58  83 110 143 186 231 272 322
#     4  10  22  39  58  82 112 145 181 223 273 327
#
# _framework density 18.914914
#
# number of rings (size 3 to 8) (size 9 to 14) (size 15 to 20)
#    0.000    2.000    0.000    3.000    0.000    7.333 
#    0.000    5.000    0.000    0.000    0.000    0.000 
#    0.000    0.000    0.000    0.000    0.000    0.000 
#
# Total GULP energy -297690.741161 kJ/mol
# GULP energy per Si atom -12403.780882 kJ/mol
# Density = 1.887186 g / cm^3
# Si number density = 18.914914 Si / 1000 Ang^3
#
#
#
# Elastic Constant Matrix: (Units=GPa)
#
#
# Indices 1 2 3 4 5 6 
#
# 1 120.7894 60.1480 85.2247 0.0000 0.2008 0.0000
# 2 60.1480 87.7536 67.9132 0.0000 5.3637 0.0000
# 3 85.2247 67.9132 134.1468 0.0000 7.2000 0.0000
# 4 0.0000 0.0000 0.0000 36.2837 0.0000 2.6961
# 5 0.2008 5.3637 7.2000 0.0000 40.2022 0.0000
# 6 0.0000 0.0000 0.0000 2.6961 0.0000 33.8184
#
#
#
# Elastic Compliance Matrix: (Units=1/GPa)
#
#
# Indices 1 2 3 4 5 6 
#
# 1 0.016496 -0.005321 -0.007896 0.000000 0.002042 0.000000
# 2 -0.005321 0.020479 -0.006908 0.000000 -0.001468 0.000000
# 3 -0.007896 -0.006908 0.016071 0.000000 -0.001917 0.000000
# 4 0.000000 0.000000 0.000000 0.027725 0.000000 -0.002210
# 5 0.002042 -0.001468 -0.001917 0.000000 0.025403 0.000000
# 6 0.000000 0.000000 0.000000 -0.002210 0.000000 0.029746
#
#
# Mechanical properties :
#
#
# Convention : Reuss Voigt Hill
#
# Bulk Modulus (GPa) = 78.15106 85.47348 81.81227
# Shear Modulus (GPa) = 27.71066 30.68779 29.19922
#
# Velocity S-wave (km/s) = 3.83171 4.03229 3.93328
# Velocity P-wave (km/s) = 7.80915 8.18325 7.99839
#
# Compressibility (1/GPa) = 0.01279573
#
# Stress axis : x y z
#
# Youngs Moduli (GPa) = 60.62017 48.83114 62.22265
#
# Poissons Ratio (x) = 0.25982 0.49131
# Poissons Ratio (y) = 0.32255 0.42986
# Poissons Ratio (z) = 0.47866 0.33735
#
# Static dielectric constant tensor:
#      x y z
#    x 3.589880 0.000000 0.120390 
#    y 0.000000 3.586400 0.000000 
#    z 0.120390 0.000000 4.988090 
# 
# 
# High freq. dielectric constant tensor:
#      x y z
#    x 1.745790 0.000000 0.002340 
#    y 0.000000 1.745370 0.000000 
#    z 0.002340 0.000000 1.732120 
# 
# From -- ./inp_files/274071.got.cif
#   From: 2010.06.25/outbox.cif.g09.slc.cpg/sg12_138_cif.got.tgz:274071.got - 2010.06.28 00:19:55.
