data_PCOD8101844
_publ_section_title
;
Structure prediction by ZEFSAII (Michael W. Deem and Ramdas Pophale) SiO2 
 PCOD8101844
Probable space group: C 2/M
;
_chemical_formula_sum "Si O2"
_cell_formula_units_Z 56
_cell_length_a 15.057713
_cell_length_b 8.795593
_cell_length_c 29.540300
_cell_angle_alpha 90.000000
_cell_angle_beta 131.031826
_cell_angle_gamma 90.000000
_cell_volume 2951.270950
_symmetry_space_group_name_H-M "C 2/M"
_symmetry_group_IT_number 12
_symmetry_cell_setting 'monoclinic'
loop_
_space_group_symop_operation_xyz
x,y,z
-x,y,-z
-x,-y,-z
x,-y,z
1/2+x,1/2+y,z
1/2-x,1/2+y,-z
1/2-x,1/2-y,-z
1/2+x,1/2-y,z
loop_
_atom_site_type_symbol
_atom_site_label
_atom_site_fract_x
_atom_site_fract_y
_atom_site_fract_z
Si Si1 0.144240 0.822746 0.937596
Si Si2 0.186207 0.821404 0.850455
Si Si3 0.444386 0.679297 0.344669
Si Si4 0.541014 0.827520 0.561465
Si Si5 0.233899 0.827661 0.314062
Si Si6 0.007051 0.678936 0.274737
Si Si7 0.934834 0.176505 0.931655
O O1 0.143573 0.766174 0.885662
O O2 0.019861 0.780823 0.918474
O O3 0.168046 0.000000 0.947769
O O4 0.250000 0.750000 0.000000
O O5 0.112981 0.729521 0.789031
O O6 0.322433 0.783122 0.889154
O O7 0.165702 0.000000 0.836401
O O8 0.435177 0.500000 0.338316
O O9 0.510333 0.729078 0.413558
O O10 0.312263 0.752372 0.300024
O O11 0.518049 0.742654 0.327297
O O12 0.500000 0.755352 0.500000
O O13 0.684288 0.825904 0.613117
O O14 0.492944 0.000000 0.549429
O O15 0.116995 0.730637 0.281338
O O16 0.199668 0.000000 0.289020
O O17 0.009050 0.500000 0.281752
O O18 0.897062 0.000000 0.918038
O O19 0.000000 0.215989 0.000000
#
# Coordination Sequence:
#
# PCOD8101844 Si02
#       7
#     8   8   8   8   8   8   8
#     4  10  21  37  59  84 113 146 181 228 285 341
#     4  11  24  39  57  84 114 147 190 241 291 349
#     4  10  20  36  59  87 119 155 194 240 295 345
#     4   8  16  34  60  88 120 157 195 238 290 345
#     4   9  19  37  60  86 119 156 192 240 292 343
#     4  12  24  40  60  83 115 157 203 246 292 350
#     4  10  20  37  60  84 114 149 185 229 285 350
#
# _framework density 18.974876999999999
#
# number of rings (size 3 to 8) (size 9 to 14) (size 15 to 20)
#    0.857    1.143    1.429    3.000    0.000    2.857 
#    0.000    5.000    0.000    0.000    0.000    0.000 
#    0.000    0.000    0.000    0.000    0.000    0.000 
#
# Total GULP energy -347117.617051 kJ/mol
# GULP energy per Si atom -12397.057752 kJ/mol
# Density = 1.893169 g / cm^3
# Si number density = 18.974877 Si / 1000 Ang^3
#
#
#
# Elastic Constant Matrix: (Units=GPa)
#
#
# Indices 1 2 3 4 5 6 
#
# 1 72.9142 23.3944 3.4917 0.0000 -5.5125 0.0000
# 2 23.3944 102.8033 21.2337 0.0000 -6.8578 0.0000
# 3 3.4917 21.2337 48.7239 0.0000 -6.7558 0.0000
# 4 0.0000 0.0000 0.0000 29.9191 0.0000 2.0286
# 5 -5.5125 -6.8578 -6.7558 0.0000 28.2060 0.0000
# 6 0.0000 0.0000 0.0000 2.0286 0.0000 31.7072
#
#
#
# Elastic Compliance Matrix: (Units=1/GPa)
#
#
# Indices 1 2 3 4 5 6 
#
# 1 0.014942 -0.003399 0.000725 0.000000 0.002267 0.000000
# 2 -0.003399 0.011527 -0.004637 0.000000 0.001028 0.000000
# 3 0.000725 -0.004637 0.023124 0.000000 0.004553 0.000000
# 4 0.000000 0.000000 0.000000 0.033569 0.000000 -0.002148
# 5 0.002267 0.001028 0.004553 0.000000 0.037237 0.000000
# 6 0.000000 0.000000 0.000000 -0.002148 0.000000 0.031676
#
#
# Mechanical properties :
#
#
# Convention : Reuss Voigt Hill
#
# Bulk Modulus (GPa) = 28.59561 35.63123 32.11342
# Shear Modulus (GPa) = 28.03401 29.72122 28.87762
#
# Velocity S-wave (km/s) = 3.84790 3.96200 3.90537
# Velocity P-wave (km/s) = 5.90295 6.30467 6.10711
#
# Compressibility (1/GPa) = 0.03497041
#
# Stress axis : x y z
#
# Youngs Moduli (GPa) = 66.92575 86.75184 43.24491
#
# Poissons Ratio (x) = 0.29484 -0.03134
# Poissons Ratio (y) = 0.22746 0.20055
# Poissons Ratio (z) = -0.04850 0.40231
#
# Static dielectric constant tensor:
#      x y z
#    x 3.535460 0.000000 -0.143560 
#    y 0.000000 3.405420 0.000000 
#    z -0.143560 0.000000 3.326950 
# 
# 
# High freq. dielectric constant tensor:
#      x y z
#    x 1.733480 0.000000 -0.007390 
#    y 0.000000 1.740540 0.000000 
#    z -0.007390 0.000000 1.724510 
# 
# From -- ./inp_files/375138.got.cif
#   From: 2010.06.25/outbox.cif.g09.slc.cpg/sg12_188_cif.got.tgz:375138.got - 2010.06.28 00:19:55.
