data_PCOD8101767
_publ_section_title
;
Structure prediction by ZEFSAII (Michael W. Deem and Ramdas Pophale) SiO2 
 PCOD8101767
Probable space group: C 2/M
;
_chemical_formula_sum "Si O2"
_cell_formula_units_Z 48
_cell_length_a 14.922908
_cell_length_b 8.662818
_cell_length_c 18.359530
_cell_angle_alpha 90.000000
_cell_angle_beta 88.028051
_cell_angle_gamma 90.000000
_cell_volume 2372.012333
_symmetry_space_group_name_H-M "C 2/M"
_symmetry_group_IT_number 12
_symmetry_cell_setting 'monoclinic'
loop_
_space_group_symop_operation_xyz
x,y,z
-x,y,-z
-x,-y,-z
x,-y,z
1/2+x,1/2+y,z
1/2-x,1/2+y,-z
1/2-x,1/2-y,-z
1/2+x,1/2-y,z
loop_
_atom_site_type_symbol
_atom_site_label
_atom_site_fract_x
_atom_site_fract_y
_atom_site_fract_z
Si Si1 0.634902 0.678291 0.071916
Si Si2 0.318225 0.321386 0.093864
Si Si3 0.856935 0.178698 0.430522
Si Si4 0.512948 0.320468 0.317489
Si Si5 0.652310 0.821929 0.417211
Si Si6 0.479869 0.179292 0.166007
O O1 0.614138 0.500000 0.088600
O O2 0.728026 0.723614 0.107845
O O3 0.554957 0.780451 0.104870
O O4 0.639436 0.713243 0.986088
O O5 0.293332 0.500000 0.103409
O O6 0.388925 0.273081 0.153194
O O7 0.757423 0.213808 0.404507
O O8 0.879567 0.279283 0.500725
O O9 0.925303 0.227289 0.365640
O O10 0.867945 0.000000 0.452071
O O11 0.512059 0.500000 0.297207
O O12 0.601880 0.283126 0.360347
O O13 0.515617 0.221395 0.244456
O O14 0.629810 0.000000 0.403267
O O15 0.457768 0.000000 0.161488
#
# Coordination Sequence:
#
# PCOD8101767 Si02
#       6
#     8   8   8   8   8   8
#     4  10  21  39  63  89 116 150 193 238 287 343
#     4  10  21  39  63  89 117 150 191 239 288 341
#     4   9  20  38  59  82 110 147 186 227 280 339
#     4  11  23  39  57  79 113 153 191 232 284 344
#     4  10  20  36  59  86 113 142 184 235 283 336
#     4  12  25  39  57  84 119 156 195 239 290 346
#
# _framework density 20.235982
#
# number of rings (size 3 to 8) (size 9 to 14) (size 15 to 20)
#    0.000    1.667    0.000    4.500    0.000    9.333 
#    0.000    5.000    0.000    0.000    0.000    0.000 
#    0.000    0.000    0.000    0.000    0.000    0.000 
#
# Total GULP energy -297783.568066 kJ/mol
# GULP energy per Si atom -12407.648669 kJ/mol
# Density = 2.018992 g / cm^3
# Si number density = 20.235982 Si / 1000 Ang^3
#
#
#
# Elastic Constant Matrix: (Units=GPa)
#
#
# Indices 1 2 3 4 5 6 
#
# 1 74.5019 20.0931 25.3491 0.0000 17.8374 0.0000
# 2 20.0931 62.7519 26.8194 0.0000 0.3308 0.0000
# 3 25.3491 26.8194 47.6528 0.0000 15.0175 0.0000
# 4 0.0000 0.0000 0.0000 33.7121 0.0000 2.3583
# 5 17.8374 0.3308 15.0175 0.0000 19.5400 0.0000
# 6 0.0000 0.0000 0.0000 2.3583 0.0000 36.9926
#
#
#
# Elastic Compliance Matrix: (Units=1/GPa)
#
#
# Indices 1 2 3 4 5 6 
#
# 1 0.019399 -0.005042 -0.002544 0.000000 -0.015668 0.000000
# 2 -0.005042 0.024456 -0.016366 0.000000 0.016767 0.000000
# 3 -0.002544 -0.016366 0.040552 0.000000 -0.028567 0.000000
# 4 0.000000 0.000000 0.000000 0.029796 0.000000 -0.001899
# 5 -0.015668 0.016767 -0.028567 0.000000 0.087151 0.000000
# 6 0.000000 0.000000 0.000000 -0.001899 0.000000 0.027154
#
#
# Mechanical properties :
#
#
# Convention : Reuss Voigt Hill
#
# Bulk Modulus (GPa) = 27.39462 36.60330 31.99896
# Shear Modulus (GPa) = 17.32619 25.55861 21.44240
#
# Velocity S-wave (km/s) = 2.92928 3.55777 3.25871
# Velocity P-wave (km/s) = 5.00078 5.91645 5.47779
#
# Compressibility (1/GPa) = 0.03650352
#
# Stress axis : x y z
#
# Youngs Moduli (GPa) = 51.54862 40.88903 24.65953
#
# Poissons Ratio (x) = 0.20615 0.06274
# Poissons Ratio (y) = 0.25989 0.40358
# Poissons Ratio (z) = 0.13116 0.66920
#
# Static dielectric constant tensor:
#      x y z
#    x 3.779900 0.000000 0.026920 
#    y 0.000000 3.670100 0.000000 
#    z 0.026920 0.000000 3.548930 
# 
# 
# High freq. dielectric constant tensor:
#      x y z
#    x 1.801220 0.000000 0.005210 
#    y 0.000000 1.797530 0.000000 
#    z 0.005210 0.000000 1.781190 
# 
# From -- ./inp_files/267694.got.cif
#   From: 2010.06.25/outbox.cif.g09.slc.cpg/sg12_134_cif.got.tgz:267694.got - 2010.06.28 00:19:55.
