data_PCOD8101657
_publ_section_title
;
Structure prediction by ZEFSAII (Michael W. Deem and Ramdas Pophale) SiO2 
 PCOD8101657
Probable space group: C 2/M
;
_chemical_formula_sum "Si O2"
_cell_formula_units_Z 48
_cell_length_a 31.107588
_cell_length_b 8.802588
_cell_length_c 17.948768
_cell_angle_alpha 90.000000
_cell_angle_beta 29.929715
_cell_angle_gamma 90.000000
_cell_volume 2452.207980
_symmetry_space_group_name_H-M "C 2/M"
_symmetry_group_IT_number 12
_symmetry_cell_setting 'monoclinic'
loop_
_space_group_symop_operation_xyz
x,y,z
-x,y,-z
-x,-y,-z
x,-y,z
1/2+x,1/2+y,z
1/2-x,1/2+y,-z
1/2-x,1/2-y,-z
1/2+x,1/2-y,z
loop_
_atom_site_type_symbol
_atom_site_label
_atom_site_fract_x
_atom_site_fract_y
_atom_site_fract_z
Si Si1 0.751440 0.320790 0.417078
Si Si2 0.409936 0.675927 0.098430
Si Si3 0.248151 0.320387 0.921594
Si Si4 0.415840 0.319538 0.416637
Si Si5 0.089346 0.177316 0.077033
Si Si6 0.916485 0.180948 0.582860
O O1 0.745964 0.500000 0.433412
O O2 0.750000 0.250000 0.500000
O O3 0.836897 0.277903 0.244530
O O4 0.669004 0.255916 0.496496
O O5 0.389367 0.500000 0.145165
O O6 0.413712 0.711789 0.005609
O O7 0.500000 0.722807 0.000000
O O8 0.250109 0.500000 0.926536
O O9 0.164666 0.271954 0.001522
O O10 0.331437 0.259771 0.752150
O O11 0.250000 0.250000 0.000000
O O12 0.412860 0.500000 0.423157
O O13 0.417710 0.253157 0.497387
O O14 0.499904 0.264054 0.246125
O O15 0.104052 0.000000 0.071719
O O16 0.000000 0.245160 0.500000
O O17 0.918271 0.000000 0.578654
#
# Coordination Sequence:
#
# PCOD8101657 Si02
#       6
#     8   8   8   8   8   8
#     4  11  22  37  58  83 113 149 192 239 285 336
#     4  10  21  38  59  84 116 153 191 232 284 346
#     4  11  22  36  56  82 112 145 184 231 281 334
#     4   9  18  34  56  81 108 142 183 226 276 335
#     4  10  20  36  59  83 110 145 184 228 280 337
#     4   9  17  31  54  80 103 133 177 222 263 318
#
# _framework density 19.574196000000001
#
# number of rings (size 3 to 8) (size 9 to 14) (size 15 to 20)
#    0.000    2.000    0.000    4.000    0.000    7.667 
#    0.000    3.333    0.000   11.000    0.000    0.000 
#    0.000    0.000    0.000    0.000    0.000    0.000 
#
# Total GULP energy -297683.177016 kJ/mol
# GULP energy per Si atom -12403.465709 kJ/mol
# Density = 1.952964 g / cm^3
# Si number density = 19.574196 Si / 1000 Ang^3
#
#
#
# Elastic Constant Matrix: (Units=GPa)
#
#
# Indices 1 2 3 4 5 6 
#
# 1 190.9384 37.3482 95.6830 -0.0016 -3.5091 0.0007
# 2 37.3482 43.6262 38.1562 -0.0032 0.5095 0.0036
# 3 95.6830 38.1562 181.1961 -0.0067 0.5384 0.0035
# 4 -0.0016 -0.0032 -0.0067 31.7018 0.0037 -1.1352
# 5 -3.5091 0.5095 0.5384 0.0037 45.8796 -0.0015
# 6 0.0007 0.0036 0.0035 -1.1352 -0.0015 30.4696
#
#
#
# Elastic Compliance Matrix: (Units=1/GPa)
#
#
# Indices 1 2 3 4 5 6 
#
# 1 0.007590 -0.003675 -0.003236 -0.000001 0.000659 0.000001
# 2 -0.003675 0.029879 -0.004350 0.000002 -0.000562 -0.000003
# 3 -0.003236 -0.004350 0.008144 0.000001 -0.000295 0.000000
# 4 -0.000001 0.000002 0.000001 0.031586 -0.000003 0.001177
# 5 0.000659 -0.000562 -0.000295 -0.000003 0.021856 0.000001
# 6 0.000001 -0.000003 0.000000 0.001177 0.000001 0.032863
#
#
# Mechanical properties :
#
#
# Convention : Reuss Voigt Hill
#
# Bulk Modulus (GPa) = 43.30487 84.23729 63.77108
# Shear Modulus (GPa) = 30.83793 37.91509 34.37651
#
# Velocity S-wave (km/s) = 3.97348 4.40590 4.19527
# Velocity P-wave (km/s) = 6.57441 8.30728 7.49112
#
# Compressibility (1/GPa) = 0.02309209
#
# Stress axis : x y z
#
# Youngs Moduli (GPa) = 131.75404 33.46825 122.78229
#
# Poissons Ratio (x) = 0.12300 0.39732
# Poissons Ratio (y) = 0.48421 0.53405
# Poissons Ratio (z) = 0.42636 0.14557
#
# Static dielectric constant tensor:
#      x y z
#    x 3.594230 0.000030 -1.013220 
#    y 0.000030 3.214690 0.000180 
#    z -1.013220 0.000180 -1.004440 
# 
# 
# High freq. dielectric constant tensor:
#      x y z
#    x 1.785470 0.000000 0.000920 
#    y 0.000000 1.726060 0.000000 
#    z 0.000920 0.000000 1.782340 
# 
# From -- ./inp_files/274579.got.cif
#   From: 2010.06.25/outbox.cif.g09.slc.cpg/sg12_138_cif.got.tgz:274579.got - 2010.06.28 00:19:55.
