data_PCOD8101085
_publ_section_title
;
Structure prediction by ZEFSAII (Michael W. Deem and Ramdas Pophale) SiO2 
 PCOD8101085
Probable space group: C 2/M
;
_chemical_formula_sum "Si O2"
_cell_formula_units_Z 64
_cell_length_a 19.809300
_cell_length_b 9.321745
_cell_length_c 23.825474
_cell_angle_alpha 90.000000
_cell_angle_beta 128.851910
_cell_angle_gamma 90.000000
_cell_volume 3426.234453
_symmetry_space_group_name_H-M "C 2/M"
_symmetry_group_IT_number 12
_symmetry_cell_setting 'monoclinic'
loop_
_space_group_symop_operation_xyz
x,y,z
-x,y,-z
-x,-y,-z
x,-y,z
1/2+x,1/2+y,z
1/2-x,1/2+y,-z
1/2-x,1/2-y,-z
1/2+x,1/2-y,z
loop_
_atom_site_type_symbol
_atom_site_label
_atom_site_fract_x
_atom_site_fract_y
_atom_site_fract_z
Si Si1 0.875668 0.834614 0.149635
Si Si2 0.312747 0.834568 0.677719
Si Si3 0.860668 0.330300 0.428489
Si Si4 0.566151 0.666357 0.943274
Si Si5 0.187489 0.664285 0.087521
Si Si6 0.891381 0.335809 0.835900
Si Si7 0.497834 0.830179 0.410851
Si Si8 0.987590 0.332985 0.706753
O O1 0.879317 0.810952 0.084936
O O2 0.782852 0.778016 0.122326
O O3 0.950921 0.745089 0.217514
O O4 0.889287 0.000000 0.173052
O O5 0.231744 0.743167 0.615338
O O6 0.342753 0.782651 0.754803
O O7 0.388583 0.806942 0.672563
O O8 0.285177 0.000000 0.665156
O O9 0.847412 0.500000 0.423604
O O10 0.909488 0.284297 0.396380
O O11 0.918517 0.275393 0.511000
O O12 0.554263 0.500000 0.951531
O O13 0.472370 0.735054 0.888870
O O14 0.615811 0.740272 0.020069
O O15 0.176165 0.500000 0.061430
O O16 0.175834 0.677908 0.148101
O O17 0.923781 0.500000 0.845461
O O18 0.498574 0.767283 0.348263
O O19 0.503856 0.000000 0.411602
O O20 0.011498 0.500000 0.721338
#
# Coordination Sequence:
#
# PCOD8101085 Si02
#       8
#     8   8   8   8   8   8   8   8
#     4  10  22  38  55  80 109 139 177 224 271 316
#     4  10  21  35  53  80 111 142 180 221 262 313
#     4   9  18  35  58  81 110 143 177 218 264 315
#     4  11  22  37  57  81 109 136 175 228 271 314
#     4  10  22  38  57  78 105 143 182 217 267 328
#     4  10  21  38  56  77 108 147 180 214 267 324
#     4   8  17  35  57  82 109 142 180 217 262 314
#     4  10  20  36  57  78 106 145 183 219 261 316
#
# _framework density 18.679400000000001
#
# number of rings (size 3 to 8) (size 9 to 14) (size 15 to 20)
#    0.000    2.250    1.250    1.875    1.750    4.500 
#    0.000    1.875    0.000    0.000    0.000    0.000 
#    0.000    0.000    0.000    0.000    0.000    0.000 
#
# Total GULP energy -396877.736085 kJ/mol
# GULP energy per Si atom -12402.429253 kJ/mol
# Density = 1.863688 g / cm^3
# Si number density = 18.679400 Si / 1000 Ang^3
#
#
#
# Elastic Constant Matrix: (Units=GPa)
#
#
# Indices 1 2 3 4 5 6 
#
# 1 53.7949 13.9986 -2.5417 0.0000 0.5707 0.0000
# 2 13.9986 47.9812 19.2540 0.0000 8.0431 0.0000
# 3 -2.5417 19.2540 52.6355 0.0000 -0.8805 0.0000
# 4 0.0000 0.0000 0.0000 27.4086 0.0000 2.7864
# 5 0.5707 8.0431 -0.8805 0.0000 38.4415 0.0000
# 6 0.0000 0.0000 0.0000 2.7864 0.0000 18.8989
#
#
#
# Elastic Compliance Matrix: (Units=1/GPa)
#
#
# Indices 1 2 3 4 5 6 
#
# 1 0.020809 -0.007880 0.003911 0.000000 0.001429 0.000000
# 2 -0.007880 0.028549 -0.010926 0.000000 -0.006106 0.000000
# 3 0.003911 -0.010926 0.023230 0.000000 0.002760 0.000000
# 4 0.000000 0.000000 0.000000 0.037040 0.000000 -0.005461
# 5 0.001429 -0.006106 0.002760 0.000000 0.027333 0.000000
# 6 0.000000 0.000000 0.000000 -0.005461 0.000000 0.053718
#
#
# Mechanical properties :
#
#
# Convention : Reuss Voigt Hill
#
# Bulk Modulus (GPa) = 23.36514 23.98151 23.67333
# Shear Modulus (GPa) = 21.30058 25.19651 23.24854
#
# Velocity S-wave (km/s) = 3.38053 3.67671 3.53173
# Velocity P-wave (km/s) = 5.27001 5.55793 5.41589
#
# Compressibility (1/GPa) = 0.04279879
#
# Stress axis : x y z
#
# Youngs Moduli (GPa) = 48.05520 35.02805 43.04732
#
# Poissons Ratio (x) = 0.27603 -0.16838
# Poissons Ratio (y) = 0.37869 0.47032
# Poissons Ratio (z) = -0.18796 0.38271
#
# Static dielectric constant tensor:
#      x y z
#    x 3.647700 0.000000 -0.206650 
#    y 0.000000 3.262090 0.000000 
#    z -0.206650 0.000000 3.511170 
# 
# 
# High freq. dielectric constant tensor:
#      x y z
#    x 1.738480 0.000000 -0.006150 
#    y 0.000000 1.706570 0.000000 
#    z -0.006150 0.000000 1.726540 
# 
# From -- ./inp_files/346114.got.cif
#   From: 2010.06.25/outbox.cif.g09.slc.cpg/sg12_174_cif.got.tgz:346114.got - 2010.06.28 00:19:55.
