data_PCOD8101182
_publ_section_title
;
Structure prediction by ZEFSAII (Michael W. Deem and Ramdas Pophale) SiO2 
 PCOD8101182
Probable space group: C 2/M
;
_chemical_formula_sum "Si O2"
_cell_formula_units_Z 64
_cell_length_a 12.646723
_cell_length_b 13.072674
_cell_length_c 22.029923
_cell_angle_alpha 90.000000
_cell_angle_beta 115.207532
_cell_angle_gamma 90.000000
_cell_volume 3295.293665
_symmetry_space_group_name_H-M "C 2/M"
_symmetry_group_IT_number 12
_symmetry_cell_setting 'monoclinic'
loop_
_space_group_symop_operation_xyz
x,y,z
-x,y,-z
-x,-y,-z
x,-y,z
1/2+x,1/2+y,z
1/2-x,1/2+y,-z
1/2-x,1/2-y,-z
1/2+x,1/2-y,z
loop_
_atom_site_type_symbol
_atom_site_label
_atom_site_fract_x
_atom_site_fract_y
_atom_site_fract_z
Si Si1 0.263163 0.882444 0.440854
Si Si2 0.568979 0.278395 0.462382
Si Si3 0.711021 0.616205 0.292284
Si Si4 0.677728 0.734809 0.893917
Si Si5 0.724478 0.382132 0.785522
Si Si6 0.434565 0.781674 0.311091
Si Si7 0.943152 0.293887 0.778073
Si Si8 0.371271 0.621058 0.994710
O O1 0.371311 0.818675 0.491292
O O2 0.155450 0.864622 0.459494
O O3 0.222376 0.845901 0.364436
O O4 0.300764 0.000000 0.449268
O O5 0.500000 0.333981 0.500000
O O6 0.489359 0.232865 0.390130
O O7 0.670773 0.500000 0.277792
O O8 0.834872 0.631927 0.289655
O O9 0.611989 0.680282 0.233553
O O10 0.731675 0.664284 0.854542
O O11 0.562086 0.795674 0.845317
O O12 0.774605 0.820332 0.931476
O O13 0.641805 0.661694 0.940292
O O14 0.689385 0.500000 0.780620
O O15 0.622344 0.326139 0.723049
O O16 0.850137 0.372941 0.783051
O O17 0.529307 0.821638 0.285466
O O18 0.346241 0.500000 0.986498
O O19 0.500000 0.645971 0.000000
#
# Coordination Sequence:
#
# PCOD8101182 Si02
#       8
#     8   8   8   8   8   8   8   8
#     4  10  22  36  55  81 106 142 189 234 288 353
#     4  11  21  37  58  77 114 148 183 242 296 351
#     4  10  20  36  57  82 108 141 189 237 286 344
#     4  10  21  39  60  90 123 157 195 233 282 335
#     4  10  22  38  59  84 115 153 194 238 284 342
#     4  10  21  37  55  83 111 148 190 238 297 344
#     4  10  21  38  58  82 117 151 189 236 287 336
#     4  10  21  38  63  92 124 158 195 236 277 328
#
# _framework density 19.421638000000002
#
# number of rings (size 3 to 8) (size 9 to 14) (size 15 to 20)
#    0.000    1.875    2.500    1.125    0.000    5.000 
#    0.000    8.750    0.000    4.125    0.000    0.000 
#    0.000    0.000    0.000    0.000    0.000    0.000 
#
# Total GULP energy -396815.430461 kJ/mol
# GULP energy per Si atom -12400.482202 kJ/mol
# Density = 1.937743 g / cm^3
# Si number density = 19.421638 Si / 1000 Ang^3
#
#
#
# Elastic Constant Matrix: (Units=GPa)
#
#
# Indices 1 2 3 4 5 6 
#
# 1 101.0586 21.2797 28.4721 0.0000 -17.2941 0.0000
# 2 21.2797 75.8987 28.7358 0.0000 3.4716 0.0000
# 3 28.4721 28.7358 95.1440 0.0000 1.8246 0.0000
# 4 0.0000 0.0000 0.0000 6.5597 0.0000 -3.0232
# 5 -17.2941 3.4716 1.8246 0.0000 36.3731 0.0000
# 6 0.0000 0.0000 0.0000 -3.0232 0.0000 16.5521
#
#
#
# Elastic Compliance Matrix: (Units=1/GPa)
#
#
# Indices 1 2 3 4 5 6 
#
# 1 0.012375 -0.002608 -0.003036 0.000000 0.006285 0.000000
# 2 -0.002608 0.015478 -0.003846 0.000000 -0.002524 0.000000
# 3 -0.003036 -0.003846 0.012613 0.000000 -0.001709 0.000000
# 4 0.000000 0.000000 0.000000 0.166458 0.000000 0.030403
# 5 0.006285 -0.002524 -0.001709 0.000000 0.030808 0.000000
# 6 0.000000 0.000000 0.000000 0.030403 0.000000 0.065968
#
#
# Mechanical properties :
#
#
# Convention : Reuss Voigt Hill
#
# Bulk Modulus (GPa) = 46.53987 47.67520 47.10753
# Shear Modulus (GPa) = 15.15871 24.80456 19.98164
#
# Velocity S-wave (km/s) = 2.79678 3.57762 3.21102
# Velocity P-wave (km/s) = 5.86892 6.45496 6.16891
#
# Compressibility (1/GPa) = 0.02148695
#
# Stress axis : x y z
#
# Youngs Moduli (GPa) = 80.80558 64.60722 79.28076
#
# Poissons Ratio (x) = 0.16847 0.24072
# Poissons Ratio (y) = 0.21071 0.30492
# Poissons Ratio (z) = 0.24535 0.24848
#
# Static dielectric constant tensor:
#      x y z
#    x 3.919070 0.000000 -0.203140 
#    y 0.000000 3.237870 0.000000 
#    z -0.203140 0.000000 3.649060 
# 
# 
# High freq. dielectric constant tensor:
#      x y z
#    x 1.776790 0.000000 -0.007410 
#    y 0.000000 1.736900 0.000000 
#    z -0.007410 0.000000 1.762980 
# 
# From -- ./inp_files/305460.got.cif
#   From: 2010.06.25/outbox.cif.g09.slc.cpg/sg12_153_cif.got.tgz:305460.got - 2010.06.28 00:19:55.
