data_PCOD8101526
_publ_section_title
;
Structure prediction by ZEFSAII (Michael W. Deem and Ramdas Pophale) SiO2 
 PCOD8101526
Probable space group: C 2/M
;
_chemical_formula_sum "Si O2"
_cell_formula_units_Z 56
_cell_length_a 28.785701
_cell_length_b 8.696812
_cell_length_c 13.210238
_cell_angle_alpha 90.000000
_cell_angle_beta 122.682390
_cell_angle_gamma 90.000000
_cell_volume 2783.510626
_symmetry_space_group_name_H-M "C 2/M"
_symmetry_group_IT_number 12
_symmetry_cell_setting 'monoclinic'
loop_
_space_group_symop_operation_xyz
x,y,z
-x,y,-z
-x,-y,-z
x,-y,z
1/2+x,1/2+y,z
1/2-x,1/2+y,-z
1/2-x,1/2-y,-z
1/2+x,1/2-y,z
loop_
_atom_site_type_symbol
_atom_site_label
_atom_site_fract_x
_atom_site_fract_y
_atom_site_fract_z
Si Si1 0.448206 0.182019 0.002824
Si Si2 0.343827 0.317695 0.567336
Si Si3 0.376250 0.176711 0.294559
Si Si4 0.942714 0.680349 0.573911
Si Si5 0.775017 0.680879 0.306403
Si Si6 0.833872 0.317295 0.771960
Si Si7 0.051329 0.820675 0.775942
O O1 0.451418 0.239806 0.120049
O O2 0.450106 0.000000 0.007136
O O3 0.500000 0.247591 0.000000
O O4 0.391840 0.240615 0.885248
O O5 0.347880 0.500000 0.572374
O O6 0.403978 0.246571 0.616714
O O7 0.299748 0.263987 0.433296
O O8 0.323623 0.256814 0.651056
O O9 0.416346 0.217522 0.434764
O O10 0.313410 0.212818 0.253649
O O11 0.392036 0.279535 0.216278
O O12 0.383333 0.000000 0.271521
O O13 0.949855 0.500000 0.600584
O O14 0.001679 0.761416 0.647353
O O15 0.772259 0.500000 0.325841
O O16 0.714884 0.752348 0.213232
O O17 0.830975 0.500000 0.761815
O O18 0.047297 0.000000 0.788752
#
# Coordination Sequence:
#
# PCOD8101526 Si02
#       7
#     8   8   8   8   8   8   8
#     4  10  23  43  64  83 109 149 192 233 279 337
#     4  11  21  34  56  87 121 152 187 235 286 339
#     4   9  20  38  59  82 112 152 192 231 279 338
#     4  10  20  36  58  84 117 155 192 231 281 340
#     4  10  21  38  59  84 116 153 191 234 284 337
#     4  11  22  37  59  85 113 150 194 238 286 339
#     4  12  24  36  57  87 117 149 187 236 287 337
#
# _framework density 20.118479000000001
#
# number of rings (size 3 to 8) (size 9 to 14) (size 15 to 20)
#    0.000    1.571    0.000    6.429    0.000    7.714 
#    0.000    0.714    0.000    0.000    0.000    0.000 
#    0.000    0.000    0.000    0.000    0.000    0.000 
#
# Total GULP energy -347319.828766 kJ/mol
# GULP energy per Si atom -12404.279599 kJ/mol
# Density = 2.007269 g / cm^3
# Si number density = 20.118479 Si / 1000 Ang^3
#
#
#
# Elastic Constant Matrix: (Units=GPa)
#
#
# Indices 1 2 3 4 5 6 
#
# 1 -665.5291-2435.3418 -545.3182 0.0000 145.6736 0.0000
# 2 -2435.3418-7367.2945-1772.7956 0.0000 439.9301 0.0000
# 3 -545.3182-1772.7956 -366.1772 0.0000 106.6806 0.0000
# 4 0.0000 0.0000 0.0000 17.3386 0.0000 5.6165
# 5 145.6736 439.9301 106.6806 0.0000 8.7144 0.0000
# 6 0.0000 0.0000 0.0000 5.6165 0.0000 34.0110
#
#
#
# Elastic Compliance Matrix: (Units=1/GPa)
#
#
# Indices 1 2 3 4 5 6 
#
# 1 0.008922 -0.001498 -0.006012 0.000000 0.000077 0.000000
# 2 -0.001498 0.001188 -0.002998 0.000000 0.001788 0.000000
# 3 -0.006012 -0.002998 0.020609 0.000000 -0.000440 0.000000
# 4 0.000000 0.000000 0.000000 0.060934 0.000000 -0.010063
# 5 0.000077 0.001788 -0.000440 0.000000 0.028594 0.000000
# 6 0.000000 0.000000 0.000000 -0.010063 0.000000 0.031064
#
#
# Mechanical properties :
#
#
# Convention : Reuss Voigt Hill
#
# Bulk Modulus (GPa) = 103.06272 -1989.54578 -943.24153
# Shear Modulus (GPa) = 28.47986 -231.02355 -101.27184
#
# Velocity S-wave (km/s) = 3.76654 -10.72757 -7.10261
# Velocity P-wave (km/s) = 8.38182 33.83050 23.17593
#
# Compressibility (1/GPa) = 0.00970283
#
# Stress axis : x y z
#
# Youngs Moduli (GPa) = 112.07867 841.96943 48.52144
#
# Poissons Ratio (x) = 1.26134 0.29171
# Poissons Ratio (y) = 0.16790 0.14548
# Poissons Ratio (z) = 0.67382 2.52440
#
# Static dielectric constant tensor:
#      x y z
#    x 4.052720 0.000000 0.069000 
#    y 0.000000 3.624150 0.000000 
#    z 0.069000 0.000000 3.416640 
# 
# 
# High freq. dielectric constant tensor:
#      x y z
#    x 1.806520 0.000000 -0.003390 
#    y 0.000000 1.787990 0.000000 
#    z -0.003390 0.000000 1.760510 
# 
# From -- ./inp_files/181109.got.cif
#   From: 2010.06.25/outbox.cif.g09.slc.cpg/sg12_91_cif.got.tgz:181109.got - 2010.06.28 00:19:55.
