data_PCOD8101242
_publ_section_title
;
Structure prediction by ZEFSAII (Michael W. Deem and Ramdas Pophale) SiO2 
 PCOD8101242
Probable space group: C 2/M
;
_chemical_formula_sum "Si O2"
_cell_formula_units_Z 56
_cell_length_a 28.860597
_cell_length_b 8.989278
_cell_length_c 12.392819
_cell_angle_alpha 90.000000
_cell_angle_beta 60.693661
_cell_angle_gamma 90.000000
_cell_volume 2803.652901
_symmetry_space_group_name_H-M "C 2/M"
_symmetry_group_IT_number 12
_symmetry_cell_setting 'monoclinic'
loop_
_space_group_symop_operation_xyz
x,y,z
-x,y,-z
-x,-y,-z
x,-y,z
1/2+x,1/2+y,z
1/2-x,1/2+y,-z
1/2-x,1/2-y,-z
1/2+x,1/2-y,z
loop_
_atom_site_type_symbol
_atom_site_label
_atom_site_fract_x
_atom_site_fract_y
_atom_site_fract_z
Si Si1 0.351484 0.323662 0.556650
Si Si2 0.057369 0.171724 0.384257
Si Si3 0.742057 0.330498 0.714017
Si Si4 0.938896 0.829852 0.040213
Si Si5 0.644348 0.676567 0.689438
Si Si6 0.593568 0.824304 0.138058
Si Si7 0.702574 0.330130 0.996065
O O1 0.349718 0.500000 0.555556
O O2 0.397848 0.268358 0.583562
O O3 0.294593 0.267798 0.662678
O O4 0.363284 0.260444 0.422850
O O5 0.056365 0.269704 0.277612
O O6 0.000000 0.192967 0.500000
O O7 0.068131 0.000000 0.342374
O O8 0.759533 0.500000 0.672212
O O9 0.702150 0.270339 0.666849
O O10 0.708116 0.318409 0.861639
O O11 0.903435 0.766339 0.179555
O O12 0.922319 0.000000 0.031443
O O13 0.930663 0.727315 0.946781
O O14 0.000000 0.820421 0.000000
O O15 0.642719 0.500000 0.690956
O O16 0.598542 0.000000 0.133157
O O17 0.650424 0.752675 0.094748
O O18 0.699866 0.500000 0.038149
O O19 0.750000 0.250000 0.000000
#
# Coordination Sequence:
#
# PCOD8101242 Si02
#       7
#     8   8   8   8   8   8   8
#     4  10  21  36  59  89 120 152 197 251 299 362
#     4  10  23  42  65  90 117 156 209 261 305 360
#     4  10  20  36  57  83 120 157 194 241 299 365
#     4  10  21  39  68  94 118 158 206 258 312 367
#     4   9  18  36  59  89 120 150 193 246 303 360
#     4  12  25  41  62  90 128 165 202 252 311 373
#     4  11  22  38  61  89 122 162 209 256 308 365
#
# _framework density 19.973941
#
# number of rings (size 3 to 8) (size 9 to 14) (size 15 to 20)
#    0.000    1.714    1.429    3.000    2.000    4.571 
#    0.000    0.714    0.000    0.000    0.000    0.000 
#    0.000    0.000    0.000    0.000    0.000    0.000 
#
# Total GULP energy -347286.779770 kJ/mol
# GULP energy per Si atom -12403.099277 kJ/mol
# Density = 1.992848 g / cm^3
# Si number density = 19.973941 Si / 1000 Ang^3
#
#
#
# Elastic Constant Matrix: (Units=GPa)
#
#
# Indices 1 2 3 4 5 6 
#
# 1 78.6980 27.4806 27.1665 0.0000 -11.8677 0.0000
# 2 27.4806 87.5768 42.0914 0.0000 0.7802 0.0000
# 3 27.1665 42.0914 98.9466 0.0000 -2.9893 0.0000
# 4 0.0000 0.0000 0.0000 19.2399 0.0000 -4.8689
# 5 -11.8677 0.7802 -2.9893 0.0000 29.8547 0.0000
# 6 0.0000 0.0000 0.0000 -4.8689 0.0000 26.5479
#
#
#
# Elastic Compliance Matrix: (Units=1/GPa)
#
#
# Indices 1 2 3 4 5 6 
#
# 1 0.015839 -0.003801 -0.002546 0.000000 0.006141 0.000000
# 2 -0.003801 0.015294 -0.005537 0.000000 -0.002465 0.000000
# 3 -0.002546 -0.005537 0.013175 0.000000 0.000452 0.000000
# 4 0.000000 0.000000 0.000000 0.054505 0.000000 0.009996
# 5 0.006141 -0.002465 0.000452 0.000000 0.036046 0.000000
# 6 0.000000 0.000000 0.000000 0.009996 0.000000 0.039501
#
#
# Mechanical properties :
#
#
# Convention : Reuss Voigt Hill
#
# Bulk Modulus (GPa) = 48.68680 50.96649 49.82664
# Shear Modulus (GPa) = 24.39313 26.36068 25.37691
#
# Velocity S-wave (km/s) = 3.49843 3.63678 3.56828
# Velocity P-wave (km/s) = 6.38332 6.57319 6.47895
#
# Compressibility (1/GPa) = 0.02053945
#
# Stress axis : x y z
#
# Youngs Moduli (GPa) = 63.13501 65.38308 75.90332
#
# Poissons Ratio (x) = 0.24852 0.19327
# Poissons Ratio (y) = 0.23998 0.42028
# Poissons Ratio (z) = 0.16076 0.36203
#
# Static dielectric constant tensor:
#      x y z
#    x 3.648290 0.000000 0.289590 
#    y 0.000000 3.445620 0.000000 
#    z 0.289590 0.000000 3.515370 
# 
# 
# High freq. dielectric constant tensor:
#      x y z
#    x 1.791080 0.000000 0.001950 
#    y 0.000000 1.752540 0.000000 
#    z 0.001950 0.000000 1.792940 
# 
# From -- ./inp_files/181051.got.cif
#   From: 2010.06.25/outbox.cif.g09.slc.cpg/sg12_91_cif.got.tgz:181051.got - 2010.06.28 00:19:55.
