data_PCOD8101842
_publ_section_title
;
Structure prediction by ZEFSAII (Michael W. Deem and Ramdas Pophale) SiO2 
 PCOD8101842
Probable space group: C 2/M
;
_chemical_formula_sum "Si O2"
_cell_formula_units_Z 56
_cell_length_a 31.878932
_cell_length_b 8.789515
_cell_length_c 20.169023
_cell_angle_alpha 90.000000
_cell_angle_beta 150.116474
_cell_angle_gamma 90.000000
_cell_volume 2815.728576
_symmetry_space_group_name_H-M "C 2/M"
_symmetry_group_IT_number 12
_symmetry_cell_setting 'monoclinic'
loop_
_space_group_symop_operation_xyz
x,y,z
-x,y,-z
-x,-y,-z
x,-y,z
1/2+x,1/2+y,z
1/2-x,1/2+y,-z
1/2-x,1/2-y,-z
1/2+x,1/2-y,z
loop_
_atom_site_type_symbol
_atom_site_label
_atom_site_fract_x
_atom_site_fract_y
_atom_site_fract_z
Si Si1 0.271122 0.173837 0.714514
Si Si2 0.203923 0.820591 0.874351
Si Si3 0.581019 0.324147 0.428908
Si Si4 0.001028 0.179429 0.819542
Si Si5 0.191476 0.821440 0.098126
Si Si6 0.567185 0.177298 0.145026
Si Si7 0.026572 0.677873 0.610147
O O1 0.180664 0.198101 0.557332
O O2 0.281903 0.286406 0.790694
O O3 0.339294 0.214738 0.752026
O O4 0.283443 0.000000 0.756054
O O5 0.245704 0.766109 0.863834
O O6 0.107123 0.772391 0.743382
O O7 0.210017 0.000000 0.888124
O O8 0.250000 0.750000 0.000000
O O9 0.557960 0.500000 0.410958
O O10 0.536980 0.263564 0.301903
O O11 0.550397 0.221674 0.447823
O O12 0.944108 0.243577 0.800167
O O13 0.997689 0.000000 0.820131
O O14 0.096823 0.238020 0.956031
O O15 0.199738 0.000000 0.095578
O O16 0.551241 0.000000 0.133534
O O17 0.500000 0.242780 0.000000
O O18 0.047070 0.500000 0.643153
O O19 0.000000 0.724808 0.500000
#
# Coordination Sequence:
#
# PCOD8101842 Si02
#       7
#     8   8   8   8   8   8   8
#     4  10  21  38  60  86 117 156 200 246 297 357
#     4  12  25  41  63  90 122 159 202 251 306 362
#     4  10  22  40  60  85 119 158 201 246 301 363
#     4  10  22  38  58  85 118 155 194 244 300 356
#     4  11  22  37  59  87 118 153 198 248 300 356
#     4  10  20  36  59  87 119 154 198 245 295 356
#     4  11  24  42  64  91 124 161 205 253 304 364
#
# _framework density 19.888280999999999
#
# number of rings (size 3 to 8) (size 9 to 14) (size 15 to 20)
#    0.000    1.429    1.429    3.857    0.000    7.714 
#    0.000    0.000    0.000    0.000    0.000    0.000 
#    0.000    0.000    0.000    0.000    0.000    0.000 
#
# Total GULP energy -347395.151663 kJ/mol
# GULP energy per Si atom -12406.969702 kJ/mol
# Density = 1.984301 g / cm^3
# Si number density = 19.888281 Si / 1000 Ang^3
#
#
#
# Elastic Constant Matrix: (Units=GPa)
#
#
# Indices 1 2 3 4 5 6 
#
# 1 115.8307 27.6829 37.7515 0.0000 3.5086 0.0000
# 2 27.6829 66.7307 28.0012 0.0000 -0.0187 0.0000
# 3 37.7515 28.0012 112.0297 0.0000 1.9953 0.0000
# 4 0.0000 0.0000 0.0000 26.5955 0.0000 1.7164
# 5 3.5086 -0.0187 1.9953 0.0000 41.0756 0.0000
# 6 0.0000 0.0000 0.0000 1.7164 0.0000 37.9306
#
#
#
# Elastic Compliance Matrix: (Units=1/GPa)
#
#
# Indices 1 2 3 4 5 6 
#
# 1 0.010276 -0.003146 -0.002663 0.000000 -0.000750 0.000000
# 2 -0.003146 0.017706 -0.003373 0.000000 0.000441 0.000000
# 3 -0.002663 -0.003373 0.010672 0.000000 -0.000292 0.000000
# 4 0.000000 0.000000 0.000000 0.037710 0.000000 -0.001706
# 5 -0.000750 0.000441 -0.000292 0.000000 0.024424 0.000000
# 6 0.000000 0.000000 0.000000 -0.001706 0.000000 0.026441
#
#
# Mechanical properties :
#
#
# Convention : Reuss Voigt Hill
#
# Bulk Modulus (GPa) = 49.28609 53.49581 51.39095
# Shear Modulus (GPa) = 32.81772 34.53073 33.67422
#
# Velocity S-wave (km/s) = 4.06655 4.17134 4.11928
# Velocity P-wave (km/s) = 6.84722 7.08213 6.96567
#
# Compressibility (1/GPa) = 0.02028970
#
# Stress axis : x y z
#
# Youngs Moduli (GPa) = 97.31665 56.47745 93.70323
#
# Poissons Ratio (x) = 0.17765 0.24954
# Poissons Ratio (y) = 0.30612 0.31610
# Poissons Ratio (z) = 0.25917 0.19052
#
# Static dielectric constant tensor:
#      x y z
#    x 3.660090 0.000000 0.016980 
#    y 0.000000 3.605470 0.000000 
#    z 0.016980 0.000000 3.738560 
# 
# 
# High freq. dielectric constant tensor:
#      x y z
#    x 1.785630 0.000000 0.004950 
#    y 0.000000 1.771240 0.000000 
#    z 0.004950 0.000000 1.787210 
# 
# From -- ./inp_files/281706.got.cif
#   From: 2010.06.25/outbox.cif.g09.slc.cpg/sg12_141_cif.got.tgz:281706.got - 2010.06.28 00:19:55.
