data_PCOD8101362
_publ_section_title
;
Structure prediction by ZEFSAII (Michael W. Deem and Ramdas Pophale) SiO2 
 PCOD8101362
Probable space group: C 2/M
;
_chemical_formula_sum "Si O2"
_cell_formula_units_Z 64
_cell_length_a 14.630790
_cell_length_b 8.636596
_cell_length_c 29.563987
_cell_angle_alpha 90.000000
_cell_angle_beta 60.101567
_cell_angle_gamma 90.000000
_cell_volume 3238.527492
_symmetry_space_group_name_H-M "C 2/M"
_symmetry_group_IT_number 12
_symmetry_cell_setting 'monoclinic'
loop_
_space_group_symop_operation_xyz
x,y,z
-x,y,-z
-x,-y,-z
x,-y,z
1/2+x,1/2+y,z
1/2-x,1/2+y,-z
1/2-x,1/2-y,-z
1/2+x,1/2-y,z
loop_
_atom_site_type_symbol
_atom_site_label
_atom_site_fract_x
_atom_site_fract_y
_atom_site_fract_z
Si Si1 0.180457 0.681485 0.245539
Si Si2 0.926719 0.179756 0.808863
Si Si3 0.512812 0.815826 0.360283
Si Si4 0.793932 0.682237 0.375545
Si Si5 0.351441 0.180511 0.260871
Si Si6 0.388800 0.179892 0.005948
Si Si7 0.423670 0.816625 0.557658
Si Si8 0.329589 0.821432 0.918877
O O1 0.168368 0.500000 0.239392
O O2 0.167034 0.773758 0.202077
O O3 0.296573 0.719214 0.235337
O O4 0.096019 0.745305 0.302850
O O5 0.892471 0.216732 0.868149
O O6 0.025576 0.282347 0.769415
O O7 0.954506 0.000000 0.798086
O O8 0.397212 0.755435 0.375722
O O9 0.540687 0.747919 0.402685
O O10 0.516789 0.000000 0.359536
O O11 0.782712 0.500000 0.384181
O O12 0.801570 0.728855 0.321137
O O13 0.695044 0.764395 0.423369
O O14 0.335041 0.000000 0.255357
O O15 0.293575 0.276177 0.051299
O O16 0.370154 0.000000 0.021755
O O17 0.500000 0.236222 0.000000
O O18 0.386436 0.209356 0.952786
O O19 0.500000 0.749084 0.500000
O O20 0.429488 0.000000 0.556764
O O21 0.338385 0.000000 0.902618
#
# Coordination Sequence:
#
# PCOD8101362 Si02
#       8
#     8   8   8   8   8   8   8   8
#     4  11  21  38  61  85 115 154 196 245 302 359
#     4  12  25  40  59  87 124 162 203 252 301 355
#     4   9  18  35  57  80 110 147 184 232 292 350
#     4  10  20  36  58  81 109 147 189 235 288 350
#     4  11  22  38  59  87 117 153 199 245 297 360
#     4   9  19  38  64  90 119 158 203 247 296 352
#     4  10  21  37  57  83 114 148 189 238 292 353
#     4  10  21  38  60  88 123 160 199 250 302 352
#
# _framework density 19.762069
#
# number of rings (size 3 to 8) (size 9 to 14) (size 15 to 20)
#    0.000    1.750    2.500    2.250    0.000    3.000 
#    0.000    4.375    0.000    0.000    0.000    0.000 
#    0.000    0.000    0.000    0.000    0.000    0.000 
#
# Total GULP energy -396934.679284 kJ/mol
# GULP energy per Si atom -12404.208728 kJ/mol
# Density = 1.971709 g / cm^3
# Si number density = 19.762069 Si / 1000 Ang^3
#
#
#
# Elastic Constant Matrix: (Units=GPa)
#
#
# Indices 1 2 3 4 5 6 
#
# 1 105.8124 22.7892 13.3390 0.0000 0.5074 0.0000
# 2 22.7892 42.7363 31.4675 0.0000 2.6364 0.0000
# 3 13.3390 31.4675 77.5972 0.0000 4.4757 0.0000
# 4 0.0000 0.0000 0.0000 26.3963 0.0000 -5.9181
# 5 0.5074 2.6364 4.4757 0.0000 25.9236 0.0000
# 6 0.0000 0.0000 0.0000 -5.9181 0.0000 31.4091
#
#
#
# Elastic Compliance Matrix: (Units=1/GPa)
#
#
# Indices 1 2 3 4 5 6 
#
# 1 0.010704 -0.006215 0.000662 0.000000 0.000308 0.000000
# 2 -0.006215 0.036998 -0.013863 0.000000 -0.001248 0.000000
# 3 0.000662 -0.013863 0.018499 0.000000 -0.001797 0.000000
# 4 0.000000 0.000000 0.000000 0.039555 0.000000 0.007453
# 5 0.000308 -0.001248 -0.001797 0.000000 0.039006 0.000000
# 6 0.000000 0.000000 0.000000 0.007453 0.000000 0.033242
#
#
# Mechanical properties :
#
#
# Convention : Reuss Voigt Hill
#
# Bulk Modulus (GPa) = 36.53679 40.14860 38.34269
# Shear Modulus (GPa) = 22.12790 27.31581 24.72186
#
# Velocity S-wave (km/s) = 3.34985 3.72187 3.54075
# Velocity P-wave (km/s) = 5.78709 6.23136 6.01333
#
# Compressibility (1/GPa) = 0.02736967
#
# Stress axis : x y z
#
# Youngs Moduli (GPa) = 93.42122 27.02834 54.05769
#
# Poissons Ratio (x) = 0.16798 -0.03581
# Poissons Ratio (y) = 0.58059 0.74942
# Poissons Ratio (z) = -0.06188 0.37470
#
# Static dielectric constant tensor:
#      x y z
#    x 3.715550 0.000000 0.063790 
#    y 0.000000 3.350070 0.000000 
#    z 0.063790 0.000000 3.602950 
# 
# 
# High freq. dielectric constant tensor:
#      x y z
#    x 1.781080 0.000000 0.001060 
#    y 0.000000 1.756250 0.000000 
#    z 0.001060 0.000000 1.765190 
# 
# From -- ./inp_files/375467.got.cif
#   From: 2010.06.25/outbox.cif.g09.slc.cpg/sg12_188_cif.got.tgz:375467.got - 2010.06.28 00:19:55.
