data_PCOD8101410
_publ_section_title
;
Structure prediction by ZEFSAII (Michael W. Deem and Ramdas Pophale) SiO2 
 PCOD8101410
Probable space group: C 2/M
;
_chemical_formula_sum "Si O2"
_cell_formula_units_Z 56
_cell_length_a 20.365807
_cell_length_b 8.788659
_cell_length_c 22.322271
_cell_angle_alpha 90.000000
_cell_angle_beta 48.198099
_cell_angle_gamma 90.000000
_cell_volume 2978.402560
_symmetry_space_group_name_H-M "C 2/M"
_symmetry_group_IT_number 12
_symmetry_cell_setting 'monoclinic'
loop_
_space_group_symop_operation_xyz
x,y,z
-x,y,-z
-x,-y,-z
x,-y,z
1/2+x,1/2+y,z
1/2-x,1/2+y,-z
1/2-x,1/2-y,-z
1/2+x,1/2-y,z
loop_
_atom_site_type_symbol
_atom_site_label
_atom_site_fract_x
_atom_site_fract_y
_atom_site_fract_z
Si Si1 0.566825 0.322253 0.007894
Si Si2 0.496350 0.319584 0.826900
Si Si3 0.422995 0.178866 0.754398
Si Si4 0.770732 0.822803 0.167687
Si Si5 0.498370 0.680151 0.404273
Si Si6 0.864196 0.820500 0.581879
Si Si7 0.820608 0.320208 0.260860
O O1 0.546434 0.500000 0.023967
O O2 0.547460 0.254033 0.085375
O O3 0.500000 0.248558 0.000000
O O4 0.667173 0.289810 0.927429
O O5 0.495990 0.500000 0.824571
O O6 0.438215 0.256723 0.808488
O O7 0.596167 0.261904 0.760698
O O8 0.326919 0.229822 0.789974
O O9 0.496012 0.235355 0.662626
O O10 0.430282 0.000000 0.758189
O O11 0.807272 0.724836 0.200169
O O12 0.774624 0.000000 0.183447
O O13 0.503481 0.500000 0.390383
O O14 0.577721 0.741664 0.398028
O O15 0.406412 0.728228 0.492439
O O16 0.764024 0.763585 0.649104
O O17 0.869454 0.000000 0.583896
O O18 0.833525 0.500000 0.257456
#
# Coordination Sequence:
#
# PCOD8101410 Si02
#       7
#     8   8   8   8   8   8   8
#     4   9  17  34  59  82 106 141 188 230 267 324
#     4  11  23  39  59  79 108 152 191 224 276 337
#     4  11  23  37  54  83 119 147 180 232 282 323
#     4  10  20  36  58  82 111 148 185 225 273 327
#     4   9  16  33  57  81 110 147 186 220 269 331
#     4   8  16  30  55  85 111 141 182 229 269 320
#     4  11  20  34  57  87 115 141 181 231 278 323
#
# _framework density 18.802026000000001
#
# number of rings (size 3 to 8) (size 9 to 14) (size 15 to 20)
#    0.000    2.143    2.857    2.143    0.000    1.143 
#    0.000    5.714    0.000    0.000    0.000    0.000 
#    0.000    0.000    0.000    0.000    0.000    0.000 
#
# Total GULP energy -347172.073228 kJ/mol
# GULP energy per Si atom -12399.002615 kJ/mol
# Density = 1.875923 g / cm^3
# Si number density = 18.802026 Si / 1000 Ang^3
#
#
#
# Elastic Constant Matrix: (Units=GPa)
#
#
# Indices 1 2 3 4 5 6 
#
# 1 66.2252 20.8742 28.6229 0.0002 2.7385 0.0000
# 2 20.8742 48.1409 20.6712 0.0004 0.2306 -0.0001
# 3 28.6229 20.6712 122.3678 0.0001 0.2204 -0.0001
# 4 0.0002 0.0004 0.0001 23.0504 -0.0001 1.3486
# 5 2.7385 0.2306 0.2204 -0.0001 31.5563 0.0001
# 6 0.0000 -0.0001 -0.0001 1.3486 0.0001 27.3633
#
#
#
# Elastic Compliance Matrix: (Units=1/GPa)
#
#
# Indices 1 2 3 4 5 6 
#
# 1 0.018674 -0.006701 -0.003233 0.000000 -0.001549 0.000000
# 2 -0.006701 0.024802 -0.002623 0.000000 0.000419 0.000000
# 3 -0.003233 -0.002623 0.009371 0.000000 0.000234 0.000000
# 4 0.000000 0.000000 0.000000 0.043509 0.000000 -0.002144
# 5 -0.001549 0.000419 0.000234 0.000000 0.031819 0.000000
# 6 0.000000 0.000000 0.000000 -0.002144 0.000000 0.036651
#
#
# Mechanical properties :
#
#
# Convention : Reuss Voigt Hill
#
# Bulk Modulus (GPa) = 36.05928 41.89673 38.97800
# Shear Modulus (GPa) = 25.10230 27.49838 26.30034
#
# Velocity S-wave (km/s) = 3.65785 3.82844 3.74412
# Velocity P-wave (km/s) = 6.08768 6.47102 6.28227
#
# Compressibility (1/GPa) = 0.02773211
#
# Stress axis : x y z
#
# Youngs Moduli (GPa) = 53.55127 40.31862 106.71199
#
# Poissons Ratio (x) = 0.27019 0.34501
# Poissons Ratio (y) = 0.35887 0.27991
# Poissons Ratio (z) = 0.17314 0.10576
#
# Static dielectric constant tensor:
#      x y z
#    x 3.368080 0.000000 -0.157990 
#    y 0.000000 3.169170 0.000000 
#    z -0.157990 0.000000 3.829780 
# 
# 
# High freq. dielectric constant tensor:
#      x y z
#    x 1.713450 0.000000 -0.008090 
#    y 0.000000 1.705490 0.000000 
#    z -0.008090 0.000000 1.746670 
# 
# From -- ./inp_files/275317.got.cif
#   From: 2010.06.25/outbox.cif.g09.slc.cpg/sg12_138_cif.got.tgz:275317.got - 2010.06.28 00:19:55.
