data_PCOD8101637
_publ_section_title
;
Structure prediction by ZEFSAII (Michael W. Deem and Ramdas Pophale) SiO2 
 PCOD8101637
Probable space group: C 2/M
;
_chemical_formula_sum "Si O2"
_cell_formula_units_Z 64
_cell_length_a 15.584417
_cell_length_b 24.412435
_cell_length_c 12.459904
_cell_angle_alpha 90.000000
_cell_angle_beta 137.482445
_cell_angle_gamma 90.000000
_cell_volume 3203.648593
_symmetry_space_group_name_H-M "C 2/M"
_symmetry_group_IT_number 12
_symmetry_cell_setting 'monoclinic'
loop_
_space_group_symop_operation_xyz
x,y,z
-x,y,-z
-x,-y,-z
x,-y,z
1/2+x,1/2+y,z
1/2-x,1/2+y,-z
1/2-x,1/2-y,-z
1/2+x,1/2-y,z
loop_
_atom_site_type_symbol
_atom_site_label
_atom_site_fract_x
_atom_site_fract_y
_atom_site_fract_z
Si Si1 0.888041 0.307882 0.813349
Si Si2 0.373641 0.729076 0.319583
Si Si3 0.380483 0.352595 0.140288
Si Si4 0.262414 0.158583 0.190577
Si Si5 0.640851 0.060987 0.586694
Si Si6 0.393823 0.690401 0.767900
Si Si7 0.477260 0.437161 0.604700
Si Si8 0.270932 0.121526 0.532297
O O1 0.751447 0.295970 0.741190
O O2 0.928970 0.254191 0.783387
O O3 0.869357 0.357958 0.713571
O O4 0.000000 0.324025 0.000000
O O5 0.500000 0.711780 0.500000
O O6 0.383058 0.702432 0.211738
O O7 0.371580 0.795222 0.305534
O O8 0.492408 0.349606 0.156539
O O9 0.401024 0.407465 0.228472
O O10 0.253659 0.353603 0.951154
O O11 0.283248 0.100976 0.266302
O O12 0.138257 0.183848 0.135052
O O13 0.500000 0.061434 0.500000
O O14 0.651644 0.079998 0.472836
O O15 0.698914 0.000000 0.648897
O O16 0.275239 0.673284 0.582072
O O17 0.500000 0.431789 0.500000
O O18 0.475184 0.500000 0.640336
O O19 0.346550 0.408528 0.518217
#
# Coordination Sequence:
#
# PCOD8101637 Si02
#       8
#     8   8   8   8   8   8   8   8
#     4  11  22  36  56  85 120 152 189 238 293 347
#     4  11  22  37  57  86 120 155 192 231 284 355
#     4  11  20  34  57  84 116 147 185 239 293 339
#     4  10  21  35  54  82 115 148 187 237 291 344
#     4  10  22  39  56  75 104 145 195 242 282 339
#     4   9  19  35  52  79 115 151 184 222 282 354
#     4  10  21  38  60  84 111 148 195 242 291 351
#     4  10  20  36  59  81 107 150 192 235 288 349
#
# _framework density 19.977222999999999
#
# number of rings (size 3 to 8) (size 9 to 14) (size 15 to 20)
#    0.000    1.750    0.000    6.000    0.000    4.500 
#    0.000    0.000    0.000    7.500    0.000    0.000 
#    0.000    0.000    0.000    0.000    0.000    0.000 
#
# Total GULP energy -396665.145722 kJ/mol
# GULP energy per Si atom -12395.785804 kJ/mol
# Density = 1.993175 g / cm^3
# Si number density = 19.977223 Si / 1000 Ang^3
#
#
#
# Elastic Constant Matrix: (Units=GPa)
#
#
# Indices 1 2 3 4 5 6 
#
# 1 70.8157 37.8215 37.4078 0.0000 -11.1106 0.0000
# 2 37.8215 138.3740 51.9475 0.0000 -19.8729 0.0000
# 3 37.4078 51.9475 119.3715 0.0000 -19.6512 0.0000
# 4 0.0000 0.0000 0.0000 27.6072 0.0000 1.9718
# 5 -11.1106 -19.8729 -19.6512 0.0000 28.7787 0.0000
# 6 0.0000 0.0000 0.0000 1.9718 0.0000 30.4896
#
#
#
# Elastic Compliance Matrix: (Units=1/GPa)
#
#
# Indices 1 2 3 4 5 6 
#
# 1 0.018264 -0.003191 -0.003985 0.000000 0.002127 0.000000
# 2 -0.003191 0.009587 -0.002574 0.000000 0.003630 0.000000
# 3 -0.003985 -0.002574 0.011492 0.000000 0.004531 0.000000
# 4 0.000000 0.000000 0.000000 0.036391 0.000000 -0.002353
# 5 0.002127 0.003630 0.004531 0.000000 0.041170 0.000000
# 6 0.000000 0.000000 0.000000 -0.002353 0.000000 0.032950
#
#
# Mechanical properties :
#
#
# Convention : Reuss Voigt Hill
#
# Bulk Modulus (GPa) = 50.39531 64.76832 57.58182
# Shear Modulus (GPa) = 28.41432 30.80072 29.60752
#
# Velocity S-wave (km/s) = 3.77548 3.93083 3.85393
# Velocity P-wave (km/s) = 6.65483 7.28652 6.97783
#
# Compressibility (1/GPa) = 0.01984312
#
# Stress axis : x y z
#
# Youngs Moduli (GPa) = 54.75299 104.31094 87.01564
#
# Poissons Ratio (x) = 0.33282 0.34674
# Poissons Ratio (y) = 0.17470 0.22401
# Poissons Ratio (z) = 0.21818 0.26854
#
# Static dielectric constant tensor:
#      x y z
#    x 3.840920 0.000000 -0.112150 
#    y 0.000000 3.849260 0.000000 
#    z -0.112150 0.000000 3.572770 
# 
# 
# High freq. dielectric constant tensor:
#      x y z
#    x 1.786200 0.000000 -0.012650 
#    y 0.000000 1.771320 0.000000 
#    z -0.012650 0.000000 1.768930 
# 
# From -- ./inp_files/149796.got.cif
#   From: 2010.06.25/outbox.cif.g09.slc.cpg/sg12_75_cif.got.tgz:149796.got - 2010.06.28 00:19:55.
