data_PCOD8101149
_publ_section_title
;
Structure prediction by ZEFSAII (Michael W. Deem and Ramdas Pophale) SiO2 
 PCOD8101149
Probable space group: C 2/M
;
_chemical_formula_sum "Si O2"
_cell_formula_units_Z 64
_cell_length_a 24.139687
_cell_length_b 8.532594
_cell_length_c 30.945206
_cell_angle_alpha 90.000000
_cell_angle_beta 150.772490
_cell_angle_gamma 90.000000
_cell_volume 3112.245864
_symmetry_space_group_name_H-M "C 2/M"
_symmetry_group_IT_number 12
_symmetry_cell_setting 'monoclinic'
loop_
_space_group_symop_operation_xyz
x,y,z
-x,y,-z
-x,-y,-z
x,-y,z
1/2+x,1/2+y,z
1/2-x,1/2+y,-z
1/2-x,1/2-y,-z
1/2+x,1/2-y,z
loop_
_atom_site_type_symbol
_atom_site_label
_atom_site_fract_x
_atom_site_fract_y
_atom_site_fract_z
Si Si1 0.857572 0.322011 0.814589
Si Si2 0.248264 0.684348 0.915461
Si Si3 0.374665 0.317126 0.378721
Si Si4 0.874548 0.677909 0.922098
Si Si5 0.093219 0.317229 0.506684
Si Si6 0.726215 0.186951 0.436036
Si Si7 0.999200 0.684797 0.232324
Si Si8 0.455081 0.317887 0.110716
O O1 0.890433 0.500000 0.824716
O O2 0.751643 0.258398 0.715900
O O3 0.816208 0.312311 0.835861
O O4 0.964680 0.213770 0.875994
O O5 0.239678 0.500000 0.913227
O O6 0.299675 0.724495 0.904142
O O7 0.121178 0.756446 0.832850
O O8 0.329953 0.743079 0.010455
O O9 0.390020 0.500000 0.378424
O O10 0.388355 0.287287 0.438625
O O11 0.460218 0.216394 0.406404
O O12 0.884360 0.500000 0.946421
O O13 0.000000 0.748566 0.000000
O O14 0.115383 0.500000 0.530302
O O15 0.171791 0.256177 0.522257
O O16 0.750000 0.250000 0.500000
O O17 0.605900 0.247889 0.333579
O O18 0.730048 0.000000 0.438682
O O19 0.999729 0.500000 0.236880
O O20 0.007789 0.728663 0.187697
O O21 0.452176 0.500000 0.119951
#
# Coordination Sequence:
#
# PCOD8101149 Si02
#       8
#     8   8   8   8   8   8   8   8
#     4  10  21  36  56  84 117 155 195 235 284 342
#     4  10  22  39  58  85 119 155 196 241 289 339
#     4  10  20  36  59  87 118 152 194 242 291 345
#     4  10  20  36  57  80 111 152 193 230 276 335
#     4  11  22  38  60  86 118 151 189 239 297 354
#     4  11  24  43  65  87 115 154 197 244 297 354
#     4  10  23  42  62  85 116 154 195 239 291 348
#     4  11  22  35  58  89 120 154 195 242 289 338
#
# _framework density 20.563929000000002
#
# number of rings (size 3 to 8) (size 9 to 14) (size 15 to 20)
#    0.000    1.625    1.250    4.125    0.000    7.750 
#    0.000    2.500    0.000    0.000    0.000    0.000 
#    0.000    0.000    0.000    0.000    0.000    0.000 
#
# Total GULP energy -396652.105242 kJ/mol
# GULP energy per Si atom -12395.378289 kJ/mol
# Density = 2.051712 g / cm^3
# Si number density = 20.563929 Si / 1000 Ang^3
#
#
#
# Elastic Constant Matrix: (Units=GPa)
#
#
# Indices 1 2 3 4 5 6 
#
# 1 124.9946 16.9545 60.0748 0.0001 7.9018 0.0003
# 2 16.9545 35.7023 26.9912 0.0009 5.5370 -0.0006
# 3 60.0748 26.9912 108.6167 -0.0006 4.1038 -0.0004
# 4 0.0001 0.0009 -0.0006 22.1567 -0.0002 -0.8768
# 5 7.9018 5.5370 4.1038 -0.0002 28.3573 0.0000
# 6 0.0003 -0.0006 -0.0004 -0.8768 0.0000 34.5772
#
#
#
# Elastic Compliance Matrix: (Units=1/GPa)
#
#
# Indices 1 2 3 4 5 6 
#
# 1 0.011038 -0.000439 -0.005915 0.000000 -0.002134 0.000000
# 2 -0.000439 0.035389 -0.008341 -0.000002 -0.005581 0.000001
# 3 -0.005915 -0.008341 0.014506 0.000001 0.001178 0.000000
# 4 0.000000 -0.000002 0.000001 0.045178 0.000001 0.001146
# 5 -0.002134 -0.005581 0.001178 0.000001 0.036778 0.000000
# 6 0.000000 0.000001 0.000000 0.001146 0.000000 0.028950
#
#
# Mechanical properties :
#
#
# Convention : Reuss Voigt Hill
#
# Bulk Modulus (GPa) = 31.70184 53.03941 42.37062
# Shear Modulus (GPa) = 23.61351 28.03779 25.82565
#
# Velocity S-wave (km/s) = 3.39233 3.69649 3.54767
# Velocity P-wave (km/s) = 5.54920 6.63831 6.11804
#
# Compressibility (1/GPa) = 0.03154391
#
# Stress axis : x y z
#
# Youngs Moduli (GPa) = 90.59843 28.25751 68.93481
#
# Poissons Ratio (x) = 0.01240 0.40776
# Poissons Ratio (y) = 0.03975 0.57496
# Poissons Ratio (z) = 0.53591 0.23568
#
# Static dielectric constant tensor:
#      x y z
#    x 3.838790 0.000000 0.272420 
#    y 0.000000 3.557110 0.000000 
#    z 0.272420 0.000000 4.202640 
# 
# 
# High freq. dielectric constant tensor:
#      x y z
#    x 1.805230 0.000000 0.007950 
#    y 0.000000 1.790740 0.000000 
#    z 0.007950 0.000000 1.815410 
# 
# From -- ./inp_files/382404.got.cif
#   From: 2010.06.25/outbox.cif.g09.slc.cpg/sg12_192_cif.got.tgz:382404.got - 2010.06.28 00:19:55.
