data_PCOD8102953
_publ_section_title
;
Structure prediction by ZEFSAII (Michael W. Deem and Ramdas Pophale) SiO2 
 PCOD8102953
Probable space group: C 2/M
;
_chemical_formula_sum "Si O2"
_cell_formula_units_Z 64
_cell_length_a 18.293114
_cell_length_b 14.492899
_cell_length_c 18.686415
_cell_angle_alpha 90.000000
_cell_angle_beta 141.944674
_cell_angle_gamma 90.000000
_cell_volume 3053.845788
_symmetry_space_group_name_H-M "C 2/M"
_symmetry_group_IT_number 12
_symmetry_cell_setting 'monoclinic'
loop_
_space_group_symop_operation_xyz
x,y,z
-x,y,-z
-x,-y,-z
x,-y,z
1/2+x,1/2+y,z
1/2-x,1/2+y,-z
1/2-x,1/2-y,-z
1/2+x,1/2-y,z
loop_
_atom_site_type_symbol
_atom_site_label
_atom_site_fract_x
_atom_site_fract_y
_atom_site_fract_z
Si Si1 0.046770 0.890625 0.905528
Si Si2 0.057822 0.894375 0.475055
Si Si3 0.777728 0.390482 0.172948
Si Si4 0.671125 0.894583 0.282681
Si Si5 0.524596 0.106033 0.304228
Si Si6 0.517276 0.602451 0.293175
Si Si7 0.186207 0.789420 0.236496
Si Si8 0.237576 0.670066 0.548518
O O1 0.053315 0.852097 0.828070
O O2 0.938404 0.842951 0.863148
O O3 0.022006 0.000000 0.886339
O O4 0.168157 0.865584 0.037563
O O5 0.199001 0.891517 0.582262
O O6 0.007238 0.845563 0.362791
O O7 0.000000 0.844764 0.500000
O O8 0.013852 0.000000 0.440081
O O9 0.783057 0.500000 0.194770
O O10 0.767845 0.331242 0.237572
O O11 0.895050 0.353830 0.222732
O O12 0.580551 0.854389 0.273482
O O13 0.663061 0.821961 0.210105
O O14 0.642175 0.000000 0.235290
O O15 0.611375 0.121364 0.438474
O O16 0.508639 0.000000 0.276385
O O17 0.468416 0.500000 0.265693
O O18 0.655951 0.597659 0.379056
O O19 0.258753 0.795408 0.366859
O O20 0.250000 0.750000 0.500000
#
# Coordination Sequence:
#
# PCOD8102953 Si02
#       8
#     8   8   8   8   8   8   8   8
#     4   9  19  36  61  86 116 157 202 251 302 361
#     4   9  16  29  52  84 117 150 194 247 295 340
#     4  10  22  40  61  91 122 155 199 252 313 363
#     4  10  20  38  59  84 120 165 204 238 292 365
#     4  10  20  37  60  83 122 165 197 240 301 374
#     4   9  16  29  52  81 110 146 191 238 291 347
#     4  11  21  35  58  89 120 156 198 252 306 357
#     4  11  19  32  53  82 118 152 196 238 290 364
#
# _framework density 20.957180999999999
#
# number of rings (size 3 to 8) (size 9 to 14) (size 15 to 20)
#    0.000    2.125    2.500    1.125    0.000    3.000 
#    4.500    1.875    0.000    3.000    0.000    4.375 
#    0.000    0.000    0.000    0.000    0.000    0.000 
#
# Total GULP energy -396441.271354 kJ/mol
# GULP energy per Si atom -12388.789730 kJ/mol
# Density = 2.090948 g / cm^3
# Si number density = 20.957181 Si / 1000 Ang^3
#
#
#
# Elastic Constant Matrix: (Units=GPa)
#
#
# Indices 1 2 3 4 5 6 
#
# 1 131.6443 35.2499 40.7046 0.0000 -5.7503 0.0000
# 2 35.2499 60.4573 19.4552 0.0000 -8.4708 0.0000
# 3 40.7046 19.4552 85.5385 0.0000 -2.6814 0.0000
# 4 0.0000 0.0000 0.0000 12.1589 0.0000 -9.3567
# 5 -5.7503 -8.4708 -2.6814 0.0000 26.9467 0.0000
# 6 0.0000 0.0000 0.0000 -9.3567 0.0000 21.5618
#
#
#
# Elastic Compliance Matrix: (Units=1/GPa)
#
#
# Indices 1 2 3 4 5 6 
#
# 1 0.009981 -0.004585 -0.003697 0.000000 0.000321 0.000000
# 2 -0.004585 0.020717 -0.002364 0.000000 0.005299 0.000000
# 3 -0.003697 -0.002364 0.013983 0.000000 -0.000141 0.000000
# 4 0.000000 0.000000 0.000000 0.123479 0.000000 0.053583
# 5 0.000321 0.005299 -0.000141 0.000000 0.038830 0.000000
# 6 0.000000 0.000000 0.000000 0.053583 0.000000 0.069631
#
#
# Mechanical properties :
#
#
# Convention : Reuss Voigt Hill
#
# Bulk Modulus (GPa) = 42.75387 52.05106 47.40247
# Shear Modulus (GPa) = 16.35544 24.28218 20.31881
#
# Velocity S-wave (km/s) = 2.79663 3.40760 3.11712
# Velocity P-wave (km/s) = 5.55636 6.35398 5.96851
#
# Compressibility (1/GPa) = 0.02338969
#
# Stress axis : x y z
#
# Youngs Moduli (GPa) = 100.19099 48.26945 71.51517
#
# Poissons Ratio (x) = 0.22131 0.26437
# Poissons Ratio (y) = 0.45936 0.16907
# Poissons Ratio (z) = 0.37038 0.11411
#
# Static dielectric constant tensor:
#      x y z
#    x 4.170240 0.000000 -0.065670 
#    y 0.000000 3.812850 0.000000 
#    z -0.065670 0.000000 3.789670 
# 
# 
# High freq. dielectric constant tensor:
#      x y z
#    x 1.812660 0.000000 -0.005280 
#    y 0.000000 1.812610 0.000000 
#    z -0.005280 0.000000 1.798670 
# 
# From -- ./inp_files/278176.got.cif
#   From: 2010.06.25/outbox.cif.g09.slc.cpg/sg12_140_cif.got.tgz:278176.got - 2010.06.28 00:19:55.
